MODEL 1
REMARK VINA RESULT:     -10.1      0.000      0.000
REMARK SMILES Cc1cc(OC(F)(F)F)cc2c1O[C@H](C(F)(F)F)C(C(=O)OCCOCCOCCOC(=O)c1ccc(-c3c4nc(c(-c5c(F)cc(S(=O)(=O)[O-])cc5F)c5ccc([nH]5)c(-c5c(F)cc(S(=O)(=O)[O-])cc5F)c5nc(c(-c6c(F)cc(S(=O)(=O)[O-])cc6F)c6ccc3[nH]6)C=C5)C=C4)cc1)=C2
REMARK SMILES IDX 27 1 26 2 25 3 24 4 23 5 22 6 20 7 21 8 19 9 1 10 2 11 3 12
REMARK SMILES IDX 12 13 4 14 11 15 13 16 10 17 100 18 14 19 5 20 6 21 7 22
REMARK SMILES IDX 8 23 9 24 15 25 16 26 17 27 18 28 28 29 29 30 30 31 31 32
REMARK SMILES IDX 32 33 33 34 34 35 35 36 99 37 36 38 98 39 37 40 38 41 39 42
REMARK SMILES IDX 92 43 40 44 97 45 91 46 93 47 41 48 96 49 90 50 89 51 42 53
REMARK SMILES IDX 76 54 55 55 75 56 56 57 59 58 74 59 94 60 57 61 58 62 73 64
REMARK SMILES IDX 95 65 60 66 43 67 44 68 53 69 45 70 46 71 52 72 54 73 47 74
REMARK SMILES IDX 48 75 49 76 50 77 51 78 77 79 78 80 87 81 79 82 80 83 86 84
REMARK SMILES IDX 88 85 81 86 82 87 83 88 84 89 85 90 61 91 62 92 71 93 63 94
REMARK SMILES IDX 64 95 70 96 72 97 65 98 66 99 67 100 68 101 69 102
REMARK H PARENT 93 52 59 63
REMARK Flexibility Score: inf
ROOT
ATOM      1  C   UNL A   1      38.516  22.949  26.264  1.00  0.00     0.188 C 
ENDROOT
BRANCH   1   2
ATOM      2  C   UNL A   1      38.257  21.599  25.559  1.00  0.00     0.188 C 
BRANCH   2   3
ATOM      3  O   UNL A   1      37.062  21.525  24.821  1.00  0.00    -0.376 OA
BRANCH   3   4
ATOM      4  C   UNL A   1      36.040  20.601  25.131  1.00  0.00     0.202 C 
BRANCH   4   5
ATOM      5  C   UNL A   1      34.527  20.877  25.102  1.00  0.00     0.261 C 
BRANCH   5   6
ATOM      6  O   UNL A   1      34.083  22.084  24.485  1.00  0.00    -0.460 OA
BRANCH   6   7
ATOM      7  C   UNL A   1      33.199  22.821  25.198  1.00  0.00     0.338 C 
ATOM      8  O   UNL A   1      32.418  22.411  26.041  1.00  0.00    -0.246 OA
BRANCH   7   9
ATOM      9  C   UNL A   1      33.386  24.245  24.867  1.00  0.00     0.087 C 
ATOM     10  C   UNL A   1      33.444  28.862  22.594  1.00  0.00     0.048 C 
ATOM     11  C   UNL A   1      33.610  28.324  23.989  1.00  0.00    -0.005 A 
ATOM     12  C   UNL A   1      33.775  29.240  25.044  1.00  0.00     0.054 A 
ATOM     13  C   UNL A   1      33.606  26.948  24.266  1.00  0.00     0.131 A 
ATOM     14  C   UNL A   1      33.920  28.798  26.359  1.00  0.00     0.130 A 
ATOM     15  C   UNL A   1      33.721  26.501  25.585  1.00  0.00     0.021 A 
ATOM     16  O   UNL A   1      33.485  26.101  23.202  1.00  0.00    -0.475 OA
ATOM     17  C   UNL A   1      33.901  27.425  26.621  1.00  0.00     0.058 A 
ATOM     18  C   UNL A   1      33.593  25.084  25.888  1.00  0.00     0.027 C 
ATOM     19  C   UNL A   1      33.343  24.676  23.426  1.00  0.00     0.316 C 
BRANCH  14  20
ATOM     20  O   UNL A   1      34.081  29.582  27.465  1.00  0.00    -0.406 OA
BRANCH  20  21
ATOM     21  C   UNL A   1      35.400  29.983  27.804  1.00  0.00     0.573 C 
ATOM     22  F   UNL A   1      35.656  29.751  29.110  1.00  0.00    -0.132 F 
ATOM     23  F   UNL A   1      36.313  29.330  27.050  1.00  0.00    -0.132 F 
ATOM     24  F   UNL A   1      35.533  31.305  27.574  1.00  0.00    -0.132 F 
ENDBRANCH  20  21
ENDBRANCH  14  20
BRANCH  19  25
ATOM     25  C   UNL A   1      32.067  24.211  22.706  1.00  0.00     0.430 C 
ATOM     26  F   UNL A   1      31.767  25.026  21.664  1.00  0.00    -0.167 F 
ATOM     27  F   UNL A   1      32.201  22.966  22.190  1.00  0.00    -0.167 F 
ATOM     28  F   UNL A   1      30.994  24.195  23.528  1.00  0.00    -0.167 F 
ENDBRANCH  19  25
ENDBRANCH   7   9
ENDBRANCH   6   7
ENDBRANCH   5   6
ENDBRANCH   4   5
ENDBRANCH   3   4
ENDBRANCH   2   3
ENDBRANCH   1   2
BRANCH   1  29
ATOM     29  O   UNL A   1      39.750  23.161  26.938  1.00  0.00    -0.376 OA
BRANCH  29  30
ATOM     30  C   UNL A   1      40.873  22.368  26.563  1.00  0.00     0.202 C 
BRANCH  30  31
ATOM     31  C   UNL A   1      42.180  23.068  26.175  1.00  0.00     0.261 C 
BRANCH  31  32
ATOM     32  O   UNL A   1      42.057  24.495  26.043  1.00  0.00    -0.460 OA
BRANCH  32  33
ATOM     33  C   UNL A   1      43.076  25.219  26.570  1.00  0.00     0.338 C 
ATOM     34  O   UNL A   1      44.244  25.217  26.222  1.00  0.00    -0.246 OA
BRANCH  33  35
ATOM     35  C   UNL A   1      42.533  26.184  27.544  1.00  0.00     0.060 A 
ATOM     36  C   UNL A   1      43.203  27.402  27.719  1.00  0.00     0.016 A 
ATOM     37  C   UNL A   1      41.421  25.865  28.324  1.00  0.00     0.016 A 
ATOM     38  C   UNL A   1      42.766  28.307  28.683  1.00  0.00     0.010 A 
ATOM     39  C   UNL A   1      41.008  26.755  29.320  1.00  0.00     0.010 A 
ATOM     40  C   UNL A   1      41.696  27.964  29.522  1.00  0.00    -0.014 A 
BRANCH  40  41
ATOM     41  C   UNL A   1      41.456  28.762  30.745  1.00  0.00     0.031 A 
ATOM     42  C   UNL A   1      40.344  29.776  30.719  1.00  0.00     0.074 A 
ATOM     43  C   UNL A   1      42.183  28.576  31.861  1.00  0.00     0.049 A 
ATOM     44  N   UNL A   1      39.950  30.598  31.656  1.00  0.00    -0.248 NA
ATOM     45  C   UNL A   1      39.569  29.869  29.469  1.00  0.00     0.031 C 
ATOM     46  C   UNL A   1      43.248  27.588  32.025  1.00  0.00     0.029 A 
ATOM     47  N   UNL A   1      42.134  29.221  33.072  1.00  0.00    -0.354 N 
ATOM     48  C   UNL A   1      38.869  31.287  31.119  1.00  0.00     0.074 A 
ATOM     49  C   UNL A   1      38.689  30.814  29.765  1.00  0.00     0.031 C 
ATOM     50  C   UNL A   1      43.760  27.701  33.263  1.00  0.00     0.029 A 
ATOM     51  C   UNL A   1      43.079  28.785  33.970  1.00  0.00     0.049 A 
ATOM     52  H   UNL A   1      41.481  29.928  33.278  1.00  0.00     0.167 HD
ATOM     53  C   UNL A   1      38.091  32.225  31.704  1.00  0.00     0.037 A 
ATOM     54  C   UNL A   1      43.368  29.228  35.210  1.00  0.00     0.037 A 
ATOM     55  C   UNL A   1      38.294  32.721  33.038  1.00  0.00     0.049 A 
ATOM     56  C   UNL A   1      42.568  30.366  35.794  1.00  0.00     0.074 A 
ATOM     57  C   UNL A   1      37.567  33.682  33.717  1.00  0.00     0.029 A 
ATOM     58  N   UNL A   1      39.310  32.309  33.887  1.00  0.00    -0.354 N 
ATOM     59  N   UNL A   1      41.537  30.997  35.284  1.00  0.00    -0.248 NA
ATOM     60  C   UNL A   1      42.977  30.860  37.118  1.00  0.00     0.031 C 
ATOM     61  C   UNL A   1      38.172  33.884  34.962  1.00  0.00     0.029 A 
ATOM     62  C   UNL A   1      39.248  33.017  35.074  1.00  0.00     0.049 A 
ATOM     63  H   UNL A   1      39.975  31.615  33.677  1.00  0.00     0.167 HD
ATOM     64  C   UNL A   1      41.162  31.947  36.231  1.00  0.00     0.074 A 
ATOM     65  C   UNL A   1      42.070  31.800  37.350  1.00  0.00     0.031 C 
ATOM     66  C   UNL A   1      40.161  32.859  36.178  1.00  0.00     0.037 A 
BRANCH  53  67
ATOM     67  C   UNL A   1      36.956  32.785  30.898  1.00  0.00     0.058 A 
ATOM     68  C   UNL A   1      35.642  32.327  31.075  1.00  0.00     0.135 A 
ATOM     69  C   UNL A   1      37.176  33.815  29.971  1.00  0.00     0.135 A 
ATOM     70  F   UNL A   1      35.384  31.326  31.933  1.00  0.00    -0.206 F 
ATOM     71  C   UNL A   1      34.582  32.865  30.353  1.00  0.00     0.059 A 
ATOM     72  C   UNL A   1      36.129  34.383  29.253  1.00  0.00     0.059 A 
ATOM     73  F   UNL A   1      38.417  34.278  29.757  1.00  0.00    -0.206 F 
ATOM     74  C   UNL A   1      34.836  33.897  29.446  1.00  0.00     0.060 A 
BRANCH  74  75
ATOM     75  S   UNL A   1      33.445  34.598  28.535  1.00  0.00     0.124 S 
ATOM     76  O   UNL A   1      34.082  35.714  27.842  1.00  0.00    -0.237 OA
ATOM     77  O   UNL A   1      33.030  33.482  27.692  1.00  0.00    -0.237 OA
ATOM     78  O   UNL A   1      32.503  34.971  29.586  1.00  0.00    -0.744 OA
ENDBRANCH  74  75
ENDBRANCH  53  67
BRANCH  54  79
ATOM     79  C   UNL A   1      44.477  28.612  35.987  1.00  0.00     0.058 A 
ATOM     80  C   UNL A   1      45.798  29.055  35.833  1.00  0.00     0.135 A 
ATOM     81  C   UNL A   1      44.242  27.557  36.883  1.00  0.00     0.135 A 
ATOM     82  F   UNL A   1      46.077  30.050  34.977  1.00  0.00    -0.206 F 
ATOM     83  C   UNL A   1      46.851  28.468  36.530  1.00  0.00     0.059 A 
ATOM     84  C   UNL A   1      45.273  26.969  37.608  1.00  0.00     0.059 A 
ATOM     85  F   UNL A   1      42.995  27.098  37.068  1.00  0.00    -0.206 F 
ATOM     86  C   UNL A   1      46.577  27.426  37.418  1.00  0.00     0.060 A 
BRANCH  86  87
ATOM     87  S   UNL A   1      47.945  26.697  38.345  1.00  0.00     0.124 S 
ATOM     88  O   UNL A   1      49.099  27.183  37.599  1.00  0.00    -0.237 OA
ATOM     89  O   UNL A   1      47.754  27.276  39.672  1.00  0.00    -0.237 OA
ATOM     90  O   UNL A   1      47.689  25.264  38.252  1.00  0.00    -0.744 OA
ENDBRANCH  86  87
ENDBRANCH  54  79
BRANCH  66  91
ATOM     91  C   UNL A   1      39.979  33.772  37.359  1.00  0.00     0.058 A 
ATOM     92  C   UNL A   1      40.568  35.044  37.397  1.00  0.00     0.135 A 
ATOM     93  C   UNL A   1      39.128  33.410  38.417  1.00  0.00     0.135 A 
ATOM     94  F   UNL A   1      41.393  35.435  36.413  1.00  0.00    -0.206 F 
ATOM     95  C   UNL A   1      40.326  35.925  38.445  1.00  0.00     0.059 A 
ATOM     96  C   UNL A   1      38.852  34.285  39.463  1.00  0.00     0.059 A 
ATOM     97  F   UNL A   1      38.530  32.209  38.423  1.00  0.00    -0.206 F 
ATOM     98  C   UNL A   1      39.460  35.540  39.470  1.00  0.00     0.060 A 
BRANCH  98  99
ATOM     99  S   UNL A   1      39.106  36.720  40.790  1.00  0.00     0.124 S 
ATOM    100  O   UNL A   1      38.718  37.904  40.030  1.00  0.00    -0.237 OA
ATOM    101  O   UNL A   1      38.030  36.056  41.521  1.00  0.00    -0.237 OA
ATOM    102  O   UNL A   1      40.373  36.821  41.507  1.00  0.00    -0.744 OA
ENDBRANCH  98  99
ENDBRANCH  66  91
ENDBRANCH  40  41
ENDBRANCH  33  35
ENDBRANCH  32  33
ENDBRANCH  31  32
ENDBRANCH  30  31
ENDBRANCH  29  30
ENDBRANCH   1  29
TORSDOF 23
ENDMDL
MODEL 2
REMARK VINA RESULT:      -9.9      1.355      2.136
REMARK SMILES Cc1cc(OC(F)(F)F)cc2c1O[C@H](C(F)(F)F)C(C(=O)OCCOCCOCCOC(=O)c1ccc(-c3c4nc(c(-c5c(F)cc(S(=O)(=O)[O-])cc5F)c5ccc([nH]5)c(-c5c(F)cc(S(=O)(=O)[O-])cc5F)c5nc(c(-c6c(F)cc(S(=O)(=O)[O-])cc6F)c6ccc3[nH]6)C=C5)C=C4)cc1)=C2
REMARK SMILES IDX 27 1 26 2 25 3 24 4 23 5 22 6 20 7 21 8 19 9 1 10 2 11 3 12
REMARK SMILES IDX 12 13 4 14 11 15 13 16 10 17 100 18 14 19 5 20 6 21 7 22
REMARK SMILES IDX 8 23 9 24 15 25 16 26 17 27 18 28 28 29 29 30 30 31 31 32
REMARK SMILES IDX 32 33 33 34 34 35 35 36 99 37 36 38 98 39 37 40 38 41 39 42
REMARK SMILES IDX 92 43 40 44 97 45 91 46 93 47 41 48 96 49 90 50 89 51 42 53
REMARK SMILES IDX 76 54 55 55 75 56 56 57 59 58 74 59 94 60 57 61 58 62 73 64
REMARK SMILES IDX 95 65 60 66 43 67 44 68 53 69 45 70 46 71 52 72 54 73 47 74
REMARK SMILES IDX 48 75 49 76 50 77 51 78 77 79 78 80 87 81 79 82 80 83 86 84
REMARK SMILES IDX 88 85 81 86 82 87 83 88 84 89 85 90 61 91 62 92 71 93 63 94
REMARK SMILES IDX 64 95 70 96 72 97 65 98 66 99 67 100 68 101 69 102
REMARK H PARENT 93 52 59 63
REMARK Flexibility Score: inf
ROOT
ATOM      1  C   UNL A   1      42.921  21.336  26.175  1.00  0.00     0.188 C 
ENDROOT
BRANCH   1   2
ATOM      2  C   UNL A   1      41.419  20.978  26.156  1.00  0.00     0.188 C 
BRANCH   2   3
ATOM      3  O   UNL A   1      40.542  22.066  26.005  1.00  0.00    -0.376 OA
BRANCH   3   4
ATOM      4  C   UNL A   1      39.169  21.977  26.326  1.00  0.00     0.202 C 
BRANCH   4   5
ATOM      5  C   UNL A   1      38.133  23.107  26.197  1.00  0.00     0.261 C 
BRANCH   5   6
ATOM      6  O   UNL A   1      36.783  22.744  25.914  1.00  0.00    -0.460 OA
BRANCH   6   7
ATOM      7  C   UNL A   1      36.451  22.679  24.603  1.00  0.00     0.338 C 
ATOM      8  O   UNL A   1      37.047  22.075  23.727  1.00  0.00    -0.246 OA
BRANCH   7   9
ATOM      9  C   UNL A   1      35.174  23.389  24.398  1.00  0.00     0.087 C 
ATOM     10  C   UNL A   1      30.257  24.645  23.546  1.00  0.00     0.048 C 
ATOM     11  C   UNL A   1      31.480  25.317  24.108  1.00  0.00    -0.005 A 
ATOM     12  C   UNL A   1      31.350  26.622  24.621  1.00  0.00     0.054 A 
ATOM     13  C   UNL A   1      32.734  24.689  24.136  1.00  0.00     0.131 A 
ATOM     14  C   UNL A   1      32.447  27.288  25.166  1.00  0.00     0.130 A 
ATOM     15  C   UNL A   1      33.830  25.341  24.708  1.00  0.00     0.021 A 
ATOM     16  O   UNL A   1      32.815  23.441  23.587  1.00  0.00    -0.475 OA
ATOM     17  C   UNL A   1      33.687  26.644  25.199  1.00  0.00     0.058 A 
ATOM     18  C   UNL A   1      35.099  24.646  24.850  1.00  0.00     0.027 C 
ATOM     19  C   UNL A   1      34.046  22.682  23.698  1.00  0.00     0.316 C 
BRANCH  14  20
ATOM     20  O   UNL A   1      32.449  28.546  25.698  1.00  0.00    -0.406 OA
BRANCH  20  21
ATOM     21  C   UNL A   1      32.318  28.668  27.106  1.00  0.00     0.573 C 
ATOM     22  F   UNL A   1      31.456  27.750  27.594  1.00  0.00    -0.132 F 
ATOM     23  F   UNL A   1      33.516  28.521  27.717  1.00  0.00    -0.132 F 
ATOM     24  F   UNL A   1      31.844  29.896  27.401  1.00  0.00    -0.132 F 
ENDBRANCH  20  21
ENDBRANCH  14  20
BRANCH  19  25
ATOM     25  C   UNL A   1      33.707  21.327  24.337  1.00  0.00     0.430 C 
ATOM     26  F   UNL A   1      33.238  21.483  25.600  1.00  0.00    -0.167 F 
ATOM     27  F   UNL A   1      32.743  20.669  23.650  1.00  0.00    -0.167 F 
ATOM     28  F   UNL A   1      34.783  20.511  24.405  1.00  0.00    -0.167 F 
ENDBRANCH  19  25
ENDBRANCH   7   9
ENDBRANCH   6   7
ENDBRANCH   5   6
ENDBRANCH   4   5
ENDBRANCH   3   4
ENDBRANCH   2   3
ENDBRANCH   1   2
BRANCH   1  29
ATOM     29  O   UNL A   1      43.559  21.746  24.972  1.00  0.00    -0.376 OA
BRANCH  29  30
ATOM     30  C   UNL A   1      43.630  23.140  24.683  1.00  0.00     0.202 C 
BRANCH  30  31
ATOM     31  C   UNL A   1      43.492  24.144  25.833  1.00  0.00     0.261 C 
BRANCH  31  32
ATOM     32  O   UNL A   1      42.170  24.696  25.966  1.00  0.00    -0.460 OA
BRANCH  32  33
ATOM     33  C   UNL A   1      42.092  26.047  25.880  1.00  0.00     0.338 C 
ATOM     34  O   UNL A   1      41.878  26.715  24.883  1.00  0.00    -0.246 OA
BRANCH  33  35
ATOM     35  C   UNL A   1      42.123  26.623  27.236  1.00  0.00     0.060 A 
ATOM     36  C   UNL A   1      41.143  26.222  28.154  1.00  0.00     0.016 A 
ATOM     37  C   UNL A   1      43.062  27.597  27.579  1.00  0.00     0.016 A 
ATOM     38  C   UNL A   1      41.093  26.800  29.420  1.00  0.00     0.010 A 
ATOM     39  C   UNL A   1      42.986  28.207  28.835  1.00  0.00     0.010 A 
ATOM     40  C   UNL A   1      41.984  27.831  29.747  1.00  0.00    -0.014 A 
BRANCH  40  41
ATOM     41  C   UNL A   1      41.715  28.663  30.942  1.00  0.00     0.031 A 
ATOM     42  C   UNL A   1      40.586  29.655  30.871  1.00  0.00     0.074 A 
ATOM     43  C   UNL A   1      42.432  28.525  32.072  1.00  0.00     0.049 A 
ATOM     44  N   UNL A   1      40.166  30.499  31.776  1.00  0.00    -0.248 NA
ATOM     45  C   UNL A   1      39.825  29.695  29.609  1.00  0.00     0.031 C 
ATOM     46  C   UNL A   1      43.512  27.561  32.279  1.00  0.00     0.029 A 
ATOM     47  N   UNL A   1      42.356  29.206  33.261  1.00  0.00    -0.354 N 
ATOM     48  C   UNL A   1      39.080  31.151  31.205  1.00  0.00     0.074 A 
ATOM     49  C   UNL A   1      38.925  30.633  29.864  1.00  0.00     0.031 C 
ATOM     50  C   UNL A   1      44.007  27.722  33.519  1.00  0.00     0.029 A 
ATOM     51  C   UNL A   1      43.297  28.816  34.183  1.00  0.00     0.049 A 
ATOM     52  H   UNL A   1      41.688  29.907  33.437  1.00  0.00     0.167 HD
ATOM     53  C   UNL A   1      38.278  32.093  31.752  1.00  0.00     0.037 A 
ATOM     54  C   UNL A   1      43.563  29.302  35.413  1.00  0.00     0.037 A 
ATOM     55  C   UNL A   1      38.457  32.634  33.071  1.00  0.00     0.049 A 
ATOM     56  C   UNL A   1      42.736  30.443  35.951  1.00  0.00     0.074 A 
ATOM     57  C   UNL A   1      37.705  33.602  33.711  1.00  0.00     0.029 A 
ATOM     58  N   UNL A   1      39.469  32.267  33.945  1.00  0.00    -0.354 N 
ATOM     59  N   UNL A   1      41.701  31.040  35.409  1.00  0.00    -0.248 NA
ATOM     60  C   UNL A   1      43.120  30.985  37.263  1.00  0.00     0.031 C 
ATOM     61  C   UNL A   1      38.290  33.854  34.956  1.00  0.00     0.029 A 
ATOM     62  C   UNL A   1      39.379  33.011  35.109  1.00  0.00     0.049 A 
ATOM     63  H   UNL A   1      40.149  31.579  33.765  1.00  0.00     0.167 HD
ATOM     64  C   UNL A   1      41.298  32.011  36.321  1.00  0.00     0.074 A 
ATOM     65  C   UNL A   1      42.194  31.916  37.454  1.00  0.00     0.031 C 
ATOM     66  C   UNL A   1      40.281  32.904  36.228  1.00  0.00     0.037 A 
BRANCH  53  67
ATOM     67  C   UNL A   1      37.144  32.607  30.915  1.00  0.00     0.058 A 
ATOM     68  C   UNL A   1      35.850  32.080  31.039  1.00  0.00     0.135 A 
ATOM     69  C   UNL A   1      37.341  33.662  30.011  1.00  0.00     0.135 A 
ATOM     70  F   UNL A   1      35.616  31.052  31.872  1.00  0.00    -0.206 F 
ATOM     71  C   UNL A   1      34.789  32.574  30.289  1.00  0.00     0.059 A 
ATOM     72  C   UNL A   1      36.291  34.188  29.265  1.00  0.00     0.059 A 
ATOM     73  F   UNL A   1      38.563  34.193  29.848  1.00  0.00    -0.206 F 
ATOM     74  C   UNL A   1      35.020  33.632  29.406  1.00  0.00     0.060 A 
BRANCH  74  75
ATOM     75  S   UNL A   1      33.626  34.276  28.458  1.00  0.00     0.124 S 
ATOM     76  O   UNL A   1      34.265  35.333  27.680  1.00  0.00    -0.237 OA
ATOM     77  O   UNL A   1      33.196  33.104  27.703  1.00  0.00    -0.237 OA
ATOM     78  O   UNL A   1      32.696  34.732  29.487  1.00  0.00    -0.744 OA
ENDBRANCH  74  75
ENDBRANCH  53  67
BRANCH  54  79
ATOM     79  C   UNL A   1      44.674  28.731  36.221  1.00  0.00     0.058 A 
ATOM     80  C   UNL A   1      45.975  29.242  36.123  1.00  0.00     0.135 A 
ATOM     81  C   UNL A   1      44.459  27.651  37.093  1.00  0.00     0.135 A 
ATOM     82  F   UNL A   1      46.234  30.263  35.292  1.00  0.00    -0.206 F 
ATOM     83  C   UNL A   1      47.030  28.697  36.851  1.00  0.00     0.059 A 
ATOM     84  C   UNL A   1      45.492  27.104  37.848  1.00  0.00     0.059 A 
ATOM     85  F   UNL A   1      43.231  27.127  37.225  1.00  0.00    -0.206 F 
ATOM     86  C   UNL A   1      46.777  27.629  37.713  1.00  0.00     0.060 A 
BRANCH  86  87
ATOM     87  S   UNL A   1      48.146  26.956  38.681  1.00  0.00     0.124 S 
ATOM     88  O   UNL A   1      49.300  27.518  37.990  1.00  0.00    -0.237 OA
ATOM     89  O   UNL A   1      47.872  27.496  40.009  1.00  0.00    -0.237 OA
ATOM     90  O   UNL A   1      47.972  25.513  38.550  1.00  0.00    -0.744 OA
ENDBRANCH  86  87
ENDBRANCH  54  79
BRANCH  66  91
ATOM     91  C   UNL A   1      40.068  33.849  37.377  1.00  0.00     0.058 A 
ATOM     92  C   UNL A   1      40.658  35.122  37.394  1.00  0.00     0.135 A 
ATOM     93  C   UNL A   1      39.190  33.517  38.421  1.00  0.00     0.135 A 
ATOM     94  F   UNL A   1      41.509  35.485  36.422  1.00  0.00    -0.206 F 
ATOM     95  C   UNL A   1      40.388  36.033  38.410  1.00  0.00     0.059 A 
ATOM     96  C   UNL A   1      38.887  34.422  39.435  1.00  0.00     0.059 A 
ATOM     97  F   UNL A   1      38.591  32.317  38.446  1.00  0.00    -0.206 F 
ATOM     98  C   UNL A   1      39.495  35.677  39.422  1.00  0.00     0.060 A 
BRANCH  98  99
ATOM     99  S   UNL A   1      39.107  36.893  40.698  1.00  0.00     0.124 S 
ATOM    100  O   UNL A   1      40.434  37.396  41.039  1.00  0.00    -0.237 OA
ATOM    101  O   UNL A   1      38.239  37.827  39.985  1.00  0.00    -0.237 OA
ATOM    102  O   UNL A   1      38.450  36.104  41.735  1.00  0.00    -0.744 OA
ENDBRANCH  98  99
ENDBRANCH  66  91
ENDBRANCH  40  41
ENDBRANCH  33  35
ENDBRANCH  32  33
ENDBRANCH  31  32
ENDBRANCH  30  31
ENDBRANCH  29  30
ENDBRANCH   1  29
TORSDOF 23
ENDMDL
MODEL 3
REMARK VINA RESULT:      -9.8      5.904     11.811
REMARK SMILES Cc1cc(OC(F)(F)F)cc2c1O[C@H](C(F)(F)F)C(C(=O)OCCOCCOCCOC(=O)c1ccc(-c3c4nc(c(-c5c(F)cc(S(=O)(=O)[O-])cc5F)c5ccc([nH]5)c(-c5c(F)cc(S(=O)(=O)[O-])cc5F)c5nc(c(-c6c(F)cc(S(=O)(=O)[O-])cc6F)c6ccc3[nH]6)C=C5)C=C4)cc1)=C2
REMARK SMILES IDX 27 1 26 2 25 3 24 4 23 5 22 6 20 7 21 8 19 9 1 10 2 11 3 12
REMARK SMILES IDX 12 13 4 14 11 15 13 16 10 17 100 18 14 19 5 20 6 21 7 22
REMARK SMILES IDX 8 23 9 24 15 25 16 26 17 27 18 28 28 29 29 30 30 31 31 32
REMARK SMILES IDX 32 33 33 34 34 35 35 36 99 37 36 38 98 39 37 40 38 41 39 42
REMARK SMILES IDX 92 43 40 44 97 45 91 46 93 47 41 48 96 49 90 50 89 51 42 53
REMARK SMILES IDX 76 54 55 55 75 56 56 57 59 58 74 59 94 60 57 61 58 62 73 64
REMARK SMILES IDX 95 65 60 66 43 67 44 68 53 69 45 70 46 71 52 72 54 73 47 74
REMARK SMILES IDX 48 75 49 76 50 77 51 78 77 79 78 80 87 81 79 82 80 83 86 84
REMARK SMILES IDX 88 85 81 86 82 87 83 88 84 89 85 90 61 91 62 92 71 93 63 94
REMARK SMILES IDX 64 95 70 96 72 97 65 98 66 99 67 100 68 101 69 102
REMARK H PARENT 93 52 59 63
REMARK Flexibility Score: inf
ROOT
ATOM      1  C   UNL A   1      34.988  33.441  30.105  1.00  0.00     0.188 C 
ENDROOT
BRANCH   1   2
ATOM      2  C   UNL A   1      34.172  33.578  28.801  1.00  0.00     0.188 C 
BRANCH   2   3
ATOM      3  O   UNL A   1      33.878  32.370  28.144  1.00  0.00    -0.376 OA
BRANCH   3   4
ATOM      4  C   UNL A   1      34.883  31.446  27.780  1.00  0.00     0.202 C 
BRANCH   4   5
ATOM      5  C   UNL A   1      34.697  29.930  27.599  1.00  0.00     0.261 C 
BRANCH   5   6
ATOM      6  O   UNL A   1      34.000  29.478  26.439  1.00  0.00    -0.460 OA
BRANCH   6   7
ATOM      7  C   UNL A   1      32.686  29.199  26.611  1.00  0.00     0.338 C 
ATOM      8  O   UNL A   1      31.835  29.944  27.068  1.00  0.00    -0.246 OA
BRANCH   7   9
ATOM      9  C   UNL A   1      32.406  27.859  26.064  1.00  0.00     0.087 C 
ATOM     10  C   UNL A   1      30.729  23.867  23.283  1.00  0.00     0.048 C 
ATOM     11  C   UNL A   1      31.819  24.124  24.287  1.00  0.00    -0.005 A 
ATOM     12  C   UNL A   1      32.718  23.080  24.580  1.00  0.00     0.054 A 
ATOM     13  C   UNL A   1      31.966  25.360  24.934  1.00  0.00     0.131 A 
ATOM     14  C   UNL A   1      33.756  23.266  25.493  1.00  0.00     0.130 A 
ATOM     15  C   UNL A   1      33.022  25.561  25.827  1.00  0.00     0.021 A 
ATOM     16  O   UNL A   1      31.042  26.324  24.646  1.00  0.00    -0.475 OA
ATOM     17  C   UNL A   1      33.897  24.508  26.119  1.00  0.00     0.058 A 
ATOM     18  C   UNL A   1      33.249  26.876  26.403  1.00  0.00     0.027 C 
ATOM     19  C   UNL A   1      31.208  27.664  25.176  1.00  0.00     0.316 C 
BRANCH  14  20
ATOM     20  O   UNL A   1      34.691  22.340  25.856  1.00  0.00    -0.406 OA
BRANCH  20  21
ATOM     21  C   UNL A   1      35.024  21.333  24.913  1.00  0.00     0.573 C 
ATOM     22  F   UNL A   1      34.037  20.416  24.814  1.00  0.00    -0.132 F 
ATOM     23  F   UNL A   1      35.256  21.870  23.693  1.00  0.00    -0.132 F 
ATOM     24  F   UNL A   1      36.148  20.705  25.316  1.00  0.00    -0.132 F 
ENDBRANCH  20  21
ENDBRANCH  14  20
BRANCH  19  25
ATOM     25  C   UNL A   1      31.179  28.645  23.995  1.00  0.00     0.430 C 
ATOM     26  F   UNL A   1      30.221  29.591  24.165  1.00  0.00    -0.167 F 
ATOM     27  F   UNL A   1      32.351  29.310  23.858  1.00  0.00    -0.167 F 
ATOM     28  F   UNL A   1      30.927  28.023  22.821  1.00  0.00    -0.167 F 
ENDBRANCH  19  25
ENDBRANCH   7   9
ENDBRANCH   6   7
ENDBRANCH   5   6
ENDBRANCH   4   5
ENDBRANCH   3   4
ENDBRANCH   2   3
ENDBRANCH   1   2
BRANCH   1  29
ATOM     29  O   UNL A   1      34.453  32.696  31.191  1.00  0.00    -0.376 OA
BRANCH  29  30
ATOM     30  C   UNL A   1      35.218  32.599  32.390  1.00  0.00     0.202 C 
BRANCH  30  31
ATOM     31  C   UNL A   1      36.674  32.127  32.305  1.00  0.00     0.261 C 
BRANCH  31  32
ATOM     32  O   UNL A   1      36.843  30.720  32.552  1.00  0.00    -0.460 OA
BRANCH  32  33
ATOM     33  C   UNL A   1      36.949  29.943  31.445  1.00  0.00     0.338 C 
ATOM     34  O   UNL A   1      36.049  29.385  30.842  1.00  0.00    -0.246 OA
BRANCH  33  35
ATOM     35  C   UNL A   1      38.332  30.006  30.938  1.00  0.00     0.060 A 
ATOM     36  C   UNL A   1      38.530  30.213  29.566  1.00  0.00     0.016 A 
ATOM     37  C   UNL A   1      39.417  29.796  31.790  1.00  0.00     0.016 A 
ATOM     38  C   UNL A   1      39.819  30.204  29.038  1.00  0.00     0.010 A 
ATOM     39  C   UNL A   1      40.707  29.744  31.252  1.00  0.00     0.010 A 
ATOM     40  C   UNL A   1      40.909  29.919  29.872  1.00  0.00    -0.014 A 
BRANCH  40  41
ATOM     41  C   UNL A   1      42.213  29.577  29.261  1.00  0.00     0.031 A 
ATOM     42  C   UNL A   1      42.414  28.168  28.769  1.00  0.00     0.074 A 
ATOM     43  C   UNL A   1      43.186  30.494  29.117  1.00  0.00     0.049 A 
ATOM     44  N   UNL A   1      43.464  27.628  28.211  1.00  0.00    -0.248 NA
ATOM     45  C   UNL A   1      41.270  27.250  28.921  1.00  0.00     0.031 C 
ATOM     46  C   UNL A   1      43.089  31.901  29.504  1.00  0.00     0.029 A 
ATOM     47  N   UNL A   1      44.454  30.373  28.607  1.00  0.00    -0.354 N 
ATOM     48  C   UNL A   1      43.103  26.316  27.925  1.00  0.00     0.074 A 
ATOM     49  C   UNL A   1      41.750  26.131  28.400  1.00  0.00     0.031 C 
ATOM     50  C   UNL A   1      44.256  32.509  29.228  1.00  0.00     0.029 A 
ATOM     51  C   UNL A   1      45.190  31.532  28.669  1.00  0.00     0.049 A 
ATOM     52  H   UNL A   1      44.803  29.533  28.229  1.00  0.00     0.167 HD
ATOM     53  C   UNL A   1      43.831  25.354  27.314  1.00  0.00     0.037 A 
ATOM     54  C   UNL A   1      46.474  31.765  28.332  1.00  0.00     0.037 A 
ATOM     55  C   UNL A   1      45.189  25.529  26.877  1.00  0.00     0.049 A 
ATOM     56  C   UNL A   1      47.307  30.639  27.771  1.00  0.00     0.074 A 
ATOM     57  C   UNL A   1      46.017  24.610  26.259  1.00  0.00     0.029 A 
ATOM     58  N   UNL A   1      45.923  26.695  27.028  1.00  0.00    -0.354 N 
ATOM     59  N   UNL A   1      46.950  29.409  27.488  1.00  0.00    -0.248 NA
ATOM     60  C   UNL A   1      48.722  30.930  27.493  1.00  0.00     0.031 C 
ATOM     61  C   UNL A   1      47.269  25.206  26.077  1.00  0.00     0.029 A 
ATOM     62  C   UNL A   1      47.206  26.510  26.542  1.00  0.00     0.049 A 
ATOM     63  H   UNL A   1      45.583  27.531  27.421  1.00  0.00     0.167 HD
ATOM     64  C   UNL A   1      48.087  28.786  26.982  1.00  0.00     0.074 A 
ATOM     65  C   UNL A   1      49.142  29.778  26.986  1.00  0.00     0.031 C 
ATOM     66  C   UNL A   1      48.245  27.509  26.555  1.00  0.00     0.037 A 
BRANCH  53  67
ATOM     67  C   UNL A   1      43.175  24.022  27.097  1.00  0.00     0.058 A 
ATOM     68  C   UNL A   1      43.073  23.084  28.135  1.00  0.00     0.135 A 
ATOM     69  C   UNL A   1      42.608  23.696  25.855  1.00  0.00     0.135 A 
ATOM     70  F   UNL A   1      43.621  23.339  29.334  1.00  0.00    -0.206 F 
ATOM     71  C   UNL A   1      42.438  21.861  27.948  1.00  0.00     0.059 A 
ATOM     72  C   UNL A   1      41.949  22.488  25.651  1.00  0.00     0.059 A 
ATOM     73  F   UNL A   1      42.690  24.556  24.829  1.00  0.00    -0.206 F 
ATOM     74  C   UNL A   1      41.876  21.574  26.702  1.00  0.00     0.060 A 
BRANCH  74  75
ATOM     75  S   UNL A   1      41.035  19.992  26.485  1.00  0.00     0.124 S 
ATOM     76  O   UNL A   1      41.945  19.300  25.577  1.00  0.00    -0.237 OA
ATOM     77  O   UNL A   1      40.987  19.476  27.849  1.00  0.00    -0.237 OA
ATOM     78  O   UNL A   1      39.746  20.367  25.912  1.00  0.00    -0.744 OA
ENDBRANCH  74  75
ENDBRANCH  53  67
BRANCH  54  79
ATOM     79  C   UNL A   1      47.068  33.115  28.528  1.00  0.00     0.058 A 
ATOM     80  C   UNL A   1      47.064  34.062  27.494  1.00  0.00     0.135 A 
ATOM     81  C   UNL A   1      47.665  33.479  29.745  1.00  0.00     0.135 A 
ATOM     82  F   UNL A   1      46.519  33.756  26.307  1.00  0.00    -0.206 F 
ATOM     83  C   UNL A   1      47.642  35.318  27.653  1.00  0.00     0.059 A 
ATOM     84  C   UNL A   1      48.230  34.736  29.936  1.00  0.00     0.059 A 
ATOM     85  F   UNL A   1      47.693  32.610  30.767  1.00  0.00    -0.206 F 
ATOM     86  C   UNL A   1      48.221  35.647  28.880  1.00  0.00     0.060 A 
BRANCH  86  87
ATOM     87  S   UNL A   1      48.934  37.293  29.087  1.00  0.00     0.124 S 
ATOM     88  O   UNL A   1      50.322  37.064  28.705  1.00  0.00    -0.237 OA
ATOM     89  O   UNL A   1      48.138  38.088  28.155  1.00  0.00    -0.237 OA
ATOM     90  O   UNL A   1      48.707  37.583  30.499  1.00  0.00    -0.744 OA
ENDBRANCH  86  87
ENDBRANCH  54  79
BRANCH  66  91
ATOM     91  C   UNL A   1      49.600  27.100  26.049  1.00  0.00     0.058 A 
ATOM     92  C   UNL A   1      50.549  26.512  26.898  1.00  0.00     0.135 A 
ATOM     93  C   UNL A   1      49.915  27.206  24.685  1.00  0.00     0.135 A 
ATOM     94  F   UNL A   1      50.299  26.393  28.211  1.00  0.00    -0.206 F 
ATOM     95  C   UNL A   1      51.768  26.048  26.414  1.00  0.00     0.059 A 
ATOM     96  C   UNL A   1      51.118  26.727  24.174  1.00  0.00     0.059 A 
ATOM     97  F   UNL A   1      49.037  27.750  23.828  1.00  0.00    -0.206 F 
ATOM     98  C   UNL A   1      52.040  26.153  25.048  1.00  0.00     0.060 A 
BRANCH  98  99
ATOM     99  S   UNL A   1      53.599  25.488  24.426  1.00  0.00     0.124 S 
ATOM    100  O   UNL A   1      53.504  25.798  23.003  1.00  0.00    -0.237 OA
ATOM    101  O   UNL A   1      54.587  26.257  25.177  1.00  0.00    -0.237 OA
ATOM    102  O   UNL A   1      53.527  24.070  24.765  1.00  0.00    -0.744 OA
ENDBRANCH  98  99
ENDBRANCH  66  91
ENDBRANCH  40  41
ENDBRANCH  33  35
ENDBRANCH  32  33
ENDBRANCH  31  32
ENDBRANCH  30  31
ENDBRANCH  29  30
ENDBRANCH   1  29
TORSDOF 23
ENDMDL
