MODEL 1
REMARK VINA RESULT:      -9.2      0.000      0.000
REMARK SMILES CC[C@H](C)[C@@H](NC(=O)/C=C/c1csc(C)n1)C(=O)OCCOCCOCCOC(=O)c1ccc(-c2c3nc(c(-c4c(F)cc(S(=O)(=O)[O-])cc4F)c4ccc([nH]4)c(-c4c(F)cc(S(=O)(=O)[O-])cc4F)c4nc(c(-c5c(F)cc(S(=O)(=O)[O-])cc5F)c5ccc2[nH]5)C=C4)C=C3)cc1
REMARK SMILES IDX 23 1 22 2 21 3 20 4 19 5 17 6 18 7 5 8 3 9 4 10 2 11 1 12
REMARK SMILES IDX 6 13 7 14 8 16 9 17 10 18 11 19 12 20 16 21 13 22 14 23
REMARK SMILES IDX 15 24 24 25 25 26 26 27 27 28 28 29 29 30 30 31 31 32 32 33
REMARK SMILES IDX 96 34 33 35 95 36 34 37 35 38 36 39 89 40 37 41 94 42 88 43
REMARK SMILES IDX 90 44 38 45 93 46 87 47 86 48 39 50 73 51 52 52 72 53 53 54
REMARK SMILES IDX 56 55 71 56 91 57 54 58 55 59 70 61 92 62 57 63 40 64 41 65
REMARK SMILES IDX 50 66 42 67 43 68 49 69 51 70 44 71 45 72 46 73 47 74 48 75
REMARK SMILES IDX 74 76 75 77 84 78 76 79 77 80 83 81 85 82 78 83 79 84 80 85
REMARK SMILES IDX 81 86 82 87 58 88 59 89 68 90 60 91 61 92 67 93 69 94 62 95
REMARK SMILES IDX 63 96 64 97 65 98 66 99
REMARK H PARENT 6 15 90 49 56 60
REMARK Flexibility Score: inf
ROOT
ATOM      1  C   UNL A   1      33.063  30.622  27.107  1.00  0.00     0.188 C 
ENDROOT
BRANCH   1   2
ATOM      2  O   UNL A   1      32.765  29.370  26.495  1.00  0.00    -0.376 OA
BRANCH   2   3
ATOM      3  C   UNL A   1      32.325  28.372  27.410  1.00  0.00     0.202 C 
BRANCH   3   4
ATOM      4  C   UNL A   1      31.934  27.004  26.831  1.00  0.00     0.261 C 
BRANCH   4   5
ATOM      5  O   UNL A   1      32.207  26.627  25.454  1.00  0.00    -0.462 OA
BRANCH   5   6
ATOM      6  C   UNL A   1      32.440  25.364  25.027  1.00  0.00     0.329 C 
ATOM      7  O   UNL A   1      31.864  24.352  25.405  1.00  0.00    -0.250 OA
BRANCH   6   8
ATOM      8  C   UNL A   1      33.607  25.304  24.034  1.00  0.00     0.195 C 
BRANCH   8   9
ATOM      9  C   UNL A   1      34.650  24.205  24.445  1.00  0.00     0.019 C 
ATOM     10  C   UNL A   1      34.884  24.112  25.962  1.00  0.00     0.010 C 
BRANCH   9  11
ATOM     11  C   UNL A   1      34.350  22.768  23.936  1.00  0.00     0.002 C 
ATOM     12  C   UNL A   1      35.231  21.659  24.493  1.00  0.00     0.004 C 
ENDBRANCH   9  11
ENDBRANCH   8   9
BRANCH   8  13
ATOM     13  N   UNL A   1      33.113  25.131  22.645  1.00  0.00    -0.339 N 
ATOM     14  C   UNL A   1      32.933  26.059  21.657  1.00  0.00     0.244 C 
ATOM     15  H   UNL A   1      32.881  24.206  22.396  1.00  0.00     0.164 HD
ATOM     16  O   UNL A   1      33.090  25.741  20.483  1.00  0.00    -0.270 OA
BRANCH  14  17
ATOM     17  C   UNL A   1      32.333  27.362  21.997  1.00  0.00     0.073 C 
ATOM     18  C   UNL A   1      31.042  27.510  22.332  1.00  0.00     0.035 C 
BRANCH  18  19
ATOM     19  C   UNL A   1      30.417  28.780  22.551  1.00  0.00     0.074 A 
ATOM     20  C   UNL A   1      30.333  29.404  23.780  1.00  0.00     0.095 A 
ATOM     21  N   UNL A   1      29.720  29.399  21.523  1.00  0.00    -0.242 NA
ATOM     22  S   UNL A   1      29.383  30.827  23.646  1.00  0.00    -0.127 S 
ATOM     23  C   UNL A   1      29.116  30.478  21.982  1.00  0.00     0.090 A 
ATOM     24  C   UNL A   1      28.176  31.321  21.191  1.00  0.00     0.079 C 
ENDBRANCH  18  19
ENDBRANCH  14  17
ENDBRANCH   8  13
ENDBRANCH   6   8
ENDBRANCH   5   6
ENDBRANCH   4   5
ENDBRANCH   3   4
ENDBRANCH   2   3
ENDBRANCH   1   2
BRANCH   1  25
ATOM     25  C   UNL A   1      34.526  30.678  27.523  1.00  0.00     0.188 C 
BRANCH  25  26
ATOM     26  O   UNL A   1      34.735  31.415  28.718  1.00  0.00    -0.376 OA
BRANCH  26  27
ATOM     27  C   UNL A   1      35.831  31.025  29.536  1.00  0.00     0.202 C 
BRANCH  27  28
ATOM     28  C   UNL A   1      36.150  31.877  30.777  1.00  0.00     0.261 C 
BRANCH  28  29
ATOM     29  O   UNL A   1      36.957  31.239  31.794  1.00  0.00    -0.460 OA
BRANCH  29  30
ATOM     30  C   UNL A   1      38.142  31.796  32.121  1.00  0.00     0.338 C 
ATOM     31  O   UNL A   1      38.361  32.573  33.041  1.00  0.00    -0.246 OA
BRANCH  30  32
ATOM     32  C   UNL A   1      39.201  31.112  31.345  1.00  0.00     0.060 A 
ATOM     33  C   UNL A   1      40.137  30.322  32.032  1.00  0.00     0.016 A 
ATOM     34  C   UNL A   1      39.275  31.240  29.957  1.00  0.00     0.016 A 
ATOM     35  C   UNL A   1      41.168  29.687  31.340  1.00  0.00     0.010 A 
ATOM     36  C   UNL A   1      40.332  30.635  29.269  1.00  0.00     0.010 A 
ATOM     37  C   UNL A   1      41.304  29.888  29.961  1.00  0.00    -0.014 A 
BRANCH  37  38
ATOM     38  C   UNL A   1      42.595  29.566  29.303  1.00  0.00     0.031 A 
ATOM     39  C   UNL A   1      42.760  28.177  28.745  1.00  0.00     0.074 A 
ATOM     40  C   UNL A   1      43.580  30.470  29.160  1.00  0.00     0.049 A 
ATOM     41  N   UNL A   1      43.818  27.602  28.240  1.00  0.00    -0.248 NA
ATOM     42  C   UNL A   1      41.559  27.324  28.760  1.00  0.00     0.031 C 
ATOM     43  C   UNL A   1      43.516  31.870  29.573  1.00  0.00     0.029 A 
ATOM     44  N   UNL A   1      44.838  30.333  28.626  1.00  0.00    -0.354 N 
ATOM     45  C   UNL A   1      43.420  26.314  27.902  1.00  0.00     0.074 A 
ATOM     46  C   UNL A   1      42.027  26.188  28.267  1.00  0.00     0.031 C 
ATOM     47  C   UNL A   1      44.694  32.460  29.295  1.00  0.00     0.029 A 
ATOM     48  C   UNL A   1      45.607  31.468  28.725  1.00  0.00     0.049 A 
ATOM     49  H   UNL A   1      45.159  29.499  28.212  1.00  0.00     0.167 HD
ATOM     50  C   UNL A   1      44.147  25.323  27.338  1.00  0.00     0.037 A 
ATOM     51  C   UNL A   1      46.906  31.669  28.424  1.00  0.00     0.037 A 
ATOM     52  C   UNL A   1      45.530  25.451  26.967  1.00  0.00     0.049 A 
ATOM     53  C   UNL A   1      47.725  30.529  27.869  1.00  0.00     0.074 A 
ATOM     54  C   UNL A   1      46.364  24.500  26.409  1.00  0.00     0.029 A 
ATOM     55  N   UNL A   1      46.282  26.607  27.116  1.00  0.00    -0.354 N 
ATOM     56  N   UNL A   1      47.351  29.302  27.592  1.00  0.00    -0.248 NA
ATOM     57  C   UNL A   1      49.144  30.797  27.594  1.00  0.00     0.031 C 
ATOM     58  C   UNL A   1      47.632  25.069  26.253  1.00  0.00     0.029 A 
ATOM     59  C   UNL A   1      47.575  26.390  26.671  1.00  0.00     0.049 A 
ATOM     60  H   UNL A   1      45.946  27.456  27.483  1.00  0.00     0.167 HD
ATOM     61  C   UNL A   1      48.482  28.660  27.092  1.00  0.00     0.074 A 
ATOM     62  C   UNL A   1      49.550  29.637  27.093  1.00  0.00     0.031 C 
ATOM     63  C   UNL A   1      48.623  27.379  26.671  1.00  0.00     0.037 A 
BRANCH  50  64
ATOM     64  C   UNL A   1      43.465  24.002  27.132  1.00  0.00     0.058 A 
ATOM     65  C   UNL A   1      43.301  23.081  28.179  1.00  0.00     0.135 A 
ATOM     66  C   UNL A   1      42.971  23.651  25.865  1.00  0.00     0.135 A 
ATOM     67  F   UNL A   1      43.781  23.355  29.402  1.00  0.00    -0.206 F 
ATOM     68  C   UNL A   1      42.696  21.845  27.970  1.00  0.00     0.059 A 
ATOM     69  C   UNL A   1      42.339  22.432  25.640  1.00  0.00     0.059 A 
ATOM     70  F   UNL A   1      43.109  24.493  24.830  1.00  0.00    -0.206 F 
ATOM     71  C   UNL A   1      42.221  21.530  26.696  1.00  0.00     0.060 A 
BRANCH  71  72
ATOM     72  S   UNL A   1      41.446  19.921  26.437  1.00  0.00     0.124 S 
ATOM     73  O   UNL A   1      40.068  20.306  26.148  1.00  0.00    -0.237 OA
ATOM     74  O   UNL A   1      42.203  19.386  25.310  1.00  0.00    -0.237 OA
ATOM     75  O   UNL A   1      41.652  19.235  27.709  1.00  0.00    -0.744 OA
ENDBRANCH  71  72
ENDBRANCH  50  64
BRANCH  51  76
ATOM     76  C   UNL A   1      47.537  32.994  28.683  1.00  0.00     0.058 A 
ATOM     77  C   UNL A   1      48.118  33.295  29.923  1.00  0.00     0.135 A 
ATOM     78  C   UNL A   1      47.555  33.991  27.694  1.00  0.00     0.135 A 
ATOM     79  F   UNL A   1      48.110  32.383  30.907  1.00  0.00    -0.206 F 
ATOM     80  C   UNL A   1      48.690  34.539  30.178  1.00  0.00     0.059 A 
ATOM     81  C   UNL A   1      48.141  35.233  27.916  1.00  0.00     0.059 A 
ATOM     82  F   UNL A   1      47.012  33.753  26.490  1.00  0.00    -0.206 F 
ATOM     83  C   UNL A   1      48.698  35.501  29.165  1.00  0.00     0.060 A 
BRANCH  83  84
ATOM     84  S   UNL A   1      49.492  37.092  29.484  1.00  0.00     0.124 S 
ATOM     85  O   UNL A   1      49.413  37.728  28.173  1.00  0.00    -0.237 OA
ATOM     86  O   UNL A   1      48.637  37.660  30.521  1.00  0.00    -0.237 OA
ATOM     87  O   UNL A   1      50.831  36.715  29.925  1.00  0.00    -0.744 OA
ENDBRANCH  83  84
ENDBRANCH  51  76
BRANCH  63  88
ATOM     88  C   UNL A   1      49.967  26.962  26.140  1.00  0.00     0.058 A 
ATOM     89  C   UNL A   1      50.300  27.098  24.783  1.00  0.00     0.135 A 
ATOM     90  C   UNL A   1      50.957  26.483  27.013  1.00  0.00     0.135 A 
ATOM     91  F   UNL A   1      49.389  27.549  23.906  1.00  0.00    -0.206 F 
ATOM     92  C   UNL A   1      51.562  26.758  24.308  1.00  0.00     0.059 A 
ATOM     93  C   UNL A   1      52.234  26.159  26.564  1.00  0.00     0.059 A 
ATOM     94  F   UNL A   1      50.695  26.345  28.322  1.00  0.00    -0.206 F 
ATOM     95  C   UNL A   1      52.523  26.290  25.206  1.00  0.00     0.060 A 
BRANCH  95  96
ATOM     96  S   UNL A   1      54.170  25.889  24.585  1.00  0.00     0.124 S 
ATOM     97  O   UNL A   1      54.273  24.472  24.919  1.00  0.00    -0.237 OA
ATOM     98  O   UNL A   1      54.055  26.199  23.163  1.00  0.00    -0.237 OA
ATOM     99  O   UNL A   1      55.046  26.777  25.343  1.00  0.00    -0.744 OA
ENDBRANCH  95  96
ENDBRANCH  63  88
ENDBRANCH  37  38
ENDBRANCH  30  32
ENDBRANCH  29  30
ENDBRANCH  28  29
ENDBRANCH  27  28
ENDBRANCH  26  27
ENDBRANCH  25  26
ENDBRANCH   1  25
TORSDOF 25
ENDMDL
MODEL 2
REMARK VINA RESULT:      -9.0      1.478      8.175
REMARK SMILES CC[C@H](C)[C@@H](NC(=O)/C=C/c1csc(C)n1)C(=O)OCCOCCOCCOC(=O)c1ccc(-c2c3nc(c(-c4c(F)cc(S(=O)(=O)[O-])cc4F)c4ccc([nH]4)c(-c4c(F)cc(S(=O)(=O)[O-])cc4F)c4nc(c(-c5c(F)cc(S(=O)(=O)[O-])cc5F)c5ccc2[nH]5)C=C4)C=C3)cc1
REMARK SMILES IDX 23 1 22 2 21 3 20 4 19 5 17 6 18 7 5 8 3 9 4 10 2 11 1 12
REMARK SMILES IDX 6 13 7 14 8 16 9 17 10 18 11 19 12 20 16 21 13 22 14 23
REMARK SMILES IDX 15 24 24 25 25 26 26 27 27 28 28 29 29 30 30 31 31 32 32 33
REMARK SMILES IDX 96 34 33 35 95 36 34 37 35 38 36 39 89 40 37 41 94 42 88 43
REMARK SMILES IDX 90 44 38 45 93 46 87 47 86 48 39 50 73 51 52 52 72 53 53 54
REMARK SMILES IDX 56 55 71 56 91 57 54 58 55 59 70 61 92 62 57 63 40 64 41 65
REMARK SMILES IDX 50 66 42 67 43 68 49 69 51 70 44 71 45 72 46 73 47 74 48 75
REMARK SMILES IDX 74 76 75 77 84 78 76 79 77 80 83 81 85 82 78 83 79 84 80 85
REMARK SMILES IDX 81 86 82 87 58 88 59 89 68 90 60 91 61 92 67 93 69 94 62 95
REMARK SMILES IDX 63 96 64 97 65 98 66 99
REMARK H PARENT 6 15 90 49 56 60
REMARK Flexibility Score: inf
ROOT
ATOM      1  C   UNL A   1      34.197  31.501  27.552  1.00  0.00     0.188 C 
ENDROOT
BRANCH   1   2
ATOM      2  O   UNL A   1      32.808  31.535  27.233  1.00  0.00    -0.376 OA
BRANCH   2   3
ATOM      3  C   UNL A   1      32.288  30.288  26.786  1.00  0.00     0.202 C 
BRANCH   3   4
ATOM      4  C   UNL A   1      33.292  29.240  26.285  1.00  0.00     0.261 C 
BRANCH   4   5
ATOM      5  O   UNL A   1      32.912  28.144  25.408  1.00  0.00    -0.462 OA
BRANCH   5   6
ATOM      6  C   UNL A   1      33.442  27.909  24.185  1.00  0.00     0.329 C 
ATOM      7  O   UNL A   1      34.387  28.499  23.678  1.00  0.00    -0.250 OA
BRANCH   6   8
ATOM      8  C   UNL A   1      32.658  26.836  23.421  1.00  0.00     0.195 C 
BRANCH   8   9
ATOM      9  C   UNL A   1      33.600  25.679  22.933  1.00  0.00     0.019 C 
ATOM     10  C   UNL A   1      34.235  24.875  24.080  1.00  0.00     0.010 C 
BRANCH   9  11
ATOM     11  C   UNL A   1      32.961  24.657  21.952  1.00  0.00     0.002 C 
ATOM     12  C   UNL A   1      33.290  23.192  22.198  1.00  0.00     0.004 C 
ENDBRANCH   9  11
ENDBRANCH   8   9
BRANCH   8  13
ATOM     13  N   UNL A   1      31.515  26.339  24.228  1.00  0.00    -0.339 N 
ATOM     14  C   UNL A   1      30.184  26.641  24.140  1.00  0.00     0.244 C 
ATOM     15  H   UNL A   1      31.751  25.692  24.932  1.00  0.00     0.164 HD
ATOM     16  O   UNL A   1      29.344  25.792  24.422  1.00  0.00    -0.270 OA
BRANCH  14  17
ATOM     17  C   UNL A   1      29.778  28.043  23.930  1.00  0.00     0.073 C 
ATOM     18  C   UNL A   1      29.411  28.528  22.734  1.00  0.00     0.035 C 
BRANCH  18  19
ATOM     19  C   UNL A   1      29.126  29.911  22.489  1.00  0.00     0.074 A 
ATOM     20  C   UNL A   1      29.087  30.882  23.469  1.00  0.00     0.095 A 
ATOM     21  N   UNL A   1      28.728  30.325  21.227  1.00  0.00    -0.242 NA
ATOM     22  S   UNL A   1      28.568  32.371  22.791  1.00  0.00    -0.127 S 
ATOM     23  C   UNL A   1      28.388  31.599  21.264  1.00  0.00     0.090 A 
ATOM     24  C   UNL A   1      27.791  32.348  20.121  1.00  0.00     0.079 C 
ENDBRANCH  18  19
ENDBRANCH  14  17
ENDBRANCH   8  13
ENDBRANCH   6   8
ENDBRANCH   5   6
ENDBRANCH   4   5
ENDBRANCH   3   4
ENDBRANCH   2   3
ENDBRANCH   1   2
BRANCH   1  25
ATOM     25  C   UNL A   1      34.508  32.469  28.684  1.00  0.00     0.188 C 
BRANCH  25  26
ATOM     26  O   UNL A   1      35.011  31.823  29.844  1.00  0.00    -0.376 OA
BRANCH  26  27
ATOM     27  C   UNL A   1      36.127  30.960  29.672  1.00  0.00     0.202 C 
BRANCH  27  28
ATOM     28  C   UNL A   1      36.564  30.092  30.865  1.00  0.00     0.261 C 
BRANCH  28  29
ATOM     29  O   UNL A   1      36.989  30.808  32.049  1.00  0.00    -0.460 OA
BRANCH  29  30
ATOM     30  C   UNL A   1      37.704  31.943  31.895  1.00  0.00     0.338 C 
ATOM     31  O   UNL A   1      37.344  33.081  32.164  1.00  0.00    -0.246 OA
BRANCH  30  32
ATOM     32  C   UNL A   1      39.102  31.566  31.589  1.00  0.00     0.060 A 
ATOM     33  C   UNL A   1      39.639  31.925  30.342  1.00  0.00     0.016 A 
ATOM     34  C   UNL A   1      39.882  30.871  32.515  1.00  0.00     0.016 A 
ATOM     35  C   UNL A   1      40.942  31.561  30.003  1.00  0.00     0.010 A 
ATOM     36  C   UNL A   1      41.175  30.472  32.159  1.00  0.00     0.010 A 
ATOM     37  C   UNL A   1      41.696  30.782  30.889  1.00  0.00    -0.014 A 
BRANCH  37  38
ATOM     38  C   UNL A   1      42.892  30.061  30.385  1.00  0.00     0.031 A 
ATOM     39  C   UNL A   1      44.212  30.784  30.439  1.00  0.00     0.074 A 
ATOM     40  C   UNL A   1      42.836  28.796  29.931  1.00  0.00     0.049 A 
ATOM     41  N   UNL A   1      45.373  30.437  29.954  1.00  0.00    -0.248 NA
ATOM     42  C   UNL A   1      44.214  32.080  31.142  1.00  0.00     0.031 C 
ATOM     43  C   UNL A   1      41.644  27.952  29.908  1.00  0.00     0.029 A 
ATOM     44  N   UNL A   1      43.821  28.003  29.394  1.00  0.00    -0.354 N 
ATOM     45  C   UNL A   1      46.237  31.480  30.268  1.00  0.00     0.074 A 
ATOM     46  C   UNL A   1      45.466  32.476  30.977  1.00  0.00     0.031 C 
ATOM     47  C   UNL A   1      41.962  26.764  29.363  1.00  0.00     0.029 A 
ATOM     48  C   UNL A   1      43.370  26.780  28.960  1.00  0.00     0.049 A 
ATOM     49  H   UNL A   1      44.761  28.286  29.324  1.00  0.00     0.167 HD
ATOM     50  C   UNL A   1      47.556  31.598  29.992  1.00  0.00     0.037 A 
ATOM     51  C   UNL A   1      44.011  25.804  28.284  1.00  0.00     0.037 A 
ATOM     52  C   UNL A   1      48.325  30.604  29.295  1.00  0.00     0.049 A 
ATOM     53  C   UNL A   1      45.463  25.987  27.915  1.00  0.00     0.074 A 
ATOM     54  C   UNL A   1      49.663  30.638  28.946  1.00  0.00     0.029 A 
ATOM     55  N   UNL A   1      47.822  29.394  28.842  1.00  0.00    -0.354 N 
ATOM     56  N   UNL A   1      46.261  26.995  28.179  1.00  0.00    -0.248 NA
ATOM     57  C   UNL A   1      46.099  24.906  27.147  1.00  0.00     0.031 C 
ATOM     58  C   UNL A   1      49.962  29.463  28.250  1.00  0.00     0.029 A 
ATOM     59  C   UNL A   1      48.821  28.676  28.206  1.00  0.00     0.049 A 
ATOM     60  H   UNL A   1      46.894  29.089  28.957  1.00  0.00     0.167 HD
ATOM     61  C   UNL A   1      47.496  26.659  27.629  1.00  0.00     0.074 A 
ATOM     62  C   UNL A   1      47.343  25.352  27.028  1.00  0.00     0.031 C 
ATOM     63  C   UNL A   1      48.652  27.370  27.622  1.00  0.00     0.037 A 
BRANCH  50  64
ATOM     64  C   UNL A   1      48.233  32.872  30.410  1.00  0.00     0.058 A 
ATOM     65  C   UNL A   1      48.858  33.004  31.660  1.00  0.00     0.135 A 
ATOM     66  C   UNL A   1      48.251  33.979  29.546  1.00  0.00     0.135 A 
ATOM     67  F   UNL A   1      48.844  31.985  32.534  1.00  0.00    -0.206 F 
ATOM     68  C   UNL A   1      49.454  34.199  32.051  1.00  0.00     0.059 A 
ATOM     69  C   UNL A   1      48.864  35.175  29.906  1.00  0.00     0.059 A 
ATOM     70  F   UNL A   1      47.660  33.907  28.343  1.00  0.00    -0.206 F 
ATOM     71  C   UNL A   1      49.448  35.280  31.167  1.00  0.00     0.060 A 
BRANCH  71  72
ATOM     72  S   UNL A   1      50.217  36.827  31.689  1.00  0.00     0.124 S 
ATOM     73  O   UNL A   1      51.298  36.955  30.717  1.00  0.00    -0.237 OA
ATOM     74  O   UNL A   1      49.123  37.783  31.549  1.00  0.00    -0.237 OA
ATOM     75  O   UNL A   1      50.635  36.554  33.060  1.00  0.00    -0.744 OA
ENDBRANCH  71  72
ENDBRANCH  50  64
BRANCH  51  76
ATOM     76  C   UNL A   1      43.276  24.577  27.867  1.00  0.00     0.058 A 
ATOM     77  C   UNL A   1      43.242  23.436  28.680  1.00  0.00     0.135 A 
ATOM     78  C   UNL A   1      42.604  24.520  26.635  1.00  0.00     0.135 A 
ATOM     79  F   UNL A   1      43.884  23.432  29.859  1.00  0.00    -0.206 F 
ATOM     80  C   UNL A   1      42.575  22.278  28.287  1.00  0.00     0.059 A 
ATOM     81  C   UNL A   1      41.911  23.385  26.230  1.00  0.00     0.059 A 
ATOM     82  F   UNL A   1      42.606  25.586  25.819  1.00  0.00    -0.206 F 
ATOM     83  C   UNL A   1      41.909  22.265  27.059  1.00  0.00     0.060 A 
BRANCH  83  84
ATOM     84  S   UNL A   1      40.999  20.780  26.580  1.00  0.00     0.124 S 
ATOM     85  O   UNL A   1      41.918  20.164  25.630  1.00  0.00    -0.237 OA
ATOM     86  O   UNL A   1      40.842  20.090  27.857  1.00  0.00    -0.237 OA
ATOM     87  O   UNL A   1      39.765  21.315  26.012  1.00  0.00    -0.744 OA
ENDBRANCH  83  84
ENDBRANCH  51  76
BRANCH  63  88
ATOM     88  C   UNL A   1      49.856  26.739  26.978  1.00  0.00     0.058 A 
ATOM     89  C   UNL A   1      50.107  26.863  25.603  1.00  0.00     0.135 A 
ATOM     90  C   UNL A   1      50.805  26.061  27.760  1.00  0.00     0.135 A 
ATOM     91  F   UNL A   1      49.231  27.499  24.810  1.00  0.00    -0.206 F 
ATOM     92  C   UNL A   1      51.249  26.320  25.022  1.00  0.00     0.059 A 
ATOM     93  C   UNL A   1      51.966  25.531  27.205  1.00  0.00     0.059 A 
ATOM     94  F   UNL A   1      50.619  25.926  29.083  1.00  0.00    -0.206 F 
ATOM     95  C   UNL A   1      52.174  25.657  25.832  1.00  0.00     0.060 A 
BRANCH  95  96
ATOM     96  S   UNL A   1      53.671  24.991  25.074  1.00  0.00     0.124 S 
ATOM     97  O   UNL A   1      54.708  25.533  25.947  1.00  0.00    -0.237 OA
ATOM     98  O   UNL A   1      53.456  23.550  25.165  1.00  0.00    -0.237 OA
ATOM     99  O   UNL A   1      53.640  25.538  23.721  1.00  0.00    -0.744 OA
ENDBRANCH  95  96
ENDBRANCH  63  88
ENDBRANCH  37  38
ENDBRANCH  30  32
ENDBRANCH  29  30
ENDBRANCH  28  29
ENDBRANCH  27  28
ENDBRANCH  26  27
ENDBRANCH  25  26
ENDBRANCH   1  25
TORSDOF 25
ENDMDL
MODEL 3
REMARK VINA RESULT:      -8.8      1.688      3.357
REMARK SMILES CC[C@H](C)[C@@H](NC(=O)/C=C/c1csc(C)n1)C(=O)OCCOCCOCCOC(=O)c1ccc(-c2c3nc(c(-c4c(F)cc(S(=O)(=O)[O-])cc4F)c4ccc([nH]4)c(-c4c(F)cc(S(=O)(=O)[O-])cc4F)c4nc(c(-c5c(F)cc(S(=O)(=O)[O-])cc5F)c5ccc2[nH]5)C=C4)C=C3)cc1
REMARK SMILES IDX 23 1 22 2 21 3 20 4 19 5 17 6 18 7 5 8 3 9 4 10 2 11 1 12
REMARK SMILES IDX 6 13 7 14 8 16 9 17 10 18 11 19 12 20 16 21 13 22 14 23
REMARK SMILES IDX 15 24 24 25 25 26 26 27 27 28 28 29 29 30 30 31 31 32 32 33
REMARK SMILES IDX 96 34 33 35 95 36 34 37 35 38 36 39 89 40 37 41 94 42 88 43
REMARK SMILES IDX 90 44 38 45 93 46 87 47 86 48 39 50 73 51 52 52 72 53 53 54
REMARK SMILES IDX 56 55 71 56 91 57 54 58 55 59 70 61 92 62 57 63 40 64 41 65
REMARK SMILES IDX 50 66 42 67 43 68 49 69 51 70 44 71 45 72 46 73 47 74 48 75
REMARK SMILES IDX 74 76 75 77 84 78 76 79 77 80 83 81 85 82 78 83 79 84 80 85
REMARK SMILES IDX 81 86 82 87 58 88 59 89 68 90 60 91 61 92 67 93 69 94 62 95
REMARK SMILES IDX 63 96 64 97 65 98 66 99
REMARK H PARENT 6 15 90 49 56 60
REMARK Flexibility Score: inf
ROOT
ATOM      1  C   UNL A   1      35.467  32.925  28.480  1.00  0.00     0.188 C 
ENDROOT
BRANCH   1   2
ATOM      2  O   UNL A   1      34.656  32.686  27.333  1.00  0.00    -0.376 OA
BRANCH   2   3
ATOM      3  C   UNL A   1      33.594  31.765  27.560  1.00  0.00     0.202 C 
BRANCH   3   4
ATOM      4  C   UNL A   1      33.880  30.278  27.307  1.00  0.00     0.261 C 
BRANCH   4   5
ATOM      5  O   UNL A   1      33.300  29.545  26.194  1.00  0.00    -0.462 OA
BRANCH   5   6
ATOM      6  C   UNL A   1      33.588  28.262  25.875  1.00  0.00     0.329 C 
ATOM      7  O   UNL A   1      34.445  27.558  26.396  1.00  0.00    -0.250 OA
BRANCH   6   8
ATOM      8  C   UNL A   1      32.758  27.770  24.683  1.00  0.00     0.195 C 
BRANCH   8   9
ATOM      9  C   UNL A   1      31.791  28.890  24.160  1.00  0.00     0.019 C 
ATOM     10  C   UNL A   1      32.127  29.383  22.742  1.00  0.00     0.010 C 
BRANCH   9  11
ATOM     11  C   UNL A   1      30.278  28.537  24.180  1.00  0.00     0.002 C 
ATOM     12  C   UNL A   1      29.925  27.078  23.931  1.00  0.00     0.004 C 
ENDBRANCH   9  11
ENDBRANCH   8   9
BRANCH   8  13
ATOM     13  N   UNL A   1      33.634  27.228  23.614  1.00  0.00    -0.339 N 
ATOM     14  C   UNL A   1      33.531  26.065  22.903  1.00  0.00     0.244 C 
ATOM     15  H   UNL A   1      34.407  27.793  23.381  1.00  0.00     0.164 HD
ATOM     16  O   UNL A   1      33.923  26.021  21.741  1.00  0.00    -0.270 OA
BRANCH  14  17
ATOM     17  C   UNL A   1      33.163  24.823  23.607  1.00  0.00     0.073 C 
ATOM     18  C   UNL A   1      33.892  23.698  23.539  1.00  0.00     0.035 C 
BRANCH  18  19
ATOM     19  C   UNL A   1      33.490  22.452  24.121  1.00  0.00     0.074 A 
ATOM     20  C   UNL A   1      33.713  22.100  25.436  1.00  0.00     0.095 A 
ATOM     21  N   UNL A   1      32.958  21.451  23.320  1.00  0.00    -0.242 NA
ATOM     22  S   UNL A   1      33.216  20.477  25.696  1.00  0.00    -0.127 S 
ATOM     23  C   UNL A   1      32.790  20.354  24.033  1.00  0.00     0.090 A 
ATOM     24  C   UNL A   1      32.358  19.041  23.475  1.00  0.00     0.079 C 
ENDBRANCH  18  19
ENDBRANCH  14  17
ENDBRANCH   8  13
ENDBRANCH   6   8
ENDBRANCH   5   6
ENDBRANCH   4   5
ENDBRANCH   3   4
ENDBRANCH   2   3
ENDBRANCH   1   2
BRANCH   1  25
ATOM     25  C   UNL A   1      34.599  33.212  29.697  1.00  0.00     0.188 C 
BRANCH  25  26
ATOM     26  O   UNL A   1      34.921  32.395  30.812  1.00  0.00    -0.376 OA
BRANCH  26  27
ATOM     27  C   UNL A   1      35.753  31.267  30.571  1.00  0.00     0.202 C 
BRANCH  27  28
ATOM     28  C   UNL A   1      36.380  30.555  31.782  1.00  0.00     0.261 C 
BRANCH  28  29
ATOM     29  O   UNL A   1      37.371  31.310  32.517  1.00  0.00    -0.460 OA
BRANCH  29  30
ATOM     30  C   UNL A   1      38.139  32.194  31.846  1.00  0.00     0.338 C 
ATOM     31  O   UNL A   1      38.122  33.413  31.952  1.00  0.00    -0.246 OA
BRANCH  30  32
ATOM     32  C   UNL A   1      39.199  31.439  31.140  1.00  0.00     0.060 A 
ATOM     33  C   UNL A   1      40.166  30.764  31.902  1.00  0.00     0.016 A 
ATOM     34  C   UNL A   1      39.243  31.388  29.746  1.00  0.00     0.016 A 
ATOM     35  C   UNL A   1      41.198  30.067  31.274  1.00  0.00     0.010 A 
ATOM     36  C   UNL A   1      40.301  30.723  29.118  1.00  0.00     0.010 A 
ATOM     37  C   UNL A   1      41.303  30.091  29.878  1.00  0.00    -0.014 A 
BRANCH  37  38
ATOM     38  C   UNL A   1      42.588  29.715  29.239  1.00  0.00     0.031 A 
ATOM     39  C   UNL A   1      42.720  28.304  28.728  1.00  0.00     0.074 A 
ATOM     40  C   UNL A   1      43.597  30.588  29.071  1.00  0.00     0.049 A 
ATOM     41  N   UNL A   1      43.766  27.686  28.249  1.00  0.00    -0.248 NA
ATOM     42  C   UNL A   1      41.498  27.482  28.766  1.00  0.00     0.031 C 
ATOM     43  C   UNL A   1      43.567  32.003  29.437  1.00  0.00     0.029 A 
ATOM     44  N   UNL A   1      44.853  30.401  28.549  1.00  0.00    -0.354 N 
ATOM     45  C   UNL A   1      43.336  26.397  27.953  1.00  0.00     0.074 A 
ATOM     46  C   UNL A   1      41.939  26.319  28.314  1.00  0.00     0.031 C 
ATOM     47  C   UNL A   1      44.761  32.552  29.146  1.00  0.00     0.029 A 
ATOM     48  C   UNL A   1      45.651  31.519  28.615  1.00  0.00     0.049 A 
ATOM     49  H   UNL A   1      45.156  29.546  28.166  1.00  0.00     0.167 HD
ATOM     50  C   UNL A   1      44.041  25.370  27.426  1.00  0.00     0.037 A 
ATOM     51  C   UNL A   1      46.956  31.677  28.314  1.00  0.00     0.037 A 
ATOM     52  C   UNL A   1      45.428  25.450  27.059  1.00  0.00     0.049 A 
ATOM     53  C   UNL A   1      47.748  30.498  27.802  1.00  0.00     0.074 A 
ATOM     54  C   UNL A   1      46.241  24.459  26.538  1.00  0.00     0.029 A 
ATOM     55  N   UNL A   1      46.209  26.591  27.173  1.00  0.00    -0.354 N 
ATOM     56  N   UNL A   1      47.344  29.272  27.564  1.00  0.00    -0.248 NA
ATOM     57  C   UNL A   1      49.175  30.721  27.526  1.00  0.00     0.031 C 
ATOM     58  C   UNL A   1      47.523  24.991  26.370  1.00  0.00     0.029 A 
ATOM     59  C   UNL A   1      47.498  26.326  26.743  1.00  0.00     0.049 A 
ATOM     60  H   UNL A   1      45.893  27.460  27.509  1.00  0.00     0.167 HD
ATOM     61  C   UNL A   1      48.460  28.585  27.093  1.00  0.00     0.074 A 
ATOM     62  C   UNL A   1      49.553  29.534  27.067  1.00  0.00     0.031 C 
ATOM     63  C   UNL A   1      48.571  27.287  26.715  1.00  0.00     0.037 A 
BRANCH  50  64
ATOM     64  C   UNL A   1      43.326  24.060  27.261  1.00  0.00     0.058 A 
ATOM     65  C   UNL A   1      42.610  23.748  26.094  1.00  0.00     0.135 A 
ATOM     66  C   UNL A   1      43.354  23.105  28.290  1.00  0.00     0.135 A 
ATOM     67  F   UNL A   1      42.529  24.638  25.092  1.00  0.00    -0.206 F 
ATOM     68  C   UNL A   1      41.923  22.545  25.964  1.00  0.00     0.059 A 
ATOM     69  C   UNL A   1      42.696  21.885  28.171  1.00  0.00     0.059 A 
ATOM     70  F   UNL A   1      44.016  23.359  29.429  1.00  0.00    -0.206 F 
ATOM     71  C   UNL A   1      41.970  21.621  27.010  1.00  0.00     0.060 A 
BRANCH  71  72
ATOM     72  S   UNL A   1      41.068  20.068  26.833  1.00  0.00     0.124 S 
ATOM     73  O   UNL A   1      40.650  19.818  28.209  1.00  0.00    -0.237 OA
ATOM     74  O   UNL A   1      40.003  20.429  25.903  1.00  0.00    -0.237 OA
ATOM     75  O   UNL A   1      42.073  19.150  26.306  1.00  0.00    -0.744 OA
ENDBRANCH  71  72
ENDBRANCH  50  64
BRANCH  51  76
ATOM     76  C   UNL A   1      47.619  32.993  28.532  1.00  0.00     0.058 A 
ATOM     77  C   UNL A   1      48.221  33.313  29.757  1.00  0.00     0.135 A 
ATOM     78  C   UNL A   1      47.649  33.963  27.517  1.00  0.00     0.135 A 
ATOM     79  F   UNL A   1      48.203  32.427  30.765  1.00  0.00    -0.206 F 
ATOM     80  C   UNL A   1      48.823  34.550  29.973  1.00  0.00     0.059 A 
ATOM     81  C   UNL A   1      48.265  35.197  27.701  1.00  0.00     0.059 A 
ATOM     82  F   UNL A   1      47.088  33.707  26.325  1.00  0.00    -0.206 F 
ATOM     83  C   UNL A   1      48.842  35.484  28.936  1.00  0.00     0.060 A 
BRANCH  83  84
ATOM     84  S   UNL A   1      49.675  37.065  29.205  1.00  0.00     0.124 S 
ATOM     85  O   UNL A   1      50.865  36.915  28.375  1.00  0.00    -0.237 OA
ATOM     86  O   UNL A   1      48.680  38.021  28.729  1.00  0.00    -0.237 OA
ATOM     87  O   UNL A   1      49.906  37.079  30.646  1.00  0.00    -0.744 OA
ENDBRANCH  83  84
ENDBRANCH  51  76
BRANCH  63  88
ATOM     88  C   UNL A   1      49.906  26.818  26.206  1.00  0.00     0.058 A 
ATOM     89  C   UNL A   1      50.324  27.070  24.890  1.00  0.00     0.135 A 
ATOM     90  C   UNL A   1      50.805  26.169  27.068  1.00  0.00     0.135 A 
ATOM     91  F   UNL A   1      49.502  27.685  24.025  1.00  0.00    -0.206 F 
ATOM     92  C   UNL A   1      51.581  26.678  24.441  1.00  0.00     0.059 A 
ATOM     93  C   UNL A   1      52.077  25.790  26.647  1.00  0.00     0.059 A 
ATOM     94  F   UNL A   1      50.460  25.916  28.340  1.00  0.00    -0.206 F 
ATOM     95  C   UNL A   1      52.451  26.040  25.327  1.00  0.00     0.060 A 
BRANCH  95  96
ATOM     96  S   UNL A   1      54.095  25.571  24.744  1.00  0.00     0.124 S 
ATOM     97  O   UNL A   1      54.092  26.116  23.391  1.00  0.00    -0.237 OA
ATOM     98  O   UNL A   1      54.971  26.244  25.698  1.00  0.00    -0.237 OA
ATOM     99  O   UNL A   1      54.084  24.114  24.834  1.00  0.00    -0.744 OA
ENDBRANCH  95  96
ENDBRANCH  63  88
ENDBRANCH  37  38
ENDBRANCH  30  32
ENDBRANCH  29  30
ENDBRANCH  28  29
ENDBRANCH  27  28
ENDBRANCH  26  27
ENDBRANCH  25  26
ENDBRANCH   1  25
TORSDOF 25
ENDMDL
