MODEL 1
REMARK VINA RESULT:      -7.3      0.000      0.000
REMARK SMILES COc1ccc(F)cc1[C@@H](C(=O)OCCOCCOCCOC(=O)c1ccc(-c2c3nc(c(-c4c(F)cc(S(=O)(=O)[O-])cc4F)c4ccc([nH]4)c(-c4c(F)cc(S(=O)(=O)[O-])cc4F)c4nc(c(-c5c(F)cc(S(=O)(=O)[O-])cc5F)c5ccc2[nH]5)C=C4)C=C3)cc1)[N@@H+](C)CCn1ccnc1C
REMARK SMILES IDX 17 1 16 2 15 3 14 4 13 5 11 6 12 7 10 8 9 9 3 10 4 11 5 12
REMARK SMILES IDX 8 13 6 14 7 15 2 16 1 17 91 18 92 19 93 21 94 22 95 23 96 24
REMARK SMILES IDX 99 25 97 26 98 27 100 28 18 29 19 30 20 31 21 32 22 33 23 34
REMARK SMILES IDX 24 35 25 36 26 37 90 38 27 39 89 40 28 41 29 42 30 43 83 44
REMARK SMILES IDX 31 45 88 46 82 47 84 48 32 49 87 50 81 51 80 52 33 54 67 55
REMARK SMILES IDX 46 56 66 57 47 58 50 59 65 60 85 61 48 62 49 63 64 65 86 66
REMARK SMILES IDX 51 67 34 68 35 69 44 70 36 71 37 72 43 73 45 74 38 75 39 76
REMARK SMILES IDX 40 77 41 78 42 79 68 80 69 81 78 82 70 83 71 84 77 85 79 86
REMARK SMILES IDX 72 87 73 88 74 89 75 90 76 91 52 92 53 93 62 94 54 95 55 96
REMARK SMILES IDX 61 97 63 98 56 99 57 100 58 101 59 102 60 103
REMARK H PARENT 91 20 84 53 50 64
REMARK Flexibility Score: inf
ROOT
ATOM      1  C   UNL A   1      36.725  34.583  32.445  1.00  0.00     0.188 C 
ENDROOT
BRANCH   1   2
ATOM      2  O   UNL A   1      38.146  34.373  32.724  1.00  0.00    -0.376 OA
BRANCH   2   3
ATOM      3  C   UNL A   1      39.118  34.622  33.778  1.00  0.00     0.202 C 
BRANCH   3   4
ATOM      4  C   UNL A   1      40.715  34.863  33.785  1.00  0.00     0.261 C 
BRANCH   4   5
ATOM      5  O   UNL A   1      41.533  34.033  32.918  1.00  0.00    -0.459 OA
BRANCH   5   6
ATOM      6  C   UNL A   1      42.845  34.283  32.578  1.00  0.00     0.370 C 
ATOM      7  O   UNL A   1      43.735  34.322  33.424  1.00  0.00    -0.245 OA
BRANCH   6   8
ATOM      8  C   UNL A   1      43.126  34.123  31.000  1.00  0.00     0.330 C 
BRANCH   8   9
ATOM      9  C   UNL A   1      43.426  32.803  30.215  1.00  0.00     0.066 A 
ATOM     10  C   UNL A   1      43.550  32.764  28.816  1.00  0.00     0.128 A 
ATOM     11  C   UNL A   1      43.758  31.532  28.141  1.00  0.00     0.050 A 
ATOM     12  C   UNL A   1      43.797  30.316  28.823  1.00  0.00     0.043 A 
ATOM     13  C   UNL A   1      43.616  31.545  30.870  1.00  0.00     0.053 A 
ATOM     14  C   UNL A   1      43.728  30.334  30.192  1.00  0.00     0.124 A 
ATOM     15  F   UNL A   1      43.743  29.187  30.885  1.00  0.00    -0.207 F 
BRANCH  10  16
ATOM     16  O   UNL A   1      43.474  33.964  28.164  1.00  0.00    -0.496 OA
ATOM     17  C   UNL A   1      44.028  33.962  26.854  1.00  0.00     0.278 C 
ENDBRANCH  10  16
ENDBRANCH   8   9
BRANCH   8  18
ATOM     18  N   UNL A   1      44.156  35.108  30.666  1.00  0.00    -0.320 N 
ATOM     19  C   UNL A   1      43.778  36.472  31.064  1.00  0.00     0.333 C 
ATOM     20  H   UNL A   1      44.198  35.116  29.647  1.00  0.00     0.348 HD
BRANCH  18  21
ATOM     21  C   UNL A   1      45.525  34.724  31.054  1.00  0.00     0.285 C 
BRANCH  21  22
ATOM     22  C   UNL A   1      46.911  34.415  30.158  1.00  0.00     0.184 C 
BRANCH  22  23
ATOM     23  N   UNL A   1      47.467  34.230  28.797  1.00  0.00    -0.330 N 
ATOM     24  C   UNL A   1      47.966  35.220  28.000  1.00  0.00     0.107 A 
ATOM     25  C   UNL A   1      47.676  33.054  27.987  1.00  0.00     0.105 A 
ATOM     26  C   UNL A   1      48.356  34.697  26.808  1.00  0.00     0.131 A 
ATOM     27  N   UNL A   1      48.182  33.372  26.808  1.00  0.00    -0.242 NA
ATOM     28  C   UNL A   1      47.465  31.573  28.168  1.00  0.00     0.087 C 
ENDBRANCH  22  23
ENDBRANCH  21  22
ENDBRANCH  18  21
ENDBRANCH   8  18
ENDBRANCH   6   8
ENDBRANCH   5   6
ENDBRANCH   4   5
ENDBRANCH   3   4
ENDBRANCH   2   3
ENDBRANCH   1   2
BRANCH   1  29
ATOM     29  C   UNL A   1      35.655  33.753  31.467  1.00  0.00     0.188 C 
BRANCH  29  30
ATOM     30  O   UNL A   1      35.318  34.348  30.216  1.00  0.00    -0.376 OA
BRANCH  30  31
ATOM     31  C   UNL A   1      34.049  34.449  29.549  1.00  0.00     0.202 C 
BRANCH  31  32
ATOM     32  C   UNL A   1      33.853  33.808  28.183  1.00  0.00     0.261 C 
BRANCH  32  33
ATOM     33  O   UNL A   1      34.994  33.055  27.806  1.00  0.00    -0.460 OA
BRANCH  33  34
ATOM     34  C   UNL A   1      34.810  31.713  27.962  1.00  0.00     0.338 C 
ATOM     35  O   UNL A   1      33.798  31.095  27.761  1.00  0.00    -0.246 OA
BRANCH  34  36
ATOM     36  C   UNL A   1      36.161  31.133  28.139  1.00  0.00     0.060 A 
ATOM     37  C   UNL A   1      36.340  29.775  27.857  1.00  0.00     0.016 A 
ATOM     38  C   UNL A   1      37.238  31.937  28.537  1.00  0.00     0.016 A 
ATOM     39  C   UNL A   1      37.576  29.190  28.107  1.00  0.00     0.010 A 
ATOM     40  C   UNL A   1      38.481  31.362  28.754  1.00  0.00     0.010 A 
ATOM     41  C   UNL A   1      38.615  29.971  28.634  1.00  0.00    -0.014 A 
BRANCH  41  42
ATOM     42  C   UNL A   1      39.670  29.311  29.425  1.00  0.00     0.031 A 
ATOM     43  C   UNL A   1      39.833  29.766  30.853  1.00  0.00     0.074 A 
ATOM     44  C   UNL A   1      40.420  28.322  28.918  1.00  0.00     0.049 A 
ATOM     45  N   UNL A   1      40.669  29.354  31.766  1.00  0.00    -0.248 NA
ATOM     46  C   UNL A   1      38.926  30.837  31.313  1.00  0.00     0.031 C 
ATOM     47  C   UNL A   1      40.310  27.780  27.566  1.00  0.00     0.029 A 
ATOM     48  N   UNL A   1      41.422  27.593  29.500  1.00  0.00    -0.354 N 
ATOM     49  C   UNL A   1      40.377  30.099  32.901  1.00  0.00     0.074 A 
ATOM     50  C   UNL A   1      39.338  31.036  32.551  1.00  0.00     0.031 C 
ATOM     51  C   UNL A   1      41.206  26.787  27.427  1.00  0.00     0.029 A 
ATOM     52  C   UNL A   1      41.966  26.647  28.670  1.00  0.00     0.049 A 
ATOM     53  H   UNL A   1      41.723  27.735  30.427  1.00  0.00     0.167 HD
ATOM     54  C   UNL A   1      40.905  29.992  34.140  1.00  0.00     0.037 A 
ATOM     55  C   UNL A   1      42.965  25.772  28.899  1.00  0.00     0.037 A 
ATOM     56  C   UNL A   1      41.948  29.066  34.478  1.00  0.00     0.049 A 
ATOM     57  C   UNL A   1      43.616  25.741  30.259  1.00  0.00     0.074 A 
ATOM     58  C   UNL A   1      42.575  28.886  35.696  1.00  0.00     0.029 A 
ATOM     59  N   UNL A   1      42.523  28.170  33.589  1.00  0.00    -0.354 N 
ATOM     60  N   UNL A   1      43.330  26.445  31.330  1.00  0.00    -0.248 NA
ATOM     61  C   UNL A   1      44.725  24.796  30.441  1.00  0.00     0.031 C 
ATOM     62  C   UNL A   1      43.568  27.918  35.530  1.00  0.00     0.029 A 
ATOM     63  C   UNL A   1      43.518  27.449  34.225  1.00  0.00     0.049 A 
ATOM     64  H   UNL A   1      42.262  28.061  32.647  1.00  0.00     0.167 HD
ATOM     65  C   UNL A   1      44.204  26.008  32.321  1.00  0.00     0.074 A 
ATOM     66  C   UNL A   1      45.021  24.971  31.723  1.00  0.00     0.031 C 
ATOM     67  C   UNL A   1      44.321  26.421  33.609  1.00  0.00     0.037 A 
BRANCH  54  68
ATOM     68  C   UNL A   1      40.368  30.909  35.203  1.00  0.00     0.058 A 
ATOM     69  C   UNL A   1      39.066  30.741  35.697  1.00  0.00     0.135 A 
ATOM     70  C   UNL A   1      41.139  31.960  35.728  1.00  0.00     0.135 A 
ATOM     71  F   UNL A   1      38.293  29.741  35.244  1.00  0.00    -0.206 F 
ATOM     72  C   UNL A   1      38.541  31.590  36.663  1.00  0.00     0.059 A 
ATOM     73  C   UNL A   1      40.645  32.803  36.719  1.00  0.00     0.059 A 
ATOM     74  F   UNL A   1      42.403  32.142  35.316  1.00  0.00    -0.206 F 
ATOM     75  C   UNL A   1      39.338  32.617  37.171  1.00  0.00     0.060 A 
BRANCH  75  76
ATOM     76  S   UNL A   1      38.653  33.682  38.457  1.00  0.00     0.124 S 
ATOM     77  O   UNL A   1      37.242  33.318  38.426  1.00  0.00    -0.237 OA
ATOM     78  O   UNL A   1      39.398  33.250  39.637  1.00  0.00    -0.237 OA
ATOM     79  O   UNL A   1      38.969  35.028  37.987  1.00  0.00    -0.744 OA
ENDBRANCH  75  76
ENDBRANCH  54  68
BRANCH  55  80
ATOM     80  C   UNL A   1      43.386  24.838  27.821  1.00  0.00     0.058 A 
ATOM     81  C   UNL A   1      42.788  23.577  27.676  1.00  0.00     0.135 A 
ATOM     82  C   UNL A   1      44.418  25.179  26.935  1.00  0.00     0.135 A 
ATOM     83  F   UNL A   1      41.799  23.200  28.500  1.00  0.00    -0.206 F 
ATOM     84  C   UNL A   1      43.220  22.674  26.711  1.00  0.00     0.059 A 
ATOM     85  C   UNL A   1      44.851  24.302  25.944  1.00  0.00     0.059 A 
ATOM     86  F   UNL A   1      45.009  26.380  27.026  1.00  0.00    -0.206 F 
ATOM     87  C   UNL A   1      44.258  23.044  25.854  1.00  0.00     0.060 A 
BRANCH  87  88
ATOM     88  S   UNL A   1      44.826  21.841  24.634  1.00  0.00     0.124 S 
ATOM     89  O   UNL A   1      44.509  22.523  23.384  1.00  0.00    -0.237 OA
ATOM     90  O   UNL A   1      46.245  21.731  24.955  1.00  0.00    -0.237 OA
ATOM     91  O   UNL A   1      44.024  20.658  24.925  1.00  0.00    -0.744 OA
ENDBRANCH  87  88
ENDBRANCH  55  80
BRANCH  67  92
ATOM     92  C   UNL A   1      45.353  25.749  34.472  1.00  0.00     0.058 A 
ATOM     93  C   UNL A   1      46.678  26.218  34.492  1.00  0.00     0.135 A 
ATOM     94  C   UNL A   1      45.059  24.591  35.209  1.00  0.00     0.135 A 
ATOM     95  F   UNL A   1      47.019  27.313  33.794  1.00  0.00    -0.206 F 
ATOM     96  C   UNL A   1      47.676  25.554  35.197  1.00  0.00     0.059 A 
ATOM     97  C   UNL A   1      46.035  23.930  35.950  1.00  0.00     0.059 A 
ATOM     98  F   UNL A   1      43.808  24.103  35.229  1.00  0.00    -0.206 F 
ATOM     99  C   UNL A   1      47.344  24.411  35.924  1.00  0.00     0.060 A 
BRANCH  99 100
ATOM    100  S   UNL A   1      48.647  23.577  36.852  1.00  0.00     0.124 S 
ATOM    101  O   UNL A   1      49.837  24.301  36.418  1.00  0.00    -0.237 OA
ATOM    102  O   UNL A   1      48.233  23.805  38.234  1.00  0.00    -0.237 OA
ATOM    103  O   UNL A   1      48.554  22.192  36.400  1.00  0.00    -0.744 OA
ENDBRANCH  99 100
ENDBRANCH  67  92
ENDBRANCH  41  42
ENDBRANCH  34  36
ENDBRANCH  33  34
ENDBRANCH  32  33
ENDBRANCH  31  32
ENDBRANCH  30  31
ENDBRANCH  29  30
ENDBRANCH   1  29
TORSDOF 26
ENDMDL
MODEL 2
REMARK VINA RESULT:      -7.2      4.084     11.731
REMARK SMILES COc1ccc(F)cc1[C@@H](C(=O)OCCOCCOCCOC(=O)c1ccc(-c2c3nc(c(-c4c(F)cc(S(=O)(=O)[O-])cc4F)c4ccc([nH]4)c(-c4c(F)cc(S(=O)(=O)[O-])cc4F)c4nc(c(-c5c(F)cc(S(=O)(=O)[O-])cc5F)c5ccc2[nH]5)C=C4)C=C3)cc1)[N@@H+](C)CCn1ccnc1C
REMARK SMILES IDX 17 1 16 2 15 3 14 4 13 5 11 6 12 7 10 8 9 9 3 10 4 11 5 12
REMARK SMILES IDX 8 13 6 14 7 15 2 16 1 17 91 18 92 19 93 21 94 22 95 23 96 24
REMARK SMILES IDX 99 25 97 26 98 27 100 28 18 29 19 30 20 31 21 32 22 33 23 34
REMARK SMILES IDX 24 35 25 36 26 37 90 38 27 39 89 40 28 41 29 42 30 43 83 44
REMARK SMILES IDX 31 45 88 46 82 47 84 48 32 49 87 50 81 51 80 52 33 54 67 55
REMARK SMILES IDX 46 56 66 57 47 58 50 59 65 60 85 61 48 62 49 63 64 65 86 66
REMARK SMILES IDX 51 67 34 68 35 69 44 70 36 71 37 72 43 73 45 74 38 75 39 76
REMARK SMILES IDX 40 77 41 78 42 79 68 80 69 81 78 82 70 83 71 84 77 85 79 86
REMARK SMILES IDX 72 87 73 88 74 89 75 90 76 91 52 92 53 93 62 94 54 95 55 96
REMARK SMILES IDX 61 97 63 98 56 99 57 100 58 101 59 102 60 103
REMARK H PARENT 91 20 84 53 50 64
REMARK Flexibility Score: inf
ROOT
ATOM      1  C   UNL A   1      49.083  27.421  25.257  1.00  0.00     0.188 C 
ENDROOT
BRANCH   1   2
ATOM      2  O   UNL A   1      48.087  26.673  26.025  1.00  0.00    -0.376 OA
BRANCH   2   3
ATOM      3  C   UNL A   1      47.536  25.329  26.114  1.00  0.00     0.202 C 
BRANCH   3   4
ATOM      4  C   UNL A   1      46.883  24.470  27.316  1.00  0.00     0.261 C 
BRANCH   4   5
ATOM      5  O   UNL A   1      45.941  25.140  28.196  1.00  0.00    -0.459 OA
BRANCH   5   6
ATOM      6  C   UNL A   1      44.684  24.677  28.521  1.00  0.00     0.370 C 
ATOM      7  O   UNL A   1      44.492  23.965  29.503  1.00  0.00    -0.245 OA
BRANCH   6   8
ATOM      8  C   UNL A   1      43.508  25.462  27.750  1.00  0.00     0.330 C 
BRANCH   8   9
ATOM      9  C   UNL A   1      42.155  25.975  28.345  1.00  0.00     0.066 A 
ATOM     10  C   UNL A   1      40.918  25.382  28.039  1.00  0.00     0.128 A 
ATOM     11  C   UNL A   1      39.709  25.923  28.552  1.00  0.00     0.050 A 
ATOM     12  C   UNL A   1      39.691  27.081  29.330  1.00  0.00     0.043 A 
ATOM     13  C   UNL A   1      42.085  27.073  29.261  1.00  0.00     0.053 A 
ATOM     14  C   UNL A   1      40.889  27.648  29.682  1.00  0.00     0.124 A 
ATOM     15  F   UNL A   1      40.917  28.772  30.412  1.00  0.00    -0.207 F 
BRANCH  10  16
ATOM     16  O   UNL A   1      40.956  24.268  27.248  1.00  0.00    -0.496 OA
ATOM     17  C   UNL A   1      39.822  23.417  27.369  1.00  0.00     0.278 C 
ENDBRANCH  10  16
ENDBRANCH   8   9
BRANCH   8  18
ATOM     18  N   UNL A   1      43.221  24.686  26.542  1.00  0.00    -0.320 N 
ATOM     19  C   UNL A   1      43.634  25.383  25.315  1.00  0.00     0.333 C 
ATOM     20  H   UNL A   1      42.204  24.624  26.499  1.00  0.00     0.348 HD
BRANCH  18  21
ATOM     21  C   UNL A   1      43.640  23.274  26.604  1.00  0.00     0.285 C 
BRANCH  21  22
ATOM     22  C   UNL A   1      43.124  21.903  25.782  1.00  0.00     0.184 C 
BRANCH  22  23
ATOM     23  N   UNL A   1      43.098  20.422  25.777  1.00  0.00    -0.330 N 
ATOM     24  C   UNL A   1      42.244  19.639  26.500  1.00  0.00     0.107 A 
ATOM     25  C   UNL A   1      43.861  19.442  25.043  1.00  0.00     0.105 A 
ATOM     26  C   UNL A   1      42.527  18.328  26.279  1.00  0.00     0.131 A 
ATOM     27  N   UNL A   1      43.511  18.214  25.384  1.00  0.00    -0.242 NA
ATOM     28  C   UNL A   1      44.939  19.487  23.991  1.00  0.00     0.087 C 
ENDBRANCH  22  23
ENDBRANCH  21  22
ENDBRANCH  18  21
ENDBRANCH   8  18
ENDBRANCH   6   8
ENDBRANCH   5   6
ENDBRANCH   4   5
ENDBRANCH   3   4
ENDBRANCH   2   3
ENDBRANCH   1   2
BRANCH   1  29
ATOM     29  C   UNL A   1      49.728  27.168  23.737  1.00  0.00     0.188 C 
BRANCH  29  30
ATOM     30  O   UNL A   1      51.106  26.810  23.664  1.00  0.00    -0.376 OA
BRANCH  30  31
ATOM     31  C   UNL A   1      52.281  27.577  23.973  1.00  0.00     0.202 C 
BRANCH  31  32
ATOM     32  C   UNL A   1      52.851  27.564  25.384  1.00  0.00     0.261 C 
BRANCH  32  33
ATOM     33  O   UNL A   1      52.316  26.490  26.139  1.00  0.00    -0.460 OA
BRANCH  33  34
ATOM     34  C   UNL A   1      53.037  26.234  27.267  1.00  0.00     0.338 C 
ATOM     35  O   UNL A   1      54.234  26.270  27.383  1.00  0.00    -0.246 OA
BRANCH  34  36
ATOM     36  C   UNL A   1      52.059  26.192  28.377  1.00  0.00     0.060 A 
ATOM     37  C   UNL A   1      50.863  25.494  28.180  1.00  0.00     0.016 A 
ATOM     38  C   UNL A   1      52.346  26.798  29.608  1.00  0.00     0.016 A 
ATOM     39  C   UNL A   1      49.891  25.521  29.174  1.00  0.00     0.010 A 
ATOM     40  C   UNL A   1      51.392  26.798  30.613  1.00  0.00     0.010 A 
ATOM     41  C   UNL A   1      50.130  26.246  30.351  1.00  0.00    -0.014 A 
BRANCH  41  42
ATOM     42  C   UNL A   1      48.979  26.767  31.110  1.00  0.00     0.031 A 
ATOM     43  C   UNL A   1      48.293  27.987  30.551  1.00  0.00     0.074 A 
ATOM     44  C   UNL A   1      48.532  26.163  32.221  1.00  0.00     0.049 A 
ATOM     45  N   UNL A   1      47.262  28.643  31.007  1.00  0.00    -0.248 NA
ATOM     46  C   UNL A   1      48.852  28.545  29.302  1.00  0.00     0.031 C 
ATOM     47  C   UNL A   1      49.096  24.955  32.817  1.00  0.00     0.029 A 
ATOM     48  N   UNL A   1      47.483  26.492  33.037  1.00  0.00    -0.354 N 
ATOM     49  C   UNL A   1      47.043  29.671  30.098  1.00  0.00     0.074 A 
ATOM     50  C   UNL A   1      48.083  29.600  29.102  1.00  0.00     0.031 C 
ATOM     51  C   UNL A   1      48.372  24.634  33.904  1.00  0.00     0.029 A 
ATOM     52  C   UNL A   1      47.316  25.629  34.090  1.00  0.00     0.049 A 
ATOM     53  H   UNL A   1      46.903  27.272  32.882  1.00  0.00     0.167 HD
ATOM     54  C   UNL A   1      46.041  30.578  30.074  1.00  0.00     0.037 A 
ATOM     55  C   UNL A   1      46.407  25.651  35.086  1.00  0.00     0.037 A 
ATOM     56  C   UNL A   1      45.016  30.651  31.076  1.00  0.00     0.049 A 
ATOM     57  C   UNL A   1      45.362  26.737  35.101  1.00  0.00     0.074 A 
ATOM     58  C   UNL A   1      43.965  31.543  31.165  1.00  0.00     0.029 A 
ATOM     59  N   UNL A   1      44.921  29.800  32.168  1.00  0.00    -0.354 N 
ATOM     60  N   UNL A   1      45.157  27.701  34.234  1.00  0.00    -0.248 NA
ATOM     61  C   UNL A   1      44.422  26.735  36.229  1.00  0.00     0.031 C 
ATOM     62  C   UNL A   1      43.265  31.267  32.343  1.00  0.00     0.029 A 
ATOM     63  C   UNL A   1      43.842  30.163  32.954  1.00  0.00     0.049 A 
ATOM     64  H   UNL A   1      45.530  29.051  32.355  1.00  0.00     0.167 HD
ATOM     65  C   UNL A   1      44.048  28.405  34.697  1.00  0.00     0.074 A 
ATOM     66  C   UNL A   1      43.621  27.746  35.915  1.00  0.00     0.031 C 
ATOM     67  C   UNL A   1      43.436  29.493  34.165  1.00  0.00     0.037 A 
BRANCH  54  68
ATOM     68  C   UNL A   1      46.026  31.561  28.939  1.00  0.00     0.058 A 
ATOM     69  C   UNL A   1      46.730  32.771  29.035  1.00  0.00     0.135 A 
ATOM     70  C   UNL A   1      45.309  31.311  27.756  1.00  0.00     0.135 A 
ATOM     71  F   UNL A   1      47.447  33.052  30.134  1.00  0.00    -0.206 F 
ATOM     72  C   UNL A   1      46.711  33.705  28.006  1.00  0.00     0.059 A 
ATOM     73  C   UNL A   1      45.302  32.219  26.700  1.00  0.00     0.059 A 
ATOM     74  F   UNL A   1      44.649  30.153  27.598  1.00  0.00    -0.206 F 
ATOM     75  C   UNL A   1      45.997  33.420  26.841  1.00  0.00     0.060 A 
BRANCH  75  76
ATOM     76  S   UNL A   1      46.023  34.626  25.499  1.00  0.00     0.124 S 
ATOM     77  O   UNL A   1      47.431  34.620  25.119  1.00  0.00    -0.237 OA
ATOM     78  O   UNL A   1      45.100  34.031  24.538  1.00  0.00    -0.237 OA
ATOM     79  O   UNL A   1      45.546  35.851  26.135  1.00  0.00    -0.744 OA
ENDBRANCH  75  76
ENDBRANCH  54  68
BRANCH  55  80
ATOM     80  C   UNL A   1      46.436  24.593  36.130  1.00  0.00     0.058 A 
ATOM     81  C   UNL A   1      45.746  23.383  35.961  1.00  0.00     0.135 A 
ATOM     82  C   UNL A   1      47.131  24.787  37.333  1.00  0.00     0.135 A 
ATOM     83  F   UNL A   1      45.062  23.149  34.830  1.00  0.00    -0.206 F 
ATOM     84  C   UNL A   1      45.716  22.417  36.959  1.00  0.00     0.059 A 
ATOM     85  C   UNL A   1      47.138  23.823  38.338  1.00  0.00     0.059 A 
ATOM     86  F   UNL A   1      47.818  25.921  37.534  1.00  0.00    -0.206 F 
ATOM     87  C   UNL A   1      46.410  22.649  38.147  1.00  0.00     0.060 A 
BRANCH  87  88
ATOM     88  S   UNL A   1      46.325  21.396  39.444  1.00  0.00     0.124 S 
ATOM     89  O   UNL A   1      47.655  21.502  40.037  1.00  0.00    -0.237 OA
ATOM     90  O   UNL A   1      45.223  21.882  40.265  1.00  0.00    -0.237 OA
ATOM     91  O   UNL A   1      46.063  20.164  38.708  1.00  0.00    -0.744 OA
ENDBRANCH  87  88
ENDBRANCH  55  80
BRANCH  67  92
ATOM     92  C   UNL A   1      42.229  30.039  34.878  1.00  0.00     0.058 A 
ATOM     93  C   UNL A   1      40.939  29.611  34.521  1.00  0.00     0.135 A 
ATOM     94  C   UNL A   1      42.338  31.049  35.847  1.00  0.00     0.135 A 
ATOM     95  F   UNL A   1      40.774  28.659  33.589  1.00  0.00    -0.206 F 
ATOM     96  C   UNL A   1      39.801  30.175  35.088  1.00  0.00     0.059 A 
ATOM     97  C   UNL A   1      41.214  31.603  36.453  1.00  0.00     0.059 A 
ATOM     98  F   UNL A   1      43.547  31.491  36.227  1.00  0.00    -0.206 F 
ATOM     99  C   UNL A   1      39.949  31.170  36.054  1.00  0.00     0.060 A 
BRANCH  99 100
ATOM    100  S   UNL A   1      38.461  31.873  36.796  1.00  0.00     0.124 S 
ATOM    101  O   UNL A   1      37.995  32.769  35.743  1.00  0.00    -0.237 OA
ATOM    102  O   UNL A   1      37.644  30.685  37.028  1.00  0.00    -0.237 OA
ATOM    103  O   UNL A   1      38.960  32.526  38.002  1.00  0.00    -0.744 OA
ENDBRANCH  99 100
ENDBRANCH  67  92
ENDBRANCH  41  42
ENDBRANCH  34  36
ENDBRANCH  33  34
ENDBRANCH  32  33
ENDBRANCH  31  32
ENDBRANCH  30  31
ENDBRANCH  29  30
ENDBRANCH   1  29
TORSDOF 26
ENDMDL
MODEL 3
REMARK VINA RESULT:      -7.1      1.641      2.975
REMARK SMILES COc1ccc(F)cc1[C@@H](C(=O)OCCOCCOCCOC(=O)c1ccc(-c2c3nc(c(-c4c(F)cc(S(=O)(=O)[O-])cc4F)c4ccc([nH]4)c(-c4c(F)cc(S(=O)(=O)[O-])cc4F)c4nc(c(-c5c(F)cc(S(=O)(=O)[O-])cc5F)c5ccc2[nH]5)C=C4)C=C3)cc1)[N@@H+](C)CCn1ccnc1C
REMARK SMILES IDX 17 1 16 2 15 3 14 4 13 5 11 6 12 7 10 8 9 9 3 10 4 11 5 12
REMARK SMILES IDX 8 13 6 14 7 15 2 16 1 17 91 18 92 19 93 21 94 22 95 23 96 24
REMARK SMILES IDX 99 25 97 26 98 27 100 28 18 29 19 30 20 31 21 32 22 33 23 34
REMARK SMILES IDX 24 35 25 36 26 37 90 38 27 39 89 40 28 41 29 42 30 43 83 44
REMARK SMILES IDX 31 45 88 46 82 47 84 48 32 49 87 50 81 51 80 52 33 54 67 55
REMARK SMILES IDX 46 56 66 57 47 58 50 59 65 60 85 61 48 62 49 63 64 65 86 66
REMARK SMILES IDX 51 67 34 68 35 69 44 70 36 71 37 72 43 73 45 74 38 75 39 76
REMARK SMILES IDX 40 77 41 78 42 79 68 80 69 81 78 82 70 83 71 84 77 85 79 86
REMARK SMILES IDX 72 87 73 88 74 89 75 90 76 91 52 92 53 93 62 94 54 95 55 96
REMARK SMILES IDX 61 97 63 98 56 99 57 100 58 101 59 102 60 103
REMARK H PARENT 91 20 84 53 50 64
REMARK Flexibility Score: inf
ROOT
ATOM      1  C   UNL A   1      36.300  34.619  32.542  1.00  0.00     0.188 C 
ENDROOT
BRANCH   1   2
ATOM      2  O   UNL A   1      37.616  34.106  32.926  1.00  0.00    -0.376 OA
BRANCH   2   3
ATOM      3  C   UNL A   1      38.815  34.541  33.626  1.00  0.00     0.202 C 
BRANCH   3   4
ATOM      4  C   UNL A   1      40.358  34.724  33.184  1.00  0.00     0.261 C 
BRANCH   4   5
ATOM      5  O   UNL A   1      40.916  33.763  32.248  1.00  0.00    -0.459 OA
BRANCH   5   6
ATOM      6  C   UNL A   1      41.197  34.012  30.922  1.00  0.00     0.370 C 
ATOM      7  O   UNL A   1      40.438  34.668  30.213  1.00  0.00    -0.245 OA
BRANCH   6   8
ATOM      8  C   UNL A   1      42.733  33.713  30.540  1.00  0.00     0.330 C 
BRANCH   8   9
ATOM      9  C   UNL A   1      43.543  34.287  29.331  1.00  0.00     0.066 A 
ATOM     10  C   UNL A   1      44.888  34.683  29.438  1.00  0.00     0.128 A 
ATOM     11  C   UNL A   1      45.563  35.259  28.330  1.00  0.00     0.050 A 
ATOM     12  C   UNL A   1      44.917  35.502  27.118  1.00  0.00     0.043 A 
ATOM     13  C   UNL A   1      42.977  34.430  28.025  1.00  0.00     0.053 A 
ATOM     14  C   UNL A   1      43.620  35.079  26.974  1.00  0.00     0.124 A 
ATOM     15  F   UNL A   1      42.957  35.309  25.833  1.00  0.00    -0.207 F 
BRANCH  10  16
ATOM     16  O   UNL A   1      45.492  34.467  30.646  1.00  0.00    -0.496 OA
ATOM     17  C   UNL A   1      45.312  35.512  31.593  1.00  0.00     0.278 C 
ENDBRANCH  10  16
ENDBRANCH   8   9
BRANCH   8  18
ATOM     18  N   UNL A   1      42.881  32.256  30.550  1.00  0.00    -0.320 N 
ATOM     19  C   UNL A   1      43.650  31.762  29.399  1.00  0.00     0.333 C 
ATOM     20  H   UNL A   1      41.936  31.890  30.433  1.00  0.00     0.348 HD
BRANCH  18  21
ATOM     21  C   UNL A   1      43.302  31.690  31.845  1.00  0.00     0.285 C 
BRANCH  21  22
ATOM     22  C   UNL A   1      44.625  31.989  32.834  1.00  0.00     0.184 C 
BRANCH  22  23
ATOM     23  N   UNL A   1      45.070  32.474  34.162  1.00  0.00    -0.330 N 
ATOM     24  C   UNL A   1      44.843  33.721  34.670  1.00  0.00     0.107 A 
ATOM     25  C   UNL A   1      45.774  31.828  35.244  1.00  0.00     0.105 A 
ATOM     26  C   UNL A   1      45.422  33.829  35.895  1.00  0.00     0.131 A 
ATOM     27  N   UNL A   1      45.985  32.669  36.242  1.00  0.00    -0.242 NA
ATOM     28  C   UNL A   1      46.308  30.444  35.503  1.00  0.00     0.087 C 
ENDBRANCH  22  23
ENDBRANCH  21  22
ENDBRANCH  18  21
ENDBRANCH   8  18
ENDBRANCH   6   8
ENDBRANCH   5   6
ENDBRANCH   4   5
ENDBRANCH   3   4
ENDBRANCH   2   3
ENDBRANCH   1   2
BRANCH   1  29
ATOM     29  C   UNL A   1      35.060  33.933  31.658  1.00  0.00     0.188 C 
BRANCH  29  30
ATOM     30  O   UNL A   1      34.875  34.398  30.323  1.00  0.00    -0.376 OA
BRANCH  30  31
ATOM     31  C   UNL A   1      33.667  34.602  29.571  1.00  0.00     0.202 C 
BRANCH  31  32
ATOM     32  C   UNL A   1      33.449  33.854  28.264  1.00  0.00     0.261 C 
BRANCH  32  33
ATOM     33  O   UNL A   1      34.610  33.128  27.893  1.00  0.00    -0.460 OA
BRANCH  33  34
ATOM     34  C   UNL A   1      34.443  31.780  28.011  1.00  0.00     0.338 C 
ATOM     35  O   UNL A   1      33.430  31.159  27.822  1.00  0.00    -0.246 OA
BRANCH  34  36
ATOM     36  C   UNL A   1      35.803  31.208  28.127  1.00  0.00     0.060 A 
ATOM     37  C   UNL A   1      35.962  29.832  27.935  1.00  0.00     0.016 A 
ATOM     38  C   UNL A   1      36.908  32.034  28.378  1.00  0.00     0.016 A 
ATOM     39  C   UNL A   1      37.214  29.261  28.132  1.00  0.00     0.010 A 
ATOM     40  C   UNL A   1      38.164  31.471  28.541  1.00  0.00     0.010 A 
ATOM     41  C   UNL A   1      38.289  30.075  28.517  1.00  0.00    -0.014 A 
BRANCH  41  42
ATOM     42  C   UNL A   1      39.403  29.471  29.272  1.00  0.00     0.031 A 
ATOM     43  C   UNL A   1      39.553  29.890  30.712  1.00  0.00     0.074 A 
ATOM     44  C   UNL A   1      40.218  28.559  28.723  1.00  0.00     0.049 A 
ATOM     45  N   UNL A   1      40.431  29.513  31.600  1.00  0.00    -0.248 NA
ATOM     46  C   UNL A   1      38.575  30.874  31.219  1.00  0.00     0.031 C 
ATOM     47  C   UNL A   1      40.129  28.054  27.355  1.00  0.00     0.029 A 
ATOM     48  N   UNL A   1      41.280  27.889  29.267  1.00  0.00    -0.354 N 
ATOM     49  C   UNL A   1      40.101  30.196  32.764  1.00  0.00     0.074 A 
ATOM     50  C   UNL A   1      38.989  31.062  32.459  1.00  0.00     0.031 C 
ATOM     51  C   UNL A   1      41.095  27.138  27.171  1.00  0.00     0.029 A 
ATOM     52  C   UNL A   1      41.882  27.015  28.399  1.00  0.00     0.049 A 
ATOM     53  H   UNL A   1      41.583  28.022  30.194  1.00  0.00     0.167 HD
ATOM     54  C   UNL A   1      40.654  30.089  33.992  1.00  0.00     0.037 A 
ATOM     55  C   UNL A   1      42.947  26.211  28.586  1.00  0.00     0.037 A 
ATOM     56  C   UNL A   1      41.769  29.233  34.285  1.00  0.00     0.049 A 
ATOM     57  C   UNL A   1      43.619  26.185  29.935  1.00  0.00     0.074 A 
ATOM     58  C   UNL A   1      42.425  29.061  35.489  1.00  0.00     0.029 A 
ATOM     59  N   UNL A   1      42.396  28.413  33.359  1.00  0.00    -0.354 N 
ATOM     60  N   UNL A   1      43.297  26.830  31.033  1.00  0.00    -0.248 NA
ATOM     61  C   UNL A   1      44.798  25.321  30.072  1.00  0.00     0.031 C 
ATOM     62  C   UNL A   1      43.487  28.177  35.277  1.00  0.00     0.029 A 
ATOM     63  C   UNL A   1      43.453  27.749  33.958  1.00  0.00     0.049 A 
ATOM     64  H   UNL A   1      42.130  28.316  32.417  1.00  0.00     0.167 HD
ATOM     65  C   UNL A   1      44.216  26.427  31.998  1.00  0.00     0.074 A 
ATOM     66  C   UNL A   1      45.099  25.476  31.355  1.00  0.00     0.031 C 
ATOM     67  C   UNL A   1      44.321  26.806  33.297  1.00  0.00     0.037 A 
BRANCH  54  68
ATOM     68  C   UNL A   1      40.066  30.927  35.091  1.00  0.00     0.058 A 
ATOM     69  C   UNL A   1      40.799  31.984  35.651  1.00  0.00     0.135 A 
ATOM     70  C   UNL A   1      38.778  30.680  35.598  1.00  0.00     0.135 A 
ATOM     71  F   UNL A   1      42.026  32.275  35.192  1.00  0.00    -0.206 F 
ATOM     72  C   UNL A   1      40.283  32.758  36.684  1.00  0.00     0.059 A 
ATOM     73  C   UNL A   1      38.229  31.463  36.610  1.00  0.00     0.059 A 
ATOM     74  F   UNL A   1      38.021  29.705  35.073  1.00  0.00    -0.206 F 
ATOM     75  C   UNL A   1      38.997  32.492  37.155  1.00  0.00     0.060 A 
BRANCH  75  76
ATOM     76  S   UNL A   1      38.328  33.538  38.466  1.00  0.00     0.124 S 
ATOM     77  O   UNL A   1      36.897  33.285  38.349  1.00  0.00    -0.237 OA
ATOM     78  O   UNL A   1      38.978  32.990  39.653  1.00  0.00    -0.237 OA
ATOM     79  O   UNL A   1      38.765  34.878  38.086  1.00  0.00    -0.744 OA
ENDBRANCH  75  76
ENDBRANCH  54  68
BRANCH  55  80
ATOM     80  C   UNL A   1      43.420  25.347  27.471  1.00  0.00     0.058 A 
ATOM     81  C   UNL A   1      42.984  24.020  27.342  1.00  0.00     0.135 A 
ATOM     82  C   UNL A   1      44.346  25.826  26.532  1.00  0.00     0.135 A 
ATOM     83  F   UNL A   1      42.103  23.511  28.217  1.00  0.00    -0.206 F 
ATOM     84  C   UNL A   1      43.471  23.188  26.341  1.00  0.00     0.059 A 
ATOM     85  C   UNL A   1      44.829  25.020  25.505  1.00  0.00     0.059 A 
ATOM     86  F   UNL A   1      44.780  27.093  26.606  1.00  0.00    -0.206 F 
ATOM     87  C   UNL A   1      44.399  23.696  25.431  1.00  0.00     0.060 A 
BRANCH  87  88
ATOM     88  S   UNL A   1      45.046  22.586  24.163  1.00  0.00     0.124 S 
ATOM     89  O   UNL A   1      46.208  23.332  23.689  1.00  0.00    -0.237 OA
ATOM     90  O   UNL A   1      45.335  21.381  24.932  1.00  0.00    -0.237 OA
ATOM     91  O   UNL A   1      43.943  22.475  23.215  1.00  0.00    -0.744 OA
ENDBRANCH  87  88
ENDBRANCH  55  80
BRANCH  67  92
ATOM     92  C   UNL A   1      45.414  26.186  34.124  1.00  0.00     0.058 A 
ATOM     93  C   UNL A   1      45.164  25.026  34.878  1.00  0.00     0.135 A 
ATOM     94  C   UNL A   1      46.678  26.785  34.245  1.00  0.00     0.135 A 
ATOM     95  F   UNL A   1      43.968  24.420  34.812  1.00  0.00    -0.206 F 
ATOM     96  C   UNL A   1      46.122  24.492  35.732  1.00  0.00     0.059 A 
ATOM     97  C   UNL A   1      47.663  26.247  35.069  1.00  0.00     0.059 A 
ATOM     98  F   UNL A   1      46.970  27.892  33.545  1.00  0.00    -0.206 F 
ATOM     99  C   UNL A   1      47.369  25.110  35.820  1.00  0.00     0.060 A 
BRANCH  99 100
ATOM    100  S   UNL A   1      48.608  24.388  36.917  1.00  0.00     0.124 S 
ATOM    101  O   UNL A   1      48.543  22.976  36.557  1.00  0.00    -0.237 OA
ATOM    102  O   UNL A   1      49.823  25.091  36.511  1.00  0.00    -0.237 OA
ATOM    103  O   UNL A   1      48.117  24.721  38.250  1.00  0.00    -0.744 OA
ENDBRANCH  99 100
ENDBRANCH  67  92
ENDBRANCH  41  42
ENDBRANCH  34  36
ENDBRANCH  33  34
ENDBRANCH  32  33
ENDBRANCH  31  32
ENDBRANCH  30  31
ENDBRANCH  29  30
ENDBRANCH   1  29
TORSDOF 26
ENDMDL
