MODEL 1
REMARK VINA RESULT:     -10.8      0.000      0.000
REMARK SMILES Cc1ccc2nc(Cl)c([C@@H]3CC(c4cccs4)=NN3C(=O)CCCC(=O)OCCOCCOCCOC(=O)c3ccc(-c4c5nc(c(-c6c(F)cc(S(=O)(=O)[O-])cc6F)c6ccc([nH]6)c(-c6c(F)cc(S(=O)(=O)[O-])cc6F)c6nc(c(-c7c(F)cc(S(=O)(=O)[O-])cc7F)c7ccc4[nH]7)C=C6)C=C5)cc3)cc2c1
REMARK SMILES IDX 31 1 30 2 29 3 28 4 27 5 25 6 26 7 24 8 23 9 22 10 20 11
REMARK SMILES IDX 21 12 19 13 10 14 11 15 12 16 18 17 9 18 1 19 2 20 3 21
REMARK SMILES IDX 107 22 4 23 106 24 5 25 105 26 6 27 7 28 8 29 13 30 14 31
REMARK SMILES IDX 17 32 15 33 16 34 32 35 33 36 34 37 35 38 36 39 37 40 38 41
REMARK SMILES IDX 39 42 40 43 104 44 41 45 103 46 42 47 43 48 44 49 97 50
REMARK SMILES IDX 45 51 102 52 96 53 98 54 46 55 101 56 95 57 94 58 47 60
REMARK SMILES IDX 81 61 60 62 80 63 61 64 64 65 79 66 99 67 62 68 63 69 78 71
REMARK SMILES IDX 100 72 65 73 48 74 49 75 58 76 50 77 51 78 57 79 59 80 52 81
REMARK SMILES IDX 53 82 54 83 55 84 56 85 82 86 83 87 92 88 84 89 85 90 91 91
REMARK SMILES IDX 93 92 86 93 87 94 88 95 89 96 90 97 66 98 67 99 76 100
REMARK SMILES IDX 68 101 69 102 75 103 77 104 70 105 71 106 72 107 73 108
REMARK SMILES IDX 74 109
REMARK H PARENT 98 59 64 70
REMARK Flexibility Score: inf
ROOT
ATOM      1  C   UNL A   1      33.001  27.730  26.511  1.00  0.00     0.188 C 
ENDROOT
BRANCH   1   2
ATOM      2  O   UNL A   1      31.535  27.423  26.505  1.00  0.00    -0.376 OA
BRANCH   2   3
ATOM      3  C   UNL A   1      30.669  26.719  25.498  1.00  0.00     0.202 C 
BRANCH   3   4
ATOM      4  C   UNL A   1      30.101  27.313  23.780  1.00  0.00     0.261 C 
BRANCH   4   5
ATOM      5  O   UNL A   1      30.984  26.621  22.053  1.00  0.00    -0.463 OA
BRANCH   5   6
ATOM      6  C   UNL A   1      32.402  26.253  21.460  1.00  0.00     0.305 C 
ATOM      7  O   UNL A   1      32.605  25.751  20.335  1.00  0.00    -0.252 OA
BRANCH   6   8
ATOM      8  C   UNL A   1      33.645  26.064  22.250  1.00  0.00     0.123 C 
BRANCH   8   9
ATOM      9  C   UNL A   1      33.682  25.475  23.597  1.00  0.00     0.022 C 
BRANCH   9  10
ATOM     10  C   UNL A   1      32.828  24.243  23.622  1.00  0.00     0.103 C 
BRANCH  10  11
ATOM     11  C   UNL A   1      33.518  22.968  23.140  1.00  0.00     0.243 C 
ATOM     12  O   UNL A   1      33.745  22.916  21.920  1.00  0.00    -0.273 OA
BRANCH  11  13
ATOM     13  N   UNL A   1      34.027  22.001  24.014  1.00  0.00    -0.225 N 
ATOM     14  C   UNL A   1      34.897  21.933  25.299  1.00  0.00     0.150 C 
ATOM     15  C   UNL A   1      34.824  20.447  25.684  1.00  0.00     0.092 C 
ATOM     16  C   UNL A   1      33.941  19.904  24.603  1.00  0.00     0.081 C 
ATOM     17  N   UNL A   1      33.491  20.762  23.754  1.00  0.00    -0.173 NA
BRANCH  14  18
ATOM     18  C   UNL A   1      36.349  22.399  25.164  1.00  0.00     0.015 A 
ATOM     19  C   UNL A   1      43.349  21.585  26.454  1.00  0.00     0.044 C 
ATOM     20  C   UNL A   1      41.937  22.061  26.710  1.00  0.00    -0.050 A 
ATOM     21  C   UNL A   1      41.679  23.083  27.603  1.00  0.00     0.005 A 
ATOM     22  C   UNL A   1      40.876  21.452  25.980  1.00  0.00     0.013 A 
ATOM     23  C   UNL A   1      40.407  23.636  27.689  1.00  0.00     0.029 A 
ATOM     24  C   UNL A   1      39.413  21.734  25.947  1.00  0.00     0.001 A 
ATOM     25  C   UNL A   1      39.336  23.194  26.930  1.00  0.00     0.072 A 
ATOM     26  C   UNL A   1      37.788  21.285  25.009  1.00  0.00     0.019 A 
ATOM     27  N   UNL A   1      38.022  24.206  26.873  1.00  0.00    -0.236 NA
ATOM     28  C   UNL A   1      36.628  23.852  26.044  1.00  0.00     0.135 A 
ATOM     29  Cl  UNL A   1      35.561  25.206  25.958  1.00  0.00    -0.062 Cl
ENDBRANCH  14  18
BRANCH  16  30
ATOM     30  C   UNL A   1      33.603  18.516  24.453  1.00  0.00     0.050 A 
ATOM     31  C   UNL A   1      33.953  17.621  23.466  1.00  0.00     0.022 A 
ATOM     32  S   UNL A   1      32.681  17.765  25.693  1.00  0.00    -0.142 S 
ATOM     33  C   UNL A   1      33.492  16.300  23.755  1.00  0.00     0.012 A 
ATOM     34  C   UNL A   1      32.779  16.241  24.932  1.00  0.00     0.065 A 
ENDBRANCH  16  30
ENDBRANCH  11  13
ENDBRANCH  10  11
ENDBRANCH   9  10
ENDBRANCH   8   9
ENDBRANCH   6   8
ENDBRANCH   5   6
ENDBRANCH   4   5
ENDBRANCH   3   4
ENDBRANCH   2   3
ENDBRANCH   1   2
BRANCH   1  35
ATOM     35  C   UNL A   1      33.635  29.282  26.394  1.00  0.00     0.188 C 
BRANCH  35  36
ATOM     36  O   UNL A   1      34.131  29.976  27.545  1.00  0.00    -0.376 OA
BRANCH  36  37
ATOM     37  C   UNL A   1      34.485  31.368  27.677  1.00  0.00     0.202 C 
BRANCH  37  38
ATOM     38  C   UNL A   1      33.419  32.467  27.696  1.00  0.00     0.261 C 
BRANCH  38  39
ATOM     39  O   UNL A   1      33.977  33.759  27.848  1.00  0.00    -0.460 OA
BRANCH  39  40
ATOM     40  C   UNL A   1      33.726  34.288  29.068  1.00  0.00     0.338 C 
ATOM     41  O   UNL A   1      32.661  34.726  29.464  1.00  0.00    -0.246 OA
BRANCH  40  42
ATOM     42  C   UNL A   1      34.888  33.942  29.904  1.00  0.00     0.060 A 
ATOM     43  C   UNL A   1      36.107  34.570  29.630  1.00  0.00     0.016 A 
ATOM     44  C   UNL A   1      34.743  33.091  31.010  1.00  0.00     0.016 A 
ATOM     45  C   UNL A   1      37.216  34.266  30.408  1.00  0.00     0.010 A 
ATOM     46  C   UNL A   1      35.841  32.812  31.806  1.00  0.00     0.010 A 
ATOM     47  C   UNL A   1      37.088  33.344  31.455  1.00  0.00    -0.014 A 
BRANCH  47  48
ATOM     48  C   UNL A   1      38.297  32.687  31.975  1.00  0.00     0.031 A 
ATOM     49  C   UNL A   1      38.691  33.017  33.388  1.00  0.00     0.074 A 
ATOM     50  C   UNL A   1      38.995  31.822  31.225  1.00  0.00     0.049 A 
ATOM     51  N   UNL A   1      39.700  32.580  34.088  1.00  0.00    -0.248 NA
ATOM     52  C   UNL A   1      37.832  33.979  34.106  1.00  0.00     0.031 C 
ATOM     53  C   UNL A   1      38.679  31.440  29.849  1.00  0.00     0.029 A 
ATOM     54  N   UNL A   1      40.124  31.110  31.527  1.00  0.00    -0.354 N 
ATOM     55  C   UNL A   1      39.586  33.197  35.326  1.00  0.00     0.074 A 
ATOM     56  C   UNL A   1      38.450  34.086  35.269  1.00  0.00     0.031 C 
ATOM     57  C   UNL A   1      39.604  30.562  29.422  1.00  0.00     0.029 A 
ATOM     58  C   UNL A   1      40.577  30.336  30.489  1.00  0.00     0.049 A 
ATOM     59  H   UNL A   1      40.568  31.150  32.404  1.00  0.00     0.167 HD
ATOM     60  C   UNL A   1      40.349  33.018  36.427  1.00  0.00     0.037 A 
ATOM     61  C   UNL A   1      41.665  29.545  30.422  1.00  0.00     0.037 A 
ATOM     62  C   UNL A   1      41.480  32.137  36.468  1.00  0.00     0.049 A 
ATOM     63  C   UNL A   1      42.533  29.402  31.645  1.00  0.00     0.074 A 
ATOM     64  C   UNL A   1      42.331  31.877  37.524  1.00  0.00     0.029 A 
ATOM     65  N   UNL A   1      41.918  31.375  35.394  1.00  0.00    -0.354 N 
ATOM     66  N   UNL A   1      42.398  29.964  32.825  1.00  0.00    -0.248 NA
ATOM     67  C   UNL A   1      43.695  28.510  31.535  1.00  0.00     0.031 C 
ATOM     68  C   UNL A   1      43.310  30.984  37.077  1.00  0.00     0.029 A 
ATOM     69  C   UNL A   1      43.041  30.655  35.756  1.00  0.00     0.049 A 
ATOM     70  H   UNL A   1      41.492  31.351  34.507  1.00  0.00     0.167 HD
ATOM     71  C   UNL A   1      43.442  29.474  33.603  1.00  0.00     0.074 A 
ATOM     72  C   UNL A   1      44.193  28.563  32.762  1.00  0.00     0.031 C 
ATOM     73  C   UNL A   1      43.756  29.749  34.893  1.00  0.00     0.037 A 
BRANCH  60  74
ATOM     74  C   UNL A   1      39.976  33.796  37.653  1.00  0.00     0.058 A 
ATOM     75  C   UNL A   1      40.691  34.941  38.041  1.00  0.00     0.135 A 
ATOM     76  C   UNL A   1      38.896  33.393  38.453  1.00  0.00     0.135 A 
ATOM     77  F   UNL A   1      41.753  35.348  37.328  1.00  0.00    -0.206 F 
ATOM     78  C   UNL A   1      40.359  35.650  39.190  1.00  0.00     0.059 A 
ATOM     79  C   UNL A   1      38.531  34.100  39.594  1.00  0.00     0.059 A 
ATOM     80  F   UNL A   1      38.193  32.293  38.136  1.00  0.00    -0.206 F 
ATOM     81  C   UNL A   1      39.277  35.221  39.960  1.00  0.00     0.060 A 
BRANCH  81  82
ATOM     82  S   UNL A   1      38.849  36.157  41.442  1.00  0.00     0.124 S 
ATOM     83  O   UNL A   1      37.810  35.316  42.028  1.00  0.00    -0.237 OA
ATOM     84  O   UNL A   1      40.116  36.195  42.165  1.00  0.00    -0.237 OA
ATOM     85  O   UNL A   1      38.393  37.439  40.914  1.00  0.00    -0.744 OA
ENDBRANCH  81  82
ENDBRANCH  60  74
BRANCH  61  86
ATOM     86  C   UNL A   1      41.989  28.832  29.160  1.00  0.00     0.058 A 
ATOM     87  C   UNL A   1      41.354  27.629  28.819  1.00  0.00     0.135 A 
ATOM     88  C   UNL A   1      42.946  29.343  28.269  1.00  0.00     0.135 A 
ATOM     89  F   UNL A   1      40.435  27.100  29.640  1.00  0.00    -0.206 F 
ATOM     90  C   UNL A   1      41.670  26.945  27.649  1.00  0.00     0.059 A 
ATOM     91  C   UNL A   1      43.263  28.689  27.083  1.00  0.00     0.059 A 
ATOM     92  F   UNL A   1      43.571  30.499  28.543  1.00  0.00    -0.206 F 
ATOM     93  C   UNL A   1      42.627  27.484  26.788  1.00  0.00     0.060 A 
BRANCH  93  94
ATOM     94  S   UNL A   1      43.003  26.612  25.251  1.00  0.00     0.124 S 
ATOM     95  O   UNL A   1      42.007  25.547  25.268  1.00  0.00    -0.237 OA
ATOM     96  O   UNL A   1      42.808  27.656  24.250  1.00  0.00    -0.237 OA
ATOM     97  O   UNL A   1      44.388  26.187  25.438  1.00  0.00    -0.744 OA
ENDBRANCH  93  94
ENDBRANCH  61  86
BRANCH  73  98
ATOM     98  C   UNL A   1      44.942  29.040  35.482  1.00  0.00     0.058 A 
ATOM     99  C   UNL A   1      46.236  29.572  35.385  1.00  0.00     0.135 A 
ATOM    100  C   UNL A   1      44.767  27.854  36.213  1.00  0.00     0.135 A 
ATOM    101  F   UNL A   1      46.454  30.702  34.695  1.00  0.00    -0.206 F 
ATOM    102  C   UNL A   1      47.324  28.938  35.975  1.00  0.00     0.059 A 
ATOM    103  C   UNL A   1      45.836  27.218  36.834  1.00  0.00     0.059 A 
ATOM    104  F   UNL A   1      43.544  27.316  36.346  1.00  0.00    -0.206 F 
ATOM    105  C   UNL A   1      47.113  27.763  36.698  1.00  0.00     0.060 A 
BRANCH 105 106
ATOM    106  S   UNL A   1      48.526  26.969  37.493  1.00  0.00     0.124 S 
ATOM    107  O   UNL A   1      48.763  27.862  38.623  1.00  0.00    -0.237 OA
ATOM    108  O   UNL A   1      47.998  25.650  37.828  1.00  0.00    -0.237 OA
ATOM    109  O   UNL A   1      49.552  26.983  36.455  1.00  0.00    -0.744 OA
ENDBRANCH 105 106
ENDBRANCH  73  98
ENDBRANCH  47  48
ENDBRANCH  40  42
ENDBRANCH  39  40
ENDBRANCH  38  39
ENDBRANCH  37  38
ENDBRANCH  36  37
ENDBRANCH  35  36
ENDBRANCH   1  35
TORSDOF 26
ENDMDL
MODEL 2
REMARK VINA RESULT:      -9.9      4.757      6.806
REMARK SMILES Cc1ccc2nc(Cl)c([C@@H]3CC(c4cccs4)=NN3C(=O)CCCC(=O)OCCOCCOCCOC(=O)c3ccc(-c4c5nc(c(-c6c(F)cc(S(=O)(=O)[O-])cc6F)c6ccc([nH]6)c(-c6c(F)cc(S(=O)(=O)[O-])cc6F)c6nc(c(-c7c(F)cc(S(=O)(=O)[O-])cc7F)c7ccc4[nH]7)C=C6)C=C5)cc3)cc2c1
REMARK SMILES IDX 31 1 30 2 29 3 28 4 27 5 25 6 26 7 24 8 23 9 22 10 20 11
REMARK SMILES IDX 21 12 19 13 10 14 11 15 12 16 18 17 9 18 1 19 2 20 3 21
REMARK SMILES IDX 107 22 4 23 106 24 5 25 105 26 6 27 7 28 8 29 13 30 14 31
REMARK SMILES IDX 17 32 15 33 16 34 32 35 33 36 34 37 35 38 36 39 37 40 38 41
REMARK SMILES IDX 39 42 40 43 104 44 41 45 103 46 42 47 43 48 44 49 97 50
REMARK SMILES IDX 45 51 102 52 96 53 98 54 46 55 101 56 95 57 94 58 47 60
REMARK SMILES IDX 81 61 60 62 80 63 61 64 64 65 79 66 99 67 62 68 63 69 78 71
REMARK SMILES IDX 100 72 65 73 48 74 49 75 58 76 50 77 51 78 57 79 59 80 52 81
REMARK SMILES IDX 53 82 54 83 55 84 56 85 82 86 83 87 92 88 84 89 85 90 91 91
REMARK SMILES IDX 93 92 86 93 87 94 88 95 89 96 90 97 66 98 67 99 76 100
REMARK SMILES IDX 68 101 69 102 75 103 77 104 70 105 71 106 72 107 73 108
REMARK SMILES IDX 74 109
REMARK H PARENT 98 59 64 70
REMARK Flexibility Score: inf
ROOT
ATOM      1  C   UNL A   1      32.311  27.396  26.633  1.00  0.00     0.188 C 
ENDROOT
BRANCH   1   2
ATOM      2  O   UNL A   1      30.882  27.045  26.358  1.00  0.00    -0.376 OA
BRANCH   2   3
ATOM      3  C   UNL A   1      30.241  26.302  25.219  1.00  0.00     0.202 C 
BRANCH   3   4
ATOM      4  C   UNL A   1      29.769  26.937  23.486  1.00  0.00     0.261 C 
BRANCH   4   5
ATOM      5  O   UNL A   1      31.104  26.886  21.919  1.00  0.00    -0.463 OA
BRANCH   5   6
ATOM      6  C   UNL A   1      32.551  26.368  21.554  1.00  0.00     0.305 C 
ATOM      7  O   UNL A   1      32.871  25.818  20.480  1.00  0.00    -0.252 OA
BRANCH   6   8
ATOM      8  C   UNL A   1      33.638  26.086  22.527  1.00  0.00     0.123 C 
BRANCH   8   9
ATOM      9  C   UNL A   1      33.438  25.378  23.801  1.00  0.00     0.022 C 
BRANCH   9  10
ATOM     10  C   UNL A   1      32.671  24.115  23.549  1.00  0.00     0.103 C 
BRANCH  10  11
ATOM     11  C   UNL A   1      33.514  22.924  23.100  1.00  0.00     0.243 C 
ATOM     12  O   UNL A   1      33.853  22.934  21.905  1.00  0.00    -0.273 OA
BRANCH  11  13
ATOM     13  N   UNL A   1      34.032  21.978  23.992  1.00  0.00    -0.225 N 
ATOM     14  C   UNL A   1      34.905  21.940  25.276  1.00  0.00     0.150 C 
ATOM     15  C   UNL A   1      34.841  20.462  25.691  1.00  0.00     0.092 C 
ATOM     16  C   UNL A   1      33.958  19.893  24.624  1.00  0.00     0.081 C 
ATOM     17  N   UNL A   1      33.501  20.731  23.759  1.00  0.00    -0.173 NA
BRANCH  14  18
ATOM     18  C   UNL A   1      36.354  22.410  25.127  1.00  0.00     0.015 A 
ATOM     19  C   UNL A   1      43.350  21.727  26.514  1.00  0.00     0.044 C 
ATOM     20  C   UNL A   1      41.932  22.205  26.732  1.00  0.00    -0.050 A 
ATOM     21  C   UNL A   1      41.658  23.271  27.566  1.00  0.00     0.005 A 
ATOM     22  C   UNL A   1      40.882  21.547  26.028  1.00  0.00     0.013 A 
ATOM     23  C   UNL A   1      40.382  23.817  27.612  1.00  0.00     0.029 A 
ATOM     24  C   UNL A   1      39.417  21.815  25.968  1.00  0.00     0.001 A 
ATOM     25  C   UNL A   1      39.320  23.326  26.870  1.00  0.00     0.072 A 
ATOM     26  C   UNL A   1      37.804  21.303  25.044  1.00  0.00     0.019 A 
ATOM     27  N   UNL A   1      37.999  24.322  26.748  1.00  0.00    -0.236 NA
ATOM     28  C   UNL A   1      36.614  23.912  25.929  1.00  0.00     0.135 A 
ATOM     29  Cl  UNL A   1      35.538  25.249  25.761  1.00  0.00    -0.062 Cl
ENDBRANCH  14  18
BRANCH  16  30
ATOM     30  C   UNL A   1      33.626  18.500  24.503  1.00  0.00     0.050 A 
ATOM     31  C   UNL A   1      34.041  17.567  23.578  1.00  0.00     0.022 A 
ATOM     32  S   UNL A   1      32.617  17.798  25.703  1.00  0.00    -0.142 S 
ATOM     33  C   UNL A   1      33.557  16.259  23.885  1.00  0.00     0.012 A 
ATOM     34  C   UNL A   1      32.762  16.246  25.009  1.00  0.00     0.065 A 
ENDBRANCH  16  30
ENDBRANCH  11  13
ENDBRANCH  10  11
ENDBRANCH   9  10
ENDBRANCH   8   9
ENDBRANCH   6   8
ENDBRANCH   5   6
ENDBRANCH   4   5
ENDBRANCH   3   4
ENDBRANCH   2   3
ENDBRANCH   1   2
BRANCH   1  35
ATOM     35  C   UNL A   1      32.869  28.968  26.842  1.00  0.00     0.188 C 
BRANCH  35  36
ATOM     36  O   UNL A   1      34.148  29.235  27.430  1.00  0.00    -0.376 OA
BRANCH  36  37
ATOM     37  C   UNL A   1      34.767  30.509  27.702  1.00  0.00     0.202 C 
BRANCH  37  38
ATOM     38  C   UNL A   1      33.934  31.750  28.035  1.00  0.00     0.261 C 
BRANCH  38  39
ATOM     39  O   UNL A   1      34.735  32.895  28.257  1.00  0.00    -0.460 OA
BRANCH  39  40
ATOM     40  C   UNL A   1      34.875  33.179  29.573  1.00  0.00     0.338 C 
ATOM     41  O   UNL A   1      34.021  33.063  30.435  1.00  0.00    -0.246 OA
BRANCH  40  42
ATOM     42  C   UNL A   1      36.320  33.347  29.798  1.00  0.00     0.060 A 
ATOM     43  C   UNL A   1      37.197  32.913  28.799  1.00  0.00     0.016 A 
ATOM     44  C   UNL A   1      36.792  34.022  30.934  1.00  0.00     0.016 A 
ATOM     45  C   UNL A   1      38.564  33.066  28.984  1.00  0.00     0.010 A 
ATOM     46  C   UNL A   1      38.154  34.204  31.104  1.00  0.00     0.010 A 
ATOM     47  C   UNL A   1      39.036  33.658  30.163  1.00  0.00    -0.014 A 
BRANCH  47  48
ATOM     48  C   UNL A   1      40.429  33.422  30.569  1.00  0.00     0.031 A 
ATOM     49  C   UNL A   1      41.468  34.338  29.985  1.00  0.00     0.074 A 
ATOM     50  C   UNL A   1      40.746  32.447  31.434  1.00  0.00     0.049 A 
ATOM     51  N   UNL A   1      42.758  34.354  30.175  1.00  0.00    -0.248 NA
ATOM     52  C   UNL A   1      40.985  35.375  29.051  1.00  0.00     0.031 C 
ATOM     53  C   UNL A   1      39.800  31.519  32.053  1.00  0.00     0.029 A 
ATOM     54  N   UNL A   1      41.964  32.081  31.936  1.00  0.00    -0.354 N 
ATOM     55  C   UNL A   1      43.233  35.405  29.403  1.00  0.00     0.074 A 
ATOM     56  C   UNL A   1      42.110  35.968  28.692  1.00  0.00     0.031 C 
ATOM     57  C   UNL A   1      40.482  30.678  32.853  1.00  0.00     0.029 A 
ATOM     58  C   UNL A   1      41.905  31.006  32.787  1.00  0.00     0.049 A 
ATOM     59  H   UNL A   1      42.802  32.543  31.709  1.00  0.00     0.167 HD
ATOM     60  C   UNL A   1      44.495  35.878  29.315  1.00  0.00     0.037 A 
ATOM     61  C   UNL A   1      42.901  30.365  33.427  1.00  0.00     0.037 A 
ATOM     62  C   UNL A   1      45.604  35.304  30.022  1.00  0.00     0.049 A 
ATOM     63  C   UNL A   1      44.310  30.876  33.271  1.00  0.00     0.074 A 
ATOM     64  C   UNL A   1      46.929  35.693  30.007  1.00  0.00     0.029 A 
ATOM     65  N   UNL A   1      45.510  34.209  30.868  1.00  0.00    -0.354 N 
ATOM     66  N   UNL A   1      44.746  31.893  32.565  1.00  0.00    -0.248 NA
ATOM     67  C   UNL A   1      45.361  30.161  34.007  1.00  0.00     0.031 C 
ATOM     68  C   UNL A   1      47.646  34.807  30.818  1.00  0.00     0.029 A 
ATOM     69  C   UNL A   1      46.759  33.895  31.370  1.00  0.00     0.049 A 
ATOM     70  H   UNL A   1      44.678  33.727  31.079  1.00  0.00     0.167 HD
ATOM     71  C   UNL A   1      46.118  31.956  32.791  1.00  0.00     0.074 A 
ATOM     72  C   UNL A   1      46.435  30.878  33.707  1.00  0.00     0.031 C 
ATOM     73  C   UNL A   1      47.034  32.819  32.289  1.00  0.00     0.037 A 
BRANCH  60  74
ATOM     74  C   UNL A   1      44.723  37.061  28.422  1.00  0.00     0.058 A 
ATOM     75  C   UNL A   1      45.333  36.923  27.165  1.00  0.00     0.135 A 
ATOM     76  C   UNL A   1      44.333  38.346  28.827  1.00  0.00     0.135 A 
ATOM     77  F   UNL A   1      45.756  35.720  26.747  1.00  0.00    -0.206 F 
ATOM     78  C   UNL A   1      45.565  38.023  26.346  1.00  0.00     0.059 A 
ATOM     79  C   UNL A   1      44.533  39.457  28.014  1.00  0.00     0.059 A 
ATOM     80  F   UNL A   1      43.763  38.533  30.028  1.00  0.00    -0.206 F 
ATOM     81  C   UNL A   1      45.160  39.286  26.780  1.00  0.00     0.060 A 
BRANCH  81  82
ATOM     82  S   UNL A   1      45.456  40.702  25.702  1.00  0.00     0.124 S 
ATOM     83  O   UNL A   1      46.138  41.621  26.608  1.00  0.00    -0.237 OA
ATOM     84  O   UNL A   1      46.281  40.125  24.646  1.00  0.00    -0.237 OA
ATOM     85  O   UNL A   1      44.113  41.105  25.295  1.00  0.00    -0.744 OA
ENDBRANCH  81  82
ENDBRANCH  60  74
BRANCH  61  86
ATOM     86  C   UNL A   1      42.601  29.178  34.269  1.00  0.00     0.058 A 
ATOM     87  C   UNL A   1      42.361  29.302  35.644  1.00  0.00     0.135 A 
ATOM     88  C   UNL A   1      42.550  27.892  33.708  1.00  0.00     0.135 A 
ATOM     89  F   UNL A   1      42.403  30.510  36.226  1.00  0.00    -0.206 F 
ATOM     90  C   UNL A   1      42.103  28.191  36.442  1.00  0.00     0.059 A 
ATOM     91  C   UNL A   1      42.271  26.768  34.480  1.00  0.00     0.059 A 
ATOM     92  F   UNL A   1      42.757  27.722  32.393  1.00  0.00    -0.206 F 
ATOM     93  C   UNL A   1      42.060  26.928  35.849  1.00  0.00     0.060 A 
BRANCH  93  94
ATOM     94  S   UNL A   1      41.683  25.495  36.882  1.00  0.00     0.124 S 
ATOM     95  O   UNL A   1      40.477  25.940  37.570  1.00  0.00    -0.237 OA
ATOM     96  O   UNL A   1      41.502  24.440  35.890  1.00  0.00    -0.237 OA
ATOM     97  O   UNL A   1      42.875  25.361  37.715  1.00  0.00    -0.744 OA
ENDBRANCH  93  94
ENDBRANCH  61  86
BRANCH  73  98
ATOM     98  C   UNL A   1      48.457  32.655  32.739  1.00  0.00     0.058 A 
ATOM     99  C   UNL A   1      48.936  33.278  33.902  1.00  0.00     0.135 A 
ATOM    100  C   UNL A   1      49.329  31.805  32.039  1.00  0.00     0.135 A 
ATOM    101  F   UNL A   1      48.140  34.100  34.604  1.00  0.00    -0.206 F 
ATOM    102  C   UNL A   1      50.239  33.083  34.343  1.00  0.00     0.059 A 
ATOM    103  C   UNL A   1      50.628  31.574  32.477  1.00  0.00     0.059 A 
ATOM    104  F   UNL A   1      48.911  31.174  30.930  1.00  0.00    -0.206 F 
ATOM    105  C   UNL A   1      51.077  32.228  33.624  1.00  0.00     0.060 A 
BRANCH 105 106
ATOM    106  S   UNL A   1      52.755  31.951  34.227  1.00  0.00     0.124 S 
ATOM    107  O   UNL A   1      53.333  31.175  33.135  1.00  0.00    -0.237 OA
ATOM    108  O   UNL A   1      53.263  33.312  34.376  1.00  0.00    -0.237 OA
ATOM    109  O   UNL A   1      52.551  31.224  35.476  1.00  0.00    -0.744 OA
ENDBRANCH 105 106
ENDBRANCH  73  98
ENDBRANCH  47  48
ENDBRANCH  40  42
ENDBRANCH  39  40
ENDBRANCH  38  39
ENDBRANCH  37  38
ENDBRANCH  36  37
ENDBRANCH  35  36
ENDBRANCH   1  35
TORSDOF 26
ENDMDL
MODEL 3
REMARK VINA RESULT:      -9.8      2.044      3.007
REMARK SMILES Cc1ccc2nc(Cl)c([C@@H]3CC(c4cccs4)=NN3C(=O)CCCC(=O)OCCOCCOCCOC(=O)c3ccc(-c4c5nc(c(-c6c(F)cc(S(=O)(=O)[O-])cc6F)c6ccc([nH]6)c(-c6c(F)cc(S(=O)(=O)[O-])cc6F)c6nc(c(-c7c(F)cc(S(=O)(=O)[O-])cc7F)c7ccc4[nH]7)C=C6)C=C5)cc3)cc2c1
REMARK SMILES IDX 31 1 30 2 29 3 28 4 27 5 25 6 26 7 24 8 23 9 22 10 20 11
REMARK SMILES IDX 21 12 19 13 10 14 11 15 12 16 18 17 9 18 1 19 2 20 3 21
REMARK SMILES IDX 107 22 4 23 106 24 5 25 105 26 6 27 7 28 8 29 13 30 14 31
REMARK SMILES IDX 17 32 15 33 16 34 32 35 33 36 34 37 35 38 36 39 37 40 38 41
REMARK SMILES IDX 39 42 40 43 104 44 41 45 103 46 42 47 43 48 44 49 97 50
REMARK SMILES IDX 45 51 102 52 96 53 98 54 46 55 101 56 95 57 94 58 47 60
REMARK SMILES IDX 81 61 60 62 80 63 61 64 64 65 79 66 99 67 62 68 63 69 78 71
REMARK SMILES IDX 100 72 65 73 48 74 49 75 58 76 50 77 51 78 57 79 59 80 52 81
REMARK SMILES IDX 53 82 54 83 55 84 56 85 82 86 83 87 92 88 84 89 85 90 91 91
REMARK SMILES IDX 93 92 86 93 87 94 88 95 89 96 90 97 66 98 67 99 76 100
REMARK SMILES IDX 68 101 69 102 75 103 77 104 70 105 71 106 72 107 73 108
REMARK SMILES IDX 74 109
REMARK H PARENT 98 59 64 70
REMARK Flexibility Score: inf
ROOT
ATOM      1  C   UNL A   1      32.221  26.749  26.468  1.00  0.00     0.188 C 
ENDROOT
BRANCH   1   2
ATOM      2  O   UNL A   1      30.977  25.918  26.527  1.00  0.00    -0.376 OA
BRANCH   2   3
ATOM      3  C   UNL A   1      29.948  25.589  25.482  1.00  0.00     0.202 C 
BRANCH   3   4
ATOM      4  C   UNL A   1      29.784  26.261  23.707  1.00  0.00     0.261 C 
BRANCH   4   5
ATOM      5  O   UNL A   1      31.190  25.843  22.262  1.00  0.00    -0.463 OA
BRANCH   5   6
ATOM      6  C   UNL A   1      32.673  26.200  21.851  1.00  0.00     0.305 C 
ATOM      7  O   UNL A   1      33.196  25.948  20.745  1.00  0.00    -0.252 OA
BRANCH   6   8
ATOM      8  C   UNL A   1      33.779  26.510  22.793  1.00  0.00     0.123 C 
BRANCH   8   9
ATOM      9  C   UNL A   1      34.239  25.598  23.851  1.00  0.00     0.022 C 
BRANCH   9  10
ATOM     10  C   UNL A   1      33.757  24.210  23.550  1.00  0.00     0.103 C 
BRANCH  10  11
ATOM     11  C   UNL A   1      34.858  23.165  23.379  1.00  0.00     0.243 C 
ATOM     12  O   UNL A   1      35.708  23.427  22.512  1.00  0.00    -0.273 OA
BRANCH  11  13
ATOM     13  N   UNL A   1      35.019  22.080  24.247  1.00  0.00    -0.225 N 
ATOM     14  C   UNL A   1      35.855  21.702  25.501  1.00  0.00     0.150 C 
ATOM     15  C   UNL A   1      35.266  20.342  25.909  1.00  0.00     0.092 C 
ATOM     16  C   UNL A   1      34.206  20.155  24.868  1.00  0.00     0.081 C 
ATOM     17  N   UNL A   1      34.063  21.117  24.025  1.00  0.00    -0.173 NA
BRANCH  14  18
ATOM     18  C   UNL A   1      37.371  21.613  25.306  1.00  0.00     0.015 A 
ATOM     19  C   UNL A   1      43.606  18.168  26.071  1.00  0.00     0.044 C 
ATOM     20  C   UNL A   1      42.481  19.103  26.453  1.00  0.00    -0.050 A 
ATOM     21  C   UNL A   1      42.650  20.059  27.436  1.00  0.00     0.005 A 
ATOM     22  C   UNL A   1      41.246  18.997  25.751  1.00  0.00     0.013 A 
ATOM     23  C   UNL A   1      41.679  21.029  27.647  1.00  0.00     0.029 A 
ATOM     24  C   UNL A   1      39.992  19.799  25.835  1.00  0.00     0.001 A 
ATOM     25  C   UNL A   1      40.495  21.086  26.928  1.00  0.00     0.072 A 
ATOM     26  C   UNL A   1      38.288  20.069  24.974  1.00  0.00     0.019 A 
ATOM     27  N   UNL A   1      39.651  22.510  27.034  1.00  0.00    -0.236 NA
ATOM     28  C   UNL A   1      38.198  22.773  26.274  1.00  0.00     0.135 A 
ATOM     29  Cl  UNL A   1      37.709  24.425  26.360  1.00  0.00    -0.062 Cl
ENDBRANCH  14  18
BRANCH  16  30
ATOM     30  C   UNL A   1      33.384  18.982  24.750  1.00  0.00     0.050 A 
ATOM     31  C   UNL A   1      33.073  18.021  25.687  1.00  0.00     0.022 A 
ATOM     32  S   UNL A   1      32.572  18.705  23.262  1.00  0.00    -0.142 S 
ATOM     33  C   UNL A   1      32.127  17.074  25.186  1.00  0.00     0.012 A 
ATOM     34  C   UNL A   1      31.778  17.325  23.877  1.00  0.00     0.065 A 
ENDBRANCH  16  30
ENDBRANCH  11  13
ENDBRANCH  10  11
ENDBRANCH   9  10
ENDBRANCH   8   9
ENDBRANCH   6   8
ENDBRANCH   5   6
ENDBRANCH   4   5
ENDBRANCH   3   4
ENDBRANCH   2   3
ENDBRANCH   1   2
BRANCH   1  35
ATOM     35  C   UNL A   1      32.236  28.395  26.131  1.00  0.00     0.188 C 
BRANCH  35  36
ATOM     36  O   UNL A   1      32.854  29.335  27.019  1.00  0.00    -0.376 OA
BRANCH  36  37
ATOM     37  C   UNL A   1      32.625  30.754  27.133  1.00  0.00     0.202 C 
BRANCH  37  38
ATOM     38  C   UNL A   1      33.769  31.731  27.415  1.00  0.00     0.261 C 
BRANCH  38  39
ATOM     39  O   UNL A   1      34.024  31.879  28.800  1.00  0.00    -0.460 OA
BRANCH  39  40
ATOM     40  C   UNL A   1      34.979  32.805  29.051  1.00  0.00     0.338 C 
ATOM     41  O   UNL A   1      34.800  33.988  29.283  1.00  0.00    -0.246 OA
BRANCH  40  42
ATOM     42  C   UNL A   1      36.218  32.049  29.299  1.00  0.00     0.060 A 
ATOM     43  C   UNL A   1      36.107  30.761  29.832  1.00  0.00     0.016 A 
ATOM     44  C   UNL A   1      37.461  32.567  28.907  1.00  0.00     0.016 A 
ATOM     45  C   UNL A   1      37.260  30.024  30.068  1.00  0.00     0.010 A 
ATOM     46  C   UNL A   1      38.608  31.821  29.112  1.00  0.00     0.010 A 
ATOM     47  C   UNL A   1      38.508  30.584  29.760  1.00  0.00    -0.014 A 
BRANCH  47  48
ATOM     48  C   UNL A   1      39.711  30.033  30.402  1.00  0.00     0.031 A 
ATOM     49  C   UNL A   1      40.097  30.620  31.730  1.00  0.00     0.074 A 
ATOM     50  C   UNL A   1      40.411  29.041  29.832  1.00  0.00     0.049 A 
ATOM     51  N   UNL A   1      41.100  30.319  32.507  1.00  0.00    -0.248 NA
ATOM     52  C   UNL A   1      39.237  31.701  32.250  1.00  0.00     0.031 C 
ATOM     53  C   UNL A   1      40.102  28.409  28.549  1.00  0.00     0.029 A 
ATOM     54  N   UNL A   1      41.535  28.395  30.269  1.00  0.00    -0.354 N 
ATOM     55  C   UNL A   1      40.981  31.157  33.608  1.00  0.00     0.074 A 
ATOM     56  C   UNL A   1      39.848  32.022  33.377  1.00  0.00     0.031 C 
ATOM     57  C   UNL A   1      41.027  27.464  28.300  1.00  0.00     0.029 A 
ATOM     58  C   UNL A   1      41.992  27.440  29.397  1.00  0.00     0.049 A 
ATOM     59  H   UNL A   1      41.973  28.597  31.127  1.00  0.00     0.167 HD
ATOM     60  C   UNL A   1      41.735  31.184  34.728  1.00  0.00     0.037 A 
ATOM     61  C   UNL A   1      43.077  26.647  29.487  1.00  0.00     0.037 A 
ATOM     62  C   UNL A   1      42.863  30.324  34.940  1.00  0.00     0.049 A 
ATOM     63  C   UNL A   1      43.937  26.734  30.721  1.00  0.00     0.074 A 
ATOM     64  C   UNL A   1      43.707  30.264  36.032  1.00  0.00     0.029 A 
ATOM     65  N   UNL A   1      43.305  29.374  34.031  1.00  0.00    -0.354 N 
ATOM     66  N   UNL A   1      43.797  27.506  31.774  1.00  0.00    -0.248 NA
ATOM     67  C   UNL A   1      45.096  25.834  30.787  1.00  0.00     0.031 C 
ATOM     68  C   UNL A   1      44.685  29.300  35.767  1.00  0.00     0.029 A 
ATOM     69  C   UNL A   1      44.423  28.731  34.529  1.00  0.00     0.049 A 
ATOM     70  H   UNL A   1      42.885  29.186  33.161  1.00  0.00     0.167 HD
ATOM     71  C   UNL A   1      44.834  27.168  32.638  1.00  0.00     0.074 A 
ATOM     72  C   UNL A   1      45.586  26.114  31.987  1.00  0.00     0.031 C 
ATOM     73  C   UNL A   1      45.141  27.679  33.855  1.00  0.00     0.037 A 
BRANCH  60  74
ATOM     74  C   UNL A   1      41.357  32.179  35.784  1.00  0.00     0.058 A 
ATOM     75  C   UNL A   1      40.258  31.965  36.633  1.00  0.00     0.135 A 
ATOM     76  C   UNL A   1      42.096  33.359  35.950  1.00  0.00     0.135 A 
ATOM     77  F   UNL A   1      39.499  30.867  36.492  1.00  0.00    -0.206 F 
ATOM     78  C   UNL A   1      39.895  32.897  37.598  1.00  0.00     0.059 A 
ATOM     79  C   UNL A   1      41.765  34.295  36.925  1.00  0.00     0.059 A 
ATOM     80  F   UNL A   1      43.143  33.619  35.151  1.00  0.00    -0.206 F 
ATOM     81  C   UNL A   1      40.655  34.060  37.736  1.00  0.00     0.060 A 
BRANCH  81  82
ATOM     82  S   UNL A   1      40.179  35.255  39.001  1.00  0.00     0.124 S 
ATOM     83  O   UNL A   1      38.900  35.733  38.484  1.00  0.00    -0.237 OA
ATOM     84  O   UNL A   1      40.107  34.428  40.201  1.00  0.00    -0.237 OA
ATOM     85  O   UNL A   1      41.268  36.227  38.977  1.00  0.00    -0.744 OA
ENDBRANCH  81  82
ENDBRANCH  60  74
BRANCH  61  86
ATOM     86  C   UNL A   1      43.407  25.710  28.382  1.00  0.00     0.058 A 
ATOM     87  C   UNL A   1      42.929  24.392  28.379  1.00  0.00     0.135 A 
ATOM     88  C   UNL A   1      44.211  26.119  27.307  1.00  0.00     0.135 A 
ATOM     89  F   UNL A   1      42.160  23.955  29.387  1.00  0.00    -0.206 F 
ATOM     90  C   UNL A   1      43.254  23.503  27.359  1.00  0.00     0.059 A 
ATOM     91  C   UNL A   1      44.530  25.256  26.264  1.00  0.00     0.059 A 
ATOM     92  F   UNL A   1      44.679  27.376  27.256  1.00  0.00    -0.206 F 
ATOM     93  C   UNL A   1      44.056  23.945  26.305  1.00  0.00     0.060 A 
BRANCH  93  94
ATOM     94  S   UNL A   1      44.439  22.798  24.964  1.00  0.00     0.124 S 
ATOM     95  O   UNL A   1      45.017  23.694  23.969  1.00  0.00    -0.237 OA
ATOM     96  O   UNL A   1      45.366  21.872  25.606  1.00  0.00    -0.237 OA
ATOM     97  O   UNL A   1      43.136  22.232  24.626  1.00  0.00    -0.744 OA
ENDBRANCH  93  94
ENDBRANCH  61  86
BRANCH  73  98
ATOM     98  C   UNL A   1      46.319  27.089  34.574  1.00  0.00     0.058 A 
ATOM     99  C   UNL A   1      46.191  25.949  35.381  1.00  0.00     0.135 A 
ATOM    100  C   UNL A   1      47.603  27.630  34.393  1.00  0.00     0.135 A 
ATOM    101  F   UNL A   1      44.985  25.398  35.586  1.00  0.00    -0.206 F 
ATOM    102  C   UNL A   1      47.294  25.376  36.004  1.00  0.00     0.059 A 
ATOM    103  C   UNL A   1      48.723  27.057  34.985  1.00  0.00     0.059 A 
ATOM    104  F   UNL A   1      47.778  28.711  33.616  1.00  0.00    -0.206 F 
ATOM    105  C   UNL A   1      48.556  25.938  35.799  1.00  0.00     0.060 A 
BRANCH 105 106
ATOM    106  S   UNL A   1      49.986  25.163  36.581  1.00  0.00     0.124 S 
ATOM    107  O   UNL A   1      49.580  25.151  37.983  1.00  0.00    -0.237 OA
ATOM    108  O   UNL A   1      50.034  23.859  35.925  1.00  0.00    -0.237 OA
ATOM    109  O   UNL A   1      51.084  26.065  36.251  1.00  0.00    -0.744 OA
ENDBRANCH 105 106
ENDBRANCH  73  98
ENDBRANCH  47  48
ENDBRANCH  40  42
ENDBRANCH  39  40
ENDBRANCH  38  39
ENDBRANCH  37  38
ENDBRANCH  36  37
ENDBRANCH  35  36
ENDBRANCH   1  35
TORSDOF 26
ENDMDL
