MODEL 1
REMARK VINA RESULT:     -10.9      0.000      0.000
REMARK SMILES O=C(OCCOCCOCCOC(=O)c1ccccc1/N=C/c1coc2ccccc2c1=O)c1ccc(-c2c3nc(c(-c4c(F)cc(S(=O)(=O)[O-])cc4F)c4ccc([nH]4)c(-c4c(F)cc(S(=O)(=O)[O-])cc4F)c4nc(c(-c5c(F)cc(S(=O)(=O)[O-])cc5F)c5ccc2[nH]5)C=C4)C=C3)cc1
REMARK SMILES IDX 7 1 6 2 5 3 4 4 3 5 2 6 1 7 34 8 35 9 99 10 36 11 98 12
REMARK SMILES IDX 37 13 38 14 39 15 92 16 40 17 97 18 91 19 93 20 41 21 96 22
REMARK SMILES IDX 90 23 89 24 42 26 76 27 55 28 75 29 56 30 59 31 74 32 94 33
REMARK SMILES IDX 57 34 58 35 73 37 95 38 60 39 43 40 44 41 53 42 45 43 46 44
REMARK SMILES IDX 52 45 54 46 47 47 48 48 49 49 50 50 51 51 77 52 78 53 87 54
REMARK SMILES IDX 79 55 80 56 86 57 88 58 81 59 82 60 83 61 84 62 85 63 61 64
REMARK SMILES IDX 62 65 71 66 63 67 64 68 70 69 72 70 65 71 66 72 67 73 68 74
REMARK SMILES IDX 69 75 8 76 9 77 10 78 11 79 12 80 13 81 14 82 15 83 16 84
REMARK SMILES IDX 20 85 17 86 19 87 18 88 21 89 22 90 23 91 24 92 32 93 25 94
REMARK SMILES IDX 31 95 33 96 26 97 30 98 27 99 29 100 28 101
REMARK H PARENT 93 25 59 36
REMARK Flexibility Score: inf
ROOT
ATOM      1  C   UNL A   1      33.821  32.687  28.003  1.00  0.00     0.188 C 
ENDROOT
BRANCH   1   2
ATOM      2  O   UNL A   1      34.998  33.444  27.768  1.00  0.00    -0.376 OA
BRANCH   2   3
ATOM      3  C   UNL A   1      35.699  33.885  28.934  1.00  0.00     0.202 C 
BRANCH   3   4
ATOM      4  C   UNL A   1      35.557  32.981  30.168  1.00  0.00     0.261 C 
BRANCH   4   5
ATOM      5  O   UNL A   1      36.744  32.174  30.256  1.00  0.00    -0.460 OA
BRANCH   5   6
ATOM      6  C   UNL A   1      36.640  30.888  30.655  1.00  0.00     0.338 C 
ATOM      7  O   UNL A   1      35.854  30.396  31.445  1.00  0.00    -0.246 OA
BRANCH   6   8
ATOM      8  C   UNL A   1      37.778  30.198  30.024  1.00  0.00     0.060 A 
ATOM      9  C   UNL A   1      38.703  29.561  30.863  1.00  0.00     0.016 A 
ATOM     10  C   UNL A   1      37.977  30.247  28.646  1.00  0.00     0.016 A 
ATOM     11  C   UNL A   1      39.896  29.094  30.347  1.00  0.00     0.010 A 
ATOM     12  C   UNL A   1      39.172  29.748  28.120  1.00  0.00     0.010 A 
ATOM     13  C   UNL A   1      40.152  29.221  28.978  1.00  0.00    -0.014 A 
BRANCH  13  14
ATOM     14  C   UNL A   1      41.511  28.885  28.507  1.00  0.00     0.031 A 
ATOM     15  C   UNL A   1      42.615  29.881  28.706  1.00  0.00     0.074 A 
ATOM     16  C   UNL A   1      41.743  27.655  28.014  1.00  0.00     0.049 A 
ATOM     17  N   UNL A   1      43.878  29.774  28.393  1.00  0.00    -0.248 NA
ATOM     18  C   UNL A   1      42.256  31.177  29.311  1.00  0.00     0.031 C 
ATOM     19  C   UNL A   1      40.714  26.634  27.804  1.00  0.00     0.029 A 
ATOM     20  N   UNL A   1      42.908  27.029  27.656  1.00  0.00    -0.354 N 
ATOM     21  C   UNL A   1      44.437  31.019  28.656  1.00  0.00     0.074 A 
ATOM     22  C   UNL A   1      43.398  31.845  29.227  1.00  0.00     0.031 C 
ATOM     23  C   UNL A   1      41.307  25.487  27.435  1.00  0.00     0.029 A 
ATOM     24  C   UNL A   1      42.748  25.694  27.357  1.00  0.00     0.049 A 
ATOM     25  H   UNL A   1      43.777  27.491  27.617  1.00  0.00     0.167 HD
ATOM     26  C   UNL A   1      45.694  31.433  28.380  1.00  0.00     0.037 A 
ATOM     27  C   UNL A   1      43.679  24.754  27.086  1.00  0.00     0.037 A 
ATOM     28  C   UNL A   1      46.713  30.564  27.853  1.00  0.00     0.049 A 
ATOM     29  C   UNL A   1      45.112  25.205  26.987  1.00  0.00     0.074 A 
ATOM     30  C   UNL A   1      48.013  30.870  27.497  1.00  0.00     0.029 A 
ATOM     31  N   UNL A   1      46.539  29.207  27.620  1.00  0.00    -0.354 N 
ATOM     32  N   UNL A   1      45.618  26.394  27.219  1.00  0.00    -0.248 NA
ATOM     33  C   UNL A   1      46.090  24.207  26.538  1.00  0.00     0.031 C 
ATOM     34  C   UNL A   1      48.615  29.703  27.012  1.00  0.00     0.029 A 
ATOM     35  C   UNL A   1      47.700  28.666  27.102  1.00  0.00     0.049 A 
ATOM     36  H   UNL A   1      45.711  28.705  27.797  1.00  0.00     0.167 HD
ATOM     37  C   UNL A   1      46.955  26.303  26.862  1.00  0.00     0.074 A 
ATOM     38  C   UNL A   1      47.206  24.918  26.519  1.00  0.00     0.031 C 
ATOM     39  C   UNL A   1      47.881  27.285  26.747  1.00  0.00     0.037 A 
BRANCH  26  40
ATOM     40  C   UNL A   1      46.002  32.894  28.526  1.00  0.00     0.058 A 
ATOM     41  C   UNL A   1      45.784  33.826  27.502  1.00  0.00     0.135 A 
ATOM     42  C   UNL A   1      46.501  33.371  29.751  1.00  0.00     0.135 A 
ATOM     43  F   UNL A   1      45.337  33.419  26.303  1.00  0.00    -0.206 F 
ATOM     44  C   UNL A   1      46.053  35.181  27.685  1.00  0.00     0.059 A 
ATOM     45  C   UNL A   1      46.759  34.721  29.963  1.00  0.00     0.059 A 
ATOM     46  F   UNL A   1      46.742  32.518  30.759  1.00  0.00    -0.206 F 
ATOM     47  C   UNL A   1      46.537  35.618  28.920  1.00  0.00     0.060 A 
BRANCH  47  48
ATOM     48  S   UNL A   1      46.861  37.379  29.155  1.00  0.00     0.124 S 
ATOM     49  O   UNL A   1      45.547  37.955  28.886  1.00  0.00    -0.237 OA
ATOM     50  O   UNL A   1      47.304  37.432  30.544  1.00  0.00    -0.237 OA
ATOM     51  O   UNL A   1      47.888  37.672  28.161  1.00  0.00    -0.744 OA
ENDBRANCH  47  48
ENDBRANCH  26  40
BRANCH  27  52
ATOM     52  C   UNL A   1      43.324  23.317  26.898  1.00  0.00     0.058 A 
ATOM     53  C   UNL A   1      43.187  22.782  25.603  1.00  0.00     0.135 A 
ATOM     54  C   UNL A   1      43.134  22.442  27.976  1.00  0.00     0.135 A 
ATOM     55  F   UNL A   1      43.383  23.564  24.530  1.00  0.00    -0.206 F 
ATOM     56  C   UNL A   1      42.907  21.436  25.386  1.00  0.00     0.059 A 
ATOM     57  C   UNL A   1      42.883  21.085  27.785  1.00  0.00     0.059 A 
ATOM     58  F   UNL A   1      43.233  22.891  29.237  1.00  0.00    -0.206 F 
ATOM     59  C   UNL A   1      42.773  20.591  26.486  1.00  0.00     0.060 A 
BRANCH  59  60
ATOM     60  S   UNL A   1      42.560  18.820  26.208  1.00  0.00     0.124 S 
ATOM     61  O   UNL A   1      41.251  18.781  25.568  1.00  0.00    -0.237 OA
ATOM     62  O   UNL A   1      43.702  18.502  25.354  1.00  0.00    -0.237 OA
ATOM     63  O   UNL A   1      42.627  18.268  27.557  1.00  0.00    -0.744 OA
ENDBRANCH  59  60
ENDBRANCH  27  52
BRANCH  39  64
ATOM     64  C   UNL A   1      49.183  26.892  26.121  1.00  0.00     0.058 A 
ATOM     65  C   UNL A   1      49.365  27.025  24.734  1.00  0.00     0.135 A 
ATOM     66  C   UNL A   1      50.256  26.434  26.893  1.00  0.00     0.135 A 
ATOM     67  F   UNL A   1      48.356  27.449  23.956  1.00  0.00    -0.206 F 
ATOM     68  C   UNL A   1      50.570  26.698  24.131  1.00  0.00     0.059 A 
ATOM     69  C   UNL A   1      51.480  26.122  26.312  1.00  0.00     0.059 A 
ATOM     70  F   UNL A   1      50.126  26.297  28.222  1.00  0.00    -0.206 F 
ATOM     71  C   UNL A   1      51.623  26.251  24.928  1.00  0.00     0.060 A 
BRANCH  71  72
ATOM     72  S   UNL A   1      53.199  25.876  24.136  1.00  0.00     0.124 S 
ATOM     73  O   UNL A   1      54.059  26.917  24.689  1.00  0.00    -0.237 OA
ATOM     74  O   UNL A   1      53.467  24.519  24.601  1.00  0.00    -0.237 OA
ATOM     75  O   UNL A   1      52.900  25.997  22.713  1.00  0.00    -0.744 OA
ENDBRANCH  71  72
ENDBRANCH  39  64
ENDBRANCH  13  14
ENDBRANCH   6   8
ENDBRANCH   5   6
ENDBRANCH   4   5
ENDBRANCH   3   4
ENDBRANCH   2   3
ENDBRANCH   1   2
BRANCH   1  76
ATOM     76  C   UNL A   1      33.915  31.205  27.621  1.00  0.00     0.188 C 
BRANCH  76  77
ATOM     77  O   UNL A   1      32.756  30.472  27.273  1.00  0.00    -0.376 OA
BRANCH  77  78
ATOM     78  C   UNL A   1      32.873  29.166  26.741  1.00  0.00     0.202 C 
BRANCH  78  79
ATOM     79  C   UNL A   1      32.039  28.006  27.299  1.00  0.00     0.261 C 
BRANCH  79  80
ATOM     80  O   UNL A   1      32.186  26.716  26.701  1.00  0.00    -0.460 OA
BRANCH  80  81
ATOM     81  C   UNL A   1      31.054  26.266  26.109  1.00  0.00     0.340 C 
ATOM     82  O   UNL A   1      30.043  25.862  26.659  1.00  0.00    -0.246 OA
BRANCH  81  83
ATOM     83  C   UNL A   1      31.275  26.152  24.666  1.00  0.00     0.085 A 
ATOM     84  C   UNL A   1      31.207  27.288  23.848  1.00  0.00     0.018 A 
ATOM     85  C   UNL A   1      31.574  24.884  24.141  1.00  0.00     0.077 A 
ATOM     86  C   UNL A   1      31.391  27.154  22.473  1.00  0.00     0.001 A 
ATOM     87  C   UNL A   1      31.710  24.768  22.752  1.00  0.00     0.029 A 
ATOM     88  C   UNL A   1      31.609  25.891  21.921  1.00  0.00     0.002 A 
BRANCH  85  89
ATOM     89  N   UNL A   1      32.139  23.876  24.925  1.00  0.00    -0.255 NA
ATOM     90  C   UNL A   1      32.445  22.678  24.553  1.00  0.00     0.127 C 
BRANCH  90  91
ATOM     91  C   UNL A   1      32.642  21.591  25.595  1.00  0.00     0.076 A 
ATOM     92  C   UNL A   1      33.132  20.461  25.048  1.00  0.00     0.209 A 
ATOM     93  C   UNL A   1      33.593  22.010  26.695  1.00  0.00     0.201 A 
ATOM     94  O   UNL A   1      34.505  20.280  24.780  1.00  0.00    -0.463 OA
ATOM     95  C   UNL A   1      34.977  22.172  26.203  1.00  0.00     0.065 A 
ATOM     96  O   UNL A   1      33.224  22.297  27.824  1.00  0.00    -0.288 OA
ATOM     97  C   UNL A   1      35.316  21.342  25.123  1.00  0.00     0.137 A 
ATOM     98  C   UNL A   1      35.683  23.339  26.486  1.00  0.00     0.016 A 
ATOM     99  C   UNL A   1      36.342  21.695  24.271  1.00  0.00     0.048 A 
ATOM    100  C   UNL A   1      36.682  23.717  25.599  1.00  0.00     0.001 A 
ATOM    101  C   UNL A   1      36.969  22.921  24.483  1.00  0.00     0.004 A 
ENDBRANCH  90  91
ENDBRANCH  85  89
ENDBRANCH  81  83
ENDBRANCH  80  81
ENDBRANCH  79  80
ENDBRANCH  78  79
ENDBRANCH  77  78
ENDBRANCH  76  77
ENDBRANCH   1  76
TORSDOF 22
ENDMDL
MODEL 2
REMARK VINA RESULT:     -10.6      5.928     11.868
REMARK SMILES O=C(OCCOCCOCCOC(=O)c1ccccc1/N=C/c1coc2ccccc2c1=O)c1ccc(-c2c3nc(c(-c4c(F)cc(S(=O)(=O)[O-])cc4F)c4ccc([nH]4)c(-c4c(F)cc(S(=O)(=O)[O-])cc4F)c4nc(c(-c5c(F)cc(S(=O)(=O)[O-])cc5F)c5ccc2[nH]5)C=C4)C=C3)cc1
REMARK SMILES IDX 7 1 6 2 5 3 4 4 3 5 2 6 1 7 34 8 35 9 99 10 36 11 98 12
REMARK SMILES IDX 37 13 38 14 39 15 92 16 40 17 97 18 91 19 93 20 41 21 96 22
REMARK SMILES IDX 90 23 89 24 42 26 76 27 55 28 75 29 56 30 59 31 74 32 94 33
REMARK SMILES IDX 57 34 58 35 73 37 95 38 60 39 43 40 44 41 53 42 45 43 46 44
REMARK SMILES IDX 52 45 54 46 47 47 48 48 49 49 50 50 51 51 77 52 78 53 87 54
REMARK SMILES IDX 79 55 80 56 86 57 88 58 81 59 82 60 83 61 84 62 85 63 61 64
REMARK SMILES IDX 62 65 71 66 63 67 64 68 70 69 72 70 65 71 66 72 67 73 68 74
REMARK SMILES IDX 69 75 8 76 9 77 10 78 11 79 12 80 13 81 14 82 15 83 16 84
REMARK SMILES IDX 20 85 17 86 19 87 18 88 21 89 22 90 23 91 24 92 32 93 25 94
REMARK SMILES IDX 31 95 33 96 26 97 30 98 27 99 29 100 28 101
REMARK H PARENT 93 25 59 36
REMARK Flexibility Score: inf
ROOT
ATOM      1  C   UNL A   1      39.408  22.044  26.338  1.00  0.00     0.188 C 
ENDROOT
BRANCH   1   2
ATOM      2  O   UNL A   1      40.433  21.155  25.924  1.00  0.00    -0.376 OA
BRANCH   2   3
ATOM      3  C   UNL A   1      41.725  21.385  26.494  1.00  0.00     0.202 C 
BRANCH   3   4
ATOM      4  C   UNL A   1      42.572  22.457  25.792  1.00  0.00     0.261 C 
BRANCH   4   5
ATOM      5  O   UNL A   1      42.468  23.667  26.561  1.00  0.00    -0.460 OA
BRANCH   5   6
ATOM      6  C   UNL A   1      42.326  24.848  25.921  1.00  0.00     0.338 C 
ATOM      7  O   UNL A   1      42.685  25.153  24.797  1.00  0.00    -0.246 OA
BRANCH   6   8
ATOM      8  C   UNL A   1      41.750  25.761  26.922  1.00  0.00     0.060 A 
ATOM      9  C   UNL A   1      42.241  27.073  26.970  1.00  0.00     0.016 A 
ATOM     10  C   UNL A   1      40.808  25.315  27.848  1.00  0.00     0.016 A 
ATOM     11  C   UNL A   1      41.900  27.900  28.023  1.00  0.00     0.010 A 
ATOM     12  C   UNL A   1      40.442  26.162  28.897  1.00  0.00     0.010 A 
ATOM     13  C   UNL A   1      41.029  27.433  29.013  1.00  0.00    -0.014 A 
BRANCH  13  14
ATOM     14  C   UNL A   1      40.847  28.277  30.210  1.00  0.00     0.031 A 
ATOM     15  C   UNL A   1      41.896  28.251  31.283  1.00  0.00     0.074 A 
ATOM     16  C   UNL A   1      39.805  29.127  30.255  1.00  0.00     0.049 A 
ATOM     17  N   UNL A   1      41.944  28.931  32.396  1.00  0.00    -0.248 NA
ATOM     18  C   UNL A   1      43.027  27.322  31.100  1.00  0.00     0.031 C 
ATOM     19  C   UNL A   1      38.755  29.211  29.239  1.00  0.00     0.029 A 
ATOM     20  N   UNL A   1      39.483  30.116  31.148  1.00  0.00    -0.354 N 
ATOM     21  C   UNL A   1      43.040  28.436  33.093  1.00  0.00     0.074 A 
ATOM     22  C   UNL A   1      43.677  27.452  32.248  1.00  0.00     0.031 C 
ATOM     23  C   UNL A   1      37.954  30.251  29.524  1.00  0.00     0.029 A 
ATOM     24  C   UNL A   1      38.416  30.892  30.750  1.00  0.00     0.049 A 
ATOM     25  H   UNL A   1      39.968  30.258  31.993  1.00  0.00     0.167 HD
ATOM     26  C   UNL A   1      43.425  28.745  34.351  1.00  0.00     0.037 A 
ATOM     27  C   UNL A   1      37.906  32.009  31.311  1.00  0.00     0.037 A 
ATOM     28  C   UNL A   1      42.789  29.765  35.142  1.00  0.00     0.049 A 
ATOM     29  C   UNL A   1      38.496  32.457  32.622  1.00  0.00     0.074 A 
ATOM     30  C   UNL A   1      43.062  30.149  36.442  1.00  0.00     0.029 A 
ATOM     31  N   UNL A   1      41.755  30.573  34.691  1.00  0.00    -0.354 N 
ATOM     32  N   UNL A   1      39.520  31.961  33.277  1.00  0.00    -0.248 NA
ATOM     33  C   UNL A   1      37.830  33.578  33.298  1.00  0.00     0.031 C 
ATOM     34  C   UNL A   1      42.165  31.165  36.790  1.00  0.00     0.029 A 
ATOM     35  C   UNL A   1      41.361  31.438  35.695  1.00  0.00     0.049 A 
ATOM     36  H   UNL A   1      41.361  30.536  33.790  1.00  0.00     0.167 HD
ATOM     37  C   UNL A   1      39.564  32.656  34.476  1.00  0.00     0.074 A 
ATOM     38  C   UNL A   1      38.548  33.686  34.405  1.00  0.00     0.031 C 
ATOM     39  C   UNL A   1      40.318  32.420  35.576  1.00  0.00     0.037 A 
BRANCH  26  40
ATOM     40  C   UNL A   1      44.492  27.904  34.988  1.00  0.00     0.058 A 
ATOM     41  C   UNL A   1      45.848  28.257  34.981  1.00  0.00     0.135 A 
ATOM     42  C   UNL A   1      44.125  26.721  35.654  1.00  0.00     0.135 A 
ATOM     43  F   UNL A   1      46.255  29.360  34.333  1.00  0.00    -0.206 F 
ATOM     44  C   UNL A   1      46.806  27.465  35.610  1.00  0.00     0.059 A 
ATOM     45  C   UNL A   1      45.061  25.925  36.305  1.00  0.00     0.059 A 
ATOM     46  F   UNL A   1      42.842  26.329  35.677  1.00  0.00    -0.206 F 
ATOM     47  C   UNL A   1      46.402  26.303  36.271  1.00  0.00     0.060 A 
BRANCH  47  48
ATOM     48  S   UNL A   1      47.649  25.296  37.102  1.00  0.00     0.124 S 
ATOM     49  O   UNL A   1      48.866  25.706  36.407  1.00  0.00    -0.237 OA
ATOM     50  O   UNL A   1      47.533  25.736  38.488  1.00  0.00    -0.237 OA
ATOM     51  O   UNL A   1      47.212  23.928  36.843  1.00  0.00    -0.744 OA
ENDBRANCH  47  48
ENDBRANCH  26  40
BRANCH  27  52
ATOM     52  C   UNL A   1      36.809  32.789  30.670  1.00  0.00     0.058 A 
ATOM     53  C   UNL A   1      35.465  32.535  31.004  1.00  0.00     0.135 A 
ATOM     54  C   UNL A   1      37.056  33.807  29.737  1.00  0.00     0.135 A 
ATOM     55  F   UNL A   1      35.167  31.591  31.910  1.00  0.00    -0.206 F 
ATOM     56  C   UNL A   1      34.417  33.275  30.465  1.00  0.00     0.059 A 
ATOM     57  C   UNL A   1      36.026  34.581  29.207  1.00  0.00     0.059 A 
ATOM     58  F   UNL A   1      38.312  34.089  29.362  1.00  0.00    -0.206 F 
ATOM     59  C   UNL A   1      34.711  34.310  29.579  1.00  0.00     0.060 A 
BRANCH  59  60
ATOM     60  S   UNL A   1      33.369  35.368  28.995  1.00  0.00     0.124 S 
ATOM     61  O   UNL A   1      32.531  34.411  28.285  1.00  0.00    -0.237 OA
ATOM     62  O   UNL A   1      32.826  35.896  30.244  1.00  0.00    -0.237 OA
ATOM     63  O   UNL A   1      34.065  36.346  28.164  1.00  0.00    -0.744 OA
ENDBRANCH  59  60
ENDBRANCH  27  52
BRANCH  39  64
ATOM     64  C   UNL A   1      39.971  33.216  36.796  1.00  0.00     0.058 A 
ATOM     65  C   UNL A   1      38.932  32.791  37.641  1.00  0.00     0.135 A 
ATOM     66  C   UNL A   1      40.691  34.363  37.150  1.00  0.00     0.135 A 
ATOM     67  F   UNL A   1      38.209  31.703  37.330  1.00  0.00    -0.206 F 
ATOM     68  C   UNL A   1      38.608  33.490  38.793  1.00  0.00     0.059 A 
ATOM     69  C   UNL A   1      40.397  35.066  38.312  1.00  0.00     0.059 A 
ATOM     70  F   UNL A   1      41.693  34.801  36.372  1.00  0.00    -0.206 F 
ATOM     71  C   UNL A   1      39.349  34.625  39.123  1.00  0.00     0.060 A 
BRANCH  71  72
ATOM     72  S   UNL A   1      38.947  35.497  40.650  1.00  0.00     0.124 S 
ATOM     73  O   UNL A   1      38.603  36.822  40.147  1.00  0.00    -0.237 OA
ATOM     74  O   UNL A   1      37.836  34.709  41.176  1.00  0.00    -0.237 OA
ATOM     75  O   UNL A   1      40.184  35.417  41.419  1.00  0.00    -0.744 OA
ENDBRANCH  71  72
ENDBRANCH  39  64
ENDBRANCH  13  14
ENDBRANCH   6   8
ENDBRANCH   5   6
ENDBRANCH   4   5
ENDBRANCH   3   4
ENDBRANCH   2   3
ENDBRANCH   1   2
BRANCH   1  76
ATOM     76  C   UNL A   1      38.096  21.934  25.551  1.00  0.00     0.188 C 
BRANCH  76  77
ATOM     77  O   UNL A   1      37.565  23.054  24.870  1.00  0.00    -0.376 OA
BRANCH  77  78
ATOM     78  C   UNL A   1      36.750  22.871  23.728  1.00  0.00     0.202 C 
BRANCH  78  79
ATOM     79  C   UNL A   1      35.306  23.386  23.694  1.00  0.00     0.261 C 
BRANCH  79  80
ATOM     80  O   UNL A   1      34.251  22.437  23.519  1.00  0.00    -0.460 OA
BRANCH  80  81
ATOM     81  C   UNL A   1      33.090  22.993  23.102  1.00  0.00     0.340 C 
ATOM     82  O   UNL A   1      32.863  23.503  22.017  1.00  0.00    -0.246 OA
BRANCH  81  83
ATOM     83  C   UNL A   1      32.157  23.070  24.228  1.00  0.00     0.085 A 
ATOM     84  C   UNL A   1      32.059  22.009  25.138  1.00  0.00     0.018 A 
ATOM     85  C   UNL A   1      31.390  24.237  24.373  1.00  0.00     0.077 A 
ATOM     86  C   UNL A   1      31.144  22.089  26.187  1.00  0.00     0.001 A 
ATOM     87  C   UNL A   1      30.447  24.275  25.407  1.00  0.00     0.029 A 
ATOM     88  C   UNL A   1      30.316  23.205  26.303  1.00  0.00     0.002 A 
BRANCH  85  89
ATOM     89  N   UNL A   1      31.801  25.461  23.839  1.00  0.00    -0.255 NA
ATOM     90  C   UNL A   1      31.390  26.637  24.177  1.00  0.00     0.127 C 
BRANCH  90  91
ATOM     91  C   UNL A   1      31.599  27.809  23.235  1.00  0.00     0.076 A 
ATOM     92  C   UNL A   1      30.681  28.776  23.432  1.00  0.00     0.209 A 
ATOM     93  C   UNL A   1      32.964  28.443  23.395  1.00  0.00     0.201 A 
ATOM     94  O   UNL A   1      30.799  29.738  24.456  1.00  0.00    -0.463 OA
ATOM     95  C   UNL A   1      33.117  29.112  24.703  1.00  0.00     0.065 A 
ATOM     96  O   UNL A   1      33.865  28.304  22.580  1.00  0.00    -0.288 OA
ATOM     97  C   UNL A   1      31.927  29.624  25.242  1.00  0.00     0.137 A 
ATOM     98  C   UNL A   1      34.229  28.840  25.497  1.00  0.00     0.016 A 
ATOM     99  C   UNL A   1      31.811  29.826  26.603  1.00  0.00     0.048 A 
ATOM    100  C   UNL A   1      34.093  28.997  26.869  1.00  0.00     0.001 A 
ATOM    101  C   UNL A   1      32.880  29.441  27.409  1.00  0.00     0.004 A 
ENDBRANCH  90  91
ENDBRANCH  85  89
ENDBRANCH  81  83
ENDBRANCH  80  81
ENDBRANCH  79  80
ENDBRANCH  78  79
ENDBRANCH  77  78
ENDBRANCH  76  77
ENDBRANCH   1  76
TORSDOF 22
ENDMDL
MODEL 3
REMARK VINA RESULT:     -10.5      6.165     11.391
REMARK SMILES O=C(OCCOCCOCCOC(=O)c1ccccc1/N=C/c1coc2ccccc2c1=O)c1ccc(-c2c3nc(c(-c4c(F)cc(S(=O)(=O)[O-])cc4F)c4ccc([nH]4)c(-c4c(F)cc(S(=O)(=O)[O-])cc4F)c4nc(c(-c5c(F)cc(S(=O)(=O)[O-])cc5F)c5ccc2[nH]5)C=C4)C=C3)cc1
REMARK SMILES IDX 7 1 6 2 5 3 4 4 3 5 2 6 1 7 34 8 35 9 99 10 36 11 98 12
REMARK SMILES IDX 37 13 38 14 39 15 92 16 40 17 97 18 91 19 93 20 41 21 96 22
REMARK SMILES IDX 90 23 89 24 42 26 76 27 55 28 75 29 56 30 59 31 74 32 94 33
REMARK SMILES IDX 57 34 58 35 73 37 95 38 60 39 43 40 44 41 53 42 45 43 46 44
REMARK SMILES IDX 52 45 54 46 47 47 48 48 49 49 50 50 51 51 77 52 78 53 87 54
REMARK SMILES IDX 79 55 80 56 86 57 88 58 81 59 82 60 83 61 84 62 85 63 61 64
REMARK SMILES IDX 62 65 71 66 63 67 64 68 70 69 72 70 65 71 66 72 67 73 68 74
REMARK SMILES IDX 69 75 8 76 9 77 10 78 11 79 12 80 13 81 14 82 15 83 16 84
REMARK SMILES IDX 20 85 17 86 19 87 18 88 21 89 22 90 23 91 24 92 32 93 25 94
REMARK SMILES IDX 31 95 33 96 26 97 30 98 27 99 29 100 28 101
REMARK H PARENT 93 25 59 36
REMARK Flexibility Score: inf
ROOT
ATOM      1  C   UNL A   1      37.325  21.193  24.964  1.00  0.00     0.188 C 
ENDROOT
BRANCH   1   2
ATOM      2  O   UNL A   1      38.734  21.100  25.110  1.00  0.00    -0.376 OA
BRANCH   2   3
ATOM      3  C   UNL A   1      39.258  21.515  26.375  1.00  0.00     0.202 C 
BRANCH   3   4
ATOM      4  C   UNL A   1      40.536  22.365  26.311  1.00  0.00     0.261 C 
BRANCH   4   5
ATOM      5  O   UNL A   1      40.163  23.731  26.560  1.00  0.00    -0.460 OA
BRANCH   5   6
ATOM      6  C   UNL A   1      41.081  24.708  26.394  1.00  0.00     0.338 C 
ATOM      7  O   UNL A   1      42.077  24.706  25.692  1.00  0.00    -0.246 OA
BRANCH   6   8
ATOM      8  C   UNL A   1      40.701  25.759  27.352  1.00  0.00     0.060 A 
ATOM      9  C   UNL A   1      41.369  26.989  27.274  1.00  0.00     0.016 A 
ATOM     10  C   UNL A   1      39.768  25.514  28.360  1.00  0.00     0.016 A 
ATOM     11  C   UNL A   1      41.213  27.925  28.278  1.00  0.00     0.010 A 
ATOM     12  C   UNL A   1      39.590  26.473  29.360  1.00  0.00     0.010 A 
ATOM     13  C   UNL A   1      40.352  27.654  29.346  1.00  0.00    -0.014 A 
BRANCH  13  14
ATOM     14  C   UNL A   1      40.366  28.594  30.484  1.00  0.00     0.031 A 
ATOM     15  C   UNL A   1      39.225  29.556  30.645  1.00  0.00     0.074 A 
ATOM     16  C   UNL A   1      41.341  28.488  31.404  1.00  0.00     0.049 A 
ATOM     17  N   UNL A   1      39.029  30.442  31.583  1.00  0.00    -0.248 NA
ATOM     18  C   UNL A   1      38.179  29.544  29.605  1.00  0.00     0.031 C 
ATOM     19  C   UNL A   1      42.474  27.565  31.314  1.00  0.00     0.029 A 
ATOM     20  N   UNL A   1      41.514  29.107  32.615  1.00  0.00    -0.354 N 
ATOM     21  C   UNL A   1      37.908  31.163  31.192  1.00  0.00     0.074 A 
ATOM     22  C   UNL A   1      37.418  30.566  29.971  1.00  0.00     0.031 C 
ATOM     23  C   UNL A   1      43.175  27.621  32.458  1.00  0.00     0.029 A 
ATOM     24  C   UNL A   1      42.560  28.596  33.352  1.00  0.00     0.049 A 
ATOM     25  H   UNL A   1      40.944  29.846  32.928  1.00  0.00     0.167 HD
ATOM     26  C   UNL A   1      37.387  32.263  31.781  1.00  0.00     0.037 A 
ATOM     27  C   UNL A   1      42.941  28.876  34.616  1.00  0.00     0.037 A 
ATOM     28  C   UNL A   1      37.879  32.799  33.024  1.00  0.00     0.049 A 
ATOM     29  C   UNL A   1      42.204  29.974  35.335  1.00  0.00     0.074 A 
ATOM     30  C   UNL A   1      37.462  33.926  33.705  1.00  0.00     0.029 A 
ATOM     31  N   UNL A   1      38.895  32.226  33.774  1.00  0.00    -0.354 N 
ATOM     32  N   UNL A   1      41.158  30.660  34.938  1.00  0.00    -0.248 NA
ATOM     33  C   UNL A   1      42.729  30.374  36.648  1.00  0.00     0.031 C 
ATOM     34  C   UNL A   1      38.254  34.056  34.852  1.00  0.00     0.029 A 
ATOM     35  C   UNL A   1      39.136  32.989  34.901  1.00  0.00     0.049 A 
ATOM     36  H   UNL A   1      39.373  31.398  33.539  1.00  0.00     0.167 HD
ATOM     37  C   UNL A   1      40.956  31.626  35.914  1.00  0.00     0.074 A 
ATOM     38  C   UNL A   1      41.905  31.357  36.974  1.00  0.00     0.031 C 
ATOM     39  C   UNL A   1      40.120  32.690  35.906  1.00  0.00     0.037 A 
BRANCH  26  40
ATOM     40  C   UNL A   1      36.323  33.020  31.044  1.00  0.00     0.058 A 
ATOM     41  C   UNL A   1      34.998  33.105  31.491  1.00  0.00     0.135 A 
ATOM     42  C   UNL A   1      36.663  33.709  29.866  1.00  0.00     0.135 A 
ATOM     43  F   UNL A   1      34.614  32.442  32.593  1.00  0.00    -0.206 F 
ATOM     44  C   UNL A   1      34.044  33.844  30.794  1.00  0.00     0.059 A 
ATOM     45  C   UNL A   1      35.733  34.468  29.165  1.00  0.00     0.059 A 
ATOM     46  F   UNL A   1      37.916  33.648  29.386  1.00  0.00    -0.206 F 
ATOM     47  C   UNL A   1      34.423  34.524  29.634  1.00  0.00     0.060 A 
BRANCH  47  48
ATOM     48  S   UNL A   1      33.184  35.498  28.752  1.00  0.00     0.124 S 
ATOM     49  O   UNL A   1      32.522  34.471  27.952  1.00  0.00    -0.237 OA
ATOM     50  O   UNL A   1      32.393  36.058  29.842  1.00  0.00    -0.237 OA
ATOM     51  O   UNL A   1      33.980  36.461  28.000  1.00  0.00    -0.744 OA
ENDBRANCH  47  48
ENDBRANCH  26  40
BRANCH  27  52
ATOM     52  C   UNL A   1      44.040  28.132  35.297  1.00  0.00     0.058 A 
ATOM     53  C   UNL A   1      43.748  27.025  36.116  1.00  0.00     0.135 A 
ATOM     54  C   UNL A   1      45.390  28.475  35.143  1.00  0.00     0.135 A 
ATOM     55  F   UNL A   1      42.475  26.630  36.281  1.00  0.00    -0.206 F 
ATOM     56  C   UNL A   1      44.747  26.274  36.728  1.00  0.00     0.059 A 
ATOM     57  C   UNL A   1      46.410  27.722  35.720  1.00  0.00     0.059 A 
ATOM     58  F   UNL A   1      45.737  29.530  34.389  1.00  0.00    -0.206 F 
ATOM     59  C   UNL A   1      46.079  26.622  36.509  1.00  0.00     0.060 A 
BRANCH  59  60
ATOM     60  S   UNL A   1      47.380  25.562  37.176  1.00  0.00     0.124 S 
ATOM     61  O   UNL A   1      46.963  24.251  36.695  1.00  0.00    -0.237 OA
ATOM     62  O   UNL A   1      48.580  26.121  36.558  1.00  0.00    -0.237 OA
ATOM     63  O   UNL A   1      47.270  25.779  38.615  1.00  0.00    -0.744 OA
ENDBRANCH  59  60
ENDBRANCH  27  52
BRANCH  39  64
ATOM     64  C   UNL A   1      40.299  33.677  37.018  1.00  0.00     0.058 A 
ATOM     65  C   UNL A   1      41.218  34.731  36.882  1.00  0.00     0.135 A 
ATOM     66  C   UNL A   1      39.534  33.606  38.188  1.00  0.00     0.135 A 
ATOM     67  F   UNL A   1      41.980  34.827  35.780  1.00  0.00    -0.206 F 
ATOM     68  C   UNL A   1      41.383  35.677  37.881  1.00  0.00     0.059 A 
ATOM     69  C   UNL A   1      39.668  34.557  39.193  1.00  0.00     0.059 A 
ATOM     70  F   UNL A   1      38.642  32.618  38.357  1.00  0.00    -0.206 F 
ATOM     71  C   UNL A   1      40.601  35.584  39.033  1.00  0.00     0.060 A 
BRANCH  71  72
ATOM     72  S   UNL A   1      40.793  36.849  40.304  1.00  0.00     0.124 S 
ATOM     73  O   UNL A   1      39.403  37.127  40.650  1.00  0.00    -0.237 OA
ATOM     74  O   UNL A   1      41.573  36.152  41.322  1.00  0.00    -0.237 OA
ATOM     75  O   UNL A   1      41.496  37.922  39.609  1.00  0.00    -0.744 OA
ENDBRANCH  71  72
ENDBRANCH  39  64
ENDBRANCH  13  14
ENDBRANCH   6   8
ENDBRANCH   5   6
ENDBRANCH   4   5
ENDBRANCH   3   4
ENDBRANCH   2   3
ENDBRANCH   1   2
BRANCH   1  76
ATOM     76  C   UNL A   1      36.752  22.609  25.094  1.00  0.00     0.188 C 
BRANCH  76  77
ATOM     77  O   UNL A   1      35.963  23.167  24.061  1.00  0.00    -0.376 OA
BRANCH  77  78
ATOM     78  C   UNL A   1      34.821  23.942  24.377  1.00  0.00     0.202 C 
BRANCH  78  79
ATOM     79  C   UNL A   1      34.857  24.983  25.502  1.00  0.00     0.261 C 
BRANCH  79  80
ATOM     80  O   UNL A   1      34.266  26.262  25.262  1.00  0.00    -0.460 OA
BRANCH  80  81
ATOM     81  C   UNL A   1      33.280  26.572  26.137  1.00  0.00     0.340 C 
ATOM     82  O   UNL A   1      32.397  25.837  26.546  1.00  0.00    -0.246 OA
BRANCH  81  83
ATOM     83  C   UNL A   1      33.304  28.011  26.403  1.00  0.00     0.085 A 
ATOM     84  C   UNL A   1      34.381  28.586  27.092  1.00  0.00     0.018 A 
ATOM     85  C   UNL A   1      32.234  28.789  25.931  1.00  0.00     0.077 A 
ATOM     86  C   UNL A   1      34.371  29.954  27.361  1.00  0.00     0.001 A 
ATOM     87  C   UNL A   1      32.225  30.151  26.253  1.00  0.00     0.029 A 
ATOM     88  C   UNL A   1      33.279  30.730  26.971  1.00  0.00     0.002 A 
BRANCH  85  89
ATOM     89  N   UNL A   1      31.447  28.382  24.851  1.00  0.00    -0.255 NA
ATOM     90  C   UNL A   1      30.289  27.816  24.900  1.00  0.00     0.127 C 
BRANCH  90  91
ATOM     91  C   UNL A   1      29.766  27.060  23.691  1.00  0.00     0.076 A 
ATOM     92  C   UNL A   1      28.451  26.787  23.805  1.00  0.00     0.209 A 
ATOM     93  C   UNL A   1      29.956  27.829  22.401  1.00  0.00     0.201 A 
ATOM     94  O   UNL A   1      27.449  27.729  23.494  1.00  0.00    -0.463 OA
ATOM     95  C   UNL A   1      29.118  29.044  22.348  1.00  0.00     0.065 A 
ATOM     96  O   UNL A   1      30.799  27.534  21.566  1.00  0.00    -0.288 OA
ATOM     97  C   UNL A   1      27.910  28.953  23.057  1.00  0.00     0.137 A 
ATOM     98  C   UNL A   1      29.691  30.271  22.023  1.00  0.00     0.016 A 
ATOM     99  C   UNL A   1      27.277  30.097  23.500  1.00  0.00     0.048 A 
ATOM    100  C   UNL A   1      29.079  31.417  22.513  1.00  0.00     0.001 A 
ATOM    101  C   UNL A   1      27.912  31.317  23.279  1.00  0.00     0.004 A 
ENDBRANCH  90  91
ENDBRANCH  85  89
ENDBRANCH  81  83
ENDBRANCH  80  81
ENDBRANCH  79  80
ENDBRANCH  78  79
ENDBRANCH  77  78
ENDBRANCH  76  77
ENDBRANCH   1  76
TORSDOF 22
ENDMDL
