MODEL 1
REMARK VINA RESULT:     -12.8      0.000      0.000
REMARK SMILES Cc1cccc(N2C(=O)/C(=C/c3ccc(C(=O)OCCOCCOCCOC(=O)c4ccc(-c5c6nc(c(-c7c(F)cc(S(=O)(=O)[O-])cc7F)c7ccc([nH]7)c(-c7c(F)cc(S(=O)(=O)[O-])cc7F)c7nc(c(-c8c(F)cc(S(=O)(=O)[O-])cc8F)c8ccc5[nH]8)C=C7)C=C6)cc4)cc3)c3ccccc3C2=O)c1
REMARK SMILES IDX 23 1 22 2 21 3 20 4 19 5 18 6 16 7 17 8 15 9 12 10 13 11
REMARK SMILES IDX 97 12 14 13 96 14 11 15 7 16 8 17 104 18 9 19 10 20 103 21
REMARK SMILES IDX 105 22 98 23 102 24 99 25 101 26 100 27 6 28 1 29 2 30 3 31
REMARK SMILES IDX 106 32 4 33 5 34 24 35 25 36 26 37 27 38 28 39 29 40 30 41
REMARK SMILES IDX 31 42 95 43 32 44 94 45 33 46 34 47 35 48 88 49 36 50 93 51
REMARK SMILES IDX 87 52 89 53 37 54 92 55 86 56 85 57 38 59 72 60 51 61 71 62
REMARK SMILES IDX 52 63 55 64 70 65 90 66 53 67 54 68 69 70 91 71 56 72 39 73
REMARK SMILES IDX 40 74 49 75 41 76 42 77 48 78 50 79 43 80 44 81 45 82 46 83
REMARK SMILES IDX 47 84 73 85 74 86 83 87 75 88 76 89 82 90 84 91 77 92 78 93
REMARK SMILES IDX 79 94 80 95 81 96 57 97 58 98 67 99 59 100 60 101 66 102
REMARK SMILES IDX 68 103 61 104 62 105 63 106 64 107 65 108
REMARK H PARENT 89 58 55 69
REMARK Flexibility Score: inf
ROOT
ATOM      1  C   UNL A   1      37.501  34.140  32.277  1.00  0.00     0.188 C 
ENDROOT
BRANCH   1   2
ATOM      2  C   UNL A   1      36.976  34.598  30.916  1.00  0.00     0.188 C 
BRANCH   2   3
ATOM      3  O   UNL A   1      36.106  33.769  30.114  1.00  0.00    -0.376 OA
BRANCH   3   4
ATOM      4  C   UNL A   1      36.491  33.132  28.894  1.00  0.00     0.202 C 
BRANCH   4   5
ATOM      5  C   UNL A   1      35.570  32.085  27.988  1.00  0.00     0.261 C 
BRANCH   5   6
ATOM      6  O   UNL A   1      33.856  31.901  27.697  1.00  0.00    -0.460 OA
BRANCH   6   7
ATOM      7  C   UNL A   1      32.934  30.946  27.174  1.00  0.00     0.338 C 
ATOM      8  O   UNL A   1      31.901  31.109  26.526  1.00  0.00    -0.246 OA
BRANCH   7   9
ATOM      9  C   UNL A   1      33.005  29.490  27.180  1.00  0.00     0.060 A 
ATOM     10  C   UNL A   1      32.708  26.865  26.251  1.00  0.00    -0.025 A 
ATOM     11  C   UNL A   1      33.836  27.584  25.880  1.00  0.00     0.009 A 
ATOM     12  C   UNL A   1      31.616  27.518  26.841  1.00  0.00     0.009 A 
ATOM     13  C   UNL A   1      33.968  28.892  26.334  1.00  0.00     0.016 A 
ATOM     14  C   UNL A   1      31.771  28.824  27.314  1.00  0.00     0.016 A 
BRANCH  10  15
ATOM     15  C   UNL A   1      32.865  25.419  26.379  1.00  0.00     0.022 C 
ATOM     16  N   UNL A   1      33.536  22.765  24.429  1.00  0.00    -0.242 N 
ATOM     17  C   UNL A   1      32.731  23.198  25.504  1.00  0.00     0.265 C 
ATOM     18  C   UNL A   1      33.672  23.556  23.248  1.00  0.00     0.265 C 
ATOM     19  O   UNL A   1      32.311  22.586  26.480  1.00  0.00    -0.268 OA
ATOM     20  C   UNL A   1      32.384  24.622  25.399  1.00  0.00     0.049 C 
ATOM     21  C   UNL A   1      32.694  24.666  23.033  1.00  0.00     0.048 A 
ATOM     22  O   UNL A   1      34.483  23.399  22.336  1.00  0.00    -0.268 OA
ATOM     23  C   UNL A   1      31.905  25.079  24.097  1.00  0.00    -0.000 A 
ATOM     24  C   UNL A   1      32.574  25.315  21.798  1.00  0.00     0.014 A 
ATOM     25  C   UNL A   1      30.879  26.009  23.896  1.00  0.00     0.010 A 
ATOM     26  C   UNL A   1      31.628  26.332  21.627  1.00  0.00     0.001 A 
ATOM     27  C   UNL A   1      30.759  26.657  22.666  1.00  0.00     0.001 A 
BRANCH  16  28
ATOM     28  C   UNL A   1      34.247  21.495  24.556  1.00  0.00     0.053 A 
ATOM     29  C   UNL A   1      33.479  17.745  24.339  1.00  0.00     0.044 C 
ATOM     30  C   UNL A   1      34.244  19.020  24.529  1.00  0.00    -0.049 A 
ATOM     31  C   UNL A   1      35.607  19.001  24.805  1.00  0.00     0.003 A 
ATOM     32  C   UNL A   1      33.593  20.258  24.391  1.00  0.00     0.030 A 
ATOM     33  C   UNL A   1      36.289  20.199  24.971  1.00  0.00     0.002 A 
ATOM     34  C   UNL A   1      35.615  21.423  24.858  1.00  0.00     0.027 A 
ENDBRANCH  16  28
ENDBRANCH  10  15
ENDBRANCH   7   9
ENDBRANCH   6   7
ENDBRANCH   5   6
ENDBRANCH   4   5
ENDBRANCH   3   4
ENDBRANCH   2   3
ENDBRANCH   1   2
BRANCH   1  35
ATOM     35  O   UNL A   1      36.433  34.104  33.201  1.00  0.00    -0.376 OA
BRANCH  35  36
ATOM     36  C   UNL A   1      36.048  32.835  33.680  1.00  0.00     0.202 C 
BRANCH  36  37
ATOM     37  C   UNL A   1      36.974  31.736  33.147  1.00  0.00     0.261 C 
BRANCH  37  38
ATOM     38  O   UNL A   1      36.605  31.355  31.799  1.00  0.00    -0.460 OA
BRANCH  38  39
ATOM     39  C   UNL A   1      36.870  30.052  31.422  1.00  0.00     0.338 C 
ATOM     40  O   UNL A   1      36.375  29.098  31.998  1.00  0.00    -0.246 OA
BRANCH  39  41
ATOM     41  C   UNL A   1      37.777  30.025  30.219  1.00  0.00     0.060 A 
ATOM     42  C   UNL A   1      37.671  29.279  29.037  1.00  0.00     0.016 A 
ATOM     43  C   UNL A   1      38.967  30.635  30.387  1.00  0.00     0.016 A 
ATOM     44  C   UNL A   1      38.826  29.000  28.153  1.00  0.00     0.010 A 
ATOM     45  C   UNL A   1      40.047  30.108  29.672  1.00  0.00     0.010 A 
ATOM     46  C   UNL A   1      40.151  29.344  28.477  1.00  0.00    -0.014 A 
BRANCH  46  47
ATOM     47  C   UNL A   1      41.586  28.772  27.727  1.00  0.00     0.031 A 
ATOM     48  C   UNL A   1      42.162  27.199  27.194  1.00  0.00     0.074 A 
ATOM     49  C   UNL A   1      42.622  29.643  27.667  1.00  0.00     0.049 A 
ATOM     50  N   UNL A   1      43.352  26.695  27.506  1.00  0.00    -0.248 NA
ATOM     51  C   UNL A   1      41.444  26.075  26.478  1.00  0.00     0.031 C 
ATOM     52  C   UNL A   1      43.882  29.445  26.956  1.00  0.00     0.029 A 
ATOM     53  N   UNL A   1      42.796  30.854  28.334  1.00  0.00    -0.354 N 
ATOM     54  C   UNL A   1      43.456  25.375  27.012  1.00  0.00     0.074 A 
ATOM     55  C   UNL A   1      42.203  25.006  26.509  1.00  0.00     0.031 C 
ATOM     56  C   UNL A   1      44.779  30.333  27.404  1.00  0.00     0.029 A 
ATOM     57  C   UNL A   1      44.168  31.073  28.489  1.00  0.00     0.049 A 
ATOM     58  H   UNL A   1      42.077  31.452  28.641  1.00  0.00     0.167 HD
ATOM     59  C   UNL A   1      44.586  24.640  26.834  1.00  0.00     0.037 A 
ATOM     60  C   UNL A   1      44.734  31.341  29.697  1.00  0.00     0.037 A 
ATOM     61  C   UNL A   1      45.716  25.462  27.112  1.00  0.00     0.049 A 
ATOM     62  C   UNL A   1      45.825  30.373  30.075  1.00  0.00     0.074 A 
ATOM     63  C   UNL A   1      46.385  26.367  26.309  1.00  0.00     0.029 A 
ATOM     64  N   UNL A   1      46.010  25.763  28.422  1.00  0.00    -0.354 N 
ATOM     65  N   UNL A   1      46.035  29.238  29.466  1.00  0.00    -0.248 NA
ATOM     66  C   UNL A   1      46.763  30.587  31.174  1.00  0.00     0.031 C 
ATOM     67  C   UNL A   1      47.067  27.260  27.161  1.00  0.00     0.029 A 
ATOM     68  C   UNL A   1      46.853  26.850  28.464  1.00  0.00     0.049 A 
ATOM     69  H   UNL A   1      45.668  25.277  29.207  1.00  0.00     0.167 HD
ATOM     70  C   UNL A   1      47.034  28.550  30.104  1.00  0.00     0.074 A 
ATOM     71  C   UNL A   1      47.487  29.454  31.139  1.00  0.00     0.031 C 
ATOM     72  C   UNL A   1      47.382  27.283  29.736  1.00  0.00     0.037 A 
BRANCH  59  73
ATOM     73  C   UNL A   1      44.571  23.362  25.993  1.00  0.00     0.058 A 
ATOM     74  C   UNL A   1      43.902  22.214  26.453  1.00  0.00     0.135 A 
ATOM     75  C   UNL A   1      45.328  23.177  24.809  1.00  0.00     0.135 A 
ATOM     76  F   UNL A   1      43.084  22.266  27.512  1.00  0.00    -0.206 F 
ATOM     77  C   UNL A   1      44.084  20.952  25.878  1.00  0.00     0.059 A 
ATOM     78  C   UNL A   1      45.574  21.911  24.252  1.00  0.00     0.059 A 
ATOM     79  F   UNL A   1      45.926  24.220  24.208  1.00  0.00    -0.206 F 
ATOM     80  C   UNL A   1      44.959  20.797  24.809  1.00  0.00     0.060 A 
BRANCH  80  81
ATOM     81  S   UNL A   1      45.334  19.126  24.224  1.00  0.00     0.124 S 
ATOM     82  O   UNL A   1      44.674  19.092  22.920  1.00  0.00    -0.237 OA
ATOM     83  O   UNL A   1      46.792  19.134  24.194  1.00  0.00    -0.237 OA
ATOM     84  O   UNL A   1      44.727  18.267  25.237  1.00  0.00    -0.744 OA
ENDBRANCH  80  81
ENDBRANCH  59  73
BRANCH  60  85
ATOM     85  C   UNL A   1      43.851  32.105  30.620  1.00  0.00     0.058 A 
ATOM     86  C   UNL A   1      43.139  31.366  31.587  1.00  0.00     0.135 A 
ATOM     87  C   UNL A   1      43.984  33.485  30.836  1.00  0.00     0.135 A 
ATOM     88  F   UNL A   1      42.975  30.042  31.432  1.00  0.00    -0.206 F 
ATOM     89  C   UNL A   1      42.708  31.933  32.780  1.00  0.00     0.059 A 
ATOM     90  C   UNL A   1      43.545  34.081  32.028  1.00  0.00     0.059 A 
ATOM     91  F   UNL A   1      44.661  34.242  29.961  1.00  0.00    -0.206 F 
ATOM     92  C   UNL A   1      42.961  33.281  33.014  1.00  0.00     0.060 A 
BRANCH  92  93
ATOM     93  S   UNL A   1      42.688  33.888  34.699  1.00  0.00     0.124 S 
ATOM     94  O   UNL A   1      41.237  34.020  34.749  1.00  0.00    -0.237 OA
ATOM     95  O   UNL A   1      43.249  32.793  35.489  1.00  0.00    -0.237 OA
ATOM     96  O   UNL A   1      43.441  35.137  34.730  1.00  0.00    -0.744 OA
ENDBRANCH  92  93
ENDBRANCH  60  85
BRANCH  72  97
ATOM     97  C   UNL A   1      48.274  26.312  30.477  1.00  0.00     0.058 A 
ATOM     98  C   UNL A   1      49.485  25.820  29.973  1.00  0.00     0.135 A 
ATOM     99  C   UNL A   1      47.997  25.985  31.833  1.00  0.00     0.135 A 
ATOM    100  F   UNL A   1      49.912  26.141  28.743  1.00  0.00    -0.206 F 
ATOM    101  C   UNL A   1      50.333  25.011  30.733  1.00  0.00     0.059 A 
ATOM    102  C   UNL A   1      48.860  25.239  32.627  1.00  0.00     0.059 A 
ATOM    103  F   UNL A   1      46.876  26.396  32.445  1.00  0.00    -0.206 F 
ATOM    104  C   UNL A   1      50.013  24.726  32.057  1.00  0.00     0.060 A 
BRANCH 104 105
ATOM    105  S   UNL A   1      51.103  23.706  33.062  1.00  0.00     0.124 S 
ATOM    106  O   UNL A   1      52.289  24.553  33.149  1.00  0.00    -0.237 OA
ATOM    107  O   UNL A   1      50.353  23.547  34.304  1.00  0.00    -0.237 OA
ATOM    108  O   UNL A   1      51.247  22.492  32.266  1.00  0.00    -0.744 OA
ENDBRANCH 104 105
ENDBRANCH  72  97
ENDBRANCH  46  47
ENDBRANCH  39  41
ENDBRANCH  38  39
ENDBRANCH  37  38
ENDBRANCH  36  37
ENDBRANCH  35  36
ENDBRANCH   1  35
TORSDOF 22
ENDMDL
MODEL 2
REMARK VINA RESULT:     -11.8      5.565     11.421
REMARK SMILES Cc1cccc(N2C(=O)/C(=C/c3ccc(C(=O)OCCOCCOCCOC(=O)c4ccc(-c5c6nc(c(-c7c(F)cc(S(=O)(=O)[O-])cc7F)c7ccc([nH]7)c(-c7c(F)cc(S(=O)(=O)[O-])cc7F)c7nc(c(-c8c(F)cc(S(=O)(=O)[O-])cc8F)c8ccc5[nH]8)C=C7)C=C6)cc4)cc3)c3ccccc3C2=O)c1
REMARK SMILES IDX 23 1 22 2 21 3 20 4 19 5 18 6 16 7 17 8 15 9 12 10 13 11
REMARK SMILES IDX 97 12 14 13 96 14 11 15 7 16 8 17 104 18 9 19 10 20 103 21
REMARK SMILES IDX 105 22 98 23 102 24 99 25 101 26 100 27 6 28 1 29 2 30 3 31
REMARK SMILES IDX 106 32 4 33 5 34 24 35 25 36 26 37 27 38 28 39 29 40 30 41
REMARK SMILES IDX 31 42 95 43 32 44 94 45 33 46 34 47 35 48 88 49 36 50 93 51
REMARK SMILES IDX 87 52 89 53 37 54 92 55 86 56 85 57 38 59 72 60 51 61 71 62
REMARK SMILES IDX 52 63 55 64 70 65 90 66 53 67 54 68 69 70 91 71 56 72 39 73
REMARK SMILES IDX 40 74 49 75 41 76 42 77 48 78 50 79 43 80 44 81 45 82 46 83
REMARK SMILES IDX 47 84 73 85 74 86 83 87 75 88 76 89 82 90 84 91 77 92 78 93
REMARK SMILES IDX 79 94 80 95 81 96 57 97 58 98 67 99 59 100 60 101 66 102
REMARK SMILES IDX 68 103 61 104 62 105 63 106 64 107 65 108
REMARK H PARENT 89 58 55 69
REMARK Flexibility Score: inf
ROOT
ATOM      1  C   UNL A   1      37.942  34.300  31.952  1.00  0.00     0.188 C 
ENDROOT
BRANCH   1   2
ATOM      2  C   UNL A   1      37.290  34.201  30.573  1.00  0.00     0.188 C 
BRANCH   2   3
ATOM      3  O   UNL A   1      36.581  33.016  30.147  1.00  0.00    -0.376 OA
BRANCH   3   4
ATOM      4  C   UNL A   1      36.961  32.198  29.037  1.00  0.00     0.202 C 
BRANCH   4   5
ATOM      5  C   UNL A   1      35.939  31.405  27.994  1.00  0.00     0.261 C 
BRANCH   5   6
ATOM      6  O   UNL A   1      34.232  31.515  27.633  1.00  0.00    -0.460 OA
BRANCH   6   7
ATOM      7  C   UNL A   1      33.131  30.673  27.295  1.00  0.00     0.338 C 
ATOM      8  O   UNL A   1      32.003  30.959  26.895  1.00  0.00    -0.246 OA
BRANCH   7   9
ATOM      9  C   UNL A   1      33.061  29.218  27.236  1.00  0.00     0.060 A 
ATOM     10  C   UNL A   1      32.485  26.678  26.208  1.00  0.00    -0.025 A 
ATOM     11  C   UNL A   1      33.665  27.302  25.830  1.00  0.00     0.009 A 
ATOM     12  C   UNL A   1      31.479  27.405  26.861  1.00  0.00     0.009 A 
ATOM     13  C   UNL A   1      33.936  28.570  26.334  1.00  0.00     0.016 A 
ATOM     14  C   UNL A   1      31.774  28.667  27.384  1.00  0.00     0.016 A 
BRANCH  10  15
ATOM     15  C   UNL A   1      32.505  25.219  26.269  1.00  0.00     0.022 C 
ATOM     16  N   UNL A   1      33.235  22.614  24.275  1.00  0.00    -0.242 N 
ATOM     17  C   UNL A   1      32.321  23.064  25.252  1.00  0.00     0.265 C 
ATOM     18  C   UNL A   1      33.603  23.446  23.174  1.00  0.00     0.265 C 
ATOM     19  O   UNL A   1      31.716  22.445  26.120  1.00  0.00    -0.268 OA
ATOM     20  C   UNL A   1      32.108  24.516  25.185  1.00  0.00     0.049 C 
ATOM     21  C   UNL A   1      32.758  24.646  22.892  1.00  0.00     0.048 A 
ATOM     22  O   UNL A   1      34.522  23.262  22.377  1.00  0.00    -0.268 OA
ATOM     23  C   UNL A   1      31.861  25.076  23.859  1.00  0.00    -0.000 A 
ATOM     24  C   UNL A   1      32.870  25.362  21.694  1.00  0.00     0.014 A 
ATOM     25  C   UNL A   1      30.952  26.101  23.573  1.00  0.00     0.010 A 
ATOM     26  C   UNL A   1      32.044  26.466  21.454  1.00  0.00     0.001 A 
ATOM     27  C   UNL A   1      31.063  26.815  22.379  1.00  0.00     0.001 A 
BRANCH  16  28
ATOM     28  C   UNL A   1      33.816  21.281  24.423  1.00  0.00     0.053 A 
ATOM     29  C   UNL A   1      32.738  17.623  24.029  1.00  0.00     0.044 C 
ATOM     30  C   UNL A   1      33.595  18.819  24.322  1.00  0.00    -0.049 A 
ATOM     31  C   UNL A   1      34.921  18.668  24.711  1.00  0.00     0.003 A 
ATOM     32  C   UNL A   1      33.071  20.113  24.166  1.00  0.00     0.030 A 
ATOM     33  C   UNL A   1      35.690  19.795  24.970  1.00  0.00     0.002 A 
ATOM     34  C   UNL A   1      35.141  21.078  24.837  1.00  0.00     0.027 A 
ENDBRANCH  16  28
ENDBRANCH  10  15
ENDBRANCH   7   9
ENDBRANCH   6   7
ENDBRANCH   5   6
ENDBRANCH   4   5
ENDBRANCH   3   4
ENDBRANCH   2   3
ENDBRANCH   1   2
BRANCH   1  35
ATOM     35  O   UNL A   1      36.961  34.649  32.908  1.00  0.00    -0.376 OA
BRANCH  35  36
ATOM     36  C   UNL A   1      36.346  33.589  33.605  1.00  0.00     0.202 C 
BRANCH  36  37
ATOM     37  C   UNL A   1      36.857  33.503  35.048  1.00  0.00     0.261 C 
BRANCH  37  38
ATOM     38  O   UNL A   1      37.266  32.152  35.375  1.00  0.00    -0.460 OA
BRANCH  38  39
ATOM     39  C   UNL A   1      37.789  31.945  36.636  1.00  0.00     0.338 C 
ATOM     40  O   UNL A   1      37.116  31.503  37.552  1.00  0.00    -0.246 OA
BRANCH  39  41
ATOM     41  C   UNL A   1      39.256  32.290  36.662  1.00  0.00     0.060 A 
ATOM     42  C   UNL A   1      39.940  33.226  37.448  1.00  0.00     0.016 A 
ATOM     43  C   UNL A   1      39.978  31.790  35.639  1.00  0.00     0.016 A 
ATOM     44  C   UNL A   1      41.260  33.785  37.074  1.00  0.00     0.010 A 
ATOM     45  C   UNL A   1      41.070  32.551  35.212  1.00  0.00     0.010 A 
ATOM     46  C   UNL A   1      41.888  33.529  35.842  1.00  0.00    -0.014 A 
BRANCH  46  47
ATOM     47  C   UNL A   1      43.213  34.379  35.155  1.00  0.00     0.031 A 
ATOM     48  C   UNL A   1      43.746  36.055  35.160  1.00  0.00     0.074 A 
ATOM     49  C   UNL A   1      43.954  33.703  34.245  1.00  0.00     0.049 A 
ATOM     50  N   UNL A   1      44.071  36.737  34.066  1.00  0.00    -0.248 NA
ATOM     51  C   UNL A   1      43.781  37.076  36.276  1.00  0.00     0.031 C 
ATOM     52  C   UNL A   1      45.204  34.153  33.638  1.00  0.00     0.029 A 
ATOM     53  N   UNL A   1      43.673  32.505  33.592  1.00  0.00    -0.354 N 
ATOM     54  C   UNL A   1      44.348  38.080  34.407  1.00  0.00     0.074 A 
ATOM     55  C   UNL A   1      44.022  38.256  35.756  1.00  0.00     0.031 C 
ATOM     56  C   UNL A   1      45.454  33.408  32.553  1.00  0.00     0.029 A 
ATOM     57  C   UNL A   1      44.329  32.516  32.358  1.00  0.00     0.049 A 
ATOM     58  H   UNL A   1      43.109  31.777  33.940  1.00  0.00     0.167 HD
ATOM     59  C   UNL A   1      45.012  39.007  33.665  1.00  0.00     0.037 A 
ATOM     60  C   UNL A   1      43.683  32.284  31.183  1.00  0.00     0.037 A 
ATOM     61  C   UNL A   1      45.520  38.377  32.492  1.00  0.00     0.049 A 
ATOM     62  C   UNL A   1      43.834  33.402  30.185  1.00  0.00     0.074 A 
ATOM     63  C   UNL A   1      46.676  37.645  32.298  1.00  0.00     0.029 A 
ATOM     64  N   UNL A   1      44.645  38.059  31.479  1.00  0.00    -0.354 N 
ATOM     65  N   UNL A   1      44.291  34.588  30.483  1.00  0.00    -0.248 NA
ATOM     66  C   UNL A   1      43.474  33.293  28.773  1.00  0.00     0.031 C 
ATOM     67  C   UNL A   1      46.476  36.836  31.160  1.00  0.00     0.029 A 
ATOM     68  C   UNL A   1      45.227  37.132  30.645  1.00  0.00     0.049 A 
ATOM     69  H   UNL A   1      43.742  38.436  31.369  1.00  0.00     0.167 HD
ATOM     70  C   UNL A   1      44.217  35.401  29.382  1.00  0.00     0.074 A 
ATOM     71  C   UNL A   1      43.741  34.533  28.327  1.00  0.00     0.031 C 
ATOM     72  C   UNL A   1      44.532  36.727  29.446  1.00  0.00     0.037 A 
BRANCH  59  73
ATOM     73  C   UNL A   1      45.514  40.307  34.294  1.00  0.00     0.058 A 
ATOM     74  C   UNL A   1      46.707  40.326  35.039  1.00  0.00     0.135 A 
ATOM     75  C   UNL A   1      44.778  41.518  34.319  1.00  0.00     0.135 A 
ATOM     76  F   UNL A   1      47.542  39.279  35.036  1.00  0.00    -0.206 F 
ATOM     77  C   UNL A   1      47.067  41.398  35.862  1.00  0.00     0.059 A 
ATOM     78  C   UNL A   1      45.087  42.581  35.184  1.00  0.00     0.059 A 
ATOM     79  F   UNL A   1      43.677  41.665  33.561  1.00  0.00    -0.206 F 
ATOM     80  C   UNL A   1      46.229  42.502  35.969  1.00  0.00     0.060 A 
BRANCH  80  81
ATOM     81  S   UNL A   1      46.616  43.774  37.196  1.00  0.00     0.124 S 
ATOM     82  O   UNL A   1      46.470  45.009  36.428  1.00  0.00    -0.237 OA
ATOM     83  O   UNL A   1      45.597  43.537  38.212  1.00  0.00    -0.237 OA
ATOM     84  O   UNL A   1      47.987  43.461  37.591  1.00  0.00    -0.744 OA
ENDBRANCH  80  81
ENDBRANCH  59  73
BRANCH  60  85
ATOM     85  C   UNL A   1      42.547  31.330  31.300  1.00  0.00     0.058 A 
ATOM     86  C   UNL A   1      41.246  31.863  31.178  1.00  0.00     0.135 A 
ATOM     87  C   UNL A   1      42.691  29.945  31.130  1.00  0.00     0.135 A 
ATOM     88  F   UNL A   1      41.045  33.181  31.335  1.00  0.00    -0.206 F 
ATOM     89  C   UNL A   1      40.168  31.090  30.765  1.00  0.00     0.059 A 
ATOM     90  C   UNL A   1      41.613  29.145  30.724  1.00  0.00     0.059 A 
ATOM     91  F   UNL A   1      43.902  29.378  31.218  1.00  0.00    -0.206 F 
ATOM     92  C   UNL A   1      40.371  29.741  30.491  1.00  0.00     0.060 A 
BRANCH  92  93
ATOM     93  S   UNL A   1      39.032  28.865  29.642  1.00  0.00     0.124 S 
ATOM     94  O   UNL A   1      37.881  29.172  30.482  1.00  0.00    -0.237 OA
ATOM     95  O   UNL A   1      39.052  29.517  28.334  1.00  0.00    -0.237 OA
ATOM     96  O   UNL A   1      39.479  27.476  29.660  1.00  0.00    -0.744 OA
ENDBRANCH  92  93
ENDBRANCH  60  85
BRANCH  72  97
ATOM     97  C   UNL A   1      44.275  37.795  28.406  1.00  0.00     0.058 A 
ATOM     98  C   UNL A   1      43.021  38.371  28.168  1.00  0.00     0.135 A 
ATOM     99  C   UNL A   1      45.366  38.402  27.726  1.00  0.00     0.135 A 
ATOM    100  F   UNL A   1      41.926  37.958  28.824  1.00  0.00    -0.206 F 
ATOM    101  C   UNL A   1      42.845  39.431  27.275  1.00  0.00     0.059 A 
ATOM    102  C   UNL A   1      45.224  39.500  26.887  1.00  0.00     0.059 A 
ATOM    103  F   UNL A   1      46.624  37.956  27.866  1.00  0.00    -0.206 F 
ATOM    104  C   UNL A   1      43.952  39.988  26.640  1.00  0.00     0.060 A 
BRANCH 104 105
ATOM    105  S   UNL A   1      43.753  41.371  25.505  1.00  0.00     0.124 S 
ATOM    106  O   UNL A   1      42.410  41.127  24.989  1.00  0.00    -0.237 OA
ATOM    107  O   UNL A   1      43.890  42.534  26.376  1.00  0.00    -0.237 OA
ATOM    108  O   UNL A   1      44.843  41.177  24.554  1.00  0.00    -0.744 OA
ENDBRANCH 104 105
ENDBRANCH  72  97
ENDBRANCH  46  47
ENDBRANCH  39  41
ENDBRANCH  38  39
ENDBRANCH  37  38
ENDBRANCH  36  37
ENDBRANCH  35  36
ENDBRANCH   1  35
TORSDOF 22
ENDMDL
MODEL 3
REMARK VINA RESULT:     -11.8      4.116     10.999
REMARK SMILES Cc1cccc(N2C(=O)/C(=C/c3ccc(C(=O)OCCOCCOCCOC(=O)c4ccc(-c5c6nc(c(-c7c(F)cc(S(=O)(=O)[O-])cc7F)c7ccc([nH]7)c(-c7c(F)cc(S(=O)(=O)[O-])cc7F)c7nc(c(-c8c(F)cc(S(=O)(=O)[O-])cc8F)c8ccc5[nH]8)C=C7)C=C6)cc4)cc3)c3ccccc3C2=O)c1
REMARK SMILES IDX 23 1 22 2 21 3 20 4 19 5 18 6 16 7 17 8 15 9 12 10 13 11
REMARK SMILES IDX 97 12 14 13 96 14 11 15 7 16 8 17 104 18 9 19 10 20 103 21
REMARK SMILES IDX 105 22 98 23 102 24 99 25 101 26 100 27 6 28 1 29 2 30 3 31
REMARK SMILES IDX 106 32 4 33 5 34 24 35 25 36 26 37 27 38 28 39 29 40 30 41
REMARK SMILES IDX 31 42 95 43 32 44 94 45 33 46 34 47 35 48 88 49 36 50 93 51
REMARK SMILES IDX 87 52 89 53 37 54 92 55 86 56 85 57 38 59 72 60 51 61 71 62
REMARK SMILES IDX 52 63 55 64 70 65 90 66 53 67 54 68 69 70 91 71 56 72 39 73
REMARK SMILES IDX 40 74 49 75 41 76 42 77 48 78 50 79 43 80 44 81 45 82 46 83
REMARK SMILES IDX 47 84 73 85 74 86 83 87 75 88 76 89 82 90 84 91 77 92 78 93
REMARK SMILES IDX 79 94 80 95 81 96 57 97 58 98 67 99 59 100 60 101 66 102
REMARK SMILES IDX 68 103 61 104 62 105 63 106 64 107 65 108
REMARK H PARENT 89 58 55 69
REMARK Flexibility Score: inf
ROOT
ATOM      1  C   UNL A   1      44.308  23.422  27.606  1.00  0.00     0.188 C 
ENDROOT
BRANCH   1   2
ATOM      2  C   UNL A   1      43.384  23.103  28.781  1.00  0.00     0.188 C 
BRANCH   2   3
ATOM      3  O   UNL A   1      42.199  22.291  28.623  1.00  0.00    -0.376 OA
BRANCH   3   4
ATOM      4  C   UNL A   1      42.007  21.330  27.582  1.00  0.00     0.202 C 
BRANCH   4   5
ATOM      5  C   UNL A   1      40.899  21.415  26.345  1.00  0.00     0.261 C 
BRANCH   5   6
ATOM      6  O   UNL A   1      39.306  22.115  26.176  1.00  0.00    -0.460 OA
BRANCH   6   7
ATOM      7  C   UNL A   1      38.092  21.904  25.456  1.00  0.00     0.338 C 
ATOM      8  O   UNL A   1      37.484  20.864  25.207  1.00  0.00    -0.246 OA
BRANCH   7   9
ATOM      9  C   UNL A   1      37.170  22.880  24.889  1.00  0.00     0.060 A 
ATOM     10  C   UNL A   1      34.729  24.010  24.109  1.00  0.00    -0.025 A 
ATOM     11  C   UNL A   1      35.163  24.187  25.415  1.00  0.00     0.009 A 
ATOM     12  C   UNL A   1      35.351  23.065  23.280  1.00  0.00     0.009 A 
ATOM     13  C   UNL A   1      36.369  23.610  25.798  1.00  0.00     0.016 A 
ATOM     14  C   UNL A   1      36.575  22.511  23.667  1.00  0.00     0.016 A 
BRANCH  10  15
ATOM     15  C   UNL A   1      33.922  25.083  23.535  1.00  0.00     0.022 C 
ATOM     16  N   UNL A   1      31.057  26.716  24.183  1.00  0.00    -0.242 N 
ATOM     17  C   UNL A   1      31.826  26.162  23.137  1.00  0.00     0.265 C 
ATOM     18  C   UNL A   1      30.803  25.978  25.380  1.00  0.00     0.265 C 
ATOM     19  O   UNL A   1      31.965  26.525  21.974  1.00  0.00    -0.268 OA
ATOM     20  C   UNL A   1      32.575  24.974  23.569  1.00  0.00     0.049 C 
ATOM     21  C   UNL A   1      31.072  24.508  25.364  1.00  0.00     0.048 A 
ATOM     22  O   UNL A   1      30.329  26.406  26.431  1.00  0.00    -0.268 OA
ATOM     23  C   UNL A   1      31.827  23.976  24.328  1.00  0.00    -0.000 A 
ATOM     24  C   UNL A   1      30.609  23.662  26.379  1.00  0.00     0.014 A 
ATOM     25  C   UNL A   1      31.973  22.589  24.201  1.00  0.00     0.010 A 
ATOM     26  C   UNL A   1      30.859  22.287  26.317  1.00  0.00     0.001 A 
ATOM     27  C   UNL A   1      31.512  21.746  25.213  1.00  0.00     0.001 A 
BRANCH  16  28
ATOM     28  C   UNL A   1      30.538  28.073  24.026  1.00  0.00     0.053 A 
ATOM     29  C   UNL A   1      27.647  29.848  22.240  1.00  0.00     0.044 C 
ATOM     30  C   UNL A   1      28.877  29.640  23.072  1.00  0.00    -0.049 A 
ATOM     31  C   UNL A   1      29.507  30.711  23.696  1.00  0.00     0.003 A 
ATOM     32  C   UNL A   1      29.387  28.344  23.260  1.00  0.00     0.030 A 
ATOM     33  C   UNL A   1      30.642  30.485  24.463  1.00  0.00     0.002 A 
ATOM     34  C   UNL A   1      31.152  29.188  24.615  1.00  0.00     0.027 A 
ENDBRANCH  16  28
ENDBRANCH  10  15
ENDBRANCH   7   9
ENDBRANCH   6   7
ENDBRANCH   5   6
ENDBRANCH   4   5
ENDBRANCH   3   4
ENDBRANCH   2   3
ENDBRANCH   1   2
BRANCH   1  35
ATOM     35  O   UNL A   1      44.089  24.754  27.189  1.00  0.00    -0.376 OA
BRANCH  35  36
ATOM     36  C   UNL A   1      43.729  24.947  25.839  1.00  0.00     0.202 C 
BRANCH  36  37
ATOM     37  C   UNL A   1      44.106  26.353  25.359  1.00  0.00     0.261 C 
BRANCH  37  38
ATOM     38  O   UNL A   1      45.381  26.766  25.912  1.00  0.00    -0.460 OA
BRANCH  38  39
ATOM     39  C   UNL A   1      45.555  28.117  26.140  1.00  0.00     0.338 C 
ATOM     40  O   UNL A   1      46.022  28.862  25.295  1.00  0.00    -0.246 OA
BRANCH  39  41
ATOM     41  C   UNL A   1      45.049  28.489  27.510  1.00  0.00     0.060 A 
ATOM     42  C   UNL A   1      45.026  27.733  28.690  1.00  0.00     0.016 A 
ATOM     43  C   UNL A   1      44.319  29.622  27.561  1.00  0.00     0.016 A 
ATOM     44  C   UNL A   1      44.115  28.028  29.820  1.00  0.00     0.010 A 
ATOM     45  C   UNL A   1      43.310  29.673  28.528  1.00  0.00     0.010 A 
ATOM     46  C   UNL A   1      43.107  29.007  29.767  1.00  0.00    -0.014 A 
BRANCH  46  47
ATOM     47  C   UNL A   1      41.785  29.196  30.848  1.00  0.00     0.031 A 
ATOM     48  C   UNL A   1      40.394  30.270  30.926  1.00  0.00     0.074 A 
ATOM     49  C   UNL A   1      41.864  28.523  32.019  1.00  0.00     0.049 A 
ATOM     50  N   UNL A   1      40.044  30.959  32.007  1.00  0.00    -0.248 NA
ATOM     51  C   UNL A   1      39.463  30.760  29.837  1.00  0.00     0.031 C 
ATOM     52  C   UNL A   1      40.813  28.407  33.027  1.00  0.00     0.029 A 
ATOM     53  N   UNL A   1      42.960  27.887  32.600  1.00  0.00    -0.354 N 
ATOM     54  C   UNL A   1      38.951  31.802  31.702  1.00  0.00     0.074 A 
ATOM     55  C   UNL A   1      38.729  31.733  30.322  1.00  0.00     0.031 C 
ATOM     56  C   UNL A   1      41.355  27.982  34.175  1.00  0.00     0.029 A 
ATOM     57  C   UNL A   1      42.789  27.903  33.986  1.00  0.00     0.049 A 
ATOM     58  H   UNL A   1      43.722  27.495  32.116  1.00  0.00     0.167 HD
ATOM     59  C   UNL A   1      38.104  32.413  32.572  1.00  0.00     0.037 A 
ATOM     60  C   UNL A   1      43.738  28.382  34.835  1.00  0.00     0.037 A 
ATOM     61  C   UNL A   1      38.405  31.972  33.893  1.00  0.00     0.049 A 
ATOM     62  C   UNL A   1      43.239  29.487  35.730  1.00  0.00     0.074 A 
ATOM     63  C   UNL A   1      38.006  30.835  34.570  1.00  0.00     0.029 A 
ATOM     64  N   UNL A   1      39.536  32.456  34.511  1.00  0.00    -0.354 N 
ATOM     65  N   UNL A   1      42.114  30.121  35.545  1.00  0.00    -0.248 NA
ATOM     66  C   UNL A   1      43.962  29.983  36.898  1.00  0.00     0.031 C 
ATOM     67  C   UNL A   1      38.943  30.608  35.600  1.00  0.00     0.029 A 
ATOM     68  C   UNL A   1      39.863  31.641  35.570  1.00  0.00     0.049 A 
ATOM     69  H   UNL A   1      40.033  33.260  34.237  1.00  0.00     0.167 HD
ATOM     70  C   UNL A   1      41.993  31.126  36.470  1.00  0.00     0.074 A 
ATOM     71  C   UNL A   1      43.153  30.971  37.321  1.00  0.00     0.031 C 
ATOM     72  C   UNL A   1      40.958  32.014  36.436  1.00  0.00     0.037 A 
BRANCH  59  73
ATOM     73  C   UNL A   1      36.786  33.023  32.092  1.00  0.00     0.058 A 
ATOM     74  C   UNL A   1      35.844  32.238  31.404  1.00  0.00     0.135 A 
ATOM     75  C   UNL A   1      36.479  34.406  32.150  1.00  0.00     0.135 A 
ATOM     76  F   UNL A   1      35.965  30.906  31.345  1.00  0.00    -0.206 F 
ATOM     77  C   UNL A   1      34.767  32.789  30.703  1.00  0.00     0.059 A 
ATOM     78  C   UNL A   1      35.440  34.989  31.404  1.00  0.00     0.059 A 
ATOM     79  F   UNL A   1      37.242  35.247  32.869  1.00  0.00    -0.206 F 
ATOM     80  C   UNL A   1      34.598  34.169  30.666  1.00  0.00     0.060 A 
BRANCH  80  81
ATOM     81  S   UNL A   1      33.324  34.862  29.583  1.00  0.00     0.124 S 
ATOM     82  O   UNL A   1      33.933  36.115  29.141  1.00  0.00    -0.237 OA
ATOM     83  O   UNL A   1      33.197  33.827  28.563  1.00  0.00    -0.237 OA
ATOM     84  O   UNL A   1      32.174  35.022  30.468  1.00  0.00    -0.744 OA
ENDBRANCH  80  81
ENDBRANCH  59  73
BRANCH  60  85
ATOM     85  C   UNL A   1      45.133  28.171  34.360  1.00  0.00     0.058 A 
ATOM     86  C   UNL A   1      45.777  26.984  34.768  1.00  0.00     0.135 A 
ATOM     87  C   UNL A   1      45.677  28.851  33.262  1.00  0.00     0.135 A 
ATOM     88  F   UNL A   1      45.304  26.292  35.817  1.00  0.00    -0.206 F 
ATOM     89  C   UNL A   1      46.815  26.420  34.038  1.00  0.00     0.059 A 
ATOM     90  C   UNL A   1      46.734  28.306  32.517  1.00  0.00     0.059 A 
ATOM     91  F   UNL A   1      45.104  29.978  32.815  1.00  0.00    -0.206 F 
ATOM     92  C   UNL A   1      47.254  27.062  32.884  1.00  0.00     0.060 A 
BRANCH  92  93
ATOM     93  S   UNL A   1      48.362  26.129  31.796  1.00  0.00     0.124 S 
ATOM     94  O   UNL A   1      48.661  24.949  32.597  1.00  0.00    -0.237 OA
ATOM     95  O   UNL A   1      47.498  25.904  30.638  1.00  0.00    -0.237 OA
ATOM     96  O   UNL A   1      49.473  27.050  31.582  1.00  0.00    -0.744 OA
ENDBRANCH  92  93
ENDBRANCH  60  85
BRANCH  72  97
ATOM     97  C   UNL A   1      40.811  33.301  37.215  1.00  0.00     0.058 A 
ATOM     98  C   UNL A   1      40.522  33.360  38.584  1.00  0.00     0.135 A 
ATOM     99  C   UNL A   1      41.144  34.542  36.606  1.00  0.00     0.135 A 
ATOM    100  F   UNL A   1      40.291  32.248  39.298  1.00  0.00    -0.206 F 
ATOM    101  C   UNL A   1      40.502  34.565  39.290  1.00  0.00     0.059 A 
ATOM    102  C   UNL A   1      41.198  35.742  37.304  1.00  0.00     0.059 A 
ATOM    103  F   UNL A   1      41.449  34.632  35.302  1.00  0.00    -0.206 F 
ATOM    104  C   UNL A   1      40.841  35.750  38.642  1.00  0.00     0.060 A 
BRANCH 104 105
ATOM    105  S   UNL A   1      40.848  37.311  39.538  1.00  0.00     0.124 S 
ATOM    106  O   UNL A   1      40.813  36.848  40.922  1.00  0.00    -0.237 OA
ATOM    107  O   UNL A   1      42.100  37.929  39.113  1.00  0.00    -0.237 OA
ATOM    108  O   UNL A   1      39.638  37.971  39.060  1.00  0.00    -0.744 OA
ENDBRANCH 104 105
ENDBRANCH  72  97
ENDBRANCH  46  47
ENDBRANCH  39  41
ENDBRANCH  38  39
ENDBRANCH  37  38
ENDBRANCH  36  37
ENDBRANCH  35  36
ENDBRANCH   1  35
TORSDOF 22
ENDMDL
