MODEL 1
REMARK VINA RESULT:      -7.5      0.000      0.000
REMARK SMILES CN(C)C(=O)CSc1ccc(C(=O)OCCOCCOCCOC(=O)c2ccc(-c3c4nc(c(-c5c(F)cc(S(=O)(=O)[O-])cc5F)c5ccc([nH]5)c(-c5c(F)cc(S(=O)(=O)[O-])cc5F)c5nc(c(-c6c(F)cc(S(=O)(=O)[O-])cc6F)c6ccc3[nH]6)C=C5)C=C4)cc2)cc1
REMARK SMILES IDX 18 1 17 2 16 3 15 4 14 5 12 6 13 7 11 8 8 9 9 10 93 11 10 12
REMARK SMILES IDX 92 13 7 14 6 15 4 16 1 17 2 18 3 19 5 20 19 21 20 22 21 23
REMARK SMILES IDX 22 24 23 25 24 26 25 27 26 28 27 29 91 30 28 31 90 32 29 33
REMARK SMILES IDX 30 34 31 35 84 36 32 37 89 38 83 39 85 40 33 41 88 42 82 43
REMARK SMILES IDX 81 44 34 46 68 47 47 48 67 49 48 50 51 51 66 52 86 53 49 54
REMARK SMILES IDX 50 55 65 57 87 58 52 59 35 60 36 61 45 62 37 63 38 64 44 65
REMARK SMILES IDX 46 66 39 67 40 68 41 69 42 70 43 71 69 72 70 73 79 74 71 75
REMARK SMILES IDX 72 76 78 77 80 78 73 79 74 80 75 81 76 82 77 83 53 84 54 85
REMARK SMILES IDX 63 86 55 87 56 88 62 89 64 90 57 91 58 92 59 93 60 94 61 95
REMARK H PARENT 85 45 51 56
REMARK Flexibility Score: inf
ROOT
ATOM      1  C   UNL A   1      34.939  35.807  32.577  1.00  0.00     0.188 C 
ENDROOT
BRANCH   1   2
ATOM      2  O   UNL A   1      35.221  35.120  33.774  1.00  0.00    -0.376 OA
BRANCH   2   3
ATOM      3  C   UNL A   1      36.449  34.442  33.961  1.00  0.00     0.202 C 
BRANCH   3   4
ATOM      4  C   UNL A   1      37.513  34.155  32.883  1.00  0.00     0.261 C 
BRANCH   4   5
ATOM      5  O   UNL A   1      38.770  34.820  32.986  1.00  0.00    -0.460 OA
BRANCH   5   6
ATOM      6  C   UNL A   1      39.335  34.802  34.218  1.00  0.00     0.338 C 
ATOM      7  O   UNL A   1      39.004  35.473  35.184  1.00  0.00    -0.246 OA
BRANCH   6   8
ATOM      8  C   UNL A   1      40.328  33.713  34.293  1.00  0.00     0.060 A 
ATOM      9  C   UNL A   1      42.290  31.698  34.422  1.00  0.00     0.008 A 
ATOM     10  C   UNL A   1      42.587  33.017  34.796  1.00  0.00     0.016 A 
ATOM     11  C   UNL A   1      40.982  31.398  34.029  1.00  0.00     0.016 A 
ATOM     12  C   UNL A   1      41.621  34.024  34.720  1.00  0.00     0.017 A 
ATOM     13  C   UNL A   1      40.000  32.396  33.970  1.00  0.00     0.017 A 
BRANCH   9  14
ATOM     14  S   UNL A   1      43.643  30.541  34.527  1.00  0.00    -0.116 SA
BRANCH  14  15
ATOM     15  C   UNL A   1      44.106  30.167  32.801  1.00  0.00     0.175 C 
BRANCH  15  16
ATOM     16  C   UNL A   1      43.595  28.819  32.311  1.00  0.00     0.232 C 
ATOM     17  C   UNL A   1      43.950  26.471  31.835  1.00  0.00     0.146 C 
ATOM     18  N   UNL A   1      44.493  27.807  32.004  1.00  0.00    -0.348 N 
ATOM     19  C   UNL A   1      45.940  27.949  31.968  1.00  0.00     0.146 C 
ATOM     20  O   UNL A   1      42.377  28.649  32.173  1.00  0.00    -0.274 OA
ENDBRANCH  15  16
ENDBRANCH  14  15
ENDBRANCH   9  14
ENDBRANCH   6   8
ENDBRANCH   5   6
ENDBRANCH   4   5
ENDBRANCH   3   4
ENDBRANCH   2   3
ENDBRANCH   1   2
BRANCH   1  21
ATOM     21  C   UNL A   1      33.459  35.970  32.184  1.00  0.00     0.188 C 
BRANCH  21  22
ATOM     22  O   UNL A   1      33.109  36.169  30.830  1.00  0.00    -0.376 OA
BRANCH  22  23
ATOM     23  C   UNL A   1      33.083  35.075  29.929  1.00  0.00     0.202 C 
BRANCH  23  24
ATOM     24  C   UNL A   1      34.329  34.324  29.414  1.00  0.00     0.261 C 
BRANCH  24  25
ATOM     25  O   UNL A   1      34.336  32.898  29.513  1.00  0.00    -0.460 OA
BRANCH  25  26
ATOM     26  C   UNL A   1      34.824  32.397  30.673  1.00  0.00     0.338 C 
ATOM     27  O   UNL A   1      34.262  32.364  31.759  1.00  0.00    -0.246 OA
BRANCH  26  28
ATOM     28  C   UNL A   1      36.105  31.721  30.403  1.00  0.00     0.060 A 
ATOM     29  C   UNL A   1      36.883  31.295  31.488  1.00  0.00     0.016 A 
ATOM     30  C   UNL A   1      36.553  31.544  29.094  1.00  0.00     0.016 A 
ATOM     31  C   UNL A   1      38.124  30.699  31.265  1.00  0.00     0.010 A 
ATOM     32  C   UNL A   1      37.808  30.969  28.874  1.00  0.00     0.010 A 
ATOM     33  C   UNL A   1      38.610  30.567  29.958  1.00  0.00    -0.014 A 
BRANCH  33  34
ATOM     34  C   UNL A   1      40.019  30.162  29.731  1.00  0.00     0.031 A 
ATOM     35  C   UNL A   1      41.101  31.193  29.903  1.00  0.00     0.074 A 
ATOM     36  C   UNL A   1      40.334  28.900  29.390  1.00  0.00     0.049 A 
ATOM     37  N   UNL A   1      42.387  31.088  29.697  1.00  0.00    -0.248 NA
ATOM     38  C   UNL A   1      40.670  32.523  30.362  1.00  0.00     0.031 C 
ATOM     39  C   UNL A   1      39.381  27.803  29.235  1.00  0.00     0.029 A 
ATOM     40  N   UNL A   1      41.550  28.333  29.101  1.00  0.00    -0.354 N 
ATOM     41  C   UNL A   1      42.920  32.338  29.993  1.00  0.00     0.074 A 
ATOM     42  C   UNL A   1      41.813  33.193  30.363  1.00  0.00     0.031 C 
ATOM     43  C   UNL A   1      40.048  26.697  28.861  1.00  0.00     0.029 A 
ATOM     44  C   UNL A   1      41.467  27.016  28.715  1.00  0.00     0.049 A 
ATOM     45  H   UNL A   1      42.402  28.823  29.161  1.00  0.00     0.167 HD
ATOM     46  C   UNL A   1      44.215  32.735  29.965  1.00  0.00     0.037 A 
ATOM     47  C   UNL A   1      42.423  26.175  28.271  1.00  0.00     0.037 A 
ATOM     48  C   UNL A   1      45.311  31.879  29.590  1.00  0.00     0.049 A 
ATOM     49  C   UNL A   1      43.848  26.661  28.173  1.00  0.00     0.074 A 
ATOM     50  C   UNL A   1      46.661  32.180  29.548  1.00  0.00     0.029 A 
ATOM     51  N   UNL A   1      45.185  30.559  29.179  1.00  0.00    -0.354 N 
ATOM     52  N   UNL A   1      44.345  27.836  28.482  1.00  0.00    -0.248 NA
ATOM     53  C   UNL A   1      44.845  25.704  27.669  1.00  0.00     0.031 C 
ATOM     54  C   UNL A   1      47.344  31.064  29.056  1.00  0.00     0.029 A 
ATOM     55  C   UNL A   1      46.428  30.043  28.853  1.00  0.00     0.049 A 
ATOM     56  H   UNL A   1      44.336  30.063  29.128  1.00  0.00     0.167 HD
ATOM     57  C   UNL A   1      45.712  27.750  28.237  1.00  0.00     0.074 A 
ATOM     58  C   UNL A   1      45.967  26.404  27.766  1.00  0.00     0.031 C 
ATOM     59  C   UNL A   1      46.670  28.698  28.391  1.00  0.00     0.037 A 
BRANCH  46  60
ATOM     60  C   UNL A   1      44.512  34.166  30.319  1.00  0.00     0.058 A 
ATOM     61  C   UNL A   1      44.536  35.182  29.349  1.00  0.00     0.135 A 
ATOM     62  C   UNL A   1      44.749  34.533  31.654  1.00  0.00     0.135 A 
ATOM     63  F   UNL A   1      44.335  34.886  28.055  1.00  0.00    -0.206 F 
ATOM     64  C   UNL A   1      44.814  36.503  29.686  1.00  0.00     0.059 A 
ATOM     65  C   UNL A   1      44.997  35.852  32.018  1.00  0.00     0.059 A 
ATOM     66  F   UNL A   1      44.740  33.602  32.622  1.00  0.00    -0.206 F 
ATOM     67  C   UNL A   1      45.042  36.828  31.024  1.00  0.00     0.060 A 
BRANCH  67  68
ATOM     68  S   UNL A   1      45.398  38.547  31.443  1.00  0.00     0.124 S 
ATOM     69  O   UNL A   1      46.696  38.424  32.101  1.00  0.00    -0.237 OA
ATOM     70  O   UNL A   1      45.412  39.190  30.133  1.00  0.00    -0.237 OA
ATOM     71  O   UNL A   1      44.288  38.924  32.312  1.00  0.00    -0.744 OA
ENDBRANCH  67  68
ENDBRANCH  46  60
BRANCH  47  72
ATOM     72  C   UNL A   1      42.065  24.787  27.867  1.00  0.00     0.058 A 
ATOM     73  C   UNL A   1      41.449  24.526  26.635  1.00  0.00     0.135 A 
ATOM     74  C   UNL A   1      42.327  23.694  28.710  1.00  0.00     0.135 A 
ATOM     75  F   UNL A   1      41.163  25.537  25.800  1.00  0.00    -0.206 F 
ATOM     76  C   UNL A   1      41.095  23.236  26.255  1.00  0.00     0.059 A 
ATOM     77  C   UNL A   1      42.008  22.391  28.340  1.00  0.00     0.059 A 
ATOM     78  F   UNL A   1      42.919  23.888  29.899  1.00  0.00    -0.206 F 
ATOM     79  C   UNL A   1      41.383  22.173  27.113  1.00  0.00     0.060 A 
BRANCH  79  80
ATOM     80  S   UNL A   1      40.963  20.497  26.587  1.00  0.00     0.124 S 
ATOM     81  O   UNL A   1      40.927  19.788  27.861  1.00  0.00    -0.237 OA
ATOM     82  O   UNL A   1      39.674  20.699  25.932  1.00  0.00    -0.237 OA
ATOM     83  O   UNL A   1      42.062  20.139  25.695  1.00  0.00    -0.744 OA
ENDBRANCH  79  80
ENDBRANCH  47  72
BRANCH  59  84
ATOM     84  C   UNL A   1      48.094  28.311  28.085  1.00  0.00     0.058 A 
ATOM     85  C   UNL A   1      48.913  27.679  29.035  1.00  0.00     0.135 A 
ATOM     86  C   UNL A   1      48.628  28.523  26.802  1.00  0.00     0.135 A 
ATOM     87  F   UNL A   1      48.457  27.457  30.277  1.00  0.00    -0.206 F 
ATOM     88  C   UNL A   1      50.215  27.294  28.732  1.00  0.00     0.059 A 
ATOM     89  C   UNL A   1      49.916  28.117  26.467  1.00  0.00     0.059 A 
ATOM     90  F   UNL A   1      47.886  29.111  25.850  1.00  0.00    -0.206 F 
ATOM     91  C   UNL A   1      50.708  27.515  27.444  1.00  0.00     0.060 A 
BRANCH  91  92
ATOM     92  S   UNL A   1      52.387  26.978  27.055  1.00  0.00     0.124 S 
ATOM     93  O   UNL A   1      52.536  27.451  25.682  1.00  0.00    -0.237 OA
ATOM     94  O   UNL A   1      53.180  27.681  28.058  1.00  0.00    -0.237 OA
ATOM     95  O   UNL A   1      52.327  25.527  27.215  1.00  0.00    -0.744 OA
ENDBRANCH  91  92
ENDBRANCH  59  84
ENDBRANCH  33  34
ENDBRANCH  26  28
ENDBRANCH  25  26
ENDBRANCH  24  25
ENDBRANCH  23  24
ENDBRANCH  22  23
ENDBRANCH  21  22
ENDBRANCH   1  21
TORSDOF 23
ENDMDL
MODEL 2
REMARK VINA RESULT:      -7.2      1.322      1.900
REMARK SMILES CN(C)C(=O)CSc1ccc(C(=O)OCCOCCOCCOC(=O)c2ccc(-c3c4nc(c(-c5c(F)cc(S(=O)(=O)[O-])cc5F)c5ccc([nH]5)c(-c5c(F)cc(S(=O)(=O)[O-])cc5F)c5nc(c(-c6c(F)cc(S(=O)(=O)[O-])cc6F)c6ccc3[nH]6)C=C5)C=C4)cc2)cc1
REMARK SMILES IDX 18 1 17 2 16 3 15 4 14 5 12 6 13 7 11 8 8 9 9 10 93 11 10 12
REMARK SMILES IDX 92 13 7 14 6 15 4 16 1 17 2 18 3 19 5 20 19 21 20 22 21 23
REMARK SMILES IDX 22 24 23 25 24 26 25 27 26 28 27 29 91 30 28 31 90 32 29 33
REMARK SMILES IDX 30 34 31 35 84 36 32 37 89 38 83 39 85 40 33 41 88 42 82 43
REMARK SMILES IDX 81 44 34 46 68 47 47 48 67 49 48 50 51 51 66 52 86 53 49 54
REMARK SMILES IDX 50 55 65 57 87 58 52 59 35 60 36 61 45 62 37 63 38 64 44 65
REMARK SMILES IDX 46 66 39 67 40 68 41 69 42 70 43 71 69 72 70 73 79 74 71 75
REMARK SMILES IDX 72 76 78 77 80 78 73 79 74 80 75 81 76 82 77 83 53 84 54 85
REMARK SMILES IDX 63 86 55 87 56 88 62 89 64 90 57 91 58 92 59 93 60 94 61 95
REMARK H PARENT 85 45 51 56
REMARK Flexibility Score: inf
ROOT
ATOM      1  C   UNL A   1      34.576  35.933  32.972  1.00  0.00     0.188 C 
ENDROOT
BRANCH   1   2
ATOM      2  O   UNL A   1      34.534  35.316  34.238  1.00  0.00    -0.376 OA
BRANCH   2   3
ATOM      3  C   UNL A   1      35.592  34.490  34.688  1.00  0.00     0.202 C 
BRANCH   3   4
ATOM      4  C   UNL A   1      36.958  34.293  34.003  1.00  0.00     0.261 C 
BRANCH   4   5
ATOM      5  O   UNL A   1      38.113  34.841  34.636  1.00  0.00    -0.460 OA
BRANCH   5   6
ATOM      6  C   UNL A   1      38.592  34.127  35.685  1.00  0.00     0.338 C 
ATOM      7  O   UNL A   1      38.407  34.356  36.870  1.00  0.00    -0.246 OA
BRANCH   6   8
ATOM      8  C   UNL A   1      39.251  32.902  35.191  1.00  0.00     0.060 A 
ATOM      9  C   UNL A   1      40.482  30.522  34.329  1.00  0.00     0.008 A 
ATOM     10  C   UNL A   1      39.388  30.489  35.207  1.00  0.00     0.016 A 
ATOM     11  C   UNL A   1      40.916  31.764  33.855  1.00  0.00     0.016 A 
ATOM     12  C   UNL A   1      38.783  31.668  35.649  1.00  0.00     0.017 A 
ATOM     13  C   UNL A   1      40.302  32.951  34.275  1.00  0.00     0.017 A 
BRANCH   9  14
ATOM     14  S   UNL A   1      41.176  28.936  33.898  1.00  0.00    -0.116 SA
BRANCH  14  15
ATOM     15  C   UNL A   1      42.120  28.398  35.365  1.00  0.00     0.175 C 
BRANCH  15  16
ATOM     16  C   UNL A   1      42.828  29.537  36.086  1.00  0.00     0.232 C 
ATOM     17  C   UNL A   1      44.477  31.311  36.127  1.00  0.00     0.146 C 
ATOM     18  N   UNL A   1      44.013  30.050  35.577  1.00  0.00    -0.348 N 
ATOM     19  C   UNL A   1      44.754  29.497  34.453  1.00  0.00     0.146 C 
ATOM     20  O   UNL A   1      42.345  29.980  37.135  1.00  0.00    -0.274 OA
ENDBRANCH  15  16
ENDBRANCH  14  15
ENDBRANCH   9  14
ENDBRANCH   6   8
ENDBRANCH   5   6
ENDBRANCH   4   5
ENDBRANCH   3   4
ENDBRANCH   2   3
ENDBRANCH   1   2
BRANCH   1  21
ATOM     21  C   UNL A   1      33.234  36.353  32.343  1.00  0.00     0.188 C 
BRANCH  21  22
ATOM     22  O   UNL A   1      33.150  36.575  30.950  1.00  0.00    -0.376 OA
BRANCH  22  23
ATOM     23  C   UNL A   1      32.948  35.489  30.063  1.00  0.00     0.202 C 
BRANCH  23  24
ATOM     24  C   UNL A   1      34.070  34.607  29.476  1.00  0.00     0.261 C 
BRANCH  24  25
ATOM     25  O   UNL A   1      33.990  33.196  29.691  1.00  0.00    -0.460 OA
BRANCH  25  26
ATOM     26  C   UNL A   1      34.525  32.753  30.855  1.00  0.00     0.338 C 
ATOM     27  O   UNL A   1      33.987  32.724  31.952  1.00  0.00    -0.246 OA
BRANCH  26  28
ATOM     28  C   UNL A   1      35.832  32.132  30.576  1.00  0.00     0.060 A 
ATOM     29  C   UNL A   1      36.541  31.551  31.636  1.00  0.00     0.016 A 
ATOM     30  C   UNL A   1      36.372  32.158  29.290  1.00  0.00     0.016 A 
ATOM     31  C   UNL A   1      37.803  31.002  31.414  1.00  0.00     0.010 A 
ATOM     32  C   UNL A   1      37.648  31.630  29.075  1.00  0.00     0.010 A 
ATOM     33  C   UNL A   1      38.380  31.073  30.140  1.00  0.00    -0.014 A 
BRANCH  33  34
ATOM     34  C   UNL A   1      39.807  30.714  29.954  1.00  0.00     0.031 A 
ATOM     35  C   UNL A   1      40.850  31.776  30.173  1.00  0.00     0.074 A 
ATOM     36  C   UNL A   1      40.173  29.467  29.609  1.00  0.00     0.049 A 
ATOM     37  N   UNL A   1      42.145  31.713  30.008  1.00  0.00    -0.248 NA
ATOM     38  C   UNL A   1      40.364  33.086  30.634  1.00  0.00     0.031 C 
ATOM     39  C   UNL A   1      39.260  28.343  29.410  1.00  0.00     0.029 A 
ATOM     40  N   UNL A   1      41.414  28.942  29.352  1.00  0.00    -0.354 N 
ATOM     41  C   UNL A   1      42.629  32.975  30.335  1.00  0.00     0.074 A 
ATOM     42  C   UNL A   1      41.485  33.790  30.679  1.00  0.00     0.031 C 
ATOM     43  C   UNL A   1      39.972  27.263  29.045  1.00  0.00     0.029 A 
ATOM     44  C   UNL A   1      41.385  27.627  28.949  1.00  0.00     0.049 A 
ATOM     45  H   UNL A   1      42.248  29.457  29.446  1.00  0.00     0.167 HD
ATOM     46  C   UNL A   1      43.911  33.412  30.354  1.00  0.00     0.037 A 
ATOM     47  C   UNL A   1      42.380  26.822  28.526  1.00  0.00     0.037 A 
ATOM     48  C   UNL A   1      45.045  32.595  30.005  1.00  0.00     0.049 A 
ATOM     49  C   UNL A   1      43.792  27.353  28.480  1.00  0.00     0.074 A 
ATOM     50  C   UNL A   1      46.386  32.939  30.010  1.00  0.00     0.029 A 
ATOM     51  N   UNL A   1      44.973  31.278  29.575  1.00  0.00    -0.354 N 
ATOM     52  N   UNL A   1      44.241  28.539  28.819  1.00  0.00    -0.248 NA
ATOM     53  C   UNL A   1      44.834  26.434  27.998  1.00  0.00     0.031 C 
ATOM     54  C   UNL A   1      47.118  31.850  29.528  1.00  0.00     0.029 A 
ATOM     55  C   UNL A   1      46.242  30.804  29.283  1.00  0.00     0.049 A 
ATOM     56  H   UNL A   1      44.143  30.756  29.490  1.00  0.00     0.167 HD
ATOM     57  C   UNL A   1      45.618  28.498  28.617  1.00  0.00     0.074 A 
ATOM     58  C   UNL A   1      45.930  27.167  28.139  1.00  0.00     0.031 C 
ATOM     59  C   UNL A   1      46.541  29.473  28.813  1.00  0.00     0.037 A 
BRANCH  46  60
ATOM     60  C   UNL A   1      44.152  34.847  30.735  1.00  0.00     0.058 A 
ATOM     61  C   UNL A   1      44.176  35.875  29.778  1.00  0.00     0.135 A 
ATOM     62  C   UNL A   1      44.333  35.204  32.081  1.00  0.00     0.135 A 
ATOM     63  F   UNL A   1      44.027  35.589  28.474  1.00  0.00    -0.206 F 
ATOM     64  C   UNL A   1      44.402  37.200  30.139  1.00  0.00     0.059 A 
ATOM     65  C   UNL A   1      44.528  36.526  32.468  1.00  0.00     0.059 A 
ATOM     66  F   UNL A   1      44.321  34.262  33.037  1.00  0.00    -0.206 F 
ATOM     67  C   UNL A   1      44.576  37.515  31.488  1.00  0.00     0.060 A 
BRANCH  67  68
ATOM     68  S   UNL A   1      44.865  39.239  31.938  1.00  0.00     0.124 S 
ATOM     69  O   UNL A   1      46.021  39.567  31.110  1.00  0.00    -0.237 OA
ATOM     70  O   UNL A   1      43.609  39.875  31.552  1.00  0.00    -0.237 OA
ATOM     71  O   UNL A   1      45.119  39.179  33.374  1.00  0.00    -0.744 OA
ENDBRANCH  67  68
ENDBRANCH  46  60
BRANCH  47  72
ATOM     72  C   UNL A   1      42.079  25.429  28.095  1.00  0.00     0.058 A 
ATOM     73  C   UNL A   1      41.445  25.170  26.871  1.00  0.00     0.135 A 
ATOM     74  C   UNL A   1      42.413  24.329  28.902  1.00  0.00     0.135 A 
ATOM     75  F   UNL A   1      41.091  26.187  26.070  1.00  0.00    -0.206 F 
ATOM     76  C   UNL A   1      41.144  23.874  26.466  1.00  0.00     0.059 A 
ATOM     77  C   UNL A   1      42.148  23.022  28.506  1.00  0.00     0.059 A 
ATOM     78  F   UNL A   1      43.025  24.522  30.081  1.00  0.00    -0.206 F 
ATOM     79  C   UNL A   1      41.504  22.805  27.289  1.00  0.00     0.060 A 
BRANCH  79  80
ATOM     80  S   UNL A   1      41.151  21.125  26.729  1.00  0.00     0.124 S 
ATOM     81  O   UNL A   1      40.778  20.470  27.977  1.00  0.00    -0.237 OA
ATOM     82  O   UNL A   1      40.069  21.343  25.774  1.00  0.00    -0.237 OA
ATOM     83  O   UNL A   1      42.417  20.693  26.143  1.00  0.00    -0.744 OA
ENDBRANCH  79  80
ENDBRANCH  47  72
BRANCH  59  84
ATOM     84  C   UNL A   1      47.985  29.134  28.550  1.00  0.00     0.058 A 
ATOM     85  C   UNL A   1      48.599  29.403  27.316  1.00  0.00     0.135 A 
ATOM     86  C   UNL A   1      48.782  28.583  29.569  1.00  0.00     0.135 A 
ATOM     87  F   UNL A   1      47.885  29.924  26.306  1.00  0.00    -0.206 F 
ATOM     88  C   UNL A   1      49.942  29.117  27.095  1.00  0.00     0.059 A 
ATOM     89  C   UNL A   1      50.134  28.319  29.380  1.00  0.00     0.059 A 
ATOM     90  F   UNL A   1      48.250  28.316  30.773  1.00  0.00    -0.206 F 
ATOM     91  C   UNL A   1      50.704  28.578  28.134  1.00  0.00     0.060 A 
BRANCH  91  92
ATOM     92  S   UNL A   1      52.454  28.245  27.843  1.00  0.00     0.124 S 
ATOM     93  O   UNL A   1      52.509  26.795  28.006  1.00  0.00    -0.237 OA
ATOM     94  O   UNL A   1      52.644  28.738  26.482  1.00  0.00    -0.237 OA
ATOM     95  O   UNL A   1      53.126  29.018  28.884  1.00  0.00    -0.744 OA
ENDBRANCH  91  92
ENDBRANCH  59  84
ENDBRANCH  33  34
ENDBRANCH  26  28
ENDBRANCH  25  26
ENDBRANCH  24  25
ENDBRANCH  23  24
ENDBRANCH  22  23
ENDBRANCH  21  22
ENDBRANCH   1  21
TORSDOF 23
ENDMDL
MODEL 3
REMARK VINA RESULT:      -7.0      4.706     12.360
REMARK SMILES CN(C)C(=O)CSc1ccc(C(=O)OCCOCCOCCOC(=O)c2ccc(-c3c4nc(c(-c5c(F)cc(S(=O)(=O)[O-])cc5F)c5ccc([nH]5)c(-c5c(F)cc(S(=O)(=O)[O-])cc5F)c5nc(c(-c6c(F)cc(S(=O)(=O)[O-])cc6F)c6ccc3[nH]6)C=C5)C=C4)cc2)cc1
REMARK SMILES IDX 18 1 17 2 16 3 15 4 14 5 12 6 13 7 11 8 8 9 9 10 93 11 10 12
REMARK SMILES IDX 92 13 7 14 6 15 4 16 1 17 2 18 3 19 5 20 19 21 20 22 21 23
REMARK SMILES IDX 22 24 23 25 24 26 25 27 26 28 27 29 91 30 28 31 90 32 29 33
REMARK SMILES IDX 30 34 31 35 84 36 32 37 89 38 83 39 85 40 33 41 88 42 82 43
REMARK SMILES IDX 81 44 34 46 68 47 47 48 67 49 48 50 51 51 66 52 86 53 49 54
REMARK SMILES IDX 50 55 65 57 87 58 52 59 35 60 36 61 45 62 37 63 38 64 44 65
REMARK SMILES IDX 46 66 39 67 40 68 41 69 42 70 43 71 69 72 70 73 79 74 71 75
REMARK SMILES IDX 72 76 78 77 80 78 73 79 74 80 75 81 76 82 77 83 53 84 54 85
REMARK SMILES IDX 63 86 55 87 56 88 62 89 64 90 57 91 58 92 59 93 60 94 61 95
REMARK H PARENT 85 45 51 56
REMARK Flexibility Score: inf
ROOT
ATOM      1  C   UNL A   1      39.976  21.823  27.095  1.00  0.00     0.188 C 
ENDROOT
BRANCH   1   2
ATOM      2  O   UNL A   1      39.516  21.845  25.763  1.00  0.00    -0.376 OA
BRANCH   2   3
ATOM      3  C   UNL A   1      38.234  21.352  25.421  1.00  0.00     0.202 C 
BRANCH   3   4
ATOM      4  C   UNL A   1      37.132  22.110  24.656  1.00  0.00     0.261 C 
BRANCH   4   5
ATOM      5  O   UNL A   1      35.903  22.372  25.331  1.00  0.00    -0.460 OA
BRANCH   5   6
ATOM      6  C   UNL A   1      34.787  22.238  24.573  1.00  0.00     0.338 C 
ATOM      7  O   UNL A   1      34.216  21.196  24.291  1.00  0.00    -0.246 OA
BRANCH   6   8
ATOM      8  C   UNL A   1      34.236  23.571  24.260  1.00  0.00     0.060 A 
ATOM      9  C   UNL A   1      33.181  26.088  23.573  1.00  0.00     0.008 A 
ATOM     10  C   UNL A   1      32.865  24.947  22.822  1.00  0.00     0.016 A 
ATOM     11  C   UNL A   1      33.994  25.938  24.701  1.00  0.00     0.016 A 
ATOM     12  C   UNL A   1      33.398  23.698  23.150  1.00  0.00     0.017 A 
ATOM     13  C   UNL A   1      34.516  24.686  25.051  1.00  0.00     0.017 A 
BRANCH   9  14
ATOM     14  S   UNL A   1      32.462  27.616  22.998  1.00  0.00    -0.116 SA
BRANCH  14  15
ATOM     15  C   UNL A   1      31.001  27.901  24.055  1.00  0.00     0.175 C 
BRANCH  15  16
ATOM     16  C   UNL A   1      30.659  29.373  24.239  1.00  0.00     0.232 C 
ATOM     17  C   UNL A   1      29.188  31.262  23.877  1.00  0.00     0.146 C 
ATOM     18  N   UNL A   1      29.673  29.959  23.459  1.00  0.00    -0.348 N 
ATOM     19  C   UNL A   1      28.996  29.321  22.340  1.00  0.00     0.146 C 
ATOM     20  O   UNL A   1      31.286  30.038  25.074  1.00  0.00    -0.274 OA
ENDBRANCH  15  16
ENDBRANCH  14  15
ENDBRANCH   9  14
ENDBRANCH   6   8
ENDBRANCH   5   6
ENDBRANCH   4   5
ENDBRANCH   3   4
ENDBRANCH   2   3
ENDBRANCH   1   2
BRANCH   1  21
ATOM     21  C   UNL A   1      41.051  20.780  27.456  1.00  0.00     0.188 C 
BRANCH  21  22
ATOM     22  O   UNL A   1      41.584  19.943  26.450  1.00  0.00    -0.376 OA
BRANCH  22  23
ATOM     23  C   UNL A   1      42.954  20.031  26.097  1.00  0.00     0.202 C 
BRANCH  23  24
ATOM     24  C   UNL A   1      43.549  21.060  25.114  1.00  0.00     0.261 C 
BRANCH  24  25
ATOM     25  O   UNL A   1      42.897  22.328  25.001  1.00  0.00    -0.460 OA
BRANCH  25  26
ATOM     26  C   UNL A   1      43.720  23.395  24.857  1.00  0.00     0.338 C 
ATOM     27  O   UNL A   1      44.558  23.570  23.984  1.00  0.00    -0.246 OA
BRANCH  26  28
ATOM     28  C   UNL A   1      43.337  24.430  25.833  1.00  0.00     0.060 A 
ATOM     29  C   UNL A   1      43.741  25.752  25.605  1.00  0.00     0.016 A 
ATOM     30  C   UNL A   1      42.623  24.094  26.983  1.00  0.00     0.016 A 
ATOM     31  C   UNL A   1      43.440  26.745  26.537  1.00  0.00     0.010 A 
ATOM     32  C   UNL A   1      42.344  25.086  27.927  1.00  0.00     0.010 A 
ATOM     33  C   UNL A   1      42.772  26.410  27.721  1.00  0.00    -0.014 A 
BRANCH  33  34
ATOM     34  C   UNL A   1      42.666  27.406  28.816  1.00  0.00     0.031 A 
ATOM     35  C   UNL A   1      43.723  27.413  29.887  1.00  0.00     0.074 A 
ATOM     36  C   UNL A   1      41.657  28.293  28.855  1.00  0.00     0.049 A 
ATOM     37  N   UNL A   1      43.804  28.144  30.968  1.00  0.00    -0.248 NA
ATOM     38  C   UNL A   1      44.836  26.465  29.714  1.00  0.00     0.031 C 
ATOM     39  C   UNL A   1      40.597  28.412  27.855  1.00  0.00     0.029 A 
ATOM     40  N   UNL A   1      41.354  29.258  29.783  1.00  0.00    -0.354 N 
ATOM     41  C   UNL A   1      44.968  27.739  31.611  1.00  0.00     0.074 A 
ATOM     42  C   UNL A   1      45.545  26.678  30.813  1.00  0.00     0.031 C 
ATOM     43  C   UNL A   1      39.749  29.384  28.234  1.00  0.00     0.029 A 
ATOM     44  C   UNL A   1      40.185  29.931  29.518  1.00  0.00     0.049 A 
ATOM     45  H   UNL A   1      41.920  29.449  30.566  1.00  0.00     0.167 HD
ATOM     46  C   UNL A   1      45.511  28.212  32.758  1.00  0.00     0.037 A 
ATOM     47  C   UNL A   1      39.530  30.860  30.243  1.00  0.00     0.037 A 
ATOM     48  C   UNL A   1      44.928  29.265  33.550  1.00  0.00     0.049 A 
ATOM     49  C   UNL A   1      40.112  31.318  31.558  1.00  0.00     0.074 A 
ATOM     50  C   UNL A   1      45.409  29.829  34.718  1.00  0.00     0.029 A 
ATOM     51  N   UNL A   1      43.729  29.903  33.264  1.00  0.00    -0.354 N 
ATOM     52  N   UNL A   1      41.228  30.948  32.142  1.00  0.00    -0.248 NA
ATOM     53  C   UNL A   1      39.347  32.324  32.311  1.00  0.00     0.031 C 
ATOM     54  C   UNL A   1      44.475  30.764  35.170  1.00  0.00     0.029 A 
ATOM     55  C   UNL A   1      43.439  30.832  34.250  1.00  0.00     0.049 A 
ATOM     56  H   UNL A   1      43.167  29.721  32.477  1.00  0.00     0.167 HD
ATOM     57  C   UNL A   1      41.312  31.695  33.314  1.00  0.00     0.074 A 
ATOM     58  C   UNL A   1      40.140  32.547  33.350  1.00  0.00     0.031 C 
ATOM     59  C   UNL A   1      42.273  31.679  34.272  1.00  0.00     0.037 A 
BRANCH  46  60
ATOM     60  C   UNL A   1      46.784  27.573  33.242  1.00  0.00     0.058 A 
ATOM     61  C   UNL A   1      48.048  28.069  32.882  1.00  0.00     0.135 A 
ATOM     62  C   UNL A   1      46.739  26.464  34.103  1.00  0.00     0.135 A 
ATOM     63  F   UNL A   1      48.150  29.115  32.046  1.00  0.00    -0.206 F 
ATOM     64  C   UNL A   1      49.220  27.470  33.332  1.00  0.00     0.059 A 
ATOM     65  C   UNL A   1      47.897  25.869  34.591  1.00  0.00     0.059 A 
ATOM     66  F   UNL A   1      45.558  25.947  34.478  1.00  0.00    -0.206 F 
ATOM     67  C   UNL A   1      49.134  26.371  34.188  1.00  0.00     0.060 A 
BRANCH  67  68
ATOM     68  S   UNL A   1      50.665  25.608  34.766  1.00  0.00     0.124 S 
ATOM     69  O   UNL A   1      50.322  24.190  34.714  1.00  0.00    -0.237 OA
ATOM     70  O   UNL A   1      51.632  26.063  33.773  1.00  0.00    -0.237 OA
ATOM     71  O   UNL A   1      50.837  26.162  36.106  1.00  0.00    -0.744 OA
ENDBRANCH  67  68
ENDBRANCH  46  60
BRANCH  47  72
ATOM     72  C   UNL A   1      38.237  31.412  29.752  1.00  0.00     0.058 A 
ATOM     73  C   UNL A   1      38.159  32.702  29.207  1.00  0.00     0.135 A 
ATOM     74  C   UNL A   1      37.051  30.663  29.825  1.00  0.00     0.135 A 
ATOM     75  F   UNL A   1      39.261  33.465  29.129  1.00  0.00    -0.206 F 
ATOM     76  C   UNL A   1      36.954  33.234  28.761  1.00  0.00     0.059 A 
ATOM     77  C   UNL A   1      35.839  31.162  29.359  1.00  0.00     0.059 A 
ATOM     78  F   UNL A   1      37.071  29.420  30.334  1.00  0.00    -0.206 F 
ATOM     79  C   UNL A   1      35.798  32.454  28.837  1.00  0.00     0.060 A 
BRANCH  79  80
ATOM     80  S   UNL A   1      34.250  33.138  28.210  1.00  0.00     0.124 S 
ATOM     81  O   UNL A   1      33.622  31.959  27.624  1.00  0.00    -0.237 OA
ATOM     82  O   UNL A   1      33.630  33.653  29.427  1.00  0.00    -0.237 OA
ATOM     83  O   UNL A   1      34.691  34.156  27.261  1.00  0.00    -0.744 OA
ENDBRANCH  79  80
ENDBRANCH  47  72
BRANCH  59  84
ATOM     84  C   UNL A   1      42.126  32.636  35.426  1.00  0.00     0.058 A 
ATOM     85  C   UNL A   1      41.455  32.280  36.607  1.00  0.00     0.135 A 
ATOM     86  C   UNL A   1      42.717  33.910  35.371  1.00  0.00     0.135 A 
ATOM     87  F   UNL A   1      40.867  31.078  36.712  1.00  0.00    -0.206 F 
ATOM     88  C   UNL A   1      41.355  33.159  37.681  1.00  0.00     0.059 A 
ATOM     89  C   UNL A   1      42.658  34.794  36.445  1.00  0.00     0.059 A 
ATOM     90  F   UNL A   1      43.382  34.300  34.272  1.00  0.00    -0.206 F 
ATOM     91  C   UNL A   1      41.962  34.413  37.592  1.00  0.00     0.060 A 
BRANCH  91  92
ATOM     92  S   UNL A   1      41.855  35.530  39.006  1.00  0.00     0.124 S 
ATOM     93  O   UNL A   1      40.894  34.835  39.858  1.00  0.00    -0.237 OA
ATOM     94  O   UNL A   1      43.231  35.554  39.491  1.00  0.00    -0.237 OA
ATOM     95  O   UNL A   1      41.382  36.781  38.418  1.00  0.00    -0.744 OA
ENDBRANCH  91  92
ENDBRANCH  59  84
ENDBRANCH  33  34
ENDBRANCH  26  28
ENDBRANCH  25  26
ENDBRANCH  24  25
ENDBRANCH  23  24
ENDBRANCH  22  23
ENDBRANCH  21  22
ENDBRANCH   1  21
TORSDOF 23
ENDMDL
