MODEL 1
REMARK VINA RESULT:     -10.2      0.000      0.000
REMARK SMILES Cc1c(CCC(=O)N[C@@H](C)C(=O)OCCOCCOCCOC(=O)c2ccc(-c3c4nc(c(-c5c(F)cc(S(=O)(=O)[O-])cc5F)c5ccc([nH]5)c(-c5c(F)cc(S(=O)(=O)[O-])cc5F)c5nc(c(-c6c(F)cc(S(=O)(=O)[O-])cc6F)c6ccc3[nH]6)C=C5)C=C4)cc2)c(=O)oc2cc3oc4c(c3cc12)CCCC4
REMARK SMILES IDX 17 1 16 2 15 3 14 4 13 5 11 6 12 7 9 8 10 9 8 10 6 11 7 12
REMARK SMILES IDX 5 14 4 15 3 16 1 17 2 18 102 19 91 20 94 21 101 22 92 23
REMARK SMILES IDX 93 24 95 25 100 26 96 27 99 28 97 29 98 30 103 31 106 32
REMARK SMILES IDX 104 33 105 34 18 35 19 36 20 37 21 38 22 39 23 40 24 41
REMARK SMILES IDX 25 42 26 43 90 44 27 45 89 46 28 47 29 48 30 49 83 50 31 51
REMARK SMILES IDX 88 52 82 53 84 54 32 55 87 56 81 57 80 58 33 60 67 61 46 62
REMARK SMILES IDX 66 63 47 64 50 65 65 66 85 67 48 68 49 69 64 71 86 72 51 73
REMARK SMILES IDX 34 74 35 75 44 76 36 77 37 78 43 79 45 80 38 81 39 82 40 83
REMARK SMILES IDX 41 84 42 85 68 86 69 87 78 88 70 89 71 90 77 91 79 92 72 93
REMARK SMILES IDX 73 94 74 95 75 96 76 97 52 98 53 99 62 100 54 101 55 102
REMARK SMILES IDX 61 103 63 104 56 105 57 106 58 107 59 108 60 109
REMARK H PARENT 8 13 84 59 50 70
REMARK Flexibility Score: inf
ROOT
ATOM      1  C   UNL A   1      39.638  26.939  28.189  1.00  0.00     0.188 C 
ENDROOT
BRANCH   1   2
ATOM      2  O   UNL A   1      40.469  27.147  27.071  1.00  0.00    -0.376 OA
BRANCH   2   3
ATOM      3  C   UNL A   1      41.872  27.020  27.255  1.00  0.00     0.202 C 
BRANCH   3   4
ATOM      4  C   UNL A   1      42.493  25.945  28.172  1.00  0.00     0.261 C 
BRANCH   4   5
ATOM      5  O   UNL A   1      43.660  25.271  27.649  1.00  0.00    -0.462 OA
BRANCH   5   6
ATOM      6  C   UNL A   1      43.785  23.937  27.943  1.00  0.00     0.328 C 
ATOM      7  O   UNL A   1      43.629  23.460  29.061  1.00  0.00    -0.250 OA
BRANCH   6   8
ATOM      8  C   UNL A   1      44.027  23.045  26.688  1.00  0.00     0.189 C 
ATOM      9  C   UNL A   1      43.872  23.843  25.405  1.00  0.00     0.043 C 
BRANCH   8  10
ATOM     10  N   UNL A   1      43.483  21.695  26.459  1.00  0.00    -0.343 N 
ATOM     11  C   UNL A   1      42.214  21.224  26.636  1.00  0.00     0.221 C 
ATOM     12  O   UNL A   1      42.086  20.137  27.206  1.00  0.00    -0.275 OA
ATOM     13  H   UNL A   1      44.132  21.034  26.126  1.00  0.00     0.164 HD
BRANCH  11  14
ATOM     14  C   UNL A   1      41.012  21.923  26.019  1.00  0.00     0.105 C 
BRANCH  14  15
ATOM     15  C   UNL A   1      39.673  21.813  26.760  1.00  0.00     0.053 C 
BRANCH  15  16
ATOM     16  C   UNL A   1      38.507  21.904  25.810  1.00  0.00     0.042 A 
ATOM     17  C   UNL A   1      38.541  19.446  25.271  1.00  0.00     0.046 C 
ATOM     18  C   UNL A   1      37.959  20.835  25.207  1.00  0.00    -0.030 A 
ATOM     19  C   UNL A   1      36.569  21.045  24.788  1.00  0.00     0.022 A 
ATOM     20  C   UNL A   1      37.903  23.267  25.651  1.00  0.00     0.339 A 
ATOM     21  C   UNL A   1      36.117  22.315  24.425  1.00  0.00     0.142 A 
ATOM     22  C   UNL A   1      35.624  20.047  25.007  1.00  0.00     0.024 A 
ATOM     23  O   UNL A   1      38.310  24.199  26.333  1.00  0.00    -0.246 OA
ATOM     24  O   UNL A   1      36.964  23.416  24.634  1.00  0.00    -0.422 OA
ATOM     25  C   UNL A   1      34.816  22.549  23.940  1.00  0.00     0.095 A 
ATOM     26  C   UNL A   1      34.277  20.327  24.797  1.00  0.00     0.025 A 
ATOM     27  C   UNL A   1      33.959  21.458  24.058  1.00  0.00     0.138 A 
ATOM     28  C   UNL A   1      33.082  19.597  24.976  1.00  0.00     0.001 A 
ATOM     29  O   UNL A   1      32.788  21.182  23.387  1.00  0.00    -0.461 OA
ATOM     30  C   UNL A   1      32.447  19.921  23.796  1.00  0.00     0.108 A 
ATOM     31  C   UNL A   1      32.862  18.253  25.563  1.00  0.00     0.040 C 
ATOM     32  C   UNL A   1      32.164  18.823  22.815  1.00  0.00     0.076 C 
ATOM     33  C   UNL A   1      33.353  17.213  24.554  1.00  0.00     0.005 C 
ATOM     34  C   UNL A   1      33.238  17.697  23.075  1.00  0.00     0.008 C 
ENDBRANCH  15  16
ENDBRANCH  14  15
ENDBRANCH  11  14
ENDBRANCH   8  10
ENDBRANCH   6   8
ENDBRANCH   5   6
ENDBRANCH   4   5
ENDBRANCH   3   4
ENDBRANCH   2   3
ENDBRANCH   1   2
BRANCH   1  35
ATOM     35  C   UNL A   1      39.230  28.236  28.902  1.00  0.00     0.188 C 
BRANCH  35  36
ATOM     36  O   UNL A   1      37.897  28.720  28.815  1.00  0.00    -0.376 OA
BRANCH  36  37
ATOM     37  C   UNL A   1      37.387  29.297  30.019  1.00  0.00     0.202 C 
BRANCH  37  38
ATOM     38  C   UNL A   1      36.252  30.350  29.937  1.00  0.00     0.261 C 
BRANCH  38  39
ATOM     39  O   UNL A   1      36.644  31.663  29.474  1.00  0.00    -0.460 OA
BRANCH  39  40
ATOM     40  C   UNL A   1      37.094  32.557  30.407  1.00  0.00     0.338 C 
ATOM     41  O   UNL A   1      36.620  32.754  31.518  1.00  0.00    -0.246 OA
BRANCH  40  42
ATOM     42  C   UNL A   1      38.446  33.014  29.979  1.00  0.00     0.060 A 
ATOM     43  C   UNL A   1      39.566  32.238  30.265  1.00  0.00     0.016 A 
ATOM     44  C   UNL A   1      38.606  34.329  29.502  1.00  0.00     0.016 A 
ATOM     45  C   UNL A   1      40.841  32.794  30.124  1.00  0.00     0.010 A 
ATOM     46  C   UNL A   1      39.878  34.905  29.445  1.00  0.00     0.010 A 
ATOM     47  C   UNL A   1      41.012  34.137  29.742  1.00  0.00    -0.014 A 
BRANCH  47  48
ATOM     48  C   UNL A   1      42.392  34.650  29.551  1.00  0.00     0.031 A 
ATOM     49  C   UNL A   1      42.505  35.857  28.647  1.00  0.00     0.074 A 
ATOM     50  C   UNL A   1      43.273  34.514  30.568  1.00  0.00     0.049 A 
ATOM     51  N   UNL A   1      42.499  37.108  28.989  1.00  0.00    -0.248 NA
ATOM     52  C   UNL A   1      42.421  35.661  27.195  1.00  0.00     0.031 C 
ATOM     53  C   UNL A   1      43.171  35.128  31.892  1.00  0.00     0.029 A 
ATOM     54  N   UNL A   1      44.528  33.926  30.548  1.00  0.00    -0.354 N 
ATOM     55  C   UNL A   1      42.431  37.871  27.814  1.00  0.00     0.074 A 
ATOM     56  C   UNL A   1      42.351  36.919  26.734  1.00  0.00     0.031 C 
ATOM     57  C   UNL A   1      44.366  35.021  32.505  1.00  0.00     0.029 A 
ATOM     58  C   UNL A   1      45.312  34.323  31.629  1.00  0.00     0.049 A 
ATOM     59  H   UNL A   1      44.831  33.301  29.851  1.00  0.00     0.167 HD
ATOM     60  C   UNL A   1      42.556  39.232  27.794  1.00  0.00     0.037 A 
ATOM     61  C   UNL A   1      46.654  34.564  31.566  1.00  0.00     0.037 A 
ATOM     62  C   UNL A   1      42.896  39.842  29.058  1.00  0.00     0.049 A 
ATOM     63  C   UNL A   1      46.675  36.039  31.245  1.00  0.00     0.074 A 
ATOM     64  C   UNL A   1      42.575  40.935  29.830  1.00  0.00     0.029 A 
ATOM     65  N   UNL A   1      43.874  39.180  29.735  1.00  0.00    -0.354 N 
ATOM     66  N   UNL A   1      46.464  37.021  32.082  1.00  0.00    -0.248 NA
ATOM     67  C   UNL A   1      46.638  36.437  29.828  1.00  0.00     0.031 C 
ATOM     68  C   UNL A   1      43.377  40.854  31.021  1.00  0.00     0.029 A 
ATOM     69  C   UNL A   1      44.227  39.760  30.909  1.00  0.00     0.049 A 
ATOM     70  H   UNL A   1      44.290  38.353  29.401  1.00  0.00     0.167 HD
ATOM     71  C   UNL A   1      45.983  38.066  31.295  1.00  0.00     0.074 A 
ATOM     72  C   UNL A   1      46.295  37.717  29.923  1.00  0.00     0.031 C 
ATOM     73  C   UNL A   1      45.137  39.033  31.761  1.00  0.00     0.037 A 
BRANCH  60  74
ATOM     74  C   UNL A   1      42.735  40.069  26.571  1.00  0.00     0.058 A 
ATOM     75  C   UNL A   1      44.044  40.480  26.250  1.00  0.00     0.135 A 
ATOM     76  C   UNL A   1      41.682  40.667  25.870  1.00  0.00     0.135 A 
ATOM     77  F   UNL A   1      45.095  39.921  26.872  1.00  0.00    -0.206 F 
ATOM     78  C   UNL A   1      44.299  41.496  25.335  1.00  0.00     0.059 A 
ATOM     79  C   UNL A   1      41.916  41.680  24.931  1.00  0.00     0.059 A 
ATOM     80  F   UNL A   1      40.412  40.316  26.125  1.00  0.00    -0.206 F 
ATOM     81  C   UNL A   1      43.225  42.111  24.697  1.00  0.00     0.060 A 
BRANCH  81  82
ATOM     82  S   UNL A   1      43.575  43.510  23.604  1.00  0.00     0.124 S 
ATOM     83  O   UNL A   1      44.302  42.870  22.512  1.00  0.00    -0.237 OA
ATOM     84  O   UNL A   1      42.234  43.987  23.279  1.00  0.00    -0.237 OA
ATOM     85  O   UNL A   1      44.368  44.407  24.440  1.00  0.00    -0.744 OA
ENDBRANCH  81  82
ENDBRANCH  60  74
BRANCH  61  86
ATOM     86  C   UNL A   1      47.534  33.546  30.907  1.00  0.00     0.058 A 
ATOM     87  C   UNL A   1      48.421  32.805  31.716  1.00  0.00     0.135 A 
ATOM     88  C   UNL A   1      47.565  33.244  29.536  1.00  0.00     0.135 A 
ATOM     89  F   UNL A   1      48.593  33.131  33.007  1.00  0.00    -0.206 F 
ATOM     90  C   UNL A   1      49.130  31.706  31.236  1.00  0.00     0.059 A 
ATOM     91  C   UNL A   1      48.236  32.127  29.035  1.00  0.00     0.059 A 
ATOM     92  F   UNL A   1      46.927  34.009  28.641  1.00  0.00    -0.206 F 
ATOM     93  C   UNL A   1      48.975  31.334  29.905  1.00  0.00     0.060 A 
BRANCH  93  94
ATOM     94  S   UNL A   1      49.673  29.759  29.368  1.00  0.00     0.124 S 
ATOM     95  O   UNL A   1      50.401  29.326  30.555  1.00  0.00    -0.237 OA
ATOM     96  O   UNL A   1      48.467  29.001  29.049  1.00  0.00    -0.237 OA
ATOM     97  O   UNL A   1      50.497  30.127  28.221  1.00  0.00    -0.744 OA
ENDBRANCH  93  94
ENDBRANCH  61  86
BRANCH  73  98
ATOM     98  C   UNL A   1      45.082  39.212  33.229  1.00  0.00     0.058 A 
ATOM     99  C   UNL A   1      44.006  38.661  33.936  1.00  0.00     0.135 A 
ATOM    100  C   UNL A   1      46.110  39.833  33.954  1.00  0.00     0.135 A 
ATOM    101  F   UNL A   1      43.017  38.026  33.284  1.00  0.00    -0.206 F 
ATOM    102  C   UNL A   1      43.952  38.710  35.319  1.00  0.00     0.059 A 
ATOM    103  C   UNL A   1      46.086  39.875  35.344  1.00  0.00     0.059 A 
ATOM    104  F   UNL A   1      47.158  40.388  33.325  1.00  0.00    -0.206 F 
ATOM    105  C   UNL A   1      45.004  39.306  36.015  1.00  0.00     0.060 A 
BRANCH 105 106
ATOM    106  S   UNL A   1      44.957  39.248  37.814  1.00  0.00     0.124 S 
ATOM    107  O   UNL A   1      43.834  38.349  38.062  1.00  0.00    -0.237 OA
ATOM    108  O   UNL A   1      46.277  38.715  38.140  1.00  0.00    -0.237 OA
ATOM    109  O   UNL A   1      44.740  40.640  38.198  1.00  0.00    -0.744 OA
ENDBRANCH 105 106
ENDBRANCH  73  98
ENDBRANCH  47  48
ENDBRANCH  40  42
ENDBRANCH  39  40
ENDBRANCH  38  39
ENDBRANCH  37  38
ENDBRANCH  36  37
ENDBRANCH  35  36
ENDBRANCH   1  35
TORSDOF 24
ENDMDL
MODEL 2
REMARK VINA RESULT:      -9.9      1.425      2.060
REMARK SMILES Cc1c(CCC(=O)N[C@@H](C)C(=O)OCCOCCOCCOC(=O)c2ccc(-c3c4nc(c(-c5c(F)cc(S(=O)(=O)[O-])cc5F)c5ccc([nH]5)c(-c5c(F)cc(S(=O)(=O)[O-])cc5F)c5nc(c(-c6c(F)cc(S(=O)(=O)[O-])cc6F)c6ccc3[nH]6)C=C5)C=C4)cc2)c(=O)oc2cc3oc4c(c3cc12)CCCC4
REMARK SMILES IDX 17 1 16 2 15 3 14 4 13 5 11 6 12 7 9 8 10 9 8 10 6 11 7 12
REMARK SMILES IDX 5 14 4 15 3 16 1 17 2 18 102 19 91 20 94 21 101 22 92 23
REMARK SMILES IDX 93 24 95 25 100 26 96 27 99 28 97 29 98 30 103 31 106 32
REMARK SMILES IDX 104 33 105 34 18 35 19 36 20 37 21 38 22 39 23 40 24 41
REMARK SMILES IDX 25 42 26 43 90 44 27 45 89 46 28 47 29 48 30 49 83 50 31 51
REMARK SMILES IDX 88 52 82 53 84 54 32 55 87 56 81 57 80 58 33 60 67 61 46 62
REMARK SMILES IDX 66 63 47 64 50 65 65 66 85 67 48 68 49 69 64 71 86 72 51 73
REMARK SMILES IDX 34 74 35 75 44 76 36 77 37 78 43 79 45 80 38 81 39 82 40 83
REMARK SMILES IDX 41 84 42 85 68 86 69 87 78 88 70 89 71 90 77 91 79 92 72 93
REMARK SMILES IDX 73 94 74 95 75 96 76 97 52 98 53 99 62 100 54 101 55 102
REMARK SMILES IDX 61 103 63 104 56 105 57 106 58 107 59 108 60 109
REMARK H PARENT 8 13 84 59 50 70
REMARK Flexibility Score: inf
ROOT
ATOM      1  C   UNL A   1      38.317  28.741  29.503  1.00  0.00     0.188 C 
ENDROOT
BRANCH   1   2
ATOM      2  O   UNL A   1      39.307  29.260  28.646  1.00  0.00    -0.376 OA
BRANCH   2   3
ATOM      3  C   UNL A   1      40.312  28.371  28.179  1.00  0.00     0.202 C 
BRANCH   3   4
ATOM      4  C   UNL A   1      39.979  27.063  27.431  1.00  0.00     0.261 C 
BRANCH   4   5
ATOM      5  O   UNL A   1      41.095  26.400  26.796  1.00  0.00    -0.462 OA
BRANCH   5   6
ATOM      6  C   UNL A   1      41.702  25.397  27.507  1.00  0.00     0.328 C 
ATOM      7  O   UNL A   1      41.306  24.983  28.591  1.00  0.00    -0.250 OA
BRANCH   6   8
ATOM      8  C   UNL A   1      42.890  24.731  26.750  1.00  0.00     0.189 C 
ATOM      9  C   UNL A   1      43.118  25.383  25.397  1.00  0.00     0.043 C 
BRANCH   8  10
ATOM     10  N   UNL A   1      43.134  23.284  26.610  1.00  0.00    -0.343 N 
ATOM     11  C   UNL A   1      42.264  22.237  26.715  1.00  0.00     0.221 C 
ATOM     12  O   UNL A   1      42.626  21.261  27.378  1.00  0.00    -0.275 OA
ATOM     13  H   UNL A   1      44.065  23.036  26.408  1.00  0.00     0.164 HD
BRANCH  11  14
ATOM     14  C   UNL A   1      40.968  22.198  25.920  1.00  0.00     0.105 C 
BRANCH  14  15
ATOM     15  C   UNL A   1      39.674  21.906  26.692  1.00  0.00     0.053 C 
BRANCH  15  16
ATOM     16  C   UNL A   1      38.464  21.996  25.798  1.00  0.00     0.042 A 
ATOM     17  C   UNL A   1      38.590  19.579  25.108  1.00  0.00     0.046 C 
ATOM     18  C   UNL A   1      37.941  20.939  25.154  1.00  0.00    -0.030 A 
ATOM     19  C   UNL A   1      36.527  21.104  24.805  1.00  0.00     0.022 A 
ATOM     20  C   UNL A   1      37.792  23.335  25.748  1.00  0.00     0.339 A 
ATOM     21  C   UNL A   1      36.000  22.369  24.539  1.00  0.00     0.142 A 
ATOM     22  C   UNL A   1      35.640  20.049  25.001  1.00  0.00     0.024 A 
ATOM     23  O   UNL A   1      38.183  24.243  26.469  1.00  0.00    -0.246 OA
ATOM     24  O   UNL A   1      36.803  23.496  24.781  1.00  0.00    -0.422 OA
ATOM     25  C   UNL A   1      34.670  22.568  24.123  1.00  0.00     0.095 A 
ATOM     26  C   UNL A   1      34.273  20.275  24.863  1.00  0.00     0.025 A 
ATOM     27  C   UNL A   1      33.871  21.430  24.209  1.00  0.00     0.138 A 
ATOM     28  C   UNL A   1      33.123  19.477  25.045  1.00  0.00     0.001 A 
ATOM     29  O   UNL A   1      32.686  21.137  23.570  1.00  0.00    -0.461 OA
ATOM     30  C   UNL A   1      32.423  19.839  23.915  1.00  0.00     0.108 A 
ATOM     31  C   UNL A   1      32.992  18.091  25.557  1.00  0.00     0.040 C 
ATOM     32  C   UNL A   1      32.148  18.788  22.881  1.00  0.00     0.076 C 
ATOM     33  C   UNL A   1      33.486  17.138  24.468  1.00  0.00     0.005 C 
ATOM     34  C   UNL A   1      33.285  17.703  23.026  1.00  0.00     0.008 C 
ENDBRANCH  15  16
ENDBRANCH  14  15
ENDBRANCH  11  14
ENDBRANCH   8  10
ENDBRANCH   6   8
ENDBRANCH   5   6
ENDBRANCH   4   5
ENDBRANCH   3   4
ENDBRANCH   2   3
ENDBRANCH   1   2
BRANCH   1  35
ATOM     35  C   UNL A   1      38.058  29.612  30.741  1.00  0.00     0.188 C 
BRANCH  35  36
ATOM     36  O   UNL A   1      36.836  29.503  31.458  1.00  0.00    -0.376 OA
BRANCH  36  37
ATOM     37  C   UNL A   1      36.420  30.699  32.121  1.00  0.00     0.202 C 
BRANCH  37  38
ATOM     38  C   UNL A   1      35.565  31.737  31.348  1.00  0.00     0.261 C 
BRANCH  38  39
ATOM     39  O   UNL A   1      36.304  32.746  30.622  1.00  0.00    -0.460 OA
BRANCH  39  40
ATOM     40  C   UNL A   1      37.038  33.642  31.350  1.00  0.00     0.338 C 
ATOM     41  O   UNL A   1      36.776  34.063  32.469  1.00  0.00    -0.246 OA
BRANCH  40  42
ATOM     42  C   UNL A   1      38.373  33.766  30.698  1.00  0.00     0.060 A 
ATOM     43  C   UNL A   1      39.519  33.358  31.374  1.00  0.00     0.016 A 
ATOM     44  C   UNL A   1      38.487  34.508  29.507  1.00  0.00     0.016 A 
ATOM     45  C   UNL A   1      40.774  33.735  30.888  1.00  0.00     0.010 A 
ATOM     46  C   UNL A   1      39.738  34.955  29.075  1.00  0.00     0.010 A 
ATOM     47  C   UNL A   1      40.899  34.559  29.754  1.00  0.00    -0.014 A 
BRANCH  47  48
ATOM     48  C   UNL A   1      42.260  34.874  29.253  1.00  0.00     0.031 A 
ATOM     49  C   UNL A   1      42.377  36.182  28.502  1.00  0.00     0.074 A 
ATOM     50  C   UNL A   1      43.322  34.435  29.964  1.00  0.00     0.049 A 
ATOM     51  N   UNL A   1      42.700  37.344  28.978  1.00  0.00    -0.248 NA
ATOM     52  C   UNL A   1      41.897  36.245  27.117  1.00  0.00     0.031 C 
ATOM     53  C   UNL A   1      43.676  34.828  31.328  1.00  0.00     0.029 A 
ATOM     54  N   UNL A   1      44.394  33.670  29.530  1.00  0.00    -0.354 N 
ATOM     55  C   UNL A   1      42.492  38.293  27.967  1.00  0.00     0.074 A 
ATOM     56  C   UNL A   1      41.960  37.557  26.846  1.00  0.00     0.031 C 
ATOM     57  C   UNL A   1      44.942  34.436  31.571  1.00  0.00     0.029 A 
ATOM     58  C   UNL A   1      45.484  33.753  30.392  1.00  0.00     0.049 A 
ATOM     59  H   UNL A   1      44.385  33.129  28.707  1.00  0.00     0.167 HD
ATOM     60  C   UNL A   1      42.871  39.602  28.075  1.00  0.00     0.037 A 
ATOM     61  C   UNL A   1      46.788  33.789  29.991  1.00  0.00     0.037 A 
ATOM     62  C   UNL A   1      43.627  39.932  29.259  1.00  0.00     0.049 A 
ATOM     63  C   UNL A   1      47.016  35.275  29.854  1.00  0.00     0.074 A 
ATOM     64  C   UNL A   1      43.729  40.918  30.214  1.00  0.00     0.029 A 
ATOM     65  N   UNL A   1      44.595  39.022  29.558  1.00  0.00    -0.354 N 
ATOM     66  N   UNL A   1      47.216  36.125  30.827  1.00  0.00    -0.248 NA
ATOM     67  C   UNL A   1      46.705  35.904  28.559  1.00  0.00     0.031 C 
ATOM     68  C   UNL A   1      44.771  40.515  31.120  1.00  0.00     0.029 A 
ATOM     69  C   UNL A   1      45.336  39.336  30.649  1.00  0.00     0.049 A 
ATOM     70  H   UNL A   1      44.745  38.207  29.026  1.00  0.00     0.167 HD
ATOM     71  C   UNL A   1      46.767  37.348  30.332  1.00  0.00     0.074 A 
ATOM     72  C   UNL A   1      46.653  37.187  28.897  1.00  0.00     0.031 C 
ATOM     73  C   UNL A   1      46.270  38.345  31.124  1.00  0.00     0.037 A 
BRANCH  60  74
ATOM     74  C   UNL A   1      42.898  40.591  26.958  1.00  0.00     0.058 A 
ATOM     75  C   UNL A   1      41.670  40.915  26.347  1.00  0.00     0.135 A 
ATOM     76  C   UNL A   1      44.067  41.026  26.325  1.00  0.00     0.135 A 
ATOM     77  F   UNL A   1      40.514  40.547  26.924  1.00  0.00    -0.206 F 
ATOM     78  C   UNL A   1      41.602  41.570  25.121  1.00  0.00     0.059 A 
ATOM     79  C   UNL A   1      44.022  41.703  25.098  1.00  0.00     0.059 A 
ATOM     80  F   UNL A   1      45.269  40.755  26.858  1.00  0.00    -0.206 F 
ATOM     81  C   UNL A   1      42.786  41.938  24.489  1.00  0.00     0.060 A 
BRANCH  81  82
ATOM     82  S   UNL A   1      42.674  42.678  22.842  1.00  0.00     0.124 S 
ATOM     83  O   UNL A   1      41.983  43.934  23.117  1.00  0.00    -0.237 OA
ATOM     84  O   UNL A   1      44.079  42.798  22.464  1.00  0.00    -0.237 OA
ATOM     85  O   UNL A   1      41.908  41.699  22.078  1.00  0.00    -0.744 OA
ENDBRANCH  81  82
ENDBRANCH  60  74
BRANCH  61  86
ATOM     86  C   UNL A   1      47.260  32.770  29.000  1.00  0.00     0.058 A 
ATOM     87  C   UNL A   1      48.349  31.945  29.354  1.00  0.00     0.135 A 
ATOM     88  C   UNL A   1      46.716  32.541  27.725  1.00  0.00     0.135 A 
ATOM     89  F   UNL A   1      49.048  32.191  30.473  1.00  0.00    -0.206 F 
ATOM     90  C   UNL A   1      48.732  30.842  28.593  1.00  0.00     0.059 A 
ATOM     91  C   UNL A   1      47.054  31.424  26.960  1.00  0.00     0.059 A 
ATOM     92  F   UNL A   1      45.821  33.383  27.191  1.00  0.00    -0.206 F 
ATOM     93  C   UNL A   1      48.029  30.552  27.428  1.00  0.00     0.060 A 
BRANCH  93  94
ATOM     94  S   UNL A   1      48.348  28.979  26.605  1.00  0.00     0.124 S 
ATOM     95  O   UNL A   1      47.309  28.952  25.582  1.00  0.00    -0.237 OA
ATOM     96  O   UNL A   1      49.712  29.174  26.122  1.00  0.00    -0.237 OA
ATOM     97  O   UNL A   1      48.204  27.999  27.677  1.00  0.00    -0.744 OA
ENDBRANCH  93  94
ENDBRANCH  61  86
BRANCH  73  98
ATOM     98  C   UNL A   1      46.619  38.283  32.562  1.00  0.00     0.058 A 
ATOM     99  C   UNL A   1      45.669  37.793  33.466  1.00  0.00     0.135 A 
ATOM    100  C   UNL A   1      47.895  38.610  33.044  1.00  0.00     0.135 A 
ATOM    101  F   UNL A   1      44.446  37.435  33.041  1.00  0.00    -0.206 F 
ATOM    102  C   UNL A   1      45.973  37.620  34.806  1.00  0.00     0.059 A 
ATOM    103  C   UNL A   1      48.228  38.424  34.382  1.00  0.00     0.059 A 
ATOM    104  F   UNL A   1      48.838  39.095  32.222  1.00  0.00    -0.206 F 
ATOM    105  C   UNL A   1      47.259  37.924  35.252  1.00  0.00     0.060 A 
BRANCH 105 106
ATOM    106  S   UNL A   1      47.654  37.576  36.974  1.00  0.00     0.124 S 
ATOM    107  O   UNL A   1      46.899  38.610  37.675  1.00  0.00    -0.237 OA
ATOM    108  O   UNL A   1      47.156  36.212  37.135  1.00  0.00    -0.237 OA
ATOM    109  O   UNL A   1      49.106  37.714  37.030  1.00  0.00    -0.744 OA
ENDBRANCH 105 106
ENDBRANCH  73  98
ENDBRANCH  47  48
ENDBRANCH  40  42
ENDBRANCH  39  40
ENDBRANCH  38  39
ENDBRANCH  37  38
ENDBRANCH  36  37
ENDBRANCH  35  36
ENDBRANCH   1  35
TORSDOF 24
ENDMDL
MODEL 3
REMARK VINA RESULT:      -9.8      5.980      9.287
REMARK SMILES Cc1c(CCC(=O)N[C@@H](C)C(=O)OCCOCCOCCOC(=O)c2ccc(-c3c4nc(c(-c5c(F)cc(S(=O)(=O)[O-])cc5F)c5ccc([nH]5)c(-c5c(F)cc(S(=O)(=O)[O-])cc5F)c5nc(c(-c6c(F)cc(S(=O)(=O)[O-])cc6F)c6ccc3[nH]6)C=C5)C=C4)cc2)c(=O)oc2cc3oc4c(c3cc12)CCCC4
REMARK SMILES IDX 17 1 16 2 15 3 14 4 13 5 11 6 12 7 9 8 10 9 8 10 6 11 7 12
REMARK SMILES IDX 5 14 4 15 3 16 1 17 2 18 102 19 91 20 94 21 101 22 92 23
REMARK SMILES IDX 93 24 95 25 100 26 96 27 99 28 97 29 98 30 103 31 106 32
REMARK SMILES IDX 104 33 105 34 18 35 19 36 20 37 21 38 22 39 23 40 24 41
REMARK SMILES IDX 25 42 26 43 90 44 27 45 89 46 28 47 29 48 30 49 83 50 31 51
REMARK SMILES IDX 88 52 82 53 84 54 32 55 87 56 81 57 80 58 33 60 67 61 46 62
REMARK SMILES IDX 66 63 47 64 50 65 65 66 85 67 48 68 49 69 64 71 86 72 51 73
REMARK SMILES IDX 34 74 35 75 44 76 36 77 37 78 43 79 45 80 38 81 39 82 40 83
REMARK SMILES IDX 41 84 42 85 68 86 69 87 78 88 70 89 71 90 77 91 79 92 72 93
REMARK SMILES IDX 73 94 74 95 75 96 76 97 52 98 53 99 62 100 54 101 55 102
REMARK SMILES IDX 61 103 63 104 56 105 57 106 58 107 59 108 60 109
REMARK H PARENT 8 13 84 59 50 70
REMARK Flexibility Score: inf
ROOT
ATOM      1  C   UNL A   1      41.291  24.260  28.302  1.00  0.00     0.188 C 
ENDROOT
BRANCH   1   2
ATOM      2  O   UNL A   1      40.736  25.519  28.002  1.00  0.00    -0.376 OA
BRANCH   2   3
ATOM      3  C   UNL A   1      39.688  25.570  27.045  1.00  0.00     0.202 C 
BRANCH   3   4
ATOM      4  C   UNL A   1      38.504  24.579  27.058  1.00  0.00     0.261 C 
BRANCH   4   5
ATOM      5  O   UNL A   1      38.081  24.088  25.766  1.00  0.00    -0.462 OA
BRANCH   5   6
ATOM      6  C   UNL A   1      36.813  23.572  25.688  1.00  0.00     0.328 C 
ATOM      7  O   UNL A   1      35.802  24.247  25.534  1.00  0.00    -0.250 OA
BRANCH   6   8
ATOM      8  C   UNL A   1      36.776  22.014  25.691  1.00  0.00     0.189 C 
ATOM      9  C   UNL A   1      36.979  21.454  24.294  1.00  0.00     0.043 C 
BRANCH   8  10
ATOM     10  N   UNL A   1      35.792  21.166  26.388  1.00  0.00    -0.343 N 
ATOM     11  C   UNL A   1      34.428  21.193  26.342  1.00  0.00     0.221 C 
ATOM     12  O   UNL A   1      33.822  21.119  27.415  1.00  0.00    -0.275 OA
ATOM     13  H   UNL A   1      36.177  20.474  26.973  1.00  0.00     0.164 HD
BRANCH  11  14
ATOM     14  C   UNL A   1      33.675  21.155  25.021  1.00  0.00     0.105 C 
BRANCH  14  15
ATOM     15  C   UNL A   1      32.149  21.309  25.072  1.00  0.00     0.053 C 
BRANCH  15  16
ATOM     16  C   UNL A   1      31.720  22.694  24.660  1.00  0.00     0.042 A 
ATOM     17  C   UNL A   1      31.630  23.549  27.025  1.00  0.00     0.046 C 
ATOM     18  C   UNL A   1      31.563  23.708  25.527  1.00  0.00    -0.030 A 
ATOM     19  C   UNL A   1      31.681  25.033  24.910  1.00  0.00     0.022 A 
ATOM     20  C   UNL A   1      31.579  22.918  23.184  1.00  0.00     0.339 A 
ATOM     21  C   UNL A   1      31.313  25.236  23.579  1.00  0.00     0.142 A 
ATOM     22  C   UNL A   1      32.411  26.030  25.552  1.00  0.00     0.024 A 
ATOM     23  O   UNL A   1      31.886  22.030  22.399  1.00  0.00    -0.246 OA
ATOM     24  O   UNL A   1      30.993  24.118  22.792  1.00  0.00    -0.422 OA
ATOM     25  C   UNL A   1      31.333  26.505  22.969  1.00  0.00     0.095 A 
ATOM     26  C   UNL A   1      32.691  27.212  24.872  1.00  0.00     0.025 A 
ATOM     27  C   UNL A   1      31.953  27.493  23.731  1.00  0.00     0.138 A 
ATOM     28  C   UNL A   1      33.435  28.371  25.181  1.00  0.00     0.001 A 
ATOM     29  O   UNL A   1      31.840  28.864  23.654  1.00  0.00    -0.461 OA
ATOM     30  C   UNL A   1      32.554  29.327  24.725  1.00  0.00     0.108 A 
ATOM     31  C   UNL A   1      34.278  28.678  26.363  1.00  0.00     0.040 C 
ATOM     32  C   UNL A   1      31.957  30.278  25.720  1.00  0.00     0.076 C 
ATOM     33  C   UNL A   1      33.349  28.952  27.546  1.00  0.00     0.005 C 
ATOM     34  C   UNL A   1      31.968  29.539  27.114  1.00  0.00     0.008 C 
ENDBRANCH  15  16
ENDBRANCH  14  15
ENDBRANCH  11  14
ENDBRANCH   8  10
ENDBRANCH   6   8
ENDBRANCH   5   6
ENDBRANCH   4   5
ENDBRANCH   3   4
ENDBRANCH   2   3
ENDBRANCH   1   2
BRANCH   1  35
ATOM     35  C   UNL A   1      41.703  23.457  27.059  1.00  0.00     0.188 C 
BRANCH  35  36
ATOM     36  O   UNL A   1      41.189  22.151  26.840  1.00  0.00    -0.376 OA
BRANCH  36  37
ATOM     37  C   UNL A   1      42.080  21.260  26.165  1.00  0.00     0.202 C 
BRANCH  37  38
ATOM     38  C   UNL A   1      43.335  21.834  25.455  1.00  0.00     0.261 C 
BRANCH  38  39
ATOM     39  O   UNL A   1      44.578  21.716  26.184  1.00  0.00    -0.460 OA
BRANCH  39  40
ATOM     40  C   UNL A   1      45.605  22.547  25.824  1.00  0.00     0.338 C 
ATOM     41  O   UNL A   1      46.463  22.325  24.981  1.00  0.00    -0.246 OA
BRANCH  40  42
ATOM     42  C   UNL A   1      45.314  23.894  26.390  1.00  0.00     0.060 A 
ATOM     43  C   UNL A   1      45.658  25.039  25.676  1.00  0.00     0.016 A 
ATOM     44  C   UNL A   1      44.911  24.000  27.735  1.00  0.00     0.016 A 
ATOM     45  C   UNL A   1      45.649  26.279  26.321  1.00  0.00     0.010 A 
ATOM     46  C   UNL A   1      44.988  25.229  28.396  1.00  0.00     0.010 A 
ATOM     47  C   UNL A   1      45.345  26.386  27.690  1.00  0.00    -0.014 A 
BRANCH  47  48
ATOM     48  C   UNL A   1      45.293  27.738  28.303  1.00  0.00     0.031 A 
ATOM     49  C   UNL A   1      43.928  28.386  28.306  1.00  0.00     0.074 A 
ATOM     50  C   UNL A   1      46.149  28.017  29.312  1.00  0.00     0.049 A 
ATOM     51  N   UNL A   1      43.033  28.348  29.244  1.00  0.00    -0.248 NA
ATOM     52  C   UNL A   1      43.423  28.976  27.060  1.00  0.00     0.031 C 
ATOM     53  C   UNL A   1      46.186  27.367  30.621  1.00  0.00     0.029 A 
ATOM     54  N   UNL A   1      47.049  29.066  29.413  1.00  0.00    -0.354 N 
ATOM     55  C   UNL A   1      41.857  28.919  28.737  1.00  0.00     0.074 A 
ATOM     56  C   UNL A   1      42.149  29.260  27.366  1.00  0.00     0.031 C 
ATOM     57  C   UNL A   1      46.944  28.115  31.448  1.00  0.00     0.029 A 
ATOM     58  C   UNL A   1      47.456  29.285  30.727  1.00  0.00     0.049 A 
ATOM     59  H   UNL A   1      47.365  29.596  28.645  1.00  0.00     0.167 HD
ATOM     60  C   UNL A   1      40.756  29.177  29.505  1.00  0.00     0.037 A 
ATOM     61  C   UNL A   1      47.676  30.515  31.276  1.00  0.00     0.037 A 
ATOM     62  C   UNL A   1      40.918  28.943  30.920  1.00  0.00     0.049 A 
ATOM     63  C   UNL A   1      46.312  30.836  31.839  1.00  0.00     0.074 A 
ATOM     64  C   UNL A   1      40.240  28.409  31.992  1.00  0.00     0.029 A 
ATOM     65  N   UNL A   1      42.094  29.414  31.418  1.00  0.00    -0.354 N 
ATOM     66  N   UNL A   1      45.792  30.358  32.939  1.00  0.00    -0.248 NA
ATOM     67  C   UNL A   1      45.344  31.511  30.959  1.00  0.00     0.031 C 
ATOM     68  C   UNL A   1      41.100  28.543  33.137  1.00  0.00     0.029 A 
ATOM     69  C   UNL A   1      42.245  29.230  32.753  1.00  0.00     0.049 A 
ATOM     70  H   UNL A   1      42.776  29.851  30.858  1.00  0.00     0.167 HD
ATOM     71  C   UNL A   1      44.414  30.413  32.737  1.00  0.00     0.074 A 
ATOM     72  C   UNL A   1      44.205  31.296  31.607  1.00  0.00     0.031 C 
ATOM     73  C   UNL A   1      43.530  29.552  33.325  1.00  0.00     0.037 A 
BRANCH  60  74
ATOM     74  C   UNL A   1      39.580  29.996  29.085  1.00  0.00     0.058 A 
ATOM     75  C   UNL A   1      39.560  31.351  29.471  1.00  0.00     0.135 A 
ATOM     76  C   UNL A   1      38.401  29.459  28.557  1.00  0.00     0.135 A 
ATOM     77  F   UNL A   1      40.671  31.927  29.960  1.00  0.00    -0.206 F 
ATOM     78  C   UNL A   1      38.403  32.122  29.413  1.00  0.00     0.059 A 
ATOM     79  C   UNL A   1      37.228  30.222  28.473  1.00  0.00     0.059 A 
ATOM     80  F   UNL A   1      38.354  28.176  28.166  1.00  0.00    -0.206 F 
ATOM     81  C   UNL A   1      37.232  31.541  28.937  1.00  0.00     0.060 A 
BRANCH  81  82
ATOM     82  S   UNL A   1      35.716  32.526  28.985  1.00  0.00     0.124 S 
ATOM     83  O   UNL A   1      35.670  33.084  27.637  1.00  0.00    -0.237 OA
ATOM     84  O   UNL A   1      34.704  31.517  29.288  1.00  0.00    -0.237 OA
ATOM     85  O   UNL A   1      35.968  33.491  30.051  1.00  0.00    -0.744 OA
ENDBRANCH  81  82
ENDBRANCH  60  74
BRANCH  61  86
ATOM     86  C   UNL A   1      48.528  31.492  30.526  1.00  0.00     0.058 A 
ATOM     87  C   UNL A   1      49.660  31.005  29.839  1.00  0.00     0.135 A 
ATOM     88  C   UNL A   1      48.309  32.876  30.429  1.00  0.00     0.135 A 
ATOM     89  F   UNL A   1      50.055  29.732  30.004  1.00  0.00    -0.206 F 
ATOM     90  C   UNL A   1      50.395  31.791  28.955  1.00  0.00     0.059 A 
ATOM     91  C   UNL A   1      49.005  33.679  29.524  1.00  0.00     0.059 A 
ATOM     92  F   UNL A   1      47.396  33.491  31.193  1.00  0.00    -0.206 F 
ATOM     93  C   UNL A   1      50.014  33.113  28.754  1.00  0.00     0.060 A 
BRANCH  93  94
ATOM     94  S   UNL A   1      50.792  34.035  27.412  1.00  0.00     0.124 S 
ATOM     95  O   UNL A   1      52.170  33.561  27.473  1.00  0.00    -0.237 OA
ATOM     96  O   UNL A   1      50.014  33.585  26.261  1.00  0.00    -0.237 OA
ATOM     97  O   UNL A   1      50.586  35.429  27.793  1.00  0.00    -0.744 OA
ENDBRANCH  93  94
ENDBRANCH  61  86
BRANCH  73  98
ATOM     98  C   UNL A   1      44.010  28.830  34.526  1.00  0.00     0.058 A 
ATOM     99  C   UNL A   1      43.963  29.476  35.766  1.00  0.00     0.135 A 
ATOM    100  C   UNL A   1      44.425  27.491  34.485  1.00  0.00     0.135 A 
ATOM    101  F   UNL A   1      43.537  30.748  35.855  1.00  0.00    -0.206 F 
ATOM    102  C   UNL A   1      44.304  28.817  36.935  1.00  0.00     0.059 A 
ATOM    103  C   UNL A   1      44.752  26.803  35.649  1.00  0.00     0.059 A 
ATOM    104  F   UNL A   1      44.500  26.828  33.320  1.00  0.00    -0.206 F 
ATOM    105  C   UNL A   1      44.683  27.476  36.869  1.00  0.00     0.060 A 
BRANCH 105 106
ATOM    106  S   UNL A   1      45.006  26.619  38.419  1.00  0.00     0.124 S 
ATOM    107  O   UNL A   1      44.829  27.685  39.400  1.00  0.00    -0.237 OA
ATOM    108  O   UNL A   1      43.977  25.582  38.418  1.00  0.00    -0.237 OA
ATOM    109  O   UNL A   1      46.374  26.132  38.264  1.00  0.00    -0.744 OA
ENDBRANCH 105 106
ENDBRANCH  73  98
ENDBRANCH  47  48
ENDBRANCH  40  42
ENDBRANCH  39  40
ENDBRANCH  38  39
ENDBRANCH  37  38
ENDBRANCH  36  37
ENDBRANCH  35  36
ENDBRANCH   1  35
TORSDOF 24
ENDMDL
