MODEL 1
REMARK VINA RESULT:     -10.9      0.000      0.000
REMARK SMILES CC(C)NC(=O)c1cccc(NC(=O)[C@@H]2[C@H](C(=O)OCCOCCOCCOC(=O)c3ccc(-c4c5nc(c(-c6c(F)cc(S(=O)(=O)[O-])cc6F)c6ccc([nH]6)c(-c6c(F)cc(S(=O)(=O)[O-])cc6F)c6nc(c(-c7c(F)cc(S(=O)(=O)[O-])cc7F)c7ccc4[nH]7)C=C6)C=C5)cc3)C2(C)C)c1
REMARK SMILES IDX 23 1 22 2 21 3 20 4 19 5 17 6 18 7 16 8 15 9 97 10 98 11
REMARK SMILES IDX 99 12 13 13 12 14 14 16 11 17 7 18 8 19 100 20 9 21 10 22
REMARK SMILES IDX 5 23 4 24 6 26 2 27 1 28 3 29 24 30 25 31 26 32 27 33 28 34
REMARK SMILES IDX 29 35 30 36 31 37 32 38 96 39 33 40 95 41 34 42 35 43 36 44
REMARK SMILES IDX 89 45 37 46 94 47 88 48 90 49 38 50 93 51 87 52 86 53 39 55
REMARK SMILES IDX 73 56 52 57 72 58 53 59 56 60 71 61 91 62 54 63 55 64 70 66
REMARK SMILES IDX 92 67 57 68 40 69 41 70 50 71 42 72 43 73 49 74 51 75 44 76
REMARK SMILES IDX 45 77 46 78 47 79 48 80 74 81 75 82 84 83 76 84 77 85 83 86
REMARK SMILES IDX 85 87 78 88 79 89 80 90 81 91 82 92 58 93 59 94 68 95 60 96
REMARK SMILES IDX 61 97 67 98 69 99 62 100 63 101 64 102 65 103 66 104
REMARK H PARENT 12 15 4 25 90 54 56 65
REMARK Flexibility Score: inf
ROOT
ATOM      1  C   UNL A   1      39.401  20.376  25.776  1.00  0.00     0.188 C 
ENDROOT
BRANCH   1   2
ATOM      2  O   UNL A   1      38.831  21.652  25.626  1.00  0.00    -0.376 OA
BRANCH   2   3
ATOM      3  C   UNL A   1      37.559  21.788  25.044  1.00  0.00     0.202 C 
BRANCH   3   4
ATOM      4  C   UNL A   1      36.243  21.336  25.702  1.00  0.00     0.261 C 
BRANCH   4   5
ATOM      5  O   UNL A   1      35.052  22.125  25.632  1.00  0.00    -0.463 OA
BRANCH   5   6
ATOM      6  C   UNL A   1      34.001  21.743  26.396  1.00  0.00     0.310 C 
ATOM      7  O   UNL A   1      33.767  22.137  27.537  1.00  0.00    -0.252 OA
BRANCH   6   8
ATOM      8  C   UNL A   1      33.060  20.883  25.658  1.00  0.00     0.118 C 
ATOM      9  C   UNL A   1      31.673  21.286  25.241  1.00  0.00     0.100 C 
ATOM     10  C   UNL A   1      32.702  20.971  24.163  1.00  0.00    -0.009 C 
ATOM     11  C   UNL A   1      32.695  19.600  23.493  1.00  0.00     0.013 C 
ATOM     12  C   UNL A   1      33.082  22.014  23.146  1.00  0.00     0.013 C 
BRANCH   9  13
ATOM     13  C   UNL A   1      30.975  22.469  25.839  1.00  0.00     0.228 C 
ATOM     14  N   UNL A   1      31.188  23.831  25.826  1.00  0.00    -0.326 N 
ATOM     15  H   UNL A   1      30.451  24.287  26.293  1.00  0.00     0.169 HD
ATOM     16  O   UNL A   1      29.993  22.167  26.536  1.00  0.00    -0.274 OA
BRANCH  14  17
ATOM     17  C   UNL A   1      32.113  24.782  25.365  1.00  0.00     0.041 A 
ATOM     18  C   UNL A   1      32.805  26.375  23.665  1.00  0.00     0.041 A 
ATOM     19  C   UNL A   1      33.818  26.874  24.484  1.00  0.00     0.014 A 
ATOM     20  C   UNL A   1      31.967  25.319  24.083  1.00  0.00     0.040 A 
ATOM     21  C   UNL A   1      33.988  26.319  25.727  1.00  0.00     0.003 A 
ATOM     22  C   UNL A   1      33.141  25.288  26.123  1.00  0.00     0.026 A 
BRANCH  18  23
ATOM     23  C   UNL A   1      32.645  27.063  22.377  1.00  0.00     0.251 C 
ATOM     24  N   UNL A   1      31.688  28.031  22.249  1.00  0.00    -0.350 N 
ATOM     25  H   UNL A   1      31.729  28.555  21.417  1.00  0.00     0.164 HD
ATOM     26  O   UNL A   1      33.429  26.835  21.462  1.00  0.00    -0.269 OA
BRANCH  24  27
ATOM     27  C   UNL A   1      30.618  28.403  23.165  1.00  0.00     0.076 C 
ATOM     28  C   UNL A   1      31.144  29.316  24.264  1.00  0.00     0.030 C 
ATOM     29  C   UNL A   1      29.512  29.073  22.358  1.00  0.00     0.030 C 
ENDBRANCH  24  27
ENDBRANCH  18  23
ENDBRANCH  14  17
ENDBRANCH   9  13
ENDBRANCH   6   8
ENDBRANCH   5   6
ENDBRANCH   4   5
ENDBRANCH   3   4
ENDBRANCH   2   3
ENDBRANCH   1   2
BRANCH   1  30
ATOM     30  C   UNL A   1      40.754  20.431  26.510  1.00  0.00     0.188 C 
BRANCH  30  31
ATOM     31  O   UNL A   1      41.947  20.643  25.769  1.00  0.00    -0.376 OA
BRANCH  31  32
ATOM     32  C   UNL A   1      42.799  21.710  26.154  1.00  0.00     0.202 C 
BRANCH  32  33
ATOM     33  C   UNL A   1      42.516  23.137  25.640  1.00  0.00     0.261 C 
BRANCH  33  34
ATOM     34  O   UNL A   1      41.539  23.906  26.370  1.00  0.00    -0.460 OA
BRANCH  34  35
ATOM     35  C   UNL A   1      41.510  25.242  26.115  1.00  0.00     0.338 C 
ATOM     36  O   UNL A   1      41.324  25.768  25.030  1.00  0.00    -0.246 OA
BRANCH  35  37
ATOM     37  C   UNL A   1      41.516  26.015  27.386  1.00  0.00     0.060 A 
ATOM     38  C   UNL A   1      40.386  25.950  28.219  1.00  0.00     0.016 A 
ATOM     39  C   UNL A   1      42.587  26.836  27.738  1.00  0.00     0.016 A 
ATOM     40  C   UNL A   1      40.314  26.713  29.387  1.00  0.00     0.010 A 
ATOM     41  C   UNL A   1      42.497  27.631  28.892  1.00  0.00     0.010 A 
ATOM     42  C   UNL A   1      41.348  27.599  29.707  1.00  0.00    -0.014 A 
BRANCH  42  43
ATOM     43  C   UNL A   1      41.141  28.623  30.768  1.00  0.00     0.031 A 
ATOM     44  C   UNL A   1      42.011  28.568  31.999  1.00  0.00     0.074 A 
ATOM     45  C   UNL A   1      40.221  29.597  30.647  1.00  0.00     0.049 A 
ATOM     46  N   UNL A   1      41.973  29.304  33.079  1.00  0.00    -0.248 NA
ATOM     47  C   UNL A   1      43.061  27.537  32.010  1.00  0.00     0.031 C 
ATOM     48  C   UNL A   1      39.347  29.796  29.493  1.00  0.00     0.029 A 
ATOM     49  N   UNL A   1      39.857  30.595  31.521  1.00  0.00    -0.354 N 
ATOM     50  C   UNL A   1      42.979  28.815  33.907  1.00  0.00     0.074 A 
ATOM     51  C   UNL A   1      43.593  27.705  33.211  1.00  0.00     0.031 C 
ATOM     52  C   UNL A   1      38.529  30.836  29.741  1.00  0.00     0.029 A 
ATOM     53  C   UNL A   1      38.798  31.355  31.083  1.00  0.00     0.049 A 
ATOM     54  H   UNL A   1      40.313  30.750  32.380  1.00  0.00     0.167 HD
ATOM     55  C   UNL A   1      43.359  29.252  35.132  1.00  0.00     0.037 A 
ATOM     56  C   UNL A   1      38.104  32.332  31.703  1.00  0.00     0.037 A 
ATOM     57  C   UNL A   1      42.747  30.359  35.822  1.00  0.00     0.049 A 
ATOM     58  C   UNL A   1      38.502  32.763  33.093  1.00  0.00     0.074 A 
ATOM     59  C   UNL A   1      43.084  30.896  37.052  1.00  0.00     0.029 A 
ATOM     60  N   UNL A   1      41.664  31.088  35.353  1.00  0.00    -0.354 N 
ATOM     61  N   UNL A   1      39.474  32.313  33.852  1.00  0.00    -0.248 NA
ATOM     62  C   UNL A   1      37.710  33.837  33.711  1.00  0.00     0.031 C 
ATOM     63  C   UNL A   1      42.167  31.906  37.356  1.00  0.00     0.029 A 
ATOM     64  C   UNL A   1      41.299  32.047  36.285  1.00  0.00     0.049 A 
ATOM     65  H   UNL A   1      41.220  30.946  34.486  1.00  0.00     0.167 HD
ATOM     66  C   UNL A   1      39.426  33.066  35.023  1.00  0.00     0.074 A 
ATOM     67  C   UNL A   1      38.339  34.010  34.866  1.00  0.00     0.031 C 
ATOM     68  C   UNL A   1      40.214  32.984  36.125  1.00  0.00     0.037 A 
BRANCH  55  69
ATOM     69  C   UNL A   1      44.465  28.503  35.828  1.00  0.00     0.058 A 
ATOM     70  C   UNL A   1      45.818  28.824  35.638  1.00  0.00     0.135 A 
ATOM     71  C   UNL A   1      44.160  27.467  36.726  1.00  0.00     0.135 A 
ATOM     72  F   UNL A   1      46.170  29.795  34.779  1.00  0.00    -0.206 F 
ATOM     73  C   UNL A   1      46.830  28.125  36.289  1.00  0.00     0.059 A 
ATOM     74  C   UNL A   1      45.154  26.775  37.412  1.00  0.00     0.059 A 
ATOM     75  F   UNL A   1      42.883  27.116  36.946  1.00  0.00    -0.206 F 
ATOM     76  C   UNL A   1      46.487  27.101  37.175  1.00  0.00     0.060 A 
BRANCH  76  77
ATOM     77  S   UNL A   1      47.811  26.205  38.012  1.00  0.00     0.124 S 
ATOM     78  O   UNL A   1      48.858  27.222  38.070  1.00  0.00    -0.237 OA
ATOM     79  O   UNL A   1      47.195  25.859  39.288  1.00  0.00    -0.237 OA
ATOM     80  O   UNL A   1      48.079  25.080  37.122  1.00  0.00    -0.744 OA
ENDBRANCH  76  77
ENDBRANCH  55  69
BRANCH  56  81
ATOM     81  C   UNL A   1      36.939  32.960  31.020  1.00  0.00     0.058 A 
ATOM     82  C   UNL A   1      37.110  33.982  30.074  1.00  0.00     0.135 A 
ATOM     83  C   UNL A   1      35.626  32.547  31.302  1.00  0.00     0.135 A 
ATOM     84  F   UNL A   1      38.341  34.428  29.784  1.00  0.00    -0.206 F 
ATOM     85  C   UNL A   1      36.024  34.576  29.437  1.00  0.00     0.059 A 
ATOM     86  C   UNL A   1      34.527  33.104  30.656  1.00  0.00     0.059 A 
ATOM     87  F   UNL A   1      35.405  31.571  32.197  1.00  0.00    -0.206 F 
ATOM     88  C   UNL A   1      34.736  34.123  29.729  1.00  0.00     0.060 A 
BRANCH  88  89
ATOM     89  S   UNL A   1      33.341  34.852  28.842  1.00  0.00     0.124 S 
ATOM     90  O   UNL A   1      32.454  35.221  29.939  1.00  0.00    -0.237 OA
ATOM     91  O   UNL A   1      33.977  35.959  28.134  1.00  0.00    -0.237 OA
ATOM     92  O   UNL A   1      32.875  33.759  27.993  1.00  0.00    -0.744 OA
ENDBRANCH  88  89
ENDBRANCH  56  81
BRANCH  68  93
ATOM     93  C   UNL A   1      39.958  33.961  37.245  1.00  0.00     0.058 A 
ATOM     94  C   UNL A   1      40.489  35.261  37.234  1.00  0.00     0.135 A 
ATOM     95  C   UNL A   1      39.126  33.607  38.321  1.00  0.00     0.135 A 
ATOM     96  F   UNL A   1      41.293  35.654  36.233  1.00  0.00    -0.206 F 
ATOM     97  C   UNL A   1      40.230  36.163  38.262  1.00  0.00     0.059 A 
ATOM     98  C   UNL A   1      38.827  34.503  39.342  1.00  0.00     0.059 A 
ATOM     99  F   UNL A   1      38.579  32.383  38.378  1.00  0.00    -0.206 F 
ATOM    100  C   UNL A   1      39.395  35.776  39.312  1.00  0.00     0.060 A 
BRANCH 100 101
ATOM    101  S   UNL A   1      39.049  36.963  40.627  1.00  0.00     0.124 S 
ATOM    102  O   UNL A   1      38.317  36.139  41.584  1.00  0.00    -0.237 OA
ATOM    103  O   UNL A   1      40.388  37.374  41.037  1.00  0.00    -0.237 OA
ATOM    104  O   UNL A   1      38.261  37.993  39.957  1.00  0.00    -0.744 OA
ENDBRANCH 100 101
ENDBRANCH  68  93
ENDBRANCH  42  43
ENDBRANCH  35  37
ENDBRANCH  34  35
ENDBRANCH  33  34
ENDBRANCH  32  33
ENDBRANCH  31  32
ENDBRANCH  30  31
ENDBRANCH   1  30
TORSDOF 24
ENDMDL
MODEL 2
REMARK VINA RESULT:     -10.7      1.204      7.965
REMARK SMILES CC(C)NC(=O)c1cccc(NC(=O)[C@@H]2[C@H](C(=O)OCCOCCOCCOC(=O)c3ccc(-c4c5nc(c(-c6c(F)cc(S(=O)(=O)[O-])cc6F)c6ccc([nH]6)c(-c6c(F)cc(S(=O)(=O)[O-])cc6F)c6nc(c(-c7c(F)cc(S(=O)(=O)[O-])cc7F)c7ccc4[nH]7)C=C6)C=C5)cc3)C2(C)C)c1
REMARK SMILES IDX 23 1 22 2 21 3 20 4 19 5 17 6 18 7 16 8 15 9 97 10 98 11
REMARK SMILES IDX 99 12 13 13 12 14 14 16 11 17 7 18 8 19 100 20 9 21 10 22
REMARK SMILES IDX 5 23 4 24 6 26 2 27 1 28 3 29 24 30 25 31 26 32 27 33 28 34
REMARK SMILES IDX 29 35 30 36 31 37 32 38 96 39 33 40 95 41 34 42 35 43 36 44
REMARK SMILES IDX 89 45 37 46 94 47 88 48 90 49 38 50 93 51 87 52 86 53 39 55
REMARK SMILES IDX 73 56 52 57 72 58 53 59 56 60 71 61 91 62 54 63 55 64 70 66
REMARK SMILES IDX 92 67 57 68 40 69 41 70 50 71 42 72 43 73 49 74 51 75 44 76
REMARK SMILES IDX 45 77 46 78 47 79 48 80 74 81 75 82 84 83 76 84 77 85 83 86
REMARK SMILES IDX 85 87 78 88 79 89 80 90 81 91 82 92 58 93 59 94 68 95 60 96
REMARK SMILES IDX 61 97 67 98 69 99 62 100 63 101 64 102 65 103 66 104
REMARK H PARENT 12 15 4 25 90 54 56 65
REMARK Flexibility Score: inf
ROOT
ATOM      1  C   UNL A   1      38.741  21.390  25.758  1.00  0.00     0.188 C 
ENDROOT
BRANCH   1   2
ATOM      2  O   UNL A   1      38.206  22.611  26.202  1.00  0.00    -0.376 OA
BRANCH   2   3
ATOM      3  C   UNL A   1      37.573  23.472  25.290  1.00  0.00     0.202 C 
BRANCH   3   4
ATOM      4  C   UNL A   1      36.371  23.083  24.410  1.00  0.00     0.261 C 
BRANCH   4   5
ATOM      5  O   UNL A   1      35.113  23.756  24.508  1.00  0.00    -0.463 OA
BRANCH   5   6
ATOM      6  C   UNL A   1      34.289  23.401  25.524  1.00  0.00     0.310 C 
ATOM      7  O   UNL A   1      34.336  23.846  26.669  1.00  0.00    -0.252 OA
BRANCH   6   8
ATOM      8  C   UNL A   1      33.214  22.499  25.080  1.00  0.00     0.118 C 
ATOM      9  C   UNL A   1      31.747  22.725  25.320  1.00  0.00     0.100 C 
ATOM     10  C   UNL A   1      32.263  22.708  23.887  1.00  0.00    -0.009 C 
ATOM     11  C   UNL A   1      32.109  21.444  23.047  1.00  0.00     0.013 C 
ATOM     12  C   UNL A   1      32.087  23.912  23.001  1.00  0.00     0.013 C 
BRANCH   9  13
ATOM     13  C   UNL A   1      31.251  23.704  26.341  1.00  0.00     0.228 C 
ATOM     14  N   UNL A   1      30.774  24.996  26.295  1.00  0.00    -0.326 N 
ATOM     15  H   UNL A   1      30.479  25.273  27.192  1.00  0.00     0.169 HD
ATOM     16  O   UNL A   1      31.304  23.277  27.505  1.00  0.00    -0.274 OA
BRANCH  14  17
ATOM     17  C   UNL A   1      30.570  26.048  25.387  1.00  0.00     0.041 A 
ATOM     18  C   UNL A   1      31.434  27.986  24.203  1.00  0.00     0.041 A 
ATOM     19  C   UNL A   1      30.299  28.052  23.395  1.00  0.00     0.014 A 
ATOM     20  C   UNL A   1      31.569  27.010  25.213  1.00  0.00     0.040 A 
ATOM     21  C   UNL A   1      29.300  27.133  23.594  1.00  0.00     0.003 A 
ATOM     22  C   UNL A   1      29.461  26.170  24.586  1.00  0.00     0.026 A 
BRANCH  18  23
ATOM     23  C   UNL A   1      32.485  28.963  23.888  1.00  0.00     0.251 C 
ATOM     24  N   UNL A   1      32.967  29.772  24.879  1.00  0.00    -0.350 N 
ATOM     25  H   UNL A   1      33.766  30.295  24.643  1.00  0.00     0.164 HD
ATOM     26  O   UNL A   1      32.988  28.978  22.770  1.00  0.00    -0.269 OA
BRANCH  24  27
ATOM     27  C   UNL A   1      32.472  29.972  26.234  1.00  0.00     0.076 C 
ATOM     28  C   UNL A   1      33.630  30.157  27.207  1.00  0.00     0.030 C 
ATOM     29  C   UNL A   1      31.543  31.181  26.229  1.00  0.00     0.030 C 
ENDBRANCH  24  27
ENDBRANCH  18  23
ENDBRANCH  14  17
ENDBRANCH   9  13
ENDBRANCH   6   8
ENDBRANCH   5   6
ENDBRANCH   4   5
ENDBRANCH   3   4
ENDBRANCH   2   3
ENDBRANCH   1   2
BRANCH   1  30
ATOM     30  C   UNL A   1      40.214  21.219  26.178  1.00  0.00     0.188 C 
BRANCH  30  31
ATOM     31  O   UNL A   1      40.628  21.632  27.472  1.00  0.00    -0.376 OA
BRANCH  31  32
ATOM     32  C   UNL A   1      41.604  22.658  27.572  1.00  0.00     0.202 C 
BRANCH  32  33
ATOM     33  C   UNL A   1      41.851  23.596  26.374  1.00  0.00     0.261 C 
BRANCH  33  34
ATOM     34  O   UNL A   1      40.903  24.665  26.182  1.00  0.00    -0.460 OA
BRANCH  34  35
ATOM     35  C   UNL A   1      41.418  25.921  26.099  1.00  0.00     0.338 C 
ATOM     36  O   UNL A   1      41.623  26.554  25.076  1.00  0.00    -0.246 OA
BRANCH  35  37
ATOM     37  C   UNL A   1      41.506  26.539  27.450  1.00  0.00     0.060 A 
ATOM     38  C   UNL A   1      40.557  26.174  28.420  1.00  0.00     0.016 A 
ATOM     39  C   UNL A   1      42.468  27.502  27.754  1.00  0.00     0.016 A 
ATOM     40  C   UNL A   1      40.554  26.778  29.680  1.00  0.00     0.010 A 
ATOM     41  C   UNL A   1      42.440  28.135  29.006  1.00  0.00     0.010 A 
ATOM     42  C   UNL A   1      41.464  27.800  29.966  1.00  0.00    -0.014 A 
BRANCH  42  43
ATOM     43  C   UNL A   1      41.268  28.646  31.176  1.00  0.00     0.031 A 
ATOM     44  C   UNL A   1      40.165  29.674  31.164  1.00  0.00     0.074 A 
ATOM     45  C   UNL A   1      42.030  28.501  32.275  1.00  0.00     0.049 A 
ATOM     46  N   UNL A   1      39.847  30.565  32.067  1.00  0.00    -0.248 NA
ATOM     47  C   UNL A   1      39.311  29.700  29.967  1.00  0.00     0.031 C 
ATOM     48  C   UNL A   1      43.098  27.517  32.441  1.00  0.00     0.029 A 
ATOM     49  N   UNL A   1      42.032  29.200  33.460  1.00  0.00    -0.354 N 
ATOM     50  C   UNL A   1      38.770  31.270  31.541  1.00  0.00     0.074 A 
ATOM     51  C   UNL A   1      38.505  30.718  30.231  1.00  0.00     0.031 C 
ATOM     52  C   UNL A   1      43.669  27.693  33.647  1.00  0.00     0.029 A 
ATOM     53  C   UNL A   1      43.032  28.822  34.325  1.00  0.00     0.049 A 
ATOM     54  H   UNL A   1      41.378  29.907  33.668  1.00  0.00     0.167 HD
ATOM     55  C   UNL A   1      38.064  32.285  32.098  1.00  0.00     0.037 A 
ATOM     56  C   UNL A   1      43.410  29.346  35.510  1.00  0.00     0.037 A 
ATOM     57  C   UNL A   1      38.328  32.832  33.404  1.00  0.00     0.049 A 
ATOM     58  C   UNL A   1      42.651  30.516  36.086  1.00  0.00     0.074 A 
ATOM     59  C   UNL A   1      37.646  33.837  34.068  1.00  0.00     0.029 A 
ATOM     60  N   UNL A   1      39.362  32.435  34.239  1.00  0.00    -0.354 N 
ATOM     61  N   UNL A   1      41.616  31.153  35.592  1.00  0.00    -0.248 NA
ATOM     62  C   UNL A   1      43.110  31.035  37.383  1.00  0.00     0.031 C 
ATOM     63  C   UNL A   1      38.306  34.093  35.273  1.00  0.00     0.029 A 
ATOM     64  C   UNL A   1      39.358  33.199  35.396  1.00  0.00     0.049 A 
ATOM     65  H   UNL A   1      40.005  31.716  34.040  1.00  0.00     0.167 HD
ATOM     66  C   UNL A   1      41.285  32.130  36.528  1.00  0.00     0.074 A 
ATOM     67  C   UNL A   1      42.220  31.989  37.625  1.00  0.00     0.031 C 
ATOM     68  C   UNL A   1      40.293  33.056  36.485  1.00  0.00     0.037 A 
BRANCH  55  69
ATOM     69  C   UNL A   1      36.960  32.899  31.279  1.00  0.00     0.058 A 
ATOM     70  C   UNL A   1      37.206  33.900  30.326  1.00  0.00     0.135 A 
ATOM     71  C   UNL A   1      35.637  32.453  31.429  1.00  0.00     0.135 A 
ATOM     72  F   UNL A   1      38.449  34.377  30.151  1.00  0.00    -0.206 F 
ATOM     73  C   UNL A   1      36.177  34.459  29.574  1.00  0.00     0.059 A 
ATOM     74  C   UNL A   1      34.596  32.974  30.666  1.00  0.00     0.059 A 
ATOM     75  F   UNL A   1      35.342  31.498  32.326  1.00  0.00    -0.206 F 
ATOM     76  C   UNL A   1      34.874  33.988  29.752  1.00  0.00     0.060 A 
BRANCH  76  77
ATOM     77  S   UNL A   1      33.550  34.721  28.768  1.00  0.00     0.124 S 
ATOM     78  O   UNL A   1      32.567  35.043  29.798  1.00  0.00    -0.237 OA
ATOM     79  O   UNL A   1      34.217  35.862  28.150  1.00  0.00    -0.237 OA
ATOM     80  O   UNL A   1      33.171  33.649  27.853  1.00  0.00    -0.744 OA
ENDBRANCH  76  77
ENDBRANCH  55  69
BRANCH  56  81
ATOM     81  C   UNL A   1      44.587  28.780  36.226  1.00  0.00     0.058 A 
ATOM     82  C   UNL A   1      45.873  29.315  36.057  1.00  0.00     0.135 A 
ATOM     83  C   UNL A   1      44.447  27.687  37.098  1.00  0.00     0.135 A 
ATOM     84  F   UNL A   1      46.065  30.344  35.220  1.00  0.00    -0.206 F 
ATOM     85  C   UNL A   1      46.977  28.787  36.720  1.00  0.00     0.059 A 
ATOM     86  C   UNL A   1      45.529  27.160  37.796  1.00  0.00     0.059 A 
ATOM     87  F   UNL A   1      43.238  27.137  37.298  1.00  0.00    -0.206 F 
ATOM     88  C   UNL A   1      46.792  27.714  37.596  1.00  0.00     0.060 A 
BRANCH  88  89
ATOM     89  S   UNL A   1      48.221  27.083  38.504  1.00  0.00     0.124 S 
ATOM     90  O   UNL A   1      49.257  28.034  38.121  1.00  0.00    -0.237 OA
ATOM     91  O   UNL A   1      47.759  27.162  39.887  1.00  0.00    -0.237 OA
ATOM     92  O   UNL A   1      48.380  25.729  37.980  1.00  0.00    -0.744 OA
ENDBRANCH  88  89
ENDBRANCH  56  81
BRANCH  68  93
ATOM     93  C   UNL A   1      40.140  33.976  37.669  1.00  0.00     0.058 A 
ATOM     94  C   UNL A   1      40.720  35.254  37.699  1.00  0.00     0.135 A 
ATOM     95  C   UNL A   1      39.358  33.591  38.772  1.00  0.00     0.135 A 
ATOM     96  F   UNL A   1      41.481  35.674  36.676  1.00  0.00    -0.206 F 
ATOM     97  C   UNL A   1      40.556  36.105  38.789  1.00  0.00     0.059 A 
ATOM     98  C   UNL A   1      39.152  34.437  39.857  1.00  0.00     0.059 A 
ATOM     99  F   UNL A   1      38.767  32.386  38.794  1.00  0.00    -0.206 F 
ATOM    100  C   UNL A   1      39.767  35.688  39.864  1.00  0.00     0.060 A 
BRANCH 100 101
ATOM    101  S   UNL A   1      39.543  36.810  41.260  1.00  0.00     0.124 S 
ATOM    102  O   UNL A   1      38.301  36.312  41.842  1.00  0.00    -0.237 OA
ATOM    103  O   UNL A   1      40.750  36.576  42.046  1.00  0.00    -0.237 OA
ATOM    104  O   UNL A   1      39.456  38.124  40.631  1.00  0.00    -0.744 OA
ENDBRANCH 100 101
ENDBRANCH  68  93
ENDBRANCH  42  43
ENDBRANCH  35  37
ENDBRANCH  34  35
ENDBRANCH  33  34
ENDBRANCH  32  33
ENDBRANCH  31  32
ENDBRANCH  30  31
ENDBRANCH   1  30
TORSDOF 24
ENDMDL
MODEL 3
REMARK VINA RESULT:     -10.6      5.926     10.553
REMARK SMILES CC(C)NC(=O)c1cccc(NC(=O)[C@@H]2[C@H](C(=O)OCCOCCOCCOC(=O)c3ccc(-c4c5nc(c(-c6c(F)cc(S(=O)(=O)[O-])cc6F)c6ccc([nH]6)c(-c6c(F)cc(S(=O)(=O)[O-])cc6F)c6nc(c(-c7c(F)cc(S(=O)(=O)[O-])cc7F)c7ccc4[nH]7)C=C6)C=C5)cc3)C2(C)C)c1
REMARK SMILES IDX 23 1 22 2 21 3 20 4 19 5 17 6 18 7 16 8 15 9 97 10 98 11
REMARK SMILES IDX 99 12 13 13 12 14 14 16 11 17 7 18 8 19 100 20 9 21 10 22
REMARK SMILES IDX 5 23 4 24 6 26 2 27 1 28 3 29 24 30 25 31 26 32 27 33 28 34
REMARK SMILES IDX 29 35 30 36 31 37 32 38 96 39 33 40 95 41 34 42 35 43 36 44
REMARK SMILES IDX 89 45 37 46 94 47 88 48 90 49 38 50 93 51 87 52 86 53 39 55
REMARK SMILES IDX 73 56 52 57 72 58 53 59 56 60 71 61 91 62 54 63 55 64 70 66
REMARK SMILES IDX 92 67 57 68 40 69 41 70 50 71 42 72 43 73 49 74 51 75 44 76
REMARK SMILES IDX 45 77 46 78 47 79 48 80 74 81 75 82 84 83 76 84 77 85 83 86
REMARK SMILES IDX 85 87 78 88 79 89 80 90 81 91 82 92 58 93 59 94 68 95 60 96
REMARK SMILES IDX 61 97 67 98 69 99 62 100 63 101 64 102 65 103 66 104
REMARK H PARENT 12 15 4 25 90 54 56 65
REMARK Flexibility Score: inf
ROOT
ATOM      1  C   UNL A   1      36.223  18.821  24.997  1.00  0.00     0.188 C 
ENDROOT
BRANCH   1   2
ATOM      2  O   UNL A   1      35.010  19.532  25.006  1.00  0.00    -0.376 OA
BRANCH   2   3
ATOM      3  C   UNL A   1      33.824  18.900  24.600  1.00  0.00     0.202 C 
BRANCH   3   4
ATOM      4  C   UNL A   1      32.538  19.636  24.181  1.00  0.00     0.261 C 
BRANCH   4   5
ATOM      5  O   UNL A   1      32.570  20.947  23.609  1.00  0.00    -0.463 OA
BRANCH   5   6
ATOM      6  C   UNL A   1      32.795  21.990  24.443  1.00  0.00     0.310 C 
ATOM      7  O   UNL A   1      32.081  22.314  25.390  1.00  0.00    -0.252 OA
BRANCH   6   8
ATOM      8  C   UNL A   1      34.089  22.643  24.181  1.00  0.00     0.118 C 
ATOM      9  C   UNL A   1      34.323  23.699  23.136  1.00  0.00     0.100 C 
ATOM     10  C   UNL A   1      34.513  24.062  24.603  1.00  0.00    -0.009 C 
ATOM     11  C   UNL A   1      35.919  24.088  25.196  1.00  0.00     0.013 C 
ATOM     12  C   UNL A   1      33.696  25.161  25.228  1.00  0.00     0.013 C 
BRANCH   9  13
ATOM     13  C   UNL A   1      33.354  23.941  22.019  1.00  0.00     0.228 C 
ATOM     14  N   UNL A   1      32.193  24.672  21.882  1.00  0.00    -0.326 N 
ATOM     15  H   UNL A   1      31.882  24.628  20.950  1.00  0.00     0.169 HD
ATOM     16  O   UNL A   1      33.630  23.322  20.980  1.00  0.00    -0.274 OA
BRANCH  14  17
ATOM     17  C   UNL A   1      31.309  25.459  22.637  1.00  0.00     0.041 A 
ATOM     18  C   UNL A   1      30.362  27.638  23.148  1.00  0.00     0.041 A 
ATOM     19  C   UNL A   1      29.385  27.070  23.965  1.00  0.00     0.014 A 
ATOM     20  C   UNL A   1      31.338  26.850  22.502  1.00  0.00     0.040 A 
ATOM     21  C   UNL A   1      29.381  25.707  24.130  1.00  0.00     0.003 A 
ATOM     22  C   UNL A   1      30.345  24.949  23.473  1.00  0.00     0.026 A 
BRANCH  18  23
ATOM     23  C   UNL A   1      30.261  29.093  22.970  1.00  0.00     0.251 C 
ATOM     24  N   UNL A   1      30.924  29.920  23.833  1.00  0.00    -0.350 N 
ATOM     25  H   UNL A   1      30.940  30.870  23.575  1.00  0.00     0.164 HD
ATOM     26  O   UNL A   1      29.669  29.549  21.998  1.00  0.00    -0.269 OA
BRANCH  24  27
ATOM     27  C   UNL A   1      31.611  29.603  25.078  1.00  0.00     0.076 C 
ATOM     28  C   UNL A   1      33.082  29.304  24.818  1.00  0.00     0.030 C 
ATOM     29  C   UNL A   1      31.436  30.779  26.032  1.00  0.00     0.030 C 
ENDBRANCH  24  27
ENDBRANCH  18  23
ENDBRANCH  14  17
ENDBRANCH   9  13
ENDBRANCH   6   8
ENDBRANCH   5   6
ENDBRANCH   4   5
ENDBRANCH   3   4
ENDBRANCH   2   3
ENDBRANCH   1   2
BRANCH   1  30
ATOM     30  C   UNL A   1      37.397  19.689  24.505  1.00  0.00     0.188 C 
BRANCH  30  31
ATOM     31  O   UNL A   1      37.828  20.795  25.284  1.00  0.00    -0.376 OA
BRANCH  31  32
ATOM     32  C   UNL A   1      39.149  20.779  25.804  1.00  0.00     0.202 C 
BRANCH  32  33
ATOM     33  C   UNL A   1      39.872  19.434  26.012  1.00  0.00     0.261 C 
BRANCH  33  34
ATOM     34  O   UNL A   1      41.159  19.285  25.380  1.00  0.00    -0.460 OA
BRANCH  34  35
ATOM     35  C   UNL A   1      42.247  19.404  26.188  1.00  0.00     0.338 C 
ATOM     36  O   UNL A   1      43.033  18.518  26.480  1.00  0.00    -0.246 OA
BRANCH  35  37
ATOM     37  C   UNL A   1      42.498  20.833  26.517  1.00  0.00     0.060 A 
ATOM     38  C   UNL A   1      42.684  21.744  25.462  1.00  0.00     0.016 A 
ATOM     39  C   UNL A   1      42.605  21.274  27.835  1.00  0.00     0.016 A 
ATOM     40  C   UNL A   1      42.994  23.082  25.719  1.00  0.00     0.010 A 
ATOM     41  C   UNL A   1      42.954  22.610  28.091  1.00  0.00     0.010 A 
ATOM     42  C   UNL A   1      43.181  23.514  27.035  1.00  0.00    -0.014 A 
BRANCH  42  43
ATOM     43  C   UNL A   1      43.803  24.843  27.294  1.00  0.00     0.031 A 
ATOM     44  C   UNL A   1      42.913  25.979  27.731  1.00  0.00     0.074 A 
ATOM     45  C   UNL A   1      45.127  25.045  27.169  1.00  0.00     0.049 A 
ATOM     46  N   UNL A   1      43.212  27.234  27.948  1.00  0.00    -0.248 NA
ATOM     47  C   UNL A   1      41.494  25.653  27.943  1.00  0.00     0.031 C 
ATOM     48  C   UNL A   1      46.108  24.025  26.802  1.00  0.00     0.029 A 
ATOM     49  N   UNL A   1      45.874  26.189  27.322  1.00  0.00    -0.354 N 
ATOM     50  C   UNL A   1      42.017  27.852  28.305  1.00  0.00     0.074 A 
ATOM     51  C   UNL A   1      40.987  26.838  28.252  1.00  0.00     0.031 C 
ATOM     52  C   UNL A   1      47.325  24.596  26.732  1.00  0.00     0.029 A 
ATOM     53  C   UNL A   1      47.205  26.026  27.016  1.00  0.00     0.049 A 
ATOM     54  H   UNL A   1      45.491  27.045  27.623  1.00  0.00     0.167 HD
ATOM     55  C   UNL A   1      41.798  29.144  28.649  1.00  0.00     0.037 A 
ATOM     56  C   UNL A   1      48.205  26.930  26.942  1.00  0.00     0.037 A 
ATOM     57  C   UNL A   1      42.826  30.152  28.703  1.00  0.00     0.049 A 
ATOM     58  C   UNL A   1      47.928  28.377  27.267  1.00  0.00     0.074 A 
ATOM     59  C   UNL A   1      42.707  31.481  29.072  1.00  0.00     0.029 A 
ATOM     60  N   UNL A   1      44.156  29.951  28.366  1.00  0.00    -0.354 N 
ATOM     61  N   UNL A   1      46.801  28.942  27.633  1.00  0.00    -0.248 NA
ATOM     62  C   UNL A   1      49.060  29.310  27.174  1.00  0.00     0.031 C 
ATOM     63  C   UNL A   1      43.948  32.098  28.896  1.00  0.00     0.029 A 
ATOM     64  C   UNL A   1      44.860  31.140  28.485  1.00  0.00     0.049 A 
ATOM     65  H   UNL A   1      44.544  29.092  28.084  1.00  0.00     0.167 HD
ATOM     66  C   UNL A   1      47.095  30.288  27.837  1.00  0.00     0.074 A 
ATOM     67  C   UNL A   1      48.509  30.450  27.569  1.00  0.00     0.031 C 
ATOM     68  C   UNL A   1      46.269  31.297  28.215  1.00  0.00     0.037 A 
BRANCH  55  69
ATOM     69  C   UNL A   1      40.382  29.555  28.953  1.00  0.00     0.058 A 
ATOM     70  C   UNL A   1      39.407  29.672  27.949  1.00  0.00     0.135 A 
ATOM     71  C   UNL A   1      39.987  29.803  30.277  1.00  0.00     0.135 A 
ATOM     72  F   UNL A   1      39.730  29.463  26.663  1.00  0.00    -0.206 F 
ATOM     73  C   UNL A   1      38.101  30.052  28.244  1.00  0.00     0.059 A 
ATOM     74  C   UNL A   1      38.679  30.152  30.600  1.00  0.00     0.059 A 
ATOM     75  F   UNL A   1      40.877  29.707  31.278  1.00  0.00    -0.206 F 
ATOM     76  C   UNL A   1      37.746  30.289  29.574  1.00  0.00     0.060 A 
BRANCH  76  77
ATOM     77  S   UNL A   1      36.048  30.778  29.941  1.00  0.00     0.124 S 
ATOM     78  O   UNL A   1      35.895  30.291  31.309  1.00  0.00    -0.237 OA
ATOM     79  O   UNL A   1      36.101  32.227  29.787  1.00  0.00    -0.237 OA
ATOM     80  O   UNL A   1      35.264  30.071  28.933  1.00  0.00    -0.744 OA
ENDBRANCH  76  77
ENDBRANCH  55  69
BRANCH  56  81
ATOM     81  C   UNL A   1      49.565  26.496  26.517  1.00  0.00     0.058 A 
ATOM     82  C   UNL A   1      50.505  26.025  27.446  1.00  0.00     0.135 A 
ATOM     83  C   UNL A   1      49.951  26.544  25.168  1.00  0.00     0.135 A 
ATOM     84  F   UNL A   1      50.194  25.978  28.750  1.00  0.00    -0.206 F 
ATOM     85  C   UNL A   1      51.779  25.622  27.056  1.00  0.00     0.059 A 
ATOM     86  C   UNL A   1      51.208  26.120  24.748  1.00  0.00     0.059 A 
ATOM     87  F   UNL A   1      49.091  26.985  24.237  1.00  0.00    -0.206 F 
ATOM     88  C   UNL A   1      52.118  25.665  25.701  1.00  0.00     0.060 A 
BRANCH  88  89
ATOM     89  S   UNL A   1      53.749  25.074  25.199  1.00  0.00     0.124 S 
ATOM     90  O   UNL A   1      54.609  25.693  26.200  1.00  0.00    -0.237 OA
ATOM     91  O   UNL A   1      53.590  23.626  25.299  1.00  0.00    -0.237 OA
ATOM     92  O   UNL A   1      53.888  25.589  23.839  1.00  0.00    -0.744 OA
ENDBRANCH  88  89
ENDBRANCH  56  81
BRANCH  68  93
ATOM     93  C   UNL A   1      46.872  32.666  28.397  1.00  0.00     0.058 A 
ATOM     94  C   UNL A   1      46.906  33.608  27.357  1.00  0.00     0.135 A 
ATOM     95  C   UNL A   1      47.377  33.060  29.648  1.00  0.00     0.135 A 
ATOM     96  F   UNL A   1      46.442  33.286  26.138  1.00  0.00    -0.206 F 
ATOM     97  C   UNL A   1      47.447  34.878  27.540  1.00  0.00     0.059 A 
ATOM     98  C   UNL A   1      47.891  34.335  29.864  1.00  0.00     0.059 A 
ATOM     99  F   UNL A   1      47.358  32.207  30.684  1.00  0.00    -0.206 F 
ATOM    100  C   UNL A   1      47.935  35.234  28.799  1.00  0.00     0.060 A 
BRANCH 100 101
ATOM    101  S   UNL A   1      48.611  36.892  29.029  1.00  0.00     0.124 S 
ATOM    102  O   UNL A   1      48.423  37.090  30.463  1.00  0.00    -0.237 OA
ATOM    103  O   UNL A   1      49.993  36.730  28.587  1.00  0.00    -0.237 OA
ATOM    104  O   UNL A   1      47.776  37.723  28.168  1.00  0.00    -0.744 OA
ENDBRANCH 100 101
ENDBRANCH  68  93
ENDBRANCH  42  43
ENDBRANCH  35  37
ENDBRANCH  34  35
ENDBRANCH  33  34
ENDBRANCH  32  33
ENDBRANCH  31  32
ENDBRANCH  30  31
ENDBRANCH   1  30
TORSDOF 24
ENDMDL
