MODEL 1
REMARK VINA RESULT:     -11.1      0.000      0.000
REMARK SMILES O=C(OCCOCCOCCOC(=O)c1cc([C@@H]2C=NN=C2c2ccc(F)cc2)c2c(ccc3ccccc32)n1)c1ccc(-c2c3nc(c(-c4c(F)cc(S(=O)(=O)[O-])cc4F)c4ccc([nH]4)c(-c4c(F)cc(S(=O)(=O)[O-])cc4F)c4nc(c(-c5c(F)cc(S(=O)(=O)[O-])cc5F)c5ccc2[nH]5)C=C4)C=C3)cc1
REMARK SMILES IDX 7 1 6 2 5 3 4 4 3 5 2 6 1 7 41 8 42 9 106 10 43 11 105 12
REMARK SMILES IDX 44 13 45 14 46 15 99 16 47 17 104 18 98 19 100 20 48 21
REMARK SMILES IDX 103 22 97 23 96 24 49 26 83 27 62 28 82 29 63 30 66 31 81 32
REMARK SMILES IDX 101 33 64 34 65 35 80 37 102 38 67 39 50 40 51 41 60 42
REMARK SMILES IDX 52 43 53 44 59 45 61 46 54 47 55 48 56 49 57 50 58 51 84 52
REMARK SMILES IDX 85 53 94 54 86 55 87 56 93 57 95 58 88 59 89 60 90 61 91 62
REMARK SMILES IDX 92 63 68 64 69 65 78 66 70 67 71 68 77 69 79 70 72 71 73 72
REMARK SMILES IDX 74 73 75 74 76 75 8 76 9 77 10 78 11 79 12 80 13 81 14 82
REMARK SMILES IDX 15 83 16 84 40 85 17 86 31 87 30 88 32 89 39 90 33 91 34 92
REMARK SMILES IDX 38 93 35 94 37 95 36 96 18 97 19 98 22 99 20 100 21 101
REMARK SMILES IDX 23 102 24 103 29 104 25 105 28 106 26 107 27 108
REMARK H PARENT 100 25 66 36
REMARK Flexibility Score: inf
ROOT
ATOM      1  C   UNL A   1      46.649  21.102  37.213  1.00  0.00     0.188 C 
ENDROOT
BRANCH   1   2
ATOM      2  O   UNL A   1      45.603  22.024  37.501  1.00  0.00    -0.376 OA
BRANCH   2   3
ATOM      3  C   UNL A   1      45.680  22.656  38.769  1.00  0.00     0.202 C 
BRANCH   3   4
ATOM      4  C   UNL A   1      45.244  24.122  38.736  1.00  0.00     0.261 C 
BRANCH   4   5
ATOM      5  O   UNL A   1      45.449  24.802  37.482  1.00  0.00    -0.460 OA
BRANCH   5   6
ATOM      6  C   UNL A   1      46.545  25.142  36.779  1.00  0.00     0.338 C 
ATOM      7  O   UNL A   1      47.631  25.137  37.356  1.00  0.00    -0.246 OA
BRANCH   6   8
ATOM      8  C   UNL A   1      46.514  25.627  35.374  1.00  0.00     0.060 A 
ATOM      9  C   UNL A   1      45.587  26.525  34.849  1.00  0.00     0.016 A 
ATOM     10  C   UNL A   1      47.477  25.064  34.510  1.00  0.00     0.016 A 
ATOM     11  C   UNL A   1      45.568  26.802  33.488  1.00  0.00     0.010 A 
ATOM     12  C   UNL A   1      47.453  25.323  33.146  1.00  0.00     0.010 A 
ATOM     13  C   UNL A   1      46.458  26.152  32.637  1.00  0.00    -0.014 A 
BRANCH  13  14
ATOM     14  C   UNL A   1      46.258  26.330  31.205  1.00  0.00     0.031 A 
ATOM     15  C   UNL A   1      47.093  27.357  30.532  1.00  0.00     0.074 A 
ATOM     16  C   UNL A   1      45.406  25.545  30.516  1.00  0.00     0.049 A 
ATOM     17  N   UNL A   1      46.706  28.398  29.867  1.00  0.00    -0.248 NA
ATOM     18  C   UNL A   1      48.551  27.245  30.678  1.00  0.00     0.031 C 
ATOM     19  C   UNL A   1      44.729  24.338  31.001  1.00  0.00     0.029 A 
ATOM     20  N   UNL A   1      45.058  25.591  29.198  1.00  0.00    -0.354 N 
ATOM     21  C   UNL A   1      47.863  28.941  29.313  1.00  0.00     0.074 A 
ATOM     22  C   UNL A   1      48.971  28.286  29.959  1.00  0.00     0.031 C 
ATOM     23  C   UNL A   1      44.251  23.649  29.944  1.00  0.00     0.029 A 
ATOM     24  C   UNL A   1      44.483  24.417  28.734  1.00  0.00     0.049 A 
ATOM     25  H   UNL A   1      45.202  26.383  28.629  1.00  0.00     0.167 HD
ATOM     26  C   UNL A   1      47.831  29.714  28.193  1.00  0.00     0.037 A 
ATOM     27  C   UNL A   1      44.299  24.057  27.440  1.00  0.00     0.037 A 
ATOM     28  C   UNL A   1      46.530  30.281  27.958  1.00  0.00     0.049 A 
ATOM     29  C   UNL A   1      44.314  25.293  26.619  1.00  0.00     0.074 A 
ATOM     30  C   UNL A   1      45.669  31.085  28.683  1.00  0.00     0.029 A 
ATOM     31  N   UNL A   1      45.789  29.798  26.909  1.00  0.00    -0.354 N 
ATOM     32  N   UNL A   1      43.390  26.215  26.652  1.00  0.00    -0.248 NA
ATOM     33  C   UNL A   1      45.563  25.692  25.989  1.00  0.00     0.031 C 
ATOM     34  C   UNL A   1      44.359  30.678  28.298  1.00  0.00     0.029 A 
ATOM     35  C   UNL A   1      44.497  29.665  27.348  1.00  0.00     0.049 A 
ATOM     36  H   UNL A   1      46.124  29.586  26.008  1.00  0.00     0.167 HD
ATOM     37  C   UNL A   1      44.066  27.404  26.433  1.00  0.00     0.074 A 
ATOM     38  C   UNL A   1      45.364  27.008  25.901  1.00  0.00     0.031 C 
ATOM     39  C   UNL A   1      43.621  28.580  26.965  1.00  0.00     0.037 A 
BRANCH  26  40
ATOM     40  C   UNL A   1      48.889  29.649  27.114  1.00  0.00     0.058 A 
ATOM     41  C   UNL A   1      49.846  30.668  26.909  1.00  0.00     0.135 A 
ATOM     42  C   UNL A   1      49.158  28.424  26.467  1.00  0.00     0.135 A 
ATOM     43  F   UNL A   1      49.774  31.851  27.534  1.00  0.00    -0.206 F 
ATOM     44  C   UNL A   1      50.986  30.489  26.137  1.00  0.00     0.059 A 
ATOM     45  C   UNL A   1      50.328  28.204  25.735  1.00  0.00     0.059 A 
ATOM     46  F   UNL A   1      48.324  27.381  26.610  1.00  0.00    -0.206 F 
ATOM     47  C   UNL A   1      51.240  29.243  25.587  1.00  0.00     0.060 A 
BRANCH  47  48
ATOM     48  S   UNL A   1      52.845  28.986  24.808  1.00  0.00     0.124 S 
ATOM     49  O   UNL A   1      52.452  28.554  23.471  1.00  0.00    -0.237 OA
ATOM     50  O   UNL A   1      53.440  30.315  24.900  1.00  0.00    -0.237 OA
ATOM     51  O   UNL A   1      53.463  27.965  25.648  1.00  0.00    -0.744 OA
ENDBRANCH  47  48
ENDBRANCH  26  40
BRANCH  27  52
ATOM     52  C   UNL A   1      44.429  22.697  26.852  1.00  0.00     0.058 A 
ATOM     53  C   UNL A   1      45.636  22.245  26.278  1.00  0.00     0.135 A 
ATOM     54  C   UNL A   1      43.292  21.907  26.602  1.00  0.00     0.135 A 
ATOM     55  F   UNL A   1      46.773  22.947  26.390  1.00  0.00    -0.206 F 
ATOM     56  C   UNL A   1      45.707  21.107  25.481  1.00  0.00     0.059 A 
ATOM     57  C   UNL A   1      43.336  20.771  25.787  1.00  0.00     0.059 A 
ATOM     58  F   UNL A   1      42.097  22.271  27.091  1.00  0.00    -0.206 F 
ATOM     59  C   UNL A   1      44.546  20.394  25.211  1.00  0.00     0.060 A 
BRANCH  59  60
ATOM     60  S   UNL A   1      44.650  19.047  24.014  1.00  0.00     0.124 S 
ATOM     61  O   UNL A   1      44.469  19.757  22.751  1.00  0.00    -0.237 OA
ATOM     62  O   UNL A   1      45.993  18.529  24.258  1.00  0.00    -0.237 OA
ATOM     63  O   UNL A   1      43.557  18.161  24.399  1.00  0.00    -0.744 OA
ENDBRANCH  59  60
ENDBRANCH  27  52
BRANCH  39  64
ATOM     64  C   UNL A   1      42.196  28.657  27.441  1.00  0.00     0.058 A 
ATOM     65  C   UNL A   1      41.212  29.065  26.527  1.00  0.00     0.135 A 
ATOM     66  C   UNL A   1      41.797  28.484  28.779  1.00  0.00     0.135 A 
ATOM     67  F   UNL A   1      41.541  29.304  25.246  1.00  0.00    -0.206 F 
ATOM     68  C   UNL A   1      39.894  29.286  26.912  1.00  0.00     0.059 A 
ATOM     69  C   UNL A   1      40.473  28.667  29.181  1.00  0.00     0.059 A 
ATOM     70  F   UNL A   1      42.695  28.202  29.735  1.00  0.00    -0.206 F 
ATOM     71  C   UNL A   1      39.531  29.084  28.243  1.00  0.00     0.060 A 
BRANCH  71  72
ATOM     72  S   UNL A   1      37.821  29.403  28.723  1.00  0.00     0.124 S 
ATOM     73  O   UNL A   1      37.735  28.706  30.003  1.00  0.00    -0.237 OA
ATOM     74  O   UNL A   1      37.782  30.861  28.798  1.00  0.00    -0.237 OA
ATOM     75  O   UNL A   1      37.039  28.815  27.640  1.00  0.00    -0.744 OA
ENDBRANCH  71  72
ENDBRANCH  39  64
ENDBRANCH  13  14
ENDBRANCH   6   8
ENDBRANCH   5   6
ENDBRANCH   4   5
ENDBRANCH   3   4
ENDBRANCH   2   3
ENDBRANCH   1   2
BRANCH   1  76
ATOM     76  C   UNL A   1      46.192  19.628  37.116  1.00  0.00     0.188 C 
BRANCH  76  77
ATOM     77  O   UNL A   1      46.041  18.777  38.252  1.00  0.00    -0.376 OA
BRANCH  77  78
ATOM     78  C   UNL A   1      47.104  18.618  39.169  1.00  0.00     0.202 C 
BRANCH  78  79
ATOM     79  C   UNL A   1      46.916  19.433  40.450  1.00  0.00     0.261 C 
BRANCH  79  80
ATOM     80  O   UNL A   1      45.561  19.473  40.922  1.00  0.00    -0.459 OA
BRANCH  80  81
ATOM     81  C   UNL A   1      45.393  19.198  42.238  1.00  0.00     0.357 C 
ATOM     82  O   UNL A   1      45.681  19.917  43.194  1.00  0.00    -0.244 OA
BRANCH  81  83
ATOM     83  C   UNL A   1      44.888  17.819  42.382  1.00  0.00     0.149 A 
ATOM     84  C   UNL A   1      44.838  17.281  43.641  1.00  0.00     0.041 A 
ATOM     85  N   UNL A   1      44.358  17.209  41.311  1.00  0.00    -0.241 NA
ATOM     86  C   UNL A   1      44.102  16.094  43.869  1.00  0.00    -0.021 A 
ATOM     87  C   UNL A   1      43.698  16.057  41.491  1.00  0.00     0.072 A 
ATOM     88  C   UNL A   1      43.443  15.430  42.752  1.00  0.00     0.012 A 
ATOM     89  C   UNL A   1      43.209  15.525  40.317  1.00  0.00     0.029 A 
ATOM     90  C   UNL A   1      42.522  14.269  42.723  1.00  0.00    -0.009 A 
ATOM     91  C   UNL A   1      42.413  14.391  40.294  1.00  0.00     0.011 A 
ATOM     92  C   UNL A   1      42.041  13.773  41.477  1.00  0.00    -0.018 A 
ATOM     93  C   UNL A   1      41.994  13.579  43.842  1.00  0.00     0.009 A 
ATOM     94  C   UNL A   1      41.161  12.677  41.389  1.00  0.00     0.009 A 
ATOM     95  C   UNL A   1      41.109  12.494  43.759  1.00  0.00     0.001 A 
ATOM     96  C   UNL A   1      40.695  12.037  42.527  1.00  0.00     0.001 A 
BRANCH  86  97
ATOM     97  C   UNL A   1      44.019  15.798  45.347  1.00  0.00     0.115 C 
ATOM     98  C   UNL A   1      44.142  16.888  46.341  1.00  0.00     0.123 C 
ATOM     99  C   UNL A   1      44.953  14.809  45.974  1.00  0.00     0.083 C 
ATOM    100  N   UNL A   1      44.798  16.519  47.396  1.00  0.00    -0.162 NA
ATOM    101  N   UNL A   1      45.309  15.190  47.168  1.00  0.00    -0.154 NA
BRANCH  99 102
ATOM    102  C   UNL A   1      45.312  13.497  45.389  1.00  0.00    -0.001 A 
ATOM    103  C   UNL A   1      44.432  12.426  45.587  1.00  0.00     0.013 A 
ATOM    104  C   UNL A   1      46.498  13.283  44.675  1.00  0.00     0.013 A 
ATOM    105  C   UNL A   1      44.722  11.170  45.044  1.00  0.00     0.040 A 
ATOM    106  C   UNL A   1      46.782  12.032  44.125  1.00  0.00     0.040 A 
ATOM    107  C   UNL A   1      45.890  10.987  44.313  1.00  0.00     0.123 A 
ATOM    108  F   UNL A   1      46.165   9.783  43.795  1.00  0.00    -0.207 F 
ENDBRANCH  99 102
ENDBRANCH  86  97
ENDBRANCH  81  83
ENDBRANCH  80  81
ENDBRANCH  79  80
ENDBRANCH  78  79
ENDBRANCH  77  78
ENDBRANCH  76  77
ENDBRANCH   1  76
TORSDOF 22
ENDMDL
MODEL 2
REMARK VINA RESULT:     -10.9      9.332     16.100
REMARK SMILES O=C(OCCOCCOCCOC(=O)c1cc([C@@H]2C=NN=C2c2ccc(F)cc2)c2c(ccc3ccccc32)n1)c1ccc(-c2c3nc(c(-c4c(F)cc(S(=O)(=O)[O-])cc4F)c4ccc([nH]4)c(-c4c(F)cc(S(=O)(=O)[O-])cc4F)c4nc(c(-c5c(F)cc(S(=O)(=O)[O-])cc5F)c5ccc2[nH]5)C=C4)C=C3)cc1
REMARK SMILES IDX 7 1 6 2 5 3 4 4 3 5 2 6 1 7 41 8 42 9 106 10 43 11 105 12
REMARK SMILES IDX 44 13 45 14 46 15 99 16 47 17 104 18 98 19 100 20 48 21
REMARK SMILES IDX 103 22 97 23 96 24 49 26 83 27 62 28 82 29 63 30 66 31 81 32
REMARK SMILES IDX 101 33 64 34 65 35 80 37 102 38 67 39 50 40 51 41 60 42
REMARK SMILES IDX 52 43 53 44 59 45 61 46 54 47 55 48 56 49 57 50 58 51 84 52
REMARK SMILES IDX 85 53 94 54 86 55 87 56 93 57 95 58 88 59 89 60 90 61 91 62
REMARK SMILES IDX 92 63 68 64 69 65 78 66 70 67 71 68 77 69 79 70 72 71 73 72
REMARK SMILES IDX 74 73 75 74 76 75 8 76 9 77 10 78 11 79 12 80 13 81 14 82
REMARK SMILES IDX 15 83 16 84 40 85 17 86 31 87 30 88 32 89 39 90 33 91 34 92
REMARK SMILES IDX 38 93 35 94 37 95 36 96 18 97 19 98 22 99 20 100 21 101
REMARK SMILES IDX 23 102 24 103 29 104 25 105 28 106 26 107 27 108
REMARK H PARENT 100 25 66 36
REMARK Flexibility Score: inf
ROOT
ATOM      1  C   UNL A   1      37.467  21.487  24.691  1.00  0.00     0.188 C 
ENDROOT
BRANCH   1   2
ATOM      2  O   UNL A   1      38.496  21.857  25.603  1.00  0.00    -0.376 OA
BRANCH   2   3
ATOM      3  C   UNL A   1      39.493  20.873  25.828  1.00  0.00     0.202 C 
BRANCH   3   4
ATOM      4  C   UNL A   1      40.723  21.420  26.553  1.00  0.00     0.261 C 
BRANCH   4   5
ATOM      5  O   UNL A   1      41.953  21.381  25.803  1.00  0.00    -0.460 OA
BRANCH   5   6
ATOM      6  C   UNL A   1      42.877  22.307  25.486  1.00  0.00     0.338 C 
ATOM      7  O   UNL A   1      43.734  22.012  24.653  1.00  0.00    -0.246 OA
BRANCH   6   8
ATOM      8  C   UNL A   1      42.995  23.629  26.155  1.00  0.00     0.060 A 
ATOM      9  C   UNL A   1      43.622  23.863  27.377  1.00  0.00     0.016 A 
ATOM     10  C   UNL A   1      42.352  24.704  25.505  1.00  0.00     0.016 A 
ATOM     11  C   UNL A   1      43.552  25.115  27.975  1.00  0.00     0.010 A 
ATOM     12  C   UNL A   1      42.263  25.953  26.106  1.00  0.00     0.010 A 
ATOM     13  C   UNL A   1      42.820  26.132  27.368  1.00  0.00    -0.014 A 
BRANCH  13  14
ATOM     14  C   UNL A   1      42.615  27.353  28.137  1.00  0.00     0.031 A 
ATOM     15  C   UNL A   1      43.706  28.359  28.103  1.00  0.00     0.074 A 
ATOM     16  C   UNL A   1      41.457  27.583  28.787  1.00  0.00     0.049 A 
ATOM     17  N   UNL A   1      44.383  28.845  29.094  1.00  0.00    -0.248 NA
ATOM     18  C   UNL A   1      44.144  28.837  26.784  1.00  0.00     0.031 C 
ATOM     19  C   UNL A   1      40.218  26.805  28.685  1.00  0.00     0.029 A 
ATOM     20  N   UNL A   1      41.104  28.632  29.584  1.00  0.00    -0.354 N 
ATOM     21  C   UNL A   1      45.169  29.857  28.551  1.00  0.00     0.074 A 
ATOM     22  C   UNL A   1      45.093  29.711  27.120  1.00  0.00     0.031 C 
ATOM     23  C   UNL A   1      39.201  27.530  29.197  1.00  0.00     0.029 A 
ATOM     24  C   UNL A   1      39.733  28.758  29.761  1.00  0.00     0.049 A 
ATOM     25  H   UNL A   1      41.759  29.242  29.994  1.00  0.00     0.167 HD
ATOM     26  C   UNL A   1      45.632  30.893  29.304  1.00  0.00     0.037 A 
ATOM     27  C   UNL A   1      39.072  29.836  30.248  1.00  0.00     0.037 A 
ATOM     28  C   UNL A   1      45.646  30.582  30.708  1.00  0.00     0.049 A 
ATOM     29  C   UNL A   1      40.036  30.640  31.039  1.00  0.00     0.074 A 
ATOM     30  C   UNL A   1      46.229  29.598  31.486  1.00  0.00     0.029 A 
ATOM     31  N   UNL A   1      44.727  31.198  31.521  1.00  0.00    -0.354 N 
ATOM     32  N   UNL A   1      40.561  30.262  32.172  1.00  0.00    -0.248 NA
ATOM     33  C   UNL A   1      40.707  31.755  30.388  1.00  0.00     0.031 C 
ATOM     34  C   UNL A   1      45.318  29.376  32.559  1.00  0.00     0.029 A 
ATOM     35  C   UNL A   1      44.245  30.250  32.385  1.00  0.00     0.049 A 
ATOM     36  H   UNL A   1      44.464  32.146  31.488  1.00  0.00     0.167 HD
ATOM     37  C   UNL A   1      41.839  30.798  32.169  1.00  0.00     0.074 A 
ATOM     38  C   UNL A   1      41.821  31.810  31.120  1.00  0.00     0.031 C 
ATOM     39  C   UNL A   1      42.867  30.180  32.820  1.00  0.00     0.037 A 
BRANCH  26  40
ATOM     40  C   UNL A   1      45.719  32.314  28.792  1.00  0.00     0.058 A 
ATOM     41  C   UNL A   1      44.585  33.072  28.424  1.00  0.00     0.135 A 
ATOM     42  C   UNL A   1      46.913  33.046  28.954  1.00  0.00     0.135 A 
ATOM     43  F   UNL A   1      43.364  32.530  28.327  1.00  0.00    -0.206 F 
ATOM     44  C   UNL A   1      44.623  34.448  28.244  1.00  0.00     0.059 A 
ATOM     45  C   UNL A   1      46.961  34.438  28.836  1.00  0.00     0.059 A 
ATOM     46  F   UNL A   1      48.048  32.428  29.321  1.00  0.00    -0.206 F 
ATOM     47  C   UNL A   1      45.805  35.129  28.490  1.00  0.00     0.060 A 
BRANCH  47  48
ATOM     48  S   UNL A   1      45.747  36.930  28.488  1.00  0.00     0.124 S 
ATOM     49  O   UNL A   1      45.342  37.205  27.113  1.00  0.00    -0.237 OA
ATOM     50  O   UNL A   1      44.746  37.200  29.514  1.00  0.00    -0.237 OA
ATOM     51  O   UNL A   1      47.114  37.307  28.833  1.00  0.00    -0.744 OA
ENDBRANCH  47  48
ENDBRANCH  26  40
BRANCH  27  52
ATOM     52  C   UNL A   1      37.753  30.364  29.806  1.00  0.00     0.058 A 
ATOM     53  C   UNL A   1      37.445  30.555  28.442  1.00  0.00     0.135 A 
ATOM     54  C   UNL A   1      36.863  30.944  30.728  1.00  0.00     0.135 A 
ATOM     55  F   UNL A   1      38.254  30.108  27.471  1.00  0.00    -0.206 F 
ATOM     56  C   UNL A   1      36.349  31.299  28.019  1.00  0.00     0.059 A 
ATOM     57  C   UNL A   1      35.765  31.713  30.325  1.00  0.00     0.059 A 
ATOM     58  F   UNL A   1      37.087  30.830  32.045  1.00  0.00    -0.206 F 
ATOM     59  C   UNL A   1      35.533  31.905  28.965  1.00  0.00     0.060 A 
BRANCH  59  60
ATOM     60  S   UNL A   1      34.245  33.021  28.370  1.00  0.00     0.124 S 
ATOM     61  O   UNL A   1      33.336  32.095  27.700  1.00  0.00    -0.237 OA
ATOM     62  O   UNL A   1      33.748  33.600  29.615  1.00  0.00    -0.237 OA
ATOM     63  O   UNL A   1      34.964  33.939  27.494  1.00  0.00    -0.744 OA
ENDBRANCH  59  60
ENDBRANCH  27  52
BRANCH  39  64
ATOM     64  C   UNL A   1      42.537  29.151  33.868  1.00  0.00     0.058 A 
ATOM     65  C   UNL A   1      42.783  29.471  35.213  1.00  0.00     0.135 A 
ATOM     66  C   UNL A   1      42.130  27.835  33.585  1.00  0.00     0.135 A 
ATOM     67  F   UNL A   1      43.231  30.695  35.543  1.00  0.00    -0.206 F 
ATOM     68  C   UNL A   1      42.628  28.538  36.232  1.00  0.00     0.059 A 
ATOM     69  C   UNL A   1      41.935  26.892  34.595  1.00  0.00     0.059 A 
ATOM     70  F   UNL A   1      41.979  27.417  32.319  1.00  0.00    -0.206 F 
ATOM     71  C   UNL A   1      42.202  27.249  35.916  1.00  0.00     0.060 A 
BRANCH  71  72
ATOM     72  S   UNL A   1      42.035  26.049  37.253  1.00  0.00     0.124 S 
ATOM     73  O   UNL A   1      42.477  24.817  36.607  1.00  0.00    -0.237 OA
ATOM     74  O   UNL A   1      42.935  26.584  38.270  1.00  0.00    -0.237 OA
ATOM     75  O   UNL A   1      40.615  26.100  37.591  1.00  0.00    -0.744 OA
ENDBRANCH  71  72
ENDBRANCH  39  64
ENDBRANCH  13  14
ENDBRANCH   6   8
ENDBRANCH   5   6
ENDBRANCH   4   5
ENDBRANCH   3   4
ENDBRANCH   2   3
ENDBRANCH   1   2
BRANCH   1  76
ATOM     76  C   UNL A   1      36.134  21.084  25.362  1.00  0.00     0.188 C 
BRANCH  76  77
ATOM     77  O   UNL A   1      35.090  20.389  24.680  1.00  0.00    -0.376 OA
BRANCH  77  78
ATOM     78  C   UNL A   1      34.658  19.125  25.138  1.00  0.00     0.202 C 
BRANCH  78  79
ATOM     79  C   UNL A   1      33.640  18.465  24.206  1.00  0.00     0.261 C 
BRANCH  79  80
ATOM     80  O   UNL A   1      32.435  19.226  24.028  1.00  0.00    -0.459 OA
BRANCH  80  81
ATOM     81  C   UNL A   1      32.243  19.731  22.786  1.00  0.00     0.357 C 
ATOM     82  O   UNL A   1      32.169  19.107  21.728  1.00  0.00    -0.244 OA
BRANCH  81  83
ATOM     83  C   UNL A   1      32.232  21.205  22.861  1.00  0.00     0.149 A 
ATOM     84  C   UNL A   1      32.220  21.785  24.101  1.00  0.00     0.041 A 
ATOM     85  N   UNL A   1      32.390  21.911  21.731  1.00  0.00    -0.241 NA
ATOM     86  C   UNL A   1      32.501  23.166  24.234  1.00  0.00    -0.021 A 
ATOM     87  C   UNL A   1      32.608  23.230  21.825  1.00  0.00     0.072 A 
ATOM     88  C   UNL A   1      32.754  23.967  23.043  1.00  0.00     0.012 A 
ATOM     89  C   UNL A   1      32.743  23.844  20.599  1.00  0.00     0.029 A 
ATOM     90  C   UNL A   1      33.188  25.377  22.899  1.00  0.00    -0.009 A 
ATOM     91  C   UNL A   1      33.072  25.185  20.474  1.00  0.00     0.011 A 
ATOM     92  C   UNL A   1      33.322  25.950  21.601  1.00  0.00    -0.018 A 
ATOM     93  C   UNL A   1      33.550  26.262  23.944  1.00  0.00     0.009 A 
ATOM     94  C   UNL A   1      33.736  27.282  21.404  1.00  0.00     0.009 A 
ATOM     95  C   UNL A   1      33.972  27.586  23.751  1.00  0.00     0.001 A 
ATOM     96  C   UNL A   1      34.060  28.101  22.475  1.00  0.00     0.001 A 
BRANCH  86  97
ATOM     97  C   UNL A   1      32.630  23.543  25.690  1.00  0.00     0.115 C 
ATOM     98  C   UNL A   1      32.714  22.496  26.734  1.00  0.00     0.123 C 
ATOM     99  C   UNL A   1      31.610  24.429  26.336  1.00  0.00     0.083 C 
ATOM    100  N   UNL A   1      32.078  22.827  27.813  1.00  0.00    -0.162 NA
ATOM    101  N   UNL A   1      31.379  24.063  27.565  1.00  0.00    -0.154 NA
BRANCH  99 102
ATOM    102  C   UNL A   1      31.043  25.652  25.722  1.00  0.00    -0.001 A 
ATOM    103  C   UNL A   1      30.130  25.497  24.672  1.00  0.00     0.013 A 
ATOM    104  C   UNL A   1      31.402  26.943  26.130  1.00  0.00     0.013 A 
ATOM    105  C   UNL A   1      29.559  26.622  24.067  1.00  0.00     0.040 A 
ATOM    106  C   UNL A   1      30.825  28.065  25.533  1.00  0.00     0.040 A 
ATOM    107  C   UNL A   1      29.907  27.894  24.508  1.00  0.00     0.123 A 
ATOM    108  F   UNL A   1      29.358  28.969  23.926  1.00  0.00    -0.207 F 
ENDBRANCH  99 102
ENDBRANCH  86  97
ENDBRANCH  81  83
ENDBRANCH  80  81
ENDBRANCH  79  80
ENDBRANCH  78  79
ENDBRANCH  77  78
ENDBRANCH  76  77
ENDBRANCH   1  76
TORSDOF 22
ENDMDL
MODEL 3
REMARK VINA RESULT:     -10.9     11.839     23.957
REMARK SMILES O=C(OCCOCCOCCOC(=O)c1cc([C@@H]2C=NN=C2c2ccc(F)cc2)c2c(ccc3ccccc32)n1)c1ccc(-c2c3nc(c(-c4c(F)cc(S(=O)(=O)[O-])cc4F)c4ccc([nH]4)c(-c4c(F)cc(S(=O)(=O)[O-])cc4F)c4nc(c(-c5c(F)cc(S(=O)(=O)[O-])cc5F)c5ccc2[nH]5)C=C4)C=C3)cc1
REMARK SMILES IDX 7 1 6 2 5 3 4 4 3 5 2 6 1 7 41 8 42 9 106 10 43 11 105 12
REMARK SMILES IDX 44 13 45 14 46 15 99 16 47 17 104 18 98 19 100 20 48 21
REMARK SMILES IDX 103 22 97 23 96 24 49 26 83 27 62 28 82 29 63 30 66 31 81 32
REMARK SMILES IDX 101 33 64 34 65 35 80 37 102 38 67 39 50 40 51 41 60 42
REMARK SMILES IDX 52 43 53 44 59 45 61 46 54 47 55 48 56 49 57 50 58 51 84 52
REMARK SMILES IDX 85 53 94 54 86 55 87 56 93 57 95 58 88 59 89 60 90 61 91 62
REMARK SMILES IDX 92 63 68 64 69 65 78 66 70 67 71 68 77 69 79 70 72 71 73 72
REMARK SMILES IDX 74 73 75 74 76 75 8 76 9 77 10 78 11 79 12 80 13 81 14 82
REMARK SMILES IDX 15 83 16 84 40 85 17 86 31 87 30 88 32 89 39 90 33 91 34 92
REMARK SMILES IDX 38 93 35 94 37 95 36 96 18 97 19 98 22 99 20 100 21 101
REMARK SMILES IDX 23 102 24 103 29 104 25 105 28 106 26 107 27 108
REMARK H PARENT 100 25 66 36
REMARK Flexibility Score: inf
ROOT
ATOM      1  C   UNL A   1      46.372  42.457  30.299  1.00  0.00     0.188 C 
ENDROOT
BRANCH   1   2
ATOM      2  O   UNL A   1      46.595  41.556  31.380  1.00  0.00    -0.376 OA
BRANCH   2   3
ATOM      3  C   UNL A   1      45.481  40.755  31.742  1.00  0.00     0.202 C 
BRANCH   3   4
ATOM      4  C   UNL A   1      44.383  41.544  32.458  1.00  0.00     0.261 C 
BRANCH   4   5
ATOM      5  O   UNL A   1      44.051  41.082  33.783  1.00  0.00    -0.460 OA
BRANCH   5   6
ATOM      6  C   UNL A   1      44.491  40.068  34.549  1.00  0.00     0.338 C 
ATOM      7  O   UNL A   1      45.489  40.254  35.244  1.00  0.00    -0.246 OA
BRANCH   6   8
ATOM      8  C   UNL A   1      43.911  38.699  34.531  1.00  0.00     0.060 A 
ATOM      9  C   UNL A   1      43.398  38.054  33.408  1.00  0.00     0.016 A 
ATOM     10  C   UNL A   1      43.829  38.052  35.782  1.00  0.00     0.016 A 
ATOM     11  C   UNL A   1      42.754  36.829  33.533  1.00  0.00     0.010 A 
ATOM     12  C   UNL A   1      43.171  36.836  35.916  1.00  0.00     0.010 A 
ATOM     13  C   UNL A   1      42.588  36.259  34.793  1.00  0.00    -0.014 A 
BRANCH  13  14
ATOM     14  C   UNL A   1      41.733  35.083  34.883  1.00  0.00     0.031 A 
ATOM     15  C   UNL A   1      42.130  33.901  34.078  1.00  0.00     0.074 A 
ATOM     16  C   UNL A   1      40.674  35.051  35.715  1.00  0.00     0.049 A 
ATOM     17  N   UNL A   1      41.454  33.289  33.159  1.00  0.00    -0.248 NA
ATOM     18  C   UNL A   1      43.488  33.372  34.277  1.00  0.00     0.031 C 
ATOM     19  C   UNL A   1      40.331  36.037  36.746  1.00  0.00     0.029 A 
ATOM     20  N   UNL A   1      39.745  34.070  35.899  1.00  0.00    -0.354 N 
ATOM     21  C   UNL A   1      42.201  32.162  32.830  1.00  0.00     0.074 A 
ATOM     22  C   UNL A   1      43.497  32.340  33.433  1.00  0.00     0.031 C 
ATOM     23  C   UNL A   1      39.426  35.495  37.587  1.00  0.00     0.029 A 
ATOM     24  C   UNL A   1      39.044  34.184  37.092  1.00  0.00     0.049 A 
ATOM     25  H   UNL A   1      39.587  33.347  35.248  1.00  0.00     0.167 HD
ATOM     26  C   UNL A   1      41.629  31.050  32.290  1.00  0.00     0.037 A 
ATOM     27  C   UNL A   1      38.281  33.233  37.682  1.00  0.00     0.037 A 
ATOM     28  C   UNL A   1      40.360  31.333  31.676  1.00  0.00     0.049 A 
ATOM     29  C   UNL A   1      37.880  32.260  36.634  1.00  0.00     0.074 A 
ATOM     30  C   UNL A   1      39.925  32.187  30.680  1.00  0.00     0.029 A 
ATOM     31  N   UNL A   1      39.222  30.877  32.294  1.00  0.00    -0.354 N 
ATOM     32  N   UNL A   1      37.062  32.524  35.653  1.00  0.00    -0.248 NA
ATOM     33  C   UNL A   1      38.677  31.054  36.469  1.00  0.00     0.031 C 
ATOM     34  C   UNL A   1      38.596  32.551  31.047  1.00  0.00     0.029 A 
ATOM     35  C   UNL A   1      38.293  31.882  32.234  1.00  0.00     0.049 A 
ATOM     36  H   UNL A   1      39.097  29.991  32.704  1.00  0.00     0.167 HD
ATOM     37  C   UNL A   1      37.530  31.771  34.587  1.00  0.00     0.074 A 
ATOM     38  C   UNL A   1      38.432  30.794  35.184  1.00  0.00     0.031 C 
ATOM     39  C   UNL A   1      37.362  32.188  33.299  1.00  0.00     0.037 A 
BRANCH  26  40
ATOM     40  C   UNL A   1      42.055  29.644  32.650  1.00  0.00     0.058 A 
ATOM     41  C   UNL A   1      42.727  28.787  31.749  1.00  0.00     0.135 A 
ATOM     42  C   UNL A   1      42.074  29.240  34.001  1.00  0.00     0.135 A 
ATOM     43  F   UNL A   1      42.873  29.088  30.452  1.00  0.00    -0.206 F 
ATOM     44  C   UNL A   1      43.378  27.629  32.152  1.00  0.00     0.059 A 
ATOM     45  C   UNL A   1      42.774  28.111  34.437  1.00  0.00     0.059 A 
ATOM     46  F   UNL A   1      41.483  29.991  34.945  1.00  0.00    -0.206 F 
ATOM     47  C   UNL A   1      43.431  27.319  33.502  1.00  0.00     0.060 A 
BRANCH  47  48
ATOM     48  S   UNL A   1      44.493  25.952  34.003  1.00  0.00     0.124 S 
ATOM     49  O   UNL A   1      45.372  25.829  32.846  1.00  0.00    -0.237 OA
ATOM     50  O   UNL A   1      45.107  26.478  35.218  1.00  0.00    -0.237 OA
ATOM     51  O   UNL A   1      43.550  24.855  34.204  1.00  0.00    -0.744 OA
ENDBRANCH  47  48
ENDBRANCH  26  40
BRANCH  27  52
ATOM     52  C   UNL A   1      38.147  32.953  39.136  1.00  0.00     0.058 A 
ATOM     53  C   UNL A   1      39.271  32.724  39.957  1.00  0.00     0.135 A 
ATOM     54  C   UNL A   1      36.897  32.639  39.698  1.00  0.00     0.135 A 
ATOM     55  F   UNL A   1      40.520  32.922  39.510  1.00  0.00    -0.206 F 
ATOM     56  C   UNL A   1      39.168  32.189  41.237  1.00  0.00     0.059 A 
ATOM     57  C   UNL A   1      36.770  32.080  40.975  1.00  0.00     0.059 A 
ATOM     58  F   UNL A   1      35.774  32.804  38.983  1.00  0.00    -0.206 F 
ATOM     59  C   UNL A   1      37.917  31.836  41.727  1.00  0.00     0.060 A 
BRANCH  59  60
ATOM     60  S   UNL A   1      37.851  30.963  43.305  1.00  0.00     0.124 S 
ATOM     61  O   UNL A   1      36.459  31.168  43.699  1.00  0.00    -0.237 OA
ATOM     62  O   UNL A   1      38.200  29.601  42.912  1.00  0.00    -0.237 OA
ATOM     63  O   UNL A   1      38.842  31.654  44.121  1.00  0.00    -0.744 OA
ENDBRANCH  59  60
ENDBRANCH  27  52
BRANCH  39  64
ATOM     64  C   UNL A   1      36.328  33.244  33.015  1.00  0.00     0.058 A 
ATOM     65  C   UNL A   1      35.134  32.852  32.390  1.00  0.00     0.135 A 
ATOM     66  C   UNL A   1      36.531  34.623  33.206  1.00  0.00     0.135 A 
ATOM     67  F   UNL A   1      34.907  31.553  32.127  1.00  0.00    -0.206 F 
ATOM     68  C   UNL A   1      34.180  33.776  31.977  1.00  0.00     0.059 A 
ATOM     69  C   UNL A   1      35.573  35.566  32.830  1.00  0.00     0.059 A 
ATOM     70  F   UNL A   1      37.690  35.088  33.695  1.00  0.00    -0.206 F 
ATOM     71  C   UNL A   1      34.407  35.133  32.201  1.00  0.00     0.060 A 
BRANCH  71  72
ATOM     72  S   UNL A   1      33.167  36.314  31.632  1.00  0.00     0.124 S 
ATOM     73  O   UNL A   1      33.420  37.458  32.504  1.00  0.00    -0.237 OA
ATOM     74  O   UNL A   1      33.529  36.500  30.230  1.00  0.00    -0.237 OA
ATOM     75  O   UNL A   1      31.900  35.627  31.860  1.00  0.00    -0.744 OA
ENDBRANCH  71  72
ENDBRANCH  39  64
ENDBRANCH  13  14
ENDBRANCH   6   8
ENDBRANCH   5   6
ENDBRANCH   4   5
ENDBRANCH   3   4
ENDBRANCH   2   3
ENDBRANCH   1   2
BRANCH   1  76
ATOM     76  C   UNL A   1      46.989  42.007  28.955  1.00  0.00     0.188 C 
BRANCH  76  77
ATOM     77  O   UNL A   1      46.294  42.077  27.711  1.00  0.00    -0.376 OA
BRANCH  77  78
ATOM     78  C   UNL A   1      46.976  42.462  26.534  1.00  0.00     0.202 C 
BRANCH  78  79
ATOM     79  C   UNL A   1      46.039  42.975  25.439  1.00  0.00     0.261 C 
BRANCH  79  80
ATOM     80  O   UNL A   1      46.688  43.211  24.181  1.00  0.00    -0.459 OA
BRANCH  80  81
ATOM     81  C   UNL A   1      46.324  42.382  23.172  1.00  0.00     0.357 C 
ATOM     82  O   UNL A   1      46.607  41.192  23.043  1.00  0.00    -0.244 OA
BRANCH  81  83
ATOM     83  C   UNL A   1      45.590  43.157  22.152  1.00  0.00     0.149 A 
ATOM     84  C   UNL A   1      46.320  43.832  21.211  1.00  0.00     0.041 A 
ATOM     85  N   UNL A   1      44.255  43.046  22.093  1.00  0.00    -0.241 NA
ATOM     86  C   UNL A   1      45.678  44.341  20.057  1.00  0.00    -0.021 A 
ATOM     87  C   UNL A   1      43.615  43.563  21.035  1.00  0.00     0.072 A 
ATOM     88  C   UNL A   1      44.238  44.183  19.905  1.00  0.00     0.012 A 
ATOM     89  C   UNL A   1      42.248  43.395  21.094  1.00  0.00     0.029 A 
ATOM     90  C   UNL A   1      43.343  44.499  18.766  1.00  0.00    -0.009 A 
ATOM     91  C   UNL A   1      41.411  43.768  20.054  1.00  0.00     0.011 A 
ATOM     92  C   UNL A   1      41.939  44.290  18.885  1.00  0.00    -0.018 A 
ATOM     93  C   UNL A   1      43.734  44.966  17.487  1.00  0.00     0.009 A 
ATOM     94  C   UNL A   1      41.043  44.568  17.834  1.00  0.00     0.009 A 
ATOM     95  C   UNL A   1      42.846  45.235  16.435  1.00  0.00     0.001 A 
ATOM     96  C   UNL A   1      41.493  45.040  16.611  1.00  0.00     0.001 A 
BRANCH  86  97
ATOM     97  C   UNL A   1      46.696  44.865  19.072  1.00  0.00     0.115 C 
ATOM     98  C   UNL A   1      48.072  44.321  19.052  1.00  0.00     0.123 C 
ATOM     99  C   UNL A   1      47.025  46.325  19.028  1.00  0.00     0.083 C 
ATOM    100  N   UNL A   1      48.958  45.236  18.814  1.00  0.00    -0.162 NA
ATOM    101  N   UNL A   1      48.292  46.514  18.790  1.00  0.00    -0.154 NA
BRANCH  99 102
ATOM    102  C   UNL A   1      46.029  47.418  19.094  1.00  0.00    -0.001 A 
ATOM    103  C   UNL A   1      45.518  47.916  17.889  1.00  0.00     0.013 A 
ATOM    104  C   UNL A   1      45.602  47.985  20.302  1.00  0.00     0.013 A 
ATOM    105  C   UNL A   1      44.567  48.940  17.900  1.00  0.00     0.040 A 
ATOM    106  C   UNL A   1      44.645  49.002  20.312  1.00  0.00     0.040 A 
ATOM    107  C   UNL A   1      44.134  49.469  19.110  1.00  0.00     0.123 A 
ATOM    108  F   UNL A   1      43.223  50.450  19.117  1.00  0.00    -0.207 F 
ENDBRANCH  99 102
ENDBRANCH  86  97
ENDBRANCH  81  83
ENDBRANCH  80  81
ENDBRANCH  79  80
ENDBRANCH  78  79
ENDBRANCH  77  78
ENDBRANCH  76  77
ENDBRANCH   1  76
TORSDOF 22
ENDMDL
