MODEL 1
REMARK VINA RESULT:     -11.8      0.000      0.000
REMARK SMILES Cc1n[nH]c(C[N@H+]2CCC[C@H](c3cccc(C(=O)OCCOCCOCCOC(=O)c4ccc(-c5c6nc(c(-c7c(F)cc(S(=O)(=O)[O-])cc7F)c7ccc([nH]7)c(-c7c(F)cc(S(=O)(=O)[O-])cc7F)c7nc(c(-c8c(F)cc(S(=O)(=O)[O-])cc8F)c8ccc5[nH]8)C=C7)C=C6)cc4)c3)C2)n1
REMARK SMILES IDX 23 1 22 2 21 3 20 4 19 5 17 6 18 7 16 8 12 9 13 10 97 11
REMARK SMILES IDX 14 12 15 13 11 14 7 15 8 16 98 17 9 19 10 20 6 21 5 22 1 23
REMARK SMILES IDX 2 24 3 25 99 26 4 27 24 29 25 30 26 31 27 32 28 33 29 34
REMARK SMILES IDX 30 35 31 36 32 37 96 38 33 39 95 40 34 41 35 42 36 43 89 44
REMARK SMILES IDX 37 45 94 46 88 47 90 48 38 49 93 50 87 51 86 52 39 54 73 55
REMARK SMILES IDX 52 56 72 57 53 58 56 59 71 60 91 61 54 62 55 63 70 65 92 66
REMARK SMILES IDX 57 67 40 68 41 69 50 70 42 71 43 72 49 73 51 74 44 75 45 76
REMARK SMILES IDX 46 77 47 78 48 79 74 80 75 81 84 82 76 83 77 84 83 85 85 86
REMARK SMILES IDX 78 87 79 88 80 89 81 90 82 91 58 92 59 93 68 94 60 95 61 96
REMARK SMILES IDX 67 97 69 98 62 99 63 100 64 101 65 102 66 103
REMARK H PARENT 7 18 4 28 90 53 56 64
REMARK Flexibility Score: inf
ROOT
ATOM      1  C   UNL A   1      39.038  21.995  25.927  1.00  0.00     0.188 C 
ENDROOT
BRANCH   1   2
ATOM      2  O   UNL A   1      38.058  21.115  25.423  1.00  0.00    -0.376 OA
BRANCH   2   3
ATOM      3  C   UNL A   1      36.789  21.579  24.998  1.00  0.00     0.202 C 
BRANCH   3   4
ATOM      4  C   UNL A   1      35.944  22.657  25.708  1.00  0.00     0.261 C 
BRANCH   4   5
ATOM      5  O   UNL A   1      35.882  23.944  25.091  1.00  0.00    -0.460 OA
BRANCH   5   6
ATOM      6  C   UNL A   1      34.870  24.140  24.215  1.00  0.00     0.338 C 
ATOM      7  O   UNL A   1      34.770  23.680  23.088  1.00  0.00    -0.246 OA
BRANCH   6   8
ATOM      8  C   UNL A   1      33.771  24.842  24.910  1.00  0.00     0.060 A 
ATOM      9  C   UNL A   1      32.622  26.890  25.570  1.00  0.00    -0.038 A 
ATOM     10  C   UNL A   1      31.773  26.104  26.369  1.00  0.00     0.004 A 
ATOM     11  C   UNL A   1      33.669  26.238  24.892  1.00  0.00     0.020 A 
ATOM     12  C   UNL A   1      31.896  24.713  26.417  1.00  0.00     0.001 A 
ATOM     13  C   UNL A   1      32.874  24.079  25.662  1.00  0.00     0.016 A 
BRANCH   9  14
ATOM     14  C   UNL A   1      32.432  28.402  25.411  1.00  0.00     0.074 C 
ATOM     15  N   UNL A   1      30.774  28.371  23.522  1.00  0.00    -0.328 N 
ATOM     16  C   UNL A   1      31.774  28.868  22.571  1.00  0.00     0.262 C 
ATOM     17  C   UNL A   1      31.037  28.847  24.899  1.00  0.00     0.270 C 
ATOM     18  H   UNL A   1      30.874  27.356  23.530  1.00  0.00     0.348 HD
ATOM     19  C   UNL A   1      33.204  28.545  23.010  1.00  0.00     0.062 C 
ATOM     20  C   UNL A   1      33.464  29.022  24.439  1.00  0.00     0.020 C 
BRANCH  15  21
ATOM     21  C   UNL A   1      29.388  28.631  23.097  1.00  0.00     0.340 C 
BRANCH  21  22
ATOM     22  C   UNL A   1      29.170  29.980  22.500  1.00  0.00     0.179 A 
ATOM     23  C   UNL A   1      27.914  32.343  20.216  1.00  0.00     0.092 C 
ATOM     24  C   UNL A   1      28.540  31.621  21.339  1.00  0.00     0.147 A 
ATOM     25  N   UNL A   1      28.888  32.200  22.495  1.00  0.00    -0.159 NA
ATOM     26  N   UNL A   1      28.743  30.271  21.290  1.00  0.00    -0.211 NA
ATOM     27  N   UNL A   1      29.304  31.139  23.208  1.00  0.00    -0.258 N 
ATOM     28  H   UNL A   1      29.661  31.192  24.124  1.00  0.00     0.192 HD
ENDBRANCH  21  22
ENDBRANCH  15  21
ENDBRANCH   9  14
ENDBRANCH   6   8
ENDBRANCH   5   6
ENDBRANCH   4   5
ENDBRANCH   3   4
ENDBRANCH   2   3
ENDBRANCH   1   2
BRANCH   1  29
ATOM     29  C   UNL A   1      40.334  21.443  26.552  1.00  0.00     0.188 C 
BRANCH  29  30
ATOM     30  O   UNL A   1      40.546  20.049  26.594  1.00  0.00    -0.376 OA
BRANCH  30  31
ATOM     31  C   UNL A   1      41.799  19.470  26.912  1.00  0.00     0.202 C 
BRANCH  31  32
ATOM     32  C   UNL A   1      42.939  19.179  25.938  1.00  0.00     0.261 C 
BRANCH  32  33
ATOM     33  O   UNL A   1      43.240  20.182  24.995  1.00  0.00    -0.460 OA
BRANCH  33  34
ATOM     34  C   UNL A   1      44.553  20.488  24.958  1.00  0.00     0.338 C 
ATOM     35  O   UNL A   1      45.491  19.708  24.909  1.00  0.00    -0.246 OA
BRANCH  34  36
ATOM     36  C   UNL A   1      44.704  21.931  25.112  1.00  0.00     0.060 A 
ATOM     37  C   UNL A   1      45.631  22.357  26.062  1.00  0.00     0.016 A 
ATOM     38  C   UNL A   1      43.710  22.771  24.590  1.00  0.00     0.016 A 
ATOM     39  C   UNL A   1      45.409  23.566  26.671  1.00  0.00     0.010 A 
ATOM     40  C   UNL A   1      43.481  23.972  25.211  1.00  0.00     0.010 A 
ATOM     41  C   UNL A   1      44.279  24.307  26.300  1.00  0.00    -0.014 A 
BRANCH  41  42
ATOM     42  C   UNL A   1      44.031  25.535  27.017  1.00  0.00     0.031 A 
ATOM     43  C   UNL A   1      45.093  26.520  26.750  1.00  0.00     0.074 A 
ATOM     44  C   UNL A   1      42.922  25.742  27.753  1.00  0.00     0.049 A 
ATOM     45  N   UNL A   1      46.054  26.867  27.538  1.00  0.00    -0.248 NA
ATOM     46  C   UNL A   1      45.255  26.996  25.363  1.00  0.00     0.031 C 
ATOM     47  C   UNL A   1      41.722  24.897  27.788  1.00  0.00     0.029 A 
ATOM     48  N   UNL A   1      42.574  26.800  28.540  1.00  0.00    -0.354 N 
ATOM     49  C   UNL A   1      46.717  27.873  26.847  1.00  0.00     0.074 A 
ATOM     50  C   UNL A   1      46.379  27.709  25.460  1.00  0.00     0.031 C 
ATOM     51  C   UNL A   1      40.707  25.589  28.352  1.00  0.00     0.029 A 
ATOM     52  C   UNL A   1      41.216  26.859  28.842  1.00  0.00     0.049 A 
ATOM     53  H   UNL A   1      43.225  27.461  28.866  1.00  0.00     0.167 HD
ATOM     54  C   UNL A   1      47.104  28.989  27.519  1.00  0.00     0.037 A 
ATOM     55  C   UNL A   1      40.557  27.907  29.398  1.00  0.00     0.037 A 
ATOM     56  C   UNL A   1      47.131  28.752  28.940  1.00  0.00     0.049 A 
ATOM     57  C   UNL A   1      41.559  28.725  30.126  1.00  0.00     0.074 A 
ATOM     58  C   UNL A   1      47.927  28.063  29.829  1.00  0.00     0.029 A 
ATOM     59  N   UNL A   1      45.923  28.958  29.550  1.00  0.00    -0.354 N 
ATOM     60  N   UNL A   1      42.209  28.294  31.174  1.00  0.00    -0.248 NA
ATOM     61  C   UNL A   1      42.122  29.910  29.488  1.00  0.00     0.031 C 
ATOM     62  C   UNL A   1      47.115  27.785  30.969  1.00  0.00     0.029 A 
ATOM     63  C   UNL A   1      45.855  28.344  30.772  1.00  0.00     0.049 A 
ATOM     64  H   UNL A   1      45.190  29.484  29.157  1.00  0.00     0.167 HD
ATOM     65  C   UNL A   1      43.459  28.870  31.060  1.00  0.00     0.074 A 
ATOM     66  C   UNL A   1      43.294  29.976  30.127  1.00  0.00     0.031 C 
ATOM     67  C   UNL A   1      44.580  28.194  31.441  1.00  0.00     0.037 A 
BRANCH  54  68
ATOM     68  C   UNL A   1      46.916  30.386  26.966  1.00  0.00     0.058 A 
ATOM     69  C   UNL A   1      48.002  31.281  26.974  1.00  0.00     0.135 A 
ATOM     70  C   UNL A   1      45.654  30.968  26.695  1.00  0.00     0.135 A 
ATOM     71  F   UNL A   1      49.238  30.848  27.272  1.00  0.00    -0.206 F 
ATOM     72  C   UNL A   1      47.844  32.649  26.738  1.00  0.00     0.059 A 
ATOM     73  C   UNL A   1      45.482  32.311  26.398  1.00  0.00     0.059 A 
ATOM     74  F   UNL A   1      44.508  30.286  26.800  1.00  0.00    -0.206 F 
ATOM     75  C   UNL A   1      46.577  33.153  26.447  1.00  0.00     0.060 A 
BRANCH  75  76
ATOM     76  S   UNL A   1      46.357  34.916  26.163  1.00  0.00     0.124 S 
ATOM     77  O   UNL A   1      47.579  35.251  25.443  1.00  0.00    -0.237 OA
ATOM     78  O   UNL A   1      45.123  34.943  25.385  1.00  0.00    -0.237 OA
ATOM     79  O   UNL A   1      46.248  35.460  27.514  1.00  0.00    -0.744 OA
ENDBRANCH  75  76
ENDBRANCH  54  68
BRANCH  55  80
ATOM     80  C   UNL A   1      39.193  28.413  29.082  1.00  0.00     0.058 A 
ATOM     81  C   UNL A   1      38.214  28.538  30.086  1.00  0.00     0.135 A 
ATOM     82  C   UNL A   1      38.914  29.063  27.863  1.00  0.00     0.135 A 
ATOM     83  F   UNL A   1      38.399  27.960  31.284  1.00  0.00    -0.206 F 
ATOM     84  C   UNL A   1      37.064  29.317  29.918  1.00  0.00     0.059 A 
ATOM     85  C   UNL A   1      37.769  29.835  27.668  1.00  0.00     0.059 A 
ATOM     86  F   UNL A   1      39.792  29.046  26.850  1.00  0.00    -0.206 F 
ATOM     87  C   UNL A   1      36.863  29.984  28.711  1.00  0.00     0.060 A 
BRANCH  87  88
ATOM     88  S   UNL A   1      35.486  31.146  28.553  1.00  0.00     0.124 S 
ATOM     89  O   UNL A   1      35.257  31.530  29.943  1.00  0.00    -0.237 OA
ATOM     90  O   UNL A   1      36.049  32.179  27.691  1.00  0.00    -0.237 OA
ATOM     91  O   UNL A   1      34.430  30.339  27.947  1.00  0.00    -0.744 OA
ENDBRANCH  87  88
ENDBRANCH  55  80
BRANCH  67  92
ATOM     92  C   UNL A   1      44.448  27.174  32.533  1.00  0.00     0.058 A 
ATOM     93  C   UNL A   1      44.340  27.453  33.905  1.00  0.00     0.135 A 
ATOM     94  C   UNL A   1      44.383  25.826  32.145  1.00  0.00     0.135 A 
ATOM     95  F   UNL A   1      44.311  28.719  34.351  1.00  0.00    -0.206 F 
ATOM     96  C   UNL A   1      44.221  26.431  34.851  1.00  0.00     0.059 A 
ATOM     97  C   UNL A   1      44.233  24.796  33.063  1.00  0.00     0.059 A 
ATOM     98  F   UNL A   1      44.440  25.497  30.842  1.00  0.00    -0.206 F 
ATOM     99  C   UNL A   1      44.172  25.104  34.419  1.00  0.00     0.060 A 
BRANCH  99 100
ATOM    100  S   UNL A   1      43.989  23.780  35.633  1.00  0.00     0.124 S 
ATOM    101  O   UNL A   1      45.271  23.820  36.327  1.00  0.00    -0.237 OA
ATOM    102  O   UNL A   1      42.833  24.220  36.408  1.00  0.00    -0.237 OA
ATOM    103  O   UNL A   1      43.762  22.593  34.812  1.00  0.00    -0.744 OA
ENDBRANCH  99 100
ENDBRANCH  67  92
ENDBRANCH  41  42
ENDBRANCH  34  36
ENDBRANCH  33  34
ENDBRANCH  32  33
ENDBRANCH  31  32
ENDBRANCH  30  31
ENDBRANCH  29  30
ENDBRANCH   1  29
TORSDOF 23
ENDMDL
MODEL 2
REMARK VINA RESULT:     -11.2      1.144      2.060
REMARK SMILES Cc1n[nH]c(C[N@H+]2CCC[C@H](c3cccc(C(=O)OCCOCCOCCOC(=O)c4ccc(-c5c6nc(c(-c7c(F)cc(S(=O)(=O)[O-])cc7F)c7ccc([nH]7)c(-c7c(F)cc(S(=O)(=O)[O-])cc7F)c7nc(c(-c8c(F)cc(S(=O)(=O)[O-])cc8F)c8ccc5[nH]8)C=C7)C=C6)cc4)c3)C2)n1
REMARK SMILES IDX 23 1 22 2 21 3 20 4 19 5 17 6 18 7 16 8 12 9 13 10 97 11
REMARK SMILES IDX 14 12 15 13 11 14 7 15 8 16 98 17 9 19 10 20 6 21 5 22 1 23
REMARK SMILES IDX 2 24 3 25 99 26 4 27 24 29 25 30 26 31 27 32 28 33 29 34
REMARK SMILES IDX 30 35 31 36 32 37 96 38 33 39 95 40 34 41 35 42 36 43 89 44
REMARK SMILES IDX 37 45 94 46 88 47 90 48 38 49 93 50 87 51 86 52 39 54 73 55
REMARK SMILES IDX 52 56 72 57 53 58 56 59 71 60 91 61 54 62 55 63 70 65 92 66
REMARK SMILES IDX 57 67 40 68 41 69 50 70 42 71 43 72 49 73 51 74 44 75 45 76
REMARK SMILES IDX 46 77 47 78 48 79 74 80 75 81 84 82 76 83 77 84 83 85 85 86
REMARK SMILES IDX 78 87 79 88 80 89 81 90 82 91 58 92 59 93 68 94 60 95 61 96
REMARK SMILES IDX 67 97 69 98 62 99 63 100 64 101 65 102 66 103
REMARK H PARENT 7 18 4 28 90 53 56 64
REMARK Flexibility Score: inf
ROOT
ATOM      1  C   UNL A   1      41.948  20.352  26.901  1.00  0.00     0.188 C 
ENDROOT
BRANCH   1   2
ATOM      2  O   UNL A   1      41.416  21.600  26.515  1.00  0.00    -0.376 OA
BRANCH   2   3
ATOM      3  C   UNL A   1      40.058  21.931  26.744  1.00  0.00     0.202 C 
BRANCH   3   4
ATOM      4  C   UNL A   1      38.906  21.744  25.734  1.00  0.00     0.261 C 
BRANCH   4   5
ATOM      5  O   UNL A   1      37.618  22.221  26.124  1.00  0.00    -0.460 OA
BRANCH   5   6
ATOM      6  C   UNL A   1      36.563  21.720  25.441  1.00  0.00     0.338 C 
ATOM      7  O   UNL A   1      36.497  20.643  24.871  1.00  0.00    -0.246 OA
BRANCH   6   8
ATOM      8  C   UNL A   1      35.395  22.600  25.663  1.00  0.00     0.060 A 
ATOM      9  C   UNL A   1      34.148  24.648  25.223  1.00  0.00    -0.038 A 
ATOM     10  C   UNL A   1      33.259  24.274  26.246  1.00  0.00     0.004 A 
ATOM     11  C   UNL A   1      35.260  23.819  24.991  1.00  0.00     0.020 A 
ATOM     12  C   UNL A   1      33.412  23.074  26.944  1.00  0.00     0.001 A 
ATOM     13  C   UNL A   1      34.461  22.220  26.630  1.00  0.00     0.016 A 
BRANCH   9  14
ATOM     14  C   UNL A   1      33.933  25.900  24.367  1.00  0.00     0.074 C 
ATOM     15  N   UNL A   1      31.425  25.821  24.216  1.00  0.00    -0.328 N 
ATOM     16  C   UNL A   1      31.474  25.431  22.802  1.00  0.00     0.262 C 
ATOM     17  C   UNL A   1      32.592  26.646  24.602  1.00  0.00     0.270 C 
ATOM     18  H   UNL A   1      31.480  24.953  24.749  1.00  0.00     0.348 HD
ATOM     19  C   UNL A   1      32.790  24.743  22.434  1.00  0.00     0.062 C 
ATOM     20  C   UNL A   1      33.992  25.590  22.853  1.00  0.00     0.020 C 
BRANCH  15  21
ATOM     21  C   UNL A   1      30.148  26.445  24.603  1.00  0.00     0.340 C 
BRANCH  21  22
ATOM     22  C   UNL A   1      29.792  27.659  23.814  1.00  0.00     0.179 A 
ATOM     23  C   UNL A   1      27.692  29.905  22.105  1.00  0.00     0.092 C 
ATOM     24  C   UNL A   1      28.800  29.199  22.774  1.00  0.00     0.147 A 
ATOM     25  N   UNL A   1      29.942  29.789  23.147  1.00  0.00    -0.159 NA
ATOM     26  N   UNL A   1      28.694  27.883  23.124  1.00  0.00    -0.211 NA
ATOM     27  N   UNL A   1      30.564  28.784  23.788  1.00  0.00    -0.258 N 
ATOM     28  H   UNL A   1      31.461  28.851  24.186  1.00  0.00     0.192 HD
ENDBRANCH  21  22
ENDBRANCH  15  21
ENDBRANCH   9  14
ENDBRANCH   6   8
ENDBRANCH   5   6
ENDBRANCH   4   5
ENDBRANCH   3   4
ENDBRANCH   2   3
ENDBRANCH   1   2
BRANCH   1  29
ATOM     29  C   UNL A   1      41.710  19.101  26.032  1.00  0.00     0.188 C 
BRANCH  29  30
ATOM     30  O   UNL A   1      42.730  18.134  25.912  1.00  0.00    -0.376 OA
BRANCH  30  31
ATOM     31  C   UNL A   1      44.051  18.454  25.515  1.00  0.00     0.202 C 
BRANCH  31  32
ATOM     32  C   UNL A   1      44.489  18.967  24.144  1.00  0.00     0.261 C 
BRANCH  32  33
ATOM     33  O   UNL A   1      44.461  20.363  23.951  1.00  0.00    -0.460 OA
BRANCH  33  34
ATOM     34  C   UNL A   1      45.631  20.957  24.259  1.00  0.00     0.338 C 
ATOM     35  O   UNL A   1      46.699  20.410  24.485  1.00  0.00    -0.246 OA
BRANCH  34  36
ATOM     36  C   UNL A   1      45.406  22.391  24.406  1.00  0.00     0.060 A 
ATOM     37  C   UNL A   1      46.452  23.126  24.962  1.00  0.00     0.016 A 
ATOM     38  C   UNL A   1      44.093  22.878  24.326  1.00  0.00     0.016 A 
ATOM     39  C   UNL A   1      46.131  24.263  25.660  1.00  0.00     0.010 A 
ATOM     40  C   UNL A   1      43.773  24.005  25.038  1.00  0.00     0.010 A 
ATOM     41  C   UNL A   1      44.782  24.626  25.767  1.00  0.00    -0.014 A 
BRANCH  41  42
ATOM     42  C   UNL A   1      44.472  25.781  26.576  1.00  0.00     0.031 A 
ATOM     43  C   UNL A   1      45.483  26.837  26.389  1.00  0.00     0.074 A 
ATOM     44  C   UNL A   1      43.355  25.874  27.322  1.00  0.00     0.049 A 
ATOM     45  N   UNL A   1      46.425  27.171  27.204  1.00  0.00    -0.248 NA
ATOM     46  C   UNL A   1      45.618  27.427  25.043  1.00  0.00     0.031 C 
ATOM     47  C   UNL A   1      42.201  24.968  27.289  1.00  0.00     0.029 A 
ATOM     48  N   UNL A   1      42.954  26.849  28.188  1.00  0.00    -0.354 N 
ATOM     49  C   UNL A   1      47.035  28.260  26.595  1.00  0.00     0.074 A 
ATOM     50  C   UNL A   1      46.705  28.186  25.198  1.00  0.00     0.031 C 
ATOM     51  C   UNL A   1      41.151  25.562  27.901  1.00  0.00     0.029 A 
ATOM     52  C   UNL A   1      41.595  26.814  28.489  1.00  0.00     0.049 A 
ATOM     53  H   UNL A   1      43.571  27.515  28.566  1.00  0.00     0.167 HD
ATOM     54  C   UNL A   1      47.365  29.339  27.352  1.00  0.00     0.037 A 
ATOM     55  C   UNL A   1      40.884  27.781  29.123  1.00  0.00     0.037 A 
ATOM     56  C   UNL A   1      47.405  28.994  28.750  1.00  0.00     0.049 A 
ATOM     57  C   UNL A   1      41.843  28.591  29.915  1.00  0.00     0.074 A 
ATOM     58  C   UNL A   1      48.237  28.281  29.586  1.00  0.00     0.029 A 
ATOM     59  N   UNL A   1      46.189  29.090  29.371  1.00  0.00    -0.354 N 
ATOM     60  N   UNL A   1      42.516  28.114  30.928  1.00  0.00    -0.248 NA
ATOM     61  C   UNL A   1      42.345  29.849  29.372  1.00  0.00     0.031 C 
ATOM     62  C   UNL A   1      47.441  27.874  30.698  1.00  0.00     0.029 A 
ATOM     63  C   UNL A   1      46.154  28.381  30.542  1.00  0.00     0.049 A 
ATOM     64  H   UNL A   1      45.430  29.607  29.017  1.00  0.00     0.167 HD
ATOM     65  C   UNL A   1      43.734  28.760  30.863  1.00  0.00     0.074 A 
ATOM     66  C   UNL A   1      43.512  29.925  30.017  1.00  0.00     0.031 C 
ATOM     67  C   UNL A   1      44.890  28.115  31.194  1.00  0.00     0.037 A 
BRANCH  54  68
ATOM     68  C   UNL A   1      47.105  30.764  26.908  1.00  0.00     0.058 A 
ATOM     69  C   UNL A   1      48.136  31.715  27.011  1.00  0.00     0.135 A 
ATOM     70  C   UNL A   1      45.816  31.292  26.655  1.00  0.00     0.135 A 
ATOM     71  F   UNL A   1      49.390  31.331  27.302  1.00  0.00    -0.206 F 
ATOM     72  C   UNL A   1      47.902  33.086  26.882  1.00  0.00     0.059 A 
ATOM     73  C   UNL A   1      45.570  32.643  26.463  1.00  0.00     0.059 A 
ATOM     74  F   UNL A   1      44.711  30.539  26.680  1.00  0.00    -0.206 F 
ATOM     75  C   UNL A   1      46.613  33.539  26.604  1.00  0.00     0.060 A 
BRANCH  75  76
ATOM     76  S   UNL A   1      46.295  35.304  26.456  1.00  0.00     0.124 S 
ATOM     77  O   UNL A   1      45.021  35.312  25.749  1.00  0.00    -0.237 OA
ATOM     78  O   UNL A   1      46.258  35.720  27.855  1.00  0.00    -0.237 OA
ATOM     79  O   UNL A   1      47.445  35.787  25.697  1.00  0.00    -0.744 OA
ENDBRANCH  75  76
ENDBRANCH  54  68
BRANCH  55  80
ATOM     80  C   UNL A   1      39.496  28.240  28.843  1.00  0.00     0.058 A 
ATOM     81  C   UNL A   1      38.510  28.226  29.848  1.00  0.00     0.135 A 
ATOM     82  C   UNL A   1      39.184  28.976  27.683  1.00  0.00     0.135 A 
ATOM     83  F   UNL A   1      38.723  27.558  30.993  1.00  0.00    -0.206 F 
ATOM     84  C   UNL A   1      37.320  28.955  29.740  1.00  0.00     0.059 A 
ATOM     85  C   UNL A   1      38.000  29.701  27.547  1.00  0.00     0.059 A 
ATOM     86  F   UNL A   1      40.064  29.093  26.677  1.00  0.00    -0.206 F 
ATOM     87  C   UNL A   1      37.086  29.711  28.593  1.00  0.00     0.060 A 
BRANCH  87  88
ATOM     88  S   UNL A   1      35.649  30.808  28.528  1.00  0.00     0.124 S 
ATOM     89  O   UNL A   1      34.618  29.922  27.997  1.00  0.00    -0.237 OA
ATOM     90  O   UNL A   1      35.495  31.201  29.924  1.00  0.00    -0.237 OA
ATOM     91  O   UNL A   1      36.079  31.875  27.626  1.00  0.00    -0.744 OA
ENDBRANCH  87  88
ENDBRANCH  55  80
BRANCH  67  92
ATOM     92  C   UNL A   1      44.811  27.008  32.203  1.00  0.00     0.058 A 
ATOM     93  C   UNL A   1      44.614  25.648  31.912  1.00  0.00     0.135 A 
ATOM     94  C   UNL A   1      44.991  27.357  33.550  1.00  0.00     0.135 A 
ATOM     95  F   UNL A   1      44.514  25.222  30.643  1.00  0.00    -0.206 F 
ATOM     96  C   UNL A   1      44.552  24.687  32.924  1.00  0.00     0.059 A 
ATOM     97  C   UNL A   1      44.967  26.415  34.570  1.00  0.00     0.059 A 
ATOM     98  F   UNL A   1      45.224  28.638  33.889  1.00  0.00    -0.206 F 
ATOM     99  C   UNL A   1      44.727  25.082  34.253  1.00  0.00     0.060 A 
BRANCH  99 100
ATOM    100  S   UNL A   1      44.679  23.842  35.563  1.00  0.00     0.124 S 
ATOM    101  O   UNL A   1      45.271  22.680  34.909  1.00  0.00    -0.237 OA
ATOM    102  O   UNL A   1      45.486  24.459  36.611  1.00  0.00    -0.237 OA
ATOM    103  O   UNL A   1      43.256  23.725  35.871  1.00  0.00    -0.744 OA
ENDBRANCH  99 100
ENDBRANCH  67  92
ENDBRANCH  41  42
ENDBRANCH  34  36
ENDBRANCH  33  34
ENDBRANCH  32  33
ENDBRANCH  31  32
ENDBRANCH  30  31
ENDBRANCH  29  30
ENDBRANCH   1  29
TORSDOF 23
ENDMDL
MODEL 3
REMARK VINA RESULT:     -10.5      3.321      9.860
REMARK SMILES Cc1n[nH]c(C[N@H+]2CCC[C@H](c3cccc(C(=O)OCCOCCOCCOC(=O)c4ccc(-c5c6nc(c(-c7c(F)cc(S(=O)(=O)[O-])cc7F)c7ccc([nH]7)c(-c7c(F)cc(S(=O)(=O)[O-])cc7F)c7nc(c(-c8c(F)cc(S(=O)(=O)[O-])cc8F)c8ccc5[nH]8)C=C7)C=C6)cc4)c3)C2)n1
REMARK SMILES IDX 23 1 22 2 21 3 20 4 19 5 17 6 18 7 16 8 12 9 13 10 97 11
REMARK SMILES IDX 14 12 15 13 11 14 7 15 8 16 98 17 9 19 10 20 6 21 5 22 1 23
REMARK SMILES IDX 2 24 3 25 99 26 4 27 24 29 25 30 26 31 27 32 28 33 29 34
REMARK SMILES IDX 30 35 31 36 32 37 96 38 33 39 95 40 34 41 35 42 36 43 89 44
REMARK SMILES IDX 37 45 94 46 88 47 90 48 38 49 93 50 87 51 86 52 39 54 73 55
REMARK SMILES IDX 52 56 72 57 53 58 56 59 71 60 91 61 54 62 55 63 70 65 92 66
REMARK SMILES IDX 57 67 40 68 41 69 50 70 42 71 43 72 49 73 51 74 44 75 45 76
REMARK SMILES IDX 46 77 47 78 48 79 74 80 75 81 84 82 76 83 77 84 83 85 85 86
REMARK SMILES IDX 78 87 79 88 80 89 81 90 82 91 58 92 59 93 68 94 60 95 61 96
REMARK SMILES IDX 67 97 69 98 62 99 63 100 64 101 65 102 66 103
REMARK H PARENT 7 18 4 28 90 53 56 64
REMARK Flexibility Score: inf
ROOT
ATOM      1  C   UNL A   1      32.080  29.488  26.104  1.00  0.00     0.188 C 
ENDROOT
BRANCH   1   2
ATOM      2  O   UNL A   1      32.077  29.401  24.696  1.00  0.00    -0.376 OA
BRANCH   2   3
ATOM      3  C   UNL A   1      33.065  28.670  23.994  1.00  0.00     0.202 C 
BRANCH   3   4
ATOM      4  C   UNL A   1      33.305  28.719  22.470  1.00  0.00     0.261 C 
BRANCH   4   5
ATOM      5  O   UNL A   1      33.561  27.478  21.813  1.00  0.00    -0.460 OA
BRANCH   5   6
ATOM      6  C   UNL A   1      32.554  26.573  21.828  1.00  0.00     0.338 C 
ATOM      7  O   UNL A   1      31.448  26.693  21.325  1.00  0.00    -0.246 OA
BRANCH   6   8
ATOM      8  C   UNL A   1      33.068  25.302  22.380  1.00  0.00     0.060 A 
ATOM      9  C   UNL A   1      34.207  24.033  24.122  1.00  0.00    -0.038 A 
ATOM     10  C   UNL A   1      34.148  22.908  23.281  1.00  0.00     0.004 A 
ATOM     11  C   UNL A   1      33.714  25.251  23.619  1.00  0.00     0.020 A 
ATOM     12  C   UNL A   1      33.535  22.966  22.027  1.00  0.00     0.001 A 
ATOM     13  C   UNL A   1      32.965  24.154  21.589  1.00  0.00     0.016 A 
BRANCH   9  14
ATOM     14  C   UNL A   1      34.770  23.964  25.546  1.00  0.00     0.074 C 
ATOM     15  N   UNL A   1      33.392  22.041  26.396  1.00  0.00    -0.328 N 
ATOM     16  C   UNL A   1      32.596  22.926  27.254  1.00  0.00     0.262 C 
ATOM     17  C   UNL A   1      34.766  22.554  26.196  1.00  0.00     0.270 C 
ATOM     18  H   UNL A   1      32.933  22.045  25.485  1.00  0.00     0.348 HD
ATOM     19  C   UNL A   1      32.584  24.369  26.746  1.00  0.00     0.062 C 
ATOM     20  C   UNL A   1      34.004  24.888  26.522  1.00  0.00     0.020 C 
BRANCH  15  21
ATOM     21  C   UNL A   1      33.381  20.636  26.841  1.00  0.00     0.340 C 
BRANCH  21  22
ATOM     22  C   UNL A   1      32.895  19.670  25.814  1.00  0.00     0.179 A 
ATOM     23  C   UNL A   1      32.308  18.404  22.585  1.00  0.00     0.092 C 
ATOM     24  C   UNL A   1      32.446  18.637  24.034  1.00  0.00     0.147 A 
ATOM     25  N   UNL A   1      32.414  17.663  24.952  1.00  0.00    -0.159 NA
ATOM     26  N   UNL A   1      32.691  19.885  24.533  1.00  0.00    -0.211 NA
ATOM     27  N   UNL A   1      32.682  18.348  26.077  1.00  0.00    -0.258 N 
ATOM     28  H   UNL A   1      32.719  17.947  26.975  1.00  0.00     0.192 HD
ENDBRANCH  21  22
ENDBRANCH  15  21
ENDBRANCH   9  14
ENDBRANCH   6   8
ENDBRANCH   5   6
ENDBRANCH   4   5
ENDBRANCH   3   4
ENDBRANCH   2   3
ENDBRANCH   1   2
BRANCH   1  29
ATOM     29  C   UNL A   1      32.757  30.680  26.809  1.00  0.00     0.188 C 
BRANCH  29  30
ATOM     30  O   UNL A   1      32.011  31.849  27.068  1.00  0.00    -0.376 OA
BRANCH  30  31
ATOM     31  C   UNL A   1      32.611  33.090  27.393  1.00  0.00     0.202 C 
BRANCH  31  32
ATOM     32  C   UNL A   1      33.455  33.395  28.629  1.00  0.00     0.261 C 
BRANCH  32  33
ATOM     33  O   UNL A   1      34.338  32.385  29.060  1.00  0.00    -0.460 OA
BRANCH  33  34
ATOM     34  C   UNL A   1      35.527  32.424  28.425  1.00  0.00     0.338 C 
ATOM     35  O   UNL A   1      35.777  32.966  27.360  1.00  0.00    -0.246 OA
BRANCH  34  36
ATOM     36  C   UNL A   1      36.479  31.596  29.158  1.00  0.00     0.060 A 
ATOM     37  C   UNL A   1      37.500  32.272  29.824  1.00  0.00     0.016 A 
ATOM     38  C   UNL A   1      36.534  30.224  28.875  1.00  0.00     0.016 A 
ATOM     39  C   UNL A   1      38.692  31.615  29.996  1.00  0.00     0.010 A 
ATOM     40  C   UNL A   1      37.731  29.574  29.035  1.00  0.00     0.010 A 
ATOM     41  C   UNL A   1      38.814  30.307  29.508  1.00  0.00    -0.014 A 
BRANCH  41  42
ATOM     42  C   UNL A   1      40.106  29.674  29.633  1.00  0.00     0.031 A 
ATOM     43  C   UNL A   1      40.490  29.546  31.050  1.00  0.00     0.074 A 
ATOM     44  C   UNL A   1      40.795  29.203  28.577  1.00  0.00     0.049 A 
ATOM     45  N   UNL A   1      41.357  30.253  31.692  1.00  0.00    -0.248 NA
ATOM     46  C   UNL A   1      39.645  28.703  31.916  1.00  0.00     0.031 C 
ATOM     47  C   UNL A   1      40.301  29.052  27.203  1.00  0.00     0.029 A 
ATOM     48  N   UNL A   1      42.042  28.654  28.515  1.00  0.00    -0.354 N 
ATOM     49  C   UNL A   1      41.399  29.679  32.956  1.00  0.00     0.074 A 
ATOM     50  C   UNL A   1      40.167  28.956  33.118  1.00  0.00     0.031 C 
ATOM     51  C   UNL A   1      41.136  28.240  26.517  1.00  0.00     0.029 A 
ATOM     52  C   UNL A   1      42.287  27.933  27.349  1.00  0.00     0.049 A 
ATOM     53  H   UNL A   1      42.709  28.759  29.230  1.00  0.00     0.167 HD
ATOM     54  C   UNL A   1      42.605  29.482  33.550  1.00  0.00     0.037 A 
ATOM     55  C   UNL A   1      43.332  27.099  27.119  1.00  0.00     0.037 A 
ATOM     56  C   UNL A   1      43.622  30.297  32.936  1.00  0.00     0.049 A 
ATOM     57  C   UNL A   1      44.426  27.494  28.041  1.00  0.00     0.074 A 
ATOM     58  C   UNL A   1      43.963  31.632  32.914  1.00  0.00     0.029 A 
ATOM     59  N   UNL A   1      44.206  29.710  31.846  1.00  0.00    -0.354 N 
ATOM     60  N   UNL A   1      45.043  28.643  27.969  1.00  0.00    -0.248 NA
ATOM     61  C   UNL A   1      44.613  26.765  29.292  1.00  0.00     0.031 C 
ATOM     62  C   UNL A   1      44.707  31.840  31.714  1.00  0.00     0.029 A 
ATOM     63  C   UNL A   1      44.840  30.625  31.049  1.00  0.00     0.049 A 
ATOM     64  H   UNL A   1      44.174  28.744  31.657  1.00  0.00     0.167 HD
ATOM     65  C   UNL A   1      45.319  28.966  29.283  1.00  0.00     0.074 A 
ATOM     66  C   UNL A   1      45.200  27.717  30.023  1.00  0.00     0.031 C 
ATOM     67  C   UNL A   1      45.263  30.259  29.714  1.00  0.00     0.037 A 
BRANCH  54  68
ATOM     68  C   UNL A   1      42.965  28.200  34.272  1.00  0.00     0.058 A 
ATOM     69  C   UNL A   1      43.319  28.252  35.632  1.00  0.00     0.135 A 
ATOM     70  C   UNL A   1      43.249  26.976  33.618  1.00  0.00     0.135 A 
ATOM     71  F   UNL A   1      43.143  29.381  36.338  1.00  0.00    -0.206 F 
ATOM     72  C   UNL A   1      43.917  27.174  36.290  1.00  0.00     0.059 A 
ATOM     73  C   UNL A   1      43.786  25.873  34.265  1.00  0.00     0.059 A 
ATOM     74  F   UNL A   1      43.116  26.816  32.297  1.00  0.00    -0.206 F 
ATOM     75  C   UNL A   1      44.142  25.987  35.596  1.00  0.00     0.060 A 
BRANCH  75  76
ATOM     76  S   UNL A   1      44.932  24.599  36.425  1.00  0.00     0.124 S 
ATOM     77  O   UNL A   1      44.894  25.031  37.817  1.00  0.00    -0.237 OA
ATOM     78  O   UNL A   1      44.048  23.494  36.069  1.00  0.00    -0.237 OA
ATOM     79  O   UNL A   1      46.256  24.553  35.811  1.00  0.00    -0.744 OA
ENDBRANCH  75  76
ENDBRANCH  54  68
BRANCH  55  80
ATOM     80  C   UNL A   1      43.335  25.801  26.389  1.00  0.00     0.058 A 
ATOM     81  C   UNL A   1      44.202  25.582  25.302  1.00  0.00     0.135 A 
ATOM     82  C   UNL A   1      42.712  24.656  26.923  1.00  0.00     0.135 A 
ATOM     83  F   UNL A   1      44.847  26.614  24.735  1.00  0.00    -0.206 F 
ATOM     84  C   UNL A   1      44.488  24.300  24.820  1.00  0.00     0.059 A 
ATOM     85  C   UNL A   1      42.973  23.370  26.452  1.00  0.00     0.059 A 
ATOM     86  F   UNL A   1      41.898  24.739  27.986  1.00  0.00    -0.206 F 
ATOM     87  C   UNL A   1      43.887  23.195  25.420  1.00  0.00     0.060 A 
BRANCH  87  88
ATOM     88  S   UNL A   1      44.399  21.529  24.936  1.00  0.00     0.124 S 
ATOM     89  O   UNL A   1      44.763  21.721  23.536  1.00  0.00    -0.237 OA
ATOM     90  O   UNL A   1      45.504  21.267  25.852  1.00  0.00    -0.237 OA
ATOM     91  O   UNL A   1      43.200  20.727  25.164  1.00  0.00    -0.744 OA
ENDBRANCH  87  88
ENDBRANCH  55  80
BRANCH  67  92
ATOM     92  C   UNL A   1      45.552  31.343  28.719  1.00  0.00     0.058 A 
ATOM     93  C   UNL A   1      46.830  31.789  28.344  1.00  0.00     0.135 A 
ATOM     94  C   UNL A   1      44.452  31.933  28.078  1.00  0.00     0.135 A 
ATOM     95  F   UNL A   1      47.935  31.220  28.850  1.00  0.00    -0.206 F 
ATOM     96  C   UNL A   1      47.000  32.811  27.405  1.00  0.00     0.059 A 
ATOM     97  C   UNL A   1      44.597  32.927  27.119  1.00  0.00     0.059 A 
ATOM     98  F   UNL A   1      43.204  31.520  28.365  1.00  0.00    -0.206 F 
ATOM     99  C   UNL A   1      45.875  33.376  26.800  1.00  0.00     0.060 A 
BRANCH  99 100
ATOM    100  S   UNL A   1      46.087  34.676  25.566  1.00  0.00     0.124 S 
ATOM    101  O   UNL A   1      47.493  34.530  25.205  1.00  0.00    -0.237 OA
ATOM    102  O   UNL A   1      45.124  34.294  24.537  1.00  0.00    -0.237 OA
ATOM    103  O   UNL A   1      45.755  35.898  26.295  1.00  0.00    -0.744 OA
ENDBRANCH  99 100
ENDBRANCH  67  92
ENDBRANCH  41  42
ENDBRANCH  34  36
ENDBRANCH  33  34
ENDBRANCH  32  33
ENDBRANCH  31  32
ENDBRANCH  30  31
ENDBRANCH  29  30
ENDBRANCH   1  29
TORSDOF 23
ENDMDL
