MODEL 1
REMARK VINA RESULT:      -7.9      0.000      0.000
REMARK SMILES NS(=O)(=O)c1ccc(-n2nc(C(=O)NCCCCCCCCCCC(=O)OCCOCCOCCOC(=O)c3ccc(-c4c5nc(c(-c6c(F)cc(S(=O)(=O)[O-])cc6F)c6ccc([nH]6)c(-c6c(F)cc(S(=O)(=O)[O-])cc6F)c6nc(c(-c7c(F)cc(S(=O)(=O)[O-])cc7F)c7ccc4[nH]7)C=C6)C=C5)cc3)cc2-c2ccccc2)cc1
REMARK SMILES IDX 25 1 26 2 24 3 23 4 22 5 21 6 20 7 19 8 18 9 17 10 16 11
REMARK SMILES IDX 15 12 14 13 12 14 13 15 11 17 9 18 10 19 106 20 105 21 8 22
REMARK SMILES IDX 5 23 6 24 114 25 7 26 113 27 2 28 3 29 4 30 1 31 107 34
REMARK SMILES IDX 108 35 112 36 109 37 111 38 110 39 27 40 28 41 29 42 30 43
REMARK SMILES IDX 31 44 32 45 33 46 34 47 35 48 36 49 37 50 38 51 39 52 40 53
REMARK SMILES IDX 104 54 41 55 103 56 42 57 43 58 44 59 97 60 45 61 102 62
REMARK SMILES IDX 96 63 98 64 46 65 101 66 95 67 94 68 47 70 81 71 60 72 80 73
REMARK SMILES IDX 61 74 64 75 79 76 99 77 62 78 63 79 78 81 100 82 65 83 48 84
REMARK SMILES IDX 49 85 58 86 50 87 51 88 57 89 59 90 52 91 53 92 54 93 55 94
REMARK SMILES IDX 56 95 82 96 83 97 92 98 84 99 85 100 91 101 93 102 86 103
REMARK SMILES IDX 87 104 88 105 89 106 90 107 66 108 67 109 76 110 68 111
REMARK SMILES IDX 69 112 75 113 77 114 70 115 71 116 72 117 73 118 74 119
REMARK H PARENT 14 16 1 32 1 33 98 69 64 80
REMARK Flexibility Score: inf
ROOT
ATOM      1  C   UNL A   1      41.035  26.663  27.210  1.00  0.00     0.305 C 
ATOM      2  O   UNL A   1      40.778  27.717  26.642  1.00  0.00    -0.252 OA
ENDROOT
BRANCH   1   3
ATOM      3  C   UNL A   1      40.795  26.461  28.699  1.00  0.00     0.123 C 
BRANCH   3   4
ATOM      4  C   UNL A   1      41.606  27.311  29.683  1.00  0.00     0.012 C 
BRANCH   4   5
ATOM      5  C   UNL A   1      40.829  28.447  30.348  1.00  0.00     0.001 C 
BRANCH   5   6
ATOM      6  C   UNL A   1      39.324  28.192  30.364  1.00  0.00     0.000 C 
BRANCH   6   7
ATOM      7  C   UNL A   1      38.542  29.422  30.827  1.00  0.00     0.000 C 
BRANCH   7   8
ATOM      8  C   UNL A   1      37.045  29.303  30.523  1.00  0.00     0.000 C 
BRANCH   8   9
ATOM      9  C   UNL A   1      36.746  29.416  29.023  1.00  0.00     0.000 C 
BRANCH   9  10
ATOM     10  C   UNL A   1      36.839  30.859  28.509  1.00  0.00     0.002 C 
BRANCH  10  11
ATOM     11  C   UNL A   1      35.475  31.552  28.456  1.00  0.00     0.021 C 
BRANCH  11  12
ATOM     12  C   UNL A   1      34.558  30.848  27.461  1.00  0.00     0.116 C 
BRANCH  12  13
ATOM     13  N   UNL A   1      33.306  31.556  27.395  1.00  0.00    -0.351 N 
ATOM     14  C   UNL A   1      32.183  31.356  26.636  1.00  0.00     0.271 C 
ATOM     15  O   UNL A   1      31.330  32.246  26.696  1.00  0.00    -0.267 OA
ATOM     16  H   UNL A   1      33.247  32.324  28.008  1.00  0.00     0.163 HD
BRANCH  14  17
ATOM     17  C   UNL A   1      31.985  30.114  25.864  1.00  0.00     0.151 A 
ATOM     18  N   UNL A   1      31.763  27.993  25.630  1.00  0.00    -0.232 N 
ATOM     19  N   UNL A   1      31.576  29.002  26.503  1.00  0.00    -0.162 NA
ATOM     20  C   UNL A   1      32.118  28.444  24.374  1.00  0.00     0.075 A 
ATOM     21  C   UNL A   1      32.140  29.816  24.489  1.00  0.00     0.065 A 
BRANCH  18  22
ATOM     22  C   UNL A   1      31.555  26.663  26.048  1.00  0.00     0.065 A 
ATOM     23  C   UNL A   1      31.146  23.990  26.622  1.00  0.00     0.082 A 
ATOM     24  C   UNL A   1      32.435  24.522  26.710  1.00  0.00     0.024 A 
ATOM     25  C   UNL A   1      30.049  24.802  26.305  1.00  0.00     0.024 A 
ATOM     26  C   UNL A   1      32.644  25.863  26.407  1.00  0.00     0.030 A 
ATOM     27  C   UNL A   1      30.251  26.154  26.044  1.00  0.00     0.030 A 
BRANCH  23  28
ATOM     28  S   UNL A   1      30.860  22.265  26.854  1.00  0.00     0.238 S 
ATOM     29  O   UNL A   1      31.551  21.851  28.051  1.00  0.00    -0.207 OA
ATOM     30  O   UNL A   1      31.020  21.597  25.584  1.00  0.00    -0.207 OA
BRANCH  28  31
ATOM     31  N   UNL A   1      29.223  22.155  27.219  1.00  0.00    -0.225 NA
ATOM     32  H   UNL A   1      29.110  21.938  28.209  1.00  0.00     0.137 HD
ATOM     33  H   UNL A   1      28.799  21.417  26.658  1.00  0.00     0.137 HD
ENDBRANCH  28  31
ENDBRANCH  23  28
ENDBRANCH  18  22
BRANCH  20  34
ATOM     34  C   UNL A   1      32.288  27.650  23.163  1.00  0.00     0.000 A 
ATOM     35  C   UNL A   1      31.183  27.078  22.523  1.00  0.00     0.010 A 
ATOM     36  C   UNL A   1      33.562  27.495  22.603  1.00  0.00     0.010 A 
ATOM     37  C   UNL A   1      31.352  26.352  21.344  1.00  0.00     0.001 A 
ATOM     38  C   UNL A   1      33.731  26.767  21.425  1.00  0.00     0.001 A 
ATOM     39  C   UNL A   1      32.626  26.196  20.796  1.00  0.00     0.000 A 
ENDBRANCH  20  34
ENDBRANCH  14  17
ENDBRANCH  12  13
ENDBRANCH  11  12
ENDBRANCH  10  11
ENDBRANCH   9  10
ENDBRANCH   8   9
ENDBRANCH   7   8
ENDBRANCH   6   7
ENDBRANCH   5   6
ENDBRANCH   4   5
ENDBRANCH   3   4
ENDBRANCH   1   3
BRANCH   1  40
ATOM     40  O   UNL A   1      41.483  25.544  26.598  1.00  0.00    -0.463 OA
BRANCH  40  41
ATOM     41  C   UNL A   1      42.315  24.639  27.334  1.00  0.00     0.261 C 
BRANCH  41  42
ATOM     42  C   UNL A   1      43.793  24.746  26.928  1.00  0.00     0.202 C 
BRANCH  42  43
ATOM     43  O   UNL A   1      44.039  25.030  25.550  1.00  0.00    -0.376 OA
BRANCH  43  44
ATOM     44  C   UNL A   1      44.846  26.178  25.261  1.00  0.00     0.188 C 
BRANCH  44  45
ATOM     45  C   UNL A   1      44.094  27.513  25.224  1.00  0.00     0.188 C 
BRANCH  45  46
ATOM     46  O   UNL A   1      44.622  28.451  26.154  1.00  0.00    -0.376 OA
BRANCH  46  47
ATOM     47  C   UNL A   1      46.024  28.653  26.310  1.00  0.00     0.202 C 
BRANCH  47  48
ATOM     48  C   UNL A   1      46.660  30.045  26.299  1.00  0.00     0.261 C 
BRANCH  48  49
ATOM     49  O   UNL A   1      45.858  31.098  25.805  1.00  0.00    -0.460 OA
BRANCH  49  50
ATOM     50  C   UNL A   1      45.196  31.898  26.657  1.00  0.00     0.338 C 
ATOM     51  O   UNL A   1      44.238  31.616  27.357  1.00  0.00    -0.246 OA
BRANCH  50  52
ATOM     52  C   UNL A   1      45.881  33.198  26.587  1.00  0.00     0.060 A 
ATOM     53  C   UNL A   1      46.878  33.460  27.523  1.00  0.00     0.016 A 
ATOM     54  C   UNL A   1      45.376  34.201  25.738  1.00  0.00     0.016 A 
ATOM     55  C   UNL A   1      47.145  34.778  27.816  1.00  0.00     0.010 A 
ATOM     56  C   UNL A   1      45.608  35.508  26.057  1.00  0.00     0.010 A 
ATOM     57  C   UNL A   1      46.407  35.770  27.162  1.00  0.00    -0.014 A 
BRANCH  57  58
ATOM     58  C   UNL A   1      46.549  37.140  27.596  1.00  0.00     0.031 A 
ATOM     59  C   UNL A   1      45.336  37.590  28.303  1.00  0.00     0.074 A 
ATOM     60  C   UNL A   1      47.718  37.798  27.455  1.00  0.00     0.049 A 
ATOM     61  N   UNL A   1      44.412  38.375  27.856  1.00  0.00    -0.248 NA
ATOM     62  C   UNL A   1      44.957  36.878  29.539  1.00  0.00     0.031 C 
ATOM     63  C   UNL A   1      49.001  37.215  27.035  1.00  0.00     0.029 A 
ATOM     64  N   UNL A   1      48.056  39.082  27.766  1.00  0.00    -0.354 N 
ATOM     65  C   UNL A   1      43.546  38.521  28.934  1.00  0.00     0.074 A 
ATOM     66  C   UNL A   1      43.732  37.360  29.752  1.00  0.00     0.031 C 
ATOM     67  C   UNL A   1      50.004  38.066  27.345  1.00  0.00     0.029 A 
ATOM     68  C   UNL A   1      49.433  39.299  27.855  1.00  0.00     0.049 A 
ATOM     69  H   UNL A   1      47.390  39.791  27.915  1.00  0.00     0.167 HD
ATOM     70  C   UNL A   1      43.141  39.772  29.290  1.00  0.00     0.037 A 
ATOM     71  C   UNL A   1      50.040  40.394  28.384  1.00  0.00     0.037 A 
ATOM     72  C   UNL A   1      43.352  40.686  28.192  1.00  0.00     0.049 A 
ATOM     73  C   UNL A   1      49.041  41.493  28.372  1.00  0.00     0.074 A 
ATOM     74  C   UNL A   1      42.779  40.919  26.961  1.00  0.00     0.029 A 
ATOM     75  N   UNL A   1      44.603  41.244  28.175  1.00  0.00    -0.354 N 
ATOM     76  N   UNL A   1      48.560  42.013  27.274  1.00  0.00    -0.248 NA
ATOM     77  C   UNL A   1      48.271  41.766  29.582  1.00  0.00     0.031 C 
ATOM     78  C   UNL A   1      43.773  41.568  26.171  1.00  0.00     0.029 A 
ATOM     79  C   UNL A   1      44.910  41.769  26.950  1.00  0.00     0.049 A 
ATOM     80  H   UNL A   1      45.209  41.264  28.951  1.00  0.00     0.167 HD
ATOM     81  C   UNL A   1      47.244  42.299  27.580  1.00  0.00     0.074 A 
ATOM     82  C   UNL A   1      47.168  42.282  29.035  1.00  0.00     0.031 C 
ATOM     83  C   UNL A   1      46.265  42.172  26.640  1.00  0.00     0.037 A 
BRANCH  70  84
ATOM     84  C   UNL A   1      43.100  40.285  30.727  1.00  0.00     0.058 A 
ATOM     85  C   UNL A   1      42.012  41.098  31.115  1.00  0.00     0.135 A 
ATOM     86  C   UNL A   1      44.180  40.264  31.642  1.00  0.00     0.135 A 
ATOM     87  F   UNL A   1      40.922  41.197  30.336  1.00  0.00    -0.206 F 
ATOM     88  C   UNL A   1      42.030  41.878  32.273  1.00  0.00     0.059 A 
ATOM     89  C   UNL A   1      44.200  41.003  32.818  1.00  0.00     0.059 A 
ATOM     90  F   UNL A   1      45.314  39.593  31.428  1.00  0.00    -0.206 F 
ATOM     91  C   UNL A   1      43.136  41.832  33.112  1.00  0.00     0.060 A 
BRANCH  91  92
ATOM     92  S   UNL A   1      43.195  42.869  34.581  1.00  0.00     0.124 S 
ATOM     93  O   UNL A   1      44.118  43.916  34.162  1.00  0.00    -0.237 OA
ATOM     94  O   UNL A   1      41.797  43.263  34.722  1.00  0.00    -0.237 OA
ATOM     95  O   UNL A   1      43.691  41.962  35.612  1.00  0.00    -0.744 OA
ENDBRANCH  91  92
ENDBRANCH  70  84
BRANCH  71  96
ATOM     96  C   UNL A   1      51.296  40.472  29.183  1.00  0.00     0.058 A 
ATOM     97  C   UNL A   1      52.127  41.607  29.127  1.00  0.00     0.135 A 
ATOM     98  C   UNL A   1      51.552  39.572  30.237  1.00  0.00     0.135 A 
ATOM     99  F   UNL A   1      51.954  42.522  28.161  1.00  0.00    -0.206 F 
ATOM    100  C   UNL A   1      53.104  41.871  30.095  1.00  0.00     0.059 A 
ATOM    101  C   UNL A   1      52.526  39.808  31.208  1.00  0.00     0.059 A 
ATOM    102  F   UNL A   1      50.798  38.478  30.413  1.00  0.00    -0.206 F 
ATOM    103  C   UNL A   1      53.277  40.975  31.150  1.00  0.00     0.060 A 
BRANCH 103 104
ATOM    104  S   UNL A   1      54.397  41.398  32.508  1.00  0.00     0.124 S 
ATOM    105  O   UNL A   1      54.380  40.177  33.305  1.00  0.00    -0.237 OA
ATOM    106  O   UNL A   1      55.642  41.684  31.803  1.00  0.00    -0.237 OA
ATOM    107  O   UNL A   1      53.755  42.555  33.127  1.00  0.00    -0.744 OA
ENDBRANCH 103 104
ENDBRANCH  71  96
BRANCH  83 108
ATOM    108  C   UNL A   1      46.636  42.375  25.203  1.00  0.00     0.058 A 
ATOM    109  C   UNL A   1      46.907  41.360  24.273  1.00  0.00     0.135 A 
ATOM    110  C   UNL A   1      46.633  43.699  24.738  1.00  0.00     0.135 A 
ATOM    111  F   UNL A   1      46.853  40.066  24.627  1.00  0.00    -0.206 F 
ATOM    112  C   UNL A   1      47.195  41.659  22.938  1.00  0.00     0.059 A 
ATOM    113  C   UNL A   1      46.882  44.016  23.410  1.00  0.00     0.059 A 
ATOM    114  F   UNL A   1      46.341  44.708  25.575  1.00  0.00    -0.206 F 
ATOM    115  C   UNL A   1      47.177  42.992  22.517  1.00  0.00     0.060 A 
BRANCH 115 116
ATOM    116  S   UNL A   1      47.497  43.384  20.784  1.00  0.00     0.124 S 
ATOM    117  O   UNL A   1      46.158  43.337  20.207  1.00  0.00    -0.237 OA
ATOM    118  O   UNL A   1      48.106  44.708  20.869  1.00  0.00    -0.237 OA
ATOM    119  O   UNL A   1      48.400  42.320  20.353  1.00  0.00    -0.744 OA
ENDBRANCH 115 116
ENDBRANCH  83 108
ENDBRANCH  57  58
ENDBRANCH  50  52
ENDBRANCH  49  50
ENDBRANCH  48  49
ENDBRANCH  47  48
ENDBRANCH  46  47
ENDBRANCH  45  46
ENDBRANCH  44  45
ENDBRANCH  43  44
ENDBRANCH  42  43
ENDBRANCH  41  42
ENDBRANCH  40  41
ENDBRANCH   1  40
TORSDOF 35
ENDMDL
MODEL 2
REMARK VINA RESULT:      -7.9      6.959     12.580
REMARK SMILES NS(=O)(=O)c1ccc(-n2nc(C(=O)NCCCCCCCCCCC(=O)OCCOCCOCCOC(=O)c3ccc(-c4c5nc(c(-c6c(F)cc(S(=O)(=O)[O-])cc6F)c6ccc([nH]6)c(-c6c(F)cc(S(=O)(=O)[O-])cc6F)c6nc(c(-c7c(F)cc(S(=O)(=O)[O-])cc7F)c7ccc4[nH]7)C=C6)C=C5)cc3)cc2-c2ccccc2)cc1
REMARK SMILES IDX 25 1 26 2 24 3 23 4 22 5 21 6 20 7 19 8 18 9 17 10 16 11
REMARK SMILES IDX 15 12 14 13 12 14 13 15 11 17 9 18 10 19 106 20 105 21 8 22
REMARK SMILES IDX 5 23 6 24 114 25 7 26 113 27 2 28 3 29 4 30 1 31 107 34
REMARK SMILES IDX 108 35 112 36 109 37 111 38 110 39 27 40 28 41 29 42 30 43
REMARK SMILES IDX 31 44 32 45 33 46 34 47 35 48 36 49 37 50 38 51 39 52 40 53
REMARK SMILES IDX 104 54 41 55 103 56 42 57 43 58 44 59 97 60 45 61 102 62
REMARK SMILES IDX 96 63 98 64 46 65 101 66 95 67 94 68 47 70 81 71 60 72 80 73
REMARK SMILES IDX 61 74 64 75 79 76 99 77 62 78 63 79 78 81 100 82 65 83 48 84
REMARK SMILES IDX 49 85 58 86 50 87 51 88 57 89 59 90 52 91 53 92 54 93 55 94
REMARK SMILES IDX 56 95 82 96 83 97 92 98 84 99 85 100 91 101 93 102 86 103
REMARK SMILES IDX 87 104 88 105 89 106 90 107 66 108 67 109 76 110 68 111
REMARK SMILES IDX 69 112 75 113 77 114 70 115 71 116 72 117 73 118 74 119
REMARK H PARENT 14 16 1 32 1 33 98 69 64 80
REMARK Flexibility Score: inf
ROOT
ATOM      1  C   UNL A   1      38.124  29.411  32.585  1.00  0.00     0.305 C 
ATOM      2  O   UNL A   1      37.392  28.478  32.890  1.00  0.00    -0.252 OA
ENDROOT
BRANCH   1   3
ATOM      3  C   UNL A   1      38.885  30.223  33.623  1.00  0.00     0.123 C 
BRANCH   3   4
ATOM      4  C   UNL A   1      38.080  31.128  34.562  1.00  0.00     0.012 C 
BRANCH   4   5
ATOM      5  C   UNL A   1      37.091  32.063  33.868  1.00  0.00     0.001 C 
BRANCH   5   6
ATOM      6  C   UNL A   1      37.741  33.367  33.415  1.00  0.00     0.000 C 
BRANCH   6   7
ATOM      7  C   UNL A   1      36.760  34.260  32.653  1.00  0.00     0.000 C 
BRANCH   7   8
ATOM      8  C   UNL A   1      35.302  33.939  32.993  1.00  0.00     0.000 C 
BRANCH   8   9
ATOM      9  C   UNL A   1      34.395  33.981  31.756  1.00  0.00     0.000 C 
BRANCH   9  10
ATOM     10  C   UNL A   1      35.183  33.901  30.442  1.00  0.00     0.002 C 
BRANCH  10  11
ATOM     11  C   UNL A   1      34.666  32.800  29.513  1.00  0.00     0.021 C 
BRANCH  11  12
ATOM     12  C   UNL A   1      35.233  31.446  29.925  1.00  0.00     0.116 C 
BRANCH  12  13
ATOM     13  N   UNL A   1      36.280  31.078  29.006  1.00  0.00    -0.351 N 
ATOM     14  C   UNL A   1      36.280  30.272  27.899  1.00  0.00     0.271 C 
ATOM     15  O   UNL A   1      37.389  30.025  27.416  1.00  0.00    -0.267 OA
ATOM     16  H   UNL A   1      37.154  31.481  29.212  1.00  0.00     0.163 HD
BRANCH  14  17
ATOM     17  C   UNL A   1      35.022  29.801  27.287  1.00  0.00     0.151 A 
ATOM     18  N   UNL A   1      33.658  28.311  26.566  1.00  0.00    -0.232 N 
ATOM     19  N   UNL A   1      34.653  28.516  27.451  1.00  0.00    -0.162 NA
ATOM     20  C   UNL A   1      33.249  29.478  25.954  1.00  0.00     0.075 A 
ATOM     21  C   UNL A   1      34.042  30.460  26.507  1.00  0.00     0.065 A 
BRANCH  18  22
ATOM     22  C   UNL A   1      33.140  27.012  26.392  1.00  0.00     0.065 A 
ATOM     23  C   UNL A   1      32.066  24.531  25.813  1.00  0.00     0.082 A 
ATOM     24  C   UNL A   1      33.452  24.706  25.772  1.00  0.00     0.024 A 
ATOM     25  C   UNL A   1      31.216  25.575  26.199  1.00  0.00     0.024 A 
ATOM     26  C   UNL A   1      33.992  25.957  26.048  1.00  0.00     0.030 A 
ATOM     27  C   UNL A   1      31.759  26.816  26.519  1.00  0.00     0.030 A 
BRANCH  23  28
ATOM     28  S   UNL A   1      31.331  23.003  25.325  1.00  0.00     0.238 S 
ATOM     29  O   UNL A   1      32.262  21.941  25.625  1.00  0.00    -0.207 OA
ATOM     30  O   UNL A   1      30.728  23.175  24.025  1.00  0.00    -0.207 OA
BRANCH  28  31
ATOM     31  N   UNL A   1      30.050  22.793  26.392  1.00  0.00    -0.225 NA
ATOM     32  H   UNL A   1      29.450  22.039  26.057  1.00  0.00     0.137 HD
ATOM     33  H   UNL A   1      29.512  23.656  26.451  1.00  0.00     0.137 HD
ENDBRANCH  28  31
ENDBRANCH  23  28
ENDBRANCH  18  22
BRANCH  20  34
ATOM     34  C   UNL A   1      32.131  29.652  25.035  1.00  0.00     0.000 A 
ATOM     35  C   UNL A   1      31.088  30.534  25.337  1.00  0.00     0.010 A 
ATOM     36  C   UNL A   1      32.119  28.967  23.813  1.00  0.00     0.010 A 
ATOM     37  C   UNL A   1      30.042  30.721  24.433  1.00  0.00     0.001 A 
ATOM     38  C   UNL A   1      31.070  29.153  22.910  1.00  0.00     0.001 A 
ATOM     39  C   UNL A   1      30.033  30.031  23.221  1.00  0.00     0.000 A 
ENDBRANCH  20  34
ENDBRANCH  14  17
ENDBRANCH  12  13
ENDBRANCH  11  12
ENDBRANCH  10  11
ENDBRANCH   9  10
ENDBRANCH   8   9
ENDBRANCH   7   8
ENDBRANCH   6   7
ENDBRANCH   5   6
ENDBRANCH   4   5
ENDBRANCH   3   4
ENDBRANCH   1   3
BRANCH   1  40
ATOM     40  O   UNL A   1      38.410  29.789  31.318  1.00  0.00    -0.463 OA
BRANCH  40  41
ATOM     41  C   UNL A   1      39.655  30.449  31.057  1.00  0.00     0.261 C 
BRANCH  41  42
ATOM     42  C   UNL A   1      39.456  31.870  30.506  1.00  0.00     0.202 C 
BRANCH  42  43
ATOM     43  O   UNL A   1      40.480  32.811  30.831  1.00  0.00    -0.376 OA
BRANCH  43  44
ATOM     44  C   UNL A   1      40.167  34.196  30.643  1.00  0.00     0.188 C 
BRANCH  44  45
ATOM     45  C   UNL A   1      40.658  34.805  29.325  1.00  0.00     0.188 C 
BRANCH  45  46
ATOM     46  O   UNL A   1      42.049  35.101  29.358  1.00  0.00    -0.376 OA
BRANCH  46  47
ATOM     47  C   UNL A   1      42.600  36.220  28.668  1.00  0.00     0.202 C 
BRANCH  47  48
ATOM     48  C   UNL A   1      43.887  36.126  27.847  1.00  0.00     0.261 C 
BRANCH  48  49
ATOM     49  O   UNL A   1      44.900  35.286  28.360  1.00  0.00    -0.460 OA
BRANCH  49  50
ATOM     50  C   UNL A   1      45.832  34.775  27.539  1.00  0.00     0.338 C 
ATOM     51  O   UNL A   1      46.600  35.381  26.810  1.00  0.00    -0.246 OA
BRANCH  50  52
ATOM     52  C   UNL A   1      45.748  33.316  27.709  1.00  0.00     0.060 A 
ATOM     53  C   UNL A   1      45.951  32.797  28.984  1.00  0.00     0.016 A 
ATOM     54  C   UNL A   1      45.684  32.490  26.571  1.00  0.00     0.016 A 
ATOM     55  C   UNL A   1      46.393  31.497  29.080  1.00  0.00     0.010 A 
ATOM     56  C   UNL A   1      46.163  31.214  26.659  1.00  0.00     0.010 A 
ATOM     57  C   UNL A   1      46.610  30.778  27.899  1.00  0.00    -0.014 A 
BRANCH  57  58
ATOM     58  C   UNL A   1      47.246  29.484  27.982  1.00  0.00     0.031 A 
ATOM     59  C   UNL A   1      46.254  28.435  28.281  1.00  0.00     0.074 A 
ATOM     60  C   UNL A   1      48.550  29.328  27.677  1.00  0.00     0.049 A 
ATOM     61  N   UNL A   1      46.062  27.833  29.408  1.00  0.00    -0.248 NA
ATOM     62  C   UNL A   1      45.167  28.219  27.305  1.00  0.00     0.031 C 
ATOM     63  C   UNL A   1      49.432  30.340  27.076  1.00  0.00     0.029 A 
ATOM     64  N   UNL A   1      49.343  28.219  27.714  1.00  0.00    -0.354 N 
ATOM     65  C   UNL A   1      45.065  26.904  29.127  1.00  0.00     0.074 A 
ATOM     66  C   UNL A   1      44.355  27.416  27.994  1.00  0.00     0.031 C 
ATOM     67  C   UNL A   1      50.541  29.738  26.592  1.00  0.00     0.029 A 
ATOM     68  C   UNL A   1      50.515  28.336  26.962  1.00  0.00     0.049 A 
ATOM     69  H   UNL A   1      49.110  27.409  28.223  1.00  0.00     0.167 HD
ATOM     70  C   UNL A   1      45.235  25.614  29.528  1.00  0.00     0.037 A 
ATOM     71  C   UNL A   1      51.353  27.322  26.620  1.00  0.00     0.037 A 
ATOM     72  C   UNL A   1      46.238  25.552  30.565  1.00  0.00     0.049 A 
ATOM     73  C   UNL A   1      51.103  26.210  27.572  1.00  0.00     0.074 A 
ATOM     74  C   UNL A   1      46.330  25.910  31.892  1.00  0.00     0.029 A 
ATOM     75  N   UNL A   1      47.516  25.426  30.085  1.00  0.00    -0.354 N 
ATOM     76  N   UNL A   1      51.361  26.291  28.851  1.00  0.00    -0.248 NA
ATOM     77  C   UNL A   1      50.200  25.131  27.184  1.00  0.00     0.031 C 
ATOM     78  C   UNL A   1      47.718  26.079  32.169  1.00  0.00     0.029 A 
ATOM     79  C   UNL A   1      48.449  25.766  31.025  1.00  0.00     0.049 A 
ATOM     80  H   UNL A   1      47.736  25.128  29.173  1.00  0.00     0.167 HD
ATOM     81  C   UNL A   1      50.347  25.569  29.450  1.00  0.00     0.074 A 
ATOM     82  C   UNL A   1      49.767  24.754  28.390  1.00  0.00     0.031 C 
ATOM     83  C   UNL A   1      49.835  25.953  30.654  1.00  0.00     0.037 A 
BRANCH  70  84
ATOM     84  C   UNL A   1      44.951  24.398  28.652  1.00  0.00     0.058 A 
ATOM     85  C   UNL A   1      45.693  24.245  27.460  1.00  0.00     0.135 A 
ATOM     86  C   UNL A   1      43.825  23.547  28.762  1.00  0.00     0.135 A 
ATOM     87  F   UNL A   1      46.788  24.989  27.238  1.00  0.00    -0.206 F 
ATOM     88  C   UNL A   1      45.305  23.376  26.437  1.00  0.00     0.059 A 
ATOM     89  C   UNL A   1      43.444  22.648  27.772  1.00  0.00     0.059 A 
ATOM     90  F   UNL A   1      42.975  23.578  29.792  1.00  0.00    -0.206 F 
ATOM     91  C   UNL A   1      44.171  22.591  26.600  1.00  0.00     0.060 A 
BRANCH  91  92
ATOM     92  S   UNL A   1      43.631  21.504  25.271  1.00  0.00     0.124 S 
ATOM     93  O   UNL A   1      44.482  20.340  25.483  1.00  0.00    -0.237 OA
ATOM     94  O   UNL A   1      42.217  21.332  25.584  1.00  0.00    -0.237 OA
ATOM     95  O   UNL A   1      43.911  22.282  24.068  1.00  0.00    -0.744 OA
ENDBRANCH  91  92
ENDBRANCH  70  84
BRANCH  71  96
ATOM     96  C   UNL A   1      52.110  27.125  25.351  1.00  0.00     0.058 A 
ATOM     97  C   UNL A   1      51.444  26.864  24.138  1.00  0.00     0.135 A 
ATOM     98  C   UNL A   1      53.469  27.481  25.244  1.00  0.00     0.135 A 
ATOM     99  F   UNL A   1      50.146  26.523  24.141  1.00  0.00    -0.206 F 
ATOM    100  C   UNL A   1      52.067  27.017  22.893  1.00  0.00     0.059 A 
ATOM    101  C   UNL A   1      54.114  27.630  24.016  1.00  0.00     0.059 A 
ATOM    102  F   UNL A   1      54.192  27.790  26.329  1.00  0.00    -0.206 F 
ATOM    103  C   UNL A   1      53.398  27.427  22.842  1.00  0.00     0.060 A 
BRANCH 103 104
ATOM    104  S   UNL A   1      54.154  27.814  21.244  1.00  0.00     0.124 S 
ATOM    105  O   UNL A   1      54.865  29.054  21.537  1.00  0.00    -0.237 OA
ATOM    106  O   UNL A   1      54.989  26.641  21.005  1.00  0.00    -0.237 OA
ATOM    107  O   UNL A   1      53.007  27.951  20.351  1.00  0.00    -0.744 OA
ENDBRANCH 103 104
ENDBRANCH  71  96
BRANCH  83 108
ATOM    108  C   UNL A   1      50.734  26.682  31.604  1.00  0.00     0.058 A 
ATOM    109  C   UNL A   1      51.733  26.102  32.400  1.00  0.00     0.135 A 
ATOM    110  C   UNL A   1      50.610  28.080  31.634  1.00  0.00     0.135 A 
ATOM    111  F   UNL A   1      51.961  24.779  32.366  1.00  0.00    -0.206 F 
ATOM    112  C   UNL A   1      52.554  26.884  33.217  1.00  0.00     0.059 A 
ATOM    113  C   UNL A   1      51.436  28.878  32.411  1.00  0.00     0.059 A 
ATOM    114  F   UNL A   1      49.696  28.693  30.863  1.00  0.00    -0.206 F 
ATOM    115  C   UNL A   1      52.398  28.273  33.213  1.00  0.00     0.060 A 
BRANCH 115 116
ATOM    116  S   UNL A   1      53.487  29.296  34.226  1.00  0.00     0.124 S 
ATOM    117  O   UNL A   1      53.491  30.558  33.493  1.00  0.00    -0.237 OA
ATOM    118  O   UNL A   1      52.798  29.311  35.513  1.00  0.00    -0.237 OA
ATOM    119  O   UNL A   1      54.752  28.565  34.215  1.00  0.00    -0.744 OA
ENDBRANCH 115 116
ENDBRANCH  83 108
ENDBRANCH  57  58
ENDBRANCH  50  52
ENDBRANCH  49  50
ENDBRANCH  48  49
ENDBRANCH  47  48
ENDBRANCH  46  47
ENDBRANCH  45  46
ENDBRANCH  44  45
ENDBRANCH  43  44
ENDBRANCH  42  43
ENDBRANCH  41  42
ENDBRANCH  40  41
ENDBRANCH   1  40
TORSDOF 35
ENDMDL
MODEL 3
REMARK VINA RESULT:      -6.6      7.935     14.117
REMARK SMILES NS(=O)(=O)c1ccc(-n2nc(C(=O)NCCCCCCCCCCC(=O)OCCOCCOCCOC(=O)c3ccc(-c4c5nc(c(-c6c(F)cc(S(=O)(=O)[O-])cc6F)c6ccc([nH]6)c(-c6c(F)cc(S(=O)(=O)[O-])cc6F)c6nc(c(-c7c(F)cc(S(=O)(=O)[O-])cc7F)c7ccc4[nH]7)C=C6)C=C5)cc3)cc2-c2ccccc2)cc1
REMARK SMILES IDX 25 1 26 2 24 3 23 4 22 5 21 6 20 7 19 8 18 9 17 10 16 11
REMARK SMILES IDX 15 12 14 13 12 14 13 15 11 17 9 18 10 19 106 20 105 21 8 22
REMARK SMILES IDX 5 23 6 24 114 25 7 26 113 27 2 28 3 29 4 30 1 31 107 34
REMARK SMILES IDX 108 35 112 36 109 37 111 38 110 39 27 40 28 41 29 42 30 43
REMARK SMILES IDX 31 44 32 45 33 46 34 47 35 48 36 49 37 50 38 51 39 52 40 53
REMARK SMILES IDX 104 54 41 55 103 56 42 57 43 58 44 59 97 60 45 61 102 62
REMARK SMILES IDX 96 63 98 64 46 65 101 66 95 67 94 68 47 70 81 71 60 72 80 73
REMARK SMILES IDX 61 74 64 75 79 76 99 77 62 78 63 79 78 81 100 82 65 83 48 84
REMARK SMILES IDX 49 85 58 86 50 87 51 88 57 89 59 90 52 91 53 92 54 93 55 94
REMARK SMILES IDX 56 95 82 96 83 97 92 98 84 99 85 100 91 101 93 102 86 103
REMARK SMILES IDX 87 104 88 105 89 106 90 107 66 108 67 109 76 110 68 111
REMARK SMILES IDX 69 112 75 113 77 114 70 115 71 116 72 117 73 118 74 119
REMARK H PARENT 14 16 1 32 1 33 98 69 64 80
REMARK Flexibility Score: inf
ROOT
ATOM      1  C   UNL A   1      35.739  31.834  29.564  1.00  0.00     0.305 C 
ATOM      2  O   UNL A   1      35.761  32.819  28.836  1.00  0.00    -0.252 OA
ENDROOT
BRANCH   1   3
ATOM      3  C   UNL A   1      35.451  31.930  31.055  1.00  0.00     0.123 C 
BRANCH   3   4
ATOM      4  C   UNL A   1      34.590  33.098  31.550  1.00  0.00     0.012 C 
BRANCH   4   5
ATOM      5  C   UNL A   1      34.339  33.122  33.057  1.00  0.00     0.001 C 
BRANCH   5   6
ATOM      6  C   UNL A   1      34.774  34.437  33.699  1.00  0.00     0.000 C 
BRANCH   6   7
ATOM      7  C   UNL A   1      36.286  34.486  33.930  1.00  0.00     0.000 C 
BRANCH   7   8
ATOM      8  C   UNL A   1      36.774  33.332  34.810  1.00  0.00     0.000 C 
BRANCH   8   9
ATOM      9  C   UNL A   1      38.244  33.495  35.219  1.00  0.00     0.000 C 
BRANCH   9  10
ATOM     10  C   UNL A   1      39.103  32.282  34.834  1.00  0.00     0.002 C 
BRANCH  10  11
ATOM     11  C   UNL A   1      39.899  32.512  33.548  1.00  0.00     0.021 C 
BRANCH  11  12
ATOM     12  C   UNL A   1      40.106  34.004  33.309  1.00  0.00     0.116 C 
BRANCH  12  13
ATOM     13  N   UNL A   1      39.524  34.360  32.041  1.00  0.00    -0.351 N 
ATOM     14  C   UNL A   1      40.059  34.450  30.783  1.00  0.00     0.271 C 
ATOM     15  O   UNL A   1      39.327  34.947  29.923  1.00  0.00    -0.267 OA
ATOM     16  H   UNL A   1      38.565  34.578  32.087  1.00  0.00     0.163 HD
BRANCH  14  17
ATOM     17  C   UNL A   1      41.398  33.910  30.475  1.00  0.00     0.151 A 
ATOM     18  N   UNL A   1      42.789  32.365  29.946  1.00  0.00    -0.232 N 
ATOM     19  N   UNL A   1      41.499  32.733  29.829  1.00  0.00    -0.162 NA
ATOM     20  C   UNL A   1      43.571  33.359  30.500  1.00  0.00     0.075 A 
ATOM     21  C   UNL A   1      42.701  34.402  30.728  1.00  0.00     0.065 A 
BRANCH  18  22
ATOM     22  C   UNL A   1      43.195  31.096  29.487  1.00  0.00     0.065 A 
ATOM     23  C   UNL A   1      43.747  28.561  28.532  1.00  0.00     0.082 A 
ATOM     24  C   UNL A   1      43.956  29.668  27.704  1.00  0.00     0.024 A 
ATOM     25  C   UNL A   1      43.319  28.720  29.856  1.00  0.00     0.024 A 
ATOM     26  C   UNL A   1      43.664  30.941  28.178  1.00  0.00     0.030 A 
ATOM     27  C   UNL A   1      43.069  29.998  30.346  1.00  0.00     0.030 A 
BRANCH  23  28
ATOM     28  S   UNL A   1      43.963  26.920  27.922  1.00  0.00     0.238 S 
ATOM     29  O   UNL A   1      44.143  26.992  26.492  1.00  0.00    -0.207 OA
ATOM     30  O   UNL A   1      42.984  26.063  28.548  1.00  0.00    -0.207 OA
BRANCH  28  31
ATOM     31  N   UNL A   1      45.448  26.434  28.539  1.00  0.00    -0.225 NA
ATOM     32  H   UNL A   1      45.477  25.416  28.592  1.00  0.00     0.137 HD
ATOM     33  H   UNL A   1      45.574  26.826  29.472  1.00  0.00     0.137 HD
ENDBRANCH  28  31
ENDBRANCH  23  28
ENDBRANCH  18  22
BRANCH  20  34
ATOM     34  C   UNL A   1      45.019  33.355  30.671  1.00  0.00     0.000 A 
ATOM     35  C   UNL A   1      45.869  33.451  29.564  1.00  0.00     0.010 A 
ATOM     36  C   UNL A   1      45.570  33.304  31.958  1.00  0.00     0.010 A 
ATOM     37  C   UNL A   1      47.252  33.485  29.742  1.00  0.00     0.001 A 
ATOM     38  C   UNL A   1      46.954  33.335  32.135  1.00  0.00     0.001 A 
ATOM     39  C   UNL A   1      47.794  33.427  31.026  1.00  0.00     0.000 A 
ENDBRANCH  20  34
ENDBRANCH  14  17
ENDBRANCH  12  13
ENDBRANCH  11  12
ENDBRANCH  10  11
ENDBRANCH   9  10
ENDBRANCH   8   9
ENDBRANCH   7   8
ENDBRANCH   6   7
ENDBRANCH   5   6
ENDBRANCH   4   5
ENDBRANCH   3   4
ENDBRANCH   1   3
BRANCH   1  40
ATOM     40  O   UNL A   1      35.886  30.558  29.144  1.00  0.00    -0.463 OA
BRANCH  40  41
ATOM     41  C   UNL A   1      36.427  30.316  27.838  1.00  0.00     0.261 C 
BRANCH  41  42
ATOM     42  C   UNL A   1      37.871  29.796  27.894  1.00  0.00     0.202 C 
BRANCH  42  43
ATOM     43  O   UNL A   1      38.510  29.870  29.169  1.00  0.00    -0.376 OA
BRANCH  43  44
ATOM     44  C   UNL A   1      39.629  29.002  29.383  1.00  0.00     0.188 C 
BRANCH  44  45
ATOM     45  C   UNL A   1      39.312  27.694  30.116  1.00  0.00     0.188 C 
BRANCH  45  46
ATOM     46  O   UNL A   1      38.474  27.902  31.246  1.00  0.00    -0.376 OA
BRANCH  46  47
ATOM     47  C   UNL A   1      38.982  27.894  32.577  1.00  0.00     0.202 C 
BRANCH  47  48
ATOM     48  C   UNL A   1      40.077  28.855  33.044  1.00  0.00     0.261 C 
BRANCH  48  49
ATOM     49  O   UNL A   1      40.654  28.584  34.305  1.00  0.00    -0.460 OA
BRANCH  49  50
ATOM     50  C   UNL A   1      41.465  27.524  34.461  1.00  0.00     0.338 C 
ATOM     51  O   UNL A   1      41.251  26.507  35.099  1.00  0.00    -0.246 OA
BRANCH  50  52
ATOM     52  C   UNL A   1      42.674  27.836  33.683  1.00  0.00     0.060 A 
ATOM     53  C   UNL A   1      43.283  26.799  32.983  1.00  0.00     0.016 A 
ATOM     54  C   UNL A   1      43.290  29.093  33.837  1.00  0.00     0.016 A 
ATOM     55  C   UNL A   1      44.626  26.919  32.708  1.00  0.00     0.010 A 
ATOM     56  C   UNL A   1      44.631  29.198  33.603  1.00  0.00     0.010 A 
ATOM     57  C   UNL A   1      45.295  28.069  33.141  1.00  0.00    -0.014 A 
BRANCH  57  58
ATOM     58  C   UNL A   1      46.734  28.122  33.021  1.00  0.00     0.031 A 
ATOM     59  C   UNL A   1      47.127  28.514  31.656  1.00  0.00     0.074 A 
ATOM     60  C   UNL A   1      47.529  27.956  34.098  1.00  0.00     0.049 A 
ATOM     61  N   UNL A   1      47.599  27.753  30.725  1.00  0.00    -0.248 NA
ATOM     62  C   UNL A   1      46.696  29.840  31.171  1.00  0.00     0.031 C 
ATOM     63  C   UNL A   1      47.094  27.882  35.501  1.00  0.00     0.029 A 
ATOM     64  N   UNL A   1      48.889  27.940  34.201  1.00  0.00    -0.354 N 
ATOM     65  C   UNL A   1      47.858  28.628  29.675  1.00  0.00     0.074 A 
ATOM     66  C   UNL A   1      46.993  29.752  29.874  1.00  0.00     0.031 C 
ATOM     67  C   UNL A   1      48.159  28.070  36.311  1.00  0.00     0.029 A 
ATOM     68  C   UNL A   1      49.360  28.142  35.501  1.00  0.00     0.049 A 
ATOM     69  H   UNL A   1      49.484  27.799  33.430  1.00  0.00     0.167 HD
ATOM     70  C   UNL A   1      49.068  28.569  29.051  1.00  0.00     0.037 A 
ATOM     71  C   UNL A   1      50.643  28.420  35.856  1.00  0.00     0.037 A 
ATOM     72  C   UNL A   1      49.696  27.297  29.321  1.00  0.00     0.049 A 
ATOM     73  C   UNL A   1      51.509  27.977  34.734  1.00  0.00     0.074 A 
ATOM     74  C   UNL A   1      49.506  25.987  28.941  1.00  0.00     0.029 A 
ATOM     75  N   UNL A   1      50.443  27.287  30.470  1.00  0.00    -0.354 N 
ATOM     76  N   UNL A   1      51.641  26.725  34.382  1.00  0.00    -0.248 NA
ATOM     77  C   UNL A   1      51.940  28.954  33.739  1.00  0.00     0.031 C 
ATOM     78  C   UNL A   1      50.098  25.183  29.958  1.00  0.00     0.029 A 
ATOM     79  C   UNL A   1      50.687  26.015  30.908  1.00  0.00     0.049 A 
ATOM     80  H   UNL A   1      50.764  28.098  30.926  1.00  0.00     0.167 HD
ATOM     81  C   UNL A   1      51.760  26.768  33.007  1.00  0.00     0.074 A 
ATOM     82  C   UNL A   1      52.098  28.149  32.686  1.00  0.00     0.031 C 
ATOM     83  C   UNL A   1      51.229  25.782  32.229  1.00  0.00     0.037 A 
BRANCH  70  84
ATOM     84  C   UNL A   1      49.911  29.790  28.696  1.00  0.00     0.058 A 
ATOM     85  C   UNL A   1      50.250  30.691  29.730  1.00  0.00     0.135 A 
ATOM     86  C   UNL A   1      50.159  30.269  27.387  1.00  0.00     0.135 A 
ATOM     87  F   UNL A   1      50.069  30.353  31.016  1.00  0.00    -0.206 F 
ATOM     88  C   UNL A   1      50.723  31.981  29.479  1.00  0.00     0.059 A 
ATOM     89  C   UNL A   1      50.666  31.534  27.119  1.00  0.00     0.059 A 
ATOM     90  F   UNL A   1      49.860  29.582  26.282  1.00  0.00    -0.206 F 
ATOM     91  C   UNL A   1      50.916  32.397  28.167  1.00  0.00     0.060 A 
BRANCH  91  92
ATOM     92  S   UNL A   1      51.477  34.072  27.828  1.00  0.00     0.124 S 
ATOM     93  O   UNL A   1      51.376  34.125  26.375  1.00  0.00    -0.237 OA
ATOM     94  O   UNL A   1      50.505  34.867  28.570  1.00  0.00    -0.237 OA
ATOM     95  O   UNL A   1      52.833  34.087  28.369  1.00  0.00    -0.744 OA
ENDBRANCH  91  92
ENDBRANCH  70  84
BRANCH  71  96
ATOM     96  C   UNL A   1      51.139  29.321  36.934  1.00  0.00     0.058 A 
ATOM     97  C   UNL A   1      51.213  30.715  36.743  1.00  0.00     0.135 A 
ATOM     98  C   UNL A   1      51.266  28.874  38.264  1.00  0.00     0.135 A 
ATOM     99  F   UNL A   1      51.096  31.233  35.510  1.00  0.00    -0.206 F 
ATOM    100  C   UNL A   1      51.334  31.613  37.810  1.00  0.00     0.059 A 
ATOM    101  C   UNL A   1      51.397  29.749  39.343  1.00  0.00     0.059 A 
ATOM    102  F   UNL A   1      51.171  27.572  38.570  1.00  0.00    -0.206 F 
ATOM    103  C   UNL A   1      51.398  31.119  39.113  1.00  0.00     0.060 A 
BRANCH 103 104
ATOM    104  S   UNL A   1      51.359  32.271  40.508  1.00  0.00     0.124 S 
ATOM    105  O   UNL A   1      49.933  32.549  40.631  1.00  0.00    -0.237 OA
ATOM    106  O   UNL A   1      51.949  31.476  41.581  1.00  0.00    -0.237 OA
ATOM    107  O   UNL A   1      52.175  33.390  40.045  1.00  0.00    -0.744 OA
ENDBRANCH 103 104
ENDBRANCH  71  96
BRANCH  83 108
ATOM    108  C   UNL A   1      51.124  24.405  32.809  1.00  0.00     0.058 A 
ATOM    109  C   UNL A   1      52.159  23.460  32.875  1.00  0.00     0.135 A 
ATOM    110  C   UNL A   1      49.899  24.070  33.406  1.00  0.00     0.135 A 
ATOM    111  F   UNL A   1      53.380  23.739  32.392  1.00  0.00    -0.206 F 
ATOM    112  C   UNL A   1      51.967  22.217  33.486  1.00  0.00     0.059 A 
ATOM    113  C   UNL A   1      49.697  22.857  34.048  1.00  0.00     0.059 A 
ATOM    114  F   UNL A   1      48.886  24.952  33.408  1.00  0.00    -0.206 F 
ATOM    115  C   UNL A   1      50.732  21.927  34.071  1.00  0.00     0.060 A 
BRANCH 115 116
ATOM    116  S   UNL A   1      50.490  20.346  34.908  1.00  0.00     0.124 S 
ATOM    117  O   UNL A   1      49.569  20.704  35.981  1.00  0.00    -0.237 OA
ATOM    118  O   UNL A   1      49.936  19.510  33.847  1.00  0.00    -0.237 OA
ATOM    119  O   UNL A   1      51.837  19.977  35.339  1.00  0.00    -0.744 OA
ENDBRANCH 115 116
ENDBRANCH  83 108
ENDBRANCH  57  58
ENDBRANCH  50  52
ENDBRANCH  49  50
ENDBRANCH  48  49
ENDBRANCH  47  48
ENDBRANCH  46  47
ENDBRANCH  45  46
ENDBRANCH  44  45
ENDBRANCH  43  44
ENDBRANCH  42  43
ENDBRANCH  41  42
ENDBRANCH  40  41
ENDBRANCH   1  40
TORSDOF 35
ENDMDL
