MODEL 1
REMARK VINA RESULT:     -10.6      0.000      0.000
REMARK SMILES COc1ccc2c(c1)c(CC(=O)OCCOCCOCCOC(=O)c1ccc(-c3c4nc(c(-c5c(F)cc(S(=O)(=O)[O-])cc5F)c5ccc([nH]5)c(-c5c(F)cc(S(=O)(=O)[O-])cc5F)c5nc(c(-c6c(F)cc(S(=O)(=O)[O-])cc6F)c6ccc3[nH]6)C=C5)C=C4)cc1)c(C(F)(F)F)n2C(=O)c1ccc(Cl)cc1
REMARK SMILES IDX 17 1 16 2 15 3 14 4 13 5 11 6 12 7 10 8 9 9 3 10 4 11 8 12
REMARK SMILES IDX 5 13 7 14 6 15 96 16 91 17 2 18 1 19 97 20 98 21 99 22
REMARK SMILES IDX 100 23 105 24 101 25 104 26 102 27 103 28 92 29 93 30 94 31
REMARK SMILES IDX 95 32 18 33 19 34 20 35 21 36 22 37 23 38 24 39 25 40 26 41
REMARK SMILES IDX 90 42 27 43 89 44 28 45 29 46 30 47 83 48 31 49 88 50 82 51
REMARK SMILES IDX 84 52 32 53 87 54 81 55 80 56 33 58 67 59 46 60 66 61 47 62
REMARK SMILES IDX 50 63 65 64 85 65 48 66 49 67 64 69 86 70 51 71 34 72 35 73
REMARK SMILES IDX 44 74 36 75 37 76 43 77 45 78 38 79 39 80 40 81 41 82 42 83
REMARK SMILES IDX 68 84 69 85 78 86 70 87 71 88 77 89 79 90 72 91 73 92 74 93
REMARK SMILES IDX 75 94 76 95 52 96 53 97 62 98 54 99 55 100 61 101 63 102
REMARK SMILES IDX 56 103 57 104 58 105 59 106 60 107
REMARK H PARENT 84 57 50 68
REMARK Flexibility Score: inf
ROOT
ATOM      1  C   UNL A   1      30.078  29.620  23.598  1.00  0.00     0.188 C 
ENDROOT
BRANCH   1   2
ATOM      2  O   UNL A   1      30.014  28.206  23.617  1.00  0.00    -0.376 OA
BRANCH   2   3
ATOM      3  C   UNL A   1      30.310  27.513  22.410  1.00  0.00     0.202 C 
BRANCH   3   4
ATOM      4  C   UNL A   1      31.163  26.245  22.541  1.00  0.00     0.261 C 
BRANCH   4   5
ATOM      5  O   UNL A   1      32.518  26.524  22.121  1.00  0.00    -0.463 OA
BRANCH   5   6
ATOM      6  C   UNL A   1      33.477  26.257  23.043  1.00  0.00     0.310 C 
ATOM      7  O   UNL A   1      33.595  26.889  24.086  1.00  0.00    -0.252 OA
BRANCH   6   8
ATOM      8  C   UNL A   1      34.197  24.945  22.780  1.00  0.00     0.161 C 
BRANCH   8   9
ATOM      9  C   UNL A   1      34.087  23.749  23.673  1.00  0.00     0.002 A 
ATOM     10  C   UNL A   1      37.008  23.157  26.133  1.00  0.00     0.119 A 
ATOM     11  C   UNL A   1      36.830  21.795  26.237  1.00  0.00     0.048 A 
ATOM     12  C   UNL A   1      36.131  23.911  25.339  1.00  0.00     0.057 A 
ATOM     13  C   UNL A   1      35.749  21.188  25.597  1.00  0.00     0.031 A 
ATOM     14  C   UNL A   1      35.027  23.331  24.675  1.00  0.00     0.008 A 
ATOM     15  C   UNL A   1      34.808  21.974  24.889  1.00  0.00     0.057 A 
ATOM     16  N   UNL A   1      33.543  21.686  24.360  1.00  0.00    -0.271 N 
ATOM     17  C   UNL A   1      33.280  22.642  23.394  1.00  0.00     0.135 A 
BRANCH  10  18
ATOM     18  O   UNL A   1      37.981  23.846  26.805  1.00  0.00    -0.497 OA
ATOM     19  C   UNL A   1      39.294  23.727  26.256  1.00  0.00     0.278 C 
ENDBRANCH  10  18
BRANCH  16  20
ATOM     20  C   UNL A   1      32.681  20.673  24.854  1.00  0.00     0.262 C 
ATOM     21  O   UNL A   1      31.691  20.969  25.493  1.00  0.00    -0.268 OA
BRANCH  20  22
ATOM     22  C   UNL A   1      33.044  19.247  24.771  1.00  0.00     0.040 A 
ATOM     23  C   UNL A   1      32.583  18.392  25.781  1.00  0.00     0.015 A 
ATOM     24  C   UNL A   1      33.983  18.823  23.827  1.00  0.00     0.015 A 
ATOM     25  C   UNL A   1      33.114  17.111  25.883  1.00  0.00     0.021 A 
ATOM     26  C   UNL A   1      34.517  17.539  23.944  1.00  0.00     0.021 A 
ATOM     27  C   UNL A   1      34.092  16.696  24.977  1.00  0.00     0.041 A 
ATOM     28  Cl  UNL A   1      34.816  15.146  25.165  1.00  0.00    -0.084 Cl
ENDBRANCH  20  22
ENDBRANCH  16  20
BRANCH  17  29
ATOM     29  C   UNL A   1      32.353  22.474  22.233  1.00  0.00     0.432 C 
ATOM     30  F   UNL A   1      32.250  21.164  21.900  1.00  0.00    -0.165 F 
ATOM     31  F   UNL A   1      31.106  22.881  22.585  1.00  0.00    -0.165 F 
ATOM     32  F   UNL A   1      32.659  23.154  21.112  1.00  0.00    -0.165 F 
ENDBRANCH  17  29
ENDBRANCH   8   9
ENDBRANCH   6   8
ENDBRANCH   5   6
ENDBRANCH   4   5
ENDBRANCH   3   4
ENDBRANCH   2   3
ENDBRANCH   1   2
BRANCH   1  33
ATOM     33  C   UNL A   1      30.897  30.315  24.690  1.00  0.00     0.188 C 
BRANCH  33  34
ATOM     34  O   UNL A   1      32.221  29.900  24.957  1.00  0.00    -0.376 OA
BRANCH  34  35
ATOM     35  C   UNL A   1      32.453  29.362  26.251  1.00  0.00     0.202 C 
BRANCH  35  36
ATOM     36  C   UNL A   1      32.925  30.378  27.307  1.00  0.00     0.261 C 
BRANCH  36  37
ATOM     37  O   UNL A   1      34.291  30.106  27.699  1.00  0.00    -0.460 OA
BRANCH  37  38
ATOM     38  C   UNL A   1      35.046  31.211  27.957  1.00  0.00     0.338 C 
ATOM     39  O   UNL A   1      34.624  32.347  28.098  1.00  0.00    -0.246 OA
BRANCH  38  40
ATOM     40  C   UNL A   1      36.376  30.748  28.448  1.00  0.00     0.060 A 
ATOM     41  C   UNL A   1      37.334  31.561  29.054  1.00  0.00     0.016 A 
ATOM     42  C   UNL A   1      36.730  29.453  28.072  1.00  0.00     0.016 A 
ATOM     43  C   UNL A   1      38.653  31.086  29.215  1.00  0.00     0.010 A 
ATOM     44  C   UNL A   1      38.048  29.009  28.156  1.00  0.00     0.010 A 
ATOM     45  C   UNL A   1      39.028  29.823  28.725  1.00  0.00    -0.014 A 
BRANCH  45  46
ATOM     46  C   UNL A   1      40.307  29.184  29.078  1.00  0.00     0.031 A 
ATOM     47  C   UNL A   1      40.499  29.044  30.530  1.00  0.00     0.074 A 
ATOM     48  C   UNL A   1      41.285  28.655  28.312  1.00  0.00     0.049 A 
ATOM     49  N   UNL A   1      41.241  29.833  31.227  1.00  0.00    -0.248 NA
ATOM     50  C   UNL A   1      39.762  28.044  31.303  1.00  0.00     0.031 C 
ATOM     51  C   UNL A   1      41.407  28.682  26.868  1.00  0.00     0.029 A 
ATOM     52  N   UNL A   1      42.398  27.936  28.685  1.00  0.00    -0.354 N 
ATOM     53  C   UNL A   1      41.254  29.303  32.498  1.00  0.00     0.074 A 
ATOM     54  C   UNL A   1      40.205  28.310  32.535  1.00  0.00     0.031 C 
ATOM     55  C   UNL A   1      42.371  27.823  26.454  1.00  0.00     0.029 A 
ATOM     56  C   UNL A   1      43.071  27.331  27.627  1.00  0.00     0.049 A 
ATOM     57  H   UNL A   1      42.692  27.857  29.621  1.00  0.00     0.167 HD
ATOM     58  C   UNL A   1      42.276  29.572  33.352  1.00  0.00     0.037 A 
ATOM     59  C   UNL A   1      44.295  26.747  27.609  1.00  0.00     0.037 A 
ATOM     60  C   UNL A   1      43.140  30.622  32.863  1.00  0.00     0.049 A 
ATOM     61  C   UNL A   1      45.115  27.473  28.598  1.00  0.00     0.074 A 
ATOM     62  C   UNL A   1      42.963  31.949  32.524  1.00  0.00     0.029 A 
ATOM     63  N   UNL A   1      44.325  30.238  32.281  1.00  0.00    -0.354 N 
ATOM     64  N   UNL A   1      45.498  28.711  28.451  1.00  0.00    -0.248 NA
ATOM     65  C   UNL A   1      45.263  26.932  29.939  1.00  0.00     0.031 C 
ATOM     66  C   UNL A   1      43.850  32.197  31.433  1.00  0.00     0.029 A 
ATOM     67  C   UNL A   1      44.548  31.019  31.169  1.00  0.00     0.049 A 
ATOM     68  H   UNL A   1      44.918  29.523  32.607  1.00  0.00     0.167 HD
ATOM     69  C   UNL A   1      45.496  29.228  29.732  1.00  0.00     0.074 A 
ATOM     70  C   UNL A   1      45.513  28.061  30.604  1.00  0.00     0.031 C 
ATOM     71  C   UNL A   1      45.197  30.539  29.960  1.00  0.00     0.037 A 
BRANCH  58  72
ATOM     72  C   UNL A   1      42.646  28.659  34.476  1.00  0.00     0.058 A 
ATOM     73  C   UNL A   1      42.716  29.147  35.790  1.00  0.00     0.135 A 
ATOM     74  C   UNL A   1      43.116  27.343  34.271  1.00  0.00     0.135 A 
ATOM     75  F   UNL A   1      42.341  30.406  36.068  1.00  0.00    -0.206 F 
ATOM     76  C   UNL A   1      43.212  28.373  36.838  1.00  0.00     0.059 A 
ATOM     77  C   UNL A   1      43.560  26.534  35.307  1.00  0.00     0.059 A 
ATOM     78  F   UNL A   1      43.230  26.825  33.038  1.00  0.00    -0.206 F 
ATOM     79  C   UNL A   1      43.627  27.067  36.586  1.00  0.00     0.060 A 
BRANCH  79  80
ATOM     80  S   UNL A   1      44.301  26.080  37.933  1.00  0.00     0.124 S 
ATOM     81  O   UNL A   1      44.067  24.726  37.443  1.00  0.00    -0.237 OA
ATOM     82  O   UNL A   1      45.693  26.518  37.966  1.00  0.00    -0.237 OA
ATOM     83  O   UNL A   1      43.496  26.486  39.081  1.00  0.00    -0.744 OA
ENDBRANCH  79  80
ENDBRANCH  58  72
BRANCH  59  84
ATOM     84  C   UNL A   1      44.743  25.509  26.920  1.00  0.00     0.058 A 
ATOM     85  C   UNL A   1      44.507  24.234  27.470  1.00  0.00     0.135 A 
ATOM     86  C   UNL A   1      45.159  25.535  25.574  1.00  0.00     0.135 A 
ATOM     87  F   UNL A   1      44.091  24.112  28.740  1.00  0.00    -0.206 F 
ATOM     88  C   UNL A   1      44.613  23.060  26.716  1.00  0.00     0.059 A 
ATOM     89  C   UNL A   1      45.278  24.375  24.802  1.00  0.00     0.059 A 
ATOM     90  F   UNL A   1      45.361  26.704  24.947  1.00  0.00    -0.206 F 
ATOM     91  C   UNL A   1      44.973  23.142  25.372  1.00  0.00     0.060 A 
BRANCH  91  92
ATOM     92  S   UNL A   1      44.899  21.648  24.350  1.00  0.00     0.124 S 
ATOM     93  O   UNL A   1      44.462  22.177  23.062  1.00  0.00    -0.237 OA
ATOM     94  O   UNL A   1      46.278  21.170  24.404  1.00  0.00    -0.237 OA
ATOM     95  O   UNL A   1      43.928  20.807  25.043  1.00  0.00    -0.744 OA
ENDBRANCH  91  92
ENDBRANCH  59  84
BRANCH  71  96
ATOM     96  C   UNL A   1      45.326  31.494  28.793  1.00  0.00     0.058 A 
ATOM     97  C   UNL A   1      44.364  31.647  27.780  1.00  0.00     0.135 A 
ATOM     98  C   UNL A   1      46.441  32.343  28.734  1.00  0.00     0.135 A 
ATOM     99  F   UNL A   1      43.221  30.954  27.813  1.00  0.00    -0.206 F 
ATOM    100  C   UNL A   1      44.521  32.558  26.733  1.00  0.00     0.059 A 
ATOM    101  C   UNL A   1      46.606  33.286  27.717  1.00  0.00     0.059 A 
ATOM    102  F   UNL A   1      47.376  32.292  29.698  1.00  0.00    -0.206 F 
ATOM    103  C   UNL A   1      45.648  33.376  26.709  1.00  0.00     0.060 A 
BRANCH 103 104
ATOM    104  S   UNL A   1      45.807  34.613  25.400  1.00  0.00     0.124 S 
ATOM    105  O   UNL A   1      47.208  34.478  25.015  1.00  0.00    -0.237 OA
ATOM    106  O   UNL A   1      44.833  34.158  24.412  1.00  0.00    -0.237 OA
ATOM    107  O   UNL A   1      45.460  35.864  26.071  1.00  0.00    -0.744 OA
ENDBRANCH 103 104
ENDBRANCH  71  96
ENDBRANCH  45  46
ENDBRANCH  38  40
ENDBRANCH  37  38
ENDBRANCH  36  37
ENDBRANCH  35  36
ENDBRANCH  34  35
ENDBRANCH  33  34
ENDBRANCH   1  33
TORSDOF 25
ENDMDL
MODEL 2
REMARK VINA RESULT:     -10.0      3.385      5.608
REMARK SMILES COc1ccc2c(c1)c(CC(=O)OCCOCCOCCOC(=O)c1ccc(-c3c4nc(c(-c5c(F)cc(S(=O)(=O)[O-])cc5F)c5ccc([nH]5)c(-c5c(F)cc(S(=O)(=O)[O-])cc5F)c5nc(c(-c6c(F)cc(S(=O)(=O)[O-])cc6F)c6ccc3[nH]6)C=C5)C=C4)cc1)c(C(F)(F)F)n2C(=O)c1ccc(Cl)cc1
REMARK SMILES IDX 17 1 16 2 15 3 14 4 13 5 11 6 12 7 10 8 9 9 3 10 4 11 8 12
REMARK SMILES IDX 5 13 7 14 6 15 96 16 91 17 2 18 1 19 97 20 98 21 99 22
REMARK SMILES IDX 100 23 105 24 101 25 104 26 102 27 103 28 92 29 93 30 94 31
REMARK SMILES IDX 95 32 18 33 19 34 20 35 21 36 22 37 23 38 24 39 25 40 26 41
REMARK SMILES IDX 90 42 27 43 89 44 28 45 29 46 30 47 83 48 31 49 88 50 82 51
REMARK SMILES IDX 84 52 32 53 87 54 81 55 80 56 33 58 67 59 46 60 66 61 47 62
REMARK SMILES IDX 50 63 65 64 85 65 48 66 49 67 64 69 86 70 51 71 34 72 35 73
REMARK SMILES IDX 44 74 36 75 37 76 43 77 45 78 38 79 39 80 40 81 41 82 42 83
REMARK SMILES IDX 68 84 69 85 78 86 70 87 71 88 77 89 79 90 72 91 73 92 74 93
REMARK SMILES IDX 75 94 76 95 52 96 53 97 62 98 54 99 55 100 61 101 63 102
REMARK SMILES IDX 56 103 57 104 58 105 59 106 60 107
REMARK H PARENT 84 57 50 68
REMARK Flexibility Score: inf
ROOT
ATOM      1  C   UNL A   1      31.023  29.119  24.196  1.00  0.00     0.188 C 
ENDROOT
BRANCH   1   2
ATOM      2  O   UNL A   1      31.141  27.734  23.930  1.00  0.00    -0.376 OA
BRANCH   2   3
ATOM      3  C   UNL A   1      30.152  26.868  24.475  1.00  0.00     0.202 C 
BRANCH   3   4
ATOM      4  C   UNL A   1      30.454  26.267  25.853  1.00  0.00     0.261 C 
BRANCH   4   5
ATOM      5  O   UNL A   1      29.955  24.911  25.911  1.00  0.00    -0.463 OA
BRANCH   5   6
ATOM      6  C   UNL A   1      30.907  23.947  25.991  1.00  0.00     0.310 C 
ATOM      7  O   UNL A   1      31.107  23.289  27.004  1.00  0.00    -0.252 OA
BRANCH   6   8
ATOM      8  C   UNL A   1      31.497  23.589  24.637  1.00  0.00     0.161 C 
BRANCH   8   9
ATOM      9  C   UNL A   1      32.861  22.998  24.461  1.00  0.00     0.002 A 
ATOM     10  C   UNL A   1      33.052  19.146  24.212  1.00  0.00     0.119 A 
ATOM     11  C   UNL A   1      34.344  19.040  24.679  1.00  0.00     0.048 A 
ATOM     12  C   UNL A   1      32.473  20.414  24.063  1.00  0.00     0.057 A 
ATOM     13  C   UNL A   1      35.080  20.194  24.946  1.00  0.00     0.031 A 
ATOM     14  C   UNL A   1      33.186  21.605  24.326  1.00  0.00     0.008 A 
ATOM     15  C   UNL A   1      34.522  21.469  24.688  1.00  0.00     0.057 A 
ATOM     16  N   UNL A   1      35.082  22.754  24.639  1.00  0.00    -0.271 N 
ATOM     17  C   UNL A   1      34.044  23.655  24.811  1.00  0.00     0.135 A 
BRANCH  10  18
ATOM     18  O   UNL A   1      32.294  18.072  23.833  1.00  0.00    -0.497 OA
ATOM     19  C   UNL A   1      32.206  17.861  22.423  1.00  0.00     0.278 C 
ENDBRANCH  10  18
BRANCH  16  20
ATOM     20  C   UNL A   1      36.440  23.024  24.334  1.00  0.00     0.262 C 
ATOM     21  O   UNL A   1      36.776  23.268  23.192  1.00  0.00    -0.268 OA
BRANCH  20  22
ATOM     22  C   UNL A   1      37.504  22.840  25.338  1.00  0.00     0.040 A 
ATOM     23  C   UNL A   1      37.891  23.953  26.096  1.00  0.00     0.015 A 
ATOM     24  C   UNL A   1      38.226  21.645  25.373  1.00  0.00     0.015 A 
ATOM     25  C   UNL A   1      39.055  23.887  26.856  1.00  0.00     0.021 A 
ATOM     26  C   UNL A   1      39.397  21.591  26.131  1.00  0.00     0.021 A 
ATOM     27  C   UNL A   1      39.812  22.715  26.855  1.00  0.00     0.041 A 
ATOM     28  Cl  UNL A   1      41.300  22.668  27.720  1.00  0.00    -0.084 Cl
ENDBRANCH  20  22
ENDBRANCH  16  20
BRANCH  17  29
ATOM     29  C   UNL A   1      34.178  25.045  25.342  1.00  0.00     0.432 C 
ATOM     30  F   UNL A   1      33.526  25.920  24.536  1.00  0.00    -0.165 F 
ATOM     31  F   UNL A   1      33.581  25.126  26.560  1.00  0.00    -0.165 F 
ATOM     32  F   UNL A   1      35.430  25.510  25.514  1.00  0.00    -0.165 F 
ENDBRANCH  17  29
ENDBRANCH   8   9
ENDBRANCH   6   8
ENDBRANCH   5   6
ENDBRANCH   4   5
ENDBRANCH   3   4
ENDBRANCH   2   3
ENDBRANCH   1   2
BRANCH   1  33
ATOM     33  C   UNL A   1      31.756  29.679  25.420  1.00  0.00     0.188 C 
BRANCH  33  34
ATOM     34  O   UNL A   1      33.159  29.552  25.526  1.00  0.00    -0.376 OA
BRANCH  34  35
ATOM     35  C   UNL A   1      33.625  28.639  26.510  1.00  0.00     0.202 C 
BRANCH  35  36
ATOM     36  C   UNL A   1      34.928  29.051  27.220  1.00  0.00     0.261 C 
BRANCH  36  37
ATOM     37  O   UNL A   1      35.194  30.459  27.016  1.00  0.00    -0.460 OA
BRANCH  37  38
ATOM     38  C   UNL A   1      35.074  31.234  28.131  1.00  0.00     0.338 C 
ATOM     39  O   UNL A   1      34.085  31.870  28.453  1.00  0.00    -0.246 OA
BRANCH  38  40
ATOM     40  C   UNL A   1      36.160  30.844  29.074  1.00  0.00     0.060 A 
ATOM     41  C   UNL A   1      35.992  30.042  30.203  1.00  0.00     0.016 A 
ATOM     42  C   UNL A   1      37.371  31.513  28.897  1.00  0.00     0.016 A 
ATOM     43  C   UNL A   1      37.015  29.975  31.172  1.00  0.00     0.010 A 
ATOM     44  C   UNL A   1      38.350  31.514  29.888  1.00  0.00     0.010 A 
ATOM     45  C   UNL A   1      38.182  30.747  31.042  1.00  0.00    -0.014 A 
BRANCH  45  46
ATOM     46  C   UNL A   1      39.372  30.534  31.882  1.00  0.00     0.031 A 
ATOM     47  C   UNL A   1      39.379  31.372  33.092  1.00  0.00     0.074 A 
ATOM     48  C   UNL A   1      40.406  29.672  31.770  1.00  0.00     0.049 A 
ATOM     49  N   UNL A   1      40.073  32.452  33.204  1.00  0.00    -0.248 NA
ATOM     50  C   UNL A   1      38.501  31.081  34.226  1.00  0.00     0.031 C 
ATOM     51  C   UNL A   1      40.702  28.766  30.679  1.00  0.00     0.029 A 
ATOM     52  N   UNL A   1      41.424  29.406  32.656  1.00  0.00    -0.354 N 
ATOM     53  C   UNL A   1      39.904  32.868  34.505  1.00  0.00     0.074 A 
ATOM     54  C   UNL A   1      38.806  32.096  35.040  1.00  0.00     0.031 C 
ATOM     55  C   UNL A   1      41.661  27.879  31.043  1.00  0.00     0.029 A 
ATOM     56  C   UNL A   1      42.187  28.287  32.334  1.00  0.00     0.049 A 
ATOM     57  H   UNL A   1      41.599  29.961  33.450  1.00  0.00     0.167 HD
ATOM     58  C   UNL A   1      40.828  33.662  35.106  1.00  0.00     0.037 A 
ATOM     59  C   UNL A   1      43.370  27.874  32.852  1.00  0.00     0.037 A 
ATOM     60  C   UNL A   1      41.801  34.179  34.171  1.00  0.00     0.049 A 
ATOM     61  C   UNL A   1      44.103  29.097  33.235  1.00  0.00     0.074 A 
ATOM     62  C   UNL A   1      41.738  34.966  33.038  1.00  0.00     0.029 A 
ATOM     63  N   UNL A   1      43.025  33.555  34.130  1.00  0.00    -0.354 N 
ATOM     64  N   UNL A   1      44.567  29.961  32.375  1.00  0.00    -0.248 NA
ATOM     65  C   UNL A   1      44.058  29.555  34.613  1.00  0.00     0.031 C 
ATOM     66  C   UNL A   1      42.763  34.484  32.168  1.00  0.00     0.029 A 
ATOM     67  C   UNL A   1      43.422  33.440  32.817  1.00  0.00     0.049 A 
ATOM     68  H   UNL A   1      43.534  33.241  34.912  1.00  0.00     0.167 HD
ATOM     69  C   UNL A   1      44.439  31.181  33.008  1.00  0.00     0.074 A 
ATOM     70  C   UNL A   1      44.287  30.855  34.420  1.00  0.00     0.031 C 
ATOM     71  C   UNL A   1      44.186  32.319  32.297  1.00  0.00     0.037 A 
BRANCH  58  72
ATOM     72  C   UNL A   1      41.010  33.705  36.590  1.00  0.00     0.058 A 
ATOM     73  C   UNL A   1      41.575  32.613  37.265  1.00  0.00     0.135 A 
ATOM     74  C   UNL A   1      40.471  34.731  37.397  1.00  0.00     0.135 A 
ATOM     75  F   UNL A   1      42.063  31.567  36.578  1.00  0.00    -0.206 F 
ATOM     76  C   UNL A   1      41.614  32.547  38.657  1.00  0.00     0.059 A 
ATOM     77  C   UNL A   1      40.549  34.715  38.782  1.00  0.00     0.059 A 
ATOM     78  F   UNL A   1      39.781  35.751  36.864  1.00  0.00    -0.206 F 
ATOM     79  C   UNL A   1      41.101  33.606  39.405  1.00  0.00     0.060 A 
BRANCH  79  80
ATOM     80  S   UNL A   1      41.119  33.504  41.203  1.00  0.00     0.124 S 
ATOM     81  O   UNL A   1      41.031  32.063  41.412  1.00  0.00    -0.237 OA
ATOM     82  O   UNL A   1      42.400  34.122  41.531  1.00  0.00    -0.237 OA
ATOM     83  O   UNL A   1      39.941  34.273  41.594  1.00  0.00    -0.744 OA
ENDBRANCH  79  80
ENDBRANCH  58  72
BRANCH  59  84
ATOM     84  C   UNL A   1      43.831  26.502  33.188  1.00  0.00     0.058 A 
ATOM     85  C   UNL A   1      44.938  25.918  32.541  1.00  0.00     0.135 A 
ATOM     86  C   UNL A   1      43.373  25.844  34.346  1.00  0.00     0.135 A 
ATOM     87  F   UNL A   1      45.453  26.486  31.440  1.00  0.00    -0.206 F 
ATOM     88  C   UNL A   1      45.592  24.790  33.045  1.00  0.00     0.059 A 
ATOM     89  C   UNL A   1      44.007  24.711  34.867  1.00  0.00     0.059 A 
ATOM     90  F   UNL A   1      42.356  26.350  35.060  1.00  0.00    -0.206 F 
ATOM     91  C   UNL A   1      45.137  24.207  34.227  1.00  0.00     0.060 A 
BRANCH  91  92
ATOM     92  S   UNL A   1      46.113  22.884  34.988  1.00  0.00     0.124 S 
ATOM     93  O   UNL A   1      45.834  21.752  34.111  1.00  0.00    -0.237 OA
ATOM     94  O   UNL A   1      47.468  23.423  34.917  1.00  0.00    -0.237 OA
ATOM     95  O   UNL A   1      45.560  22.784  36.336  1.00  0.00    -0.744 OA
ENDBRANCH  91  92
ENDBRANCH  59  84
BRANCH  71  96
ATOM     96  C   UNL A   1      44.507  32.298  30.819  1.00  0.00     0.058 A 
ATOM     97  C   UNL A   1      45.784  32.532  30.278  1.00  0.00     0.135 A 
ATOM     98  C   UNL A   1      43.494  31.956  29.910  1.00  0.00     0.135 A 
ATOM     99  F   UNL A   1      46.832  32.761  31.077  1.00  0.00    -0.206 F 
ATOM    100  C   UNL A   1      46.034  32.482  28.905  1.00  0.00     0.059 A 
ATOM    101  C   UNL A   1      43.725  31.866  28.536  1.00  0.00     0.059 A 
ATOM    102  F   UNL A   1      42.261  31.666  30.358  1.00  0.00    -0.206 F 
ATOM    103  C   UNL A   1      44.996  32.148  28.038  1.00  0.00     0.060 A 
BRANCH 103 104
ATOM    104  S   UNL A   1      45.343  31.999  26.270  1.00  0.00     0.124 S 
ATOM    105  O   UNL A   1      44.086  32.435  25.671  1.00  0.00    -0.237 OA
ATOM    106  O   UNL A   1      46.476  32.903  26.091  1.00  0.00    -0.237 OA
ATOM    107  O   UNL A   1      45.657  30.582  26.103  1.00  0.00    -0.744 OA
ENDBRANCH 103 104
ENDBRANCH  71  96
ENDBRANCH  45  46
ENDBRANCH  38  40
ENDBRANCH  37  38
ENDBRANCH  36  37
ENDBRANCH  35  36
ENDBRANCH  34  35
ENDBRANCH  33  34
ENDBRANCH   1  33
TORSDOF 25
ENDMDL
MODEL 3
REMARK VINA RESULT:      -9.9      2.098      3.111
REMARK SMILES COc1ccc2c(c1)c(CC(=O)OCCOCCOCCOC(=O)c1ccc(-c3c4nc(c(-c5c(F)cc(S(=O)(=O)[O-])cc5F)c5ccc([nH]5)c(-c5c(F)cc(S(=O)(=O)[O-])cc5F)c5nc(c(-c6c(F)cc(S(=O)(=O)[O-])cc6F)c6ccc3[nH]6)C=C5)C=C4)cc1)c(C(F)(F)F)n2C(=O)c1ccc(Cl)cc1
REMARK SMILES IDX 17 1 16 2 15 3 14 4 13 5 11 6 12 7 10 8 9 9 3 10 4 11 8 12
REMARK SMILES IDX 5 13 7 14 6 15 96 16 91 17 2 18 1 19 97 20 98 21 99 22
REMARK SMILES IDX 100 23 105 24 101 25 104 26 102 27 103 28 92 29 93 30 94 31
REMARK SMILES IDX 95 32 18 33 19 34 20 35 21 36 22 37 23 38 24 39 25 40 26 41
REMARK SMILES IDX 90 42 27 43 89 44 28 45 29 46 30 47 83 48 31 49 88 50 82 51
REMARK SMILES IDX 84 52 32 53 87 54 81 55 80 56 33 58 67 59 46 60 66 61 47 62
REMARK SMILES IDX 50 63 65 64 85 65 48 66 49 67 64 69 86 70 51 71 34 72 35 73
REMARK SMILES IDX 44 74 36 75 37 76 43 77 45 78 38 79 39 80 40 81 41 82 42 83
REMARK SMILES IDX 68 84 69 85 78 86 70 87 71 88 77 89 79 90 72 91 73 92 74 93
REMARK SMILES IDX 75 94 76 95 52 96 53 97 62 98 54 99 55 100 61 101 63 102
REMARK SMILES IDX 56 103 57 104 58 105 59 106 60 107
REMARK H PARENT 84 57 50 68
REMARK Flexibility Score: inf
ROOT
ATOM      1  C   UNL A   1      35.000  29.530  27.533  1.00  0.00     0.188 C 
ENDROOT
BRANCH   1   2
ATOM      2  O   UNL A   1      33.647  29.520  27.119  1.00  0.00    -0.376 OA
BRANCH   2   3
ATOM      3  C   UNL A   1      32.804  28.496  27.634  1.00  0.00     0.202 C 
BRANCH   3   4
ATOM      4  C   UNL A   1      32.367  27.407  26.646  1.00  0.00     0.261 C 
BRANCH   4   5
ATOM      5  O   UNL A   1      33.529  26.860  25.981  1.00  0.00    -0.463 OA
BRANCH   5   6
ATOM      6  C   UNL A   1      33.622  27.140  24.656  1.00  0.00     0.310 C 
ATOM      7  O   UNL A   1      33.687  28.282  24.218  1.00  0.00    -0.252 OA
BRANCH   6   8
ATOM      8  C   UNL A   1      33.907  25.909  23.812  1.00  0.00     0.161 C 
BRANCH   8   9
ATOM      9  C   UNL A   1      33.783  24.509  24.326  1.00  0.00     0.002 A 
ATOM     10  C   UNL A   1      37.037  22.827  25.557  1.00  0.00     0.119 A 
ATOM     11  C   UNL A   1      36.624  21.534  25.322  1.00  0.00     0.048 A 
ATOM     12  C   UNL A   1      36.161  23.891  25.298  1.00  0.00     0.057 A 
ATOM     13  C   UNL A   1      35.322  21.293  24.883  1.00  0.00     0.031 A 
ATOM     14  C   UNL A   1      34.837  23.686  24.851  1.00  0.00     0.008 A 
ATOM     15  C   UNL A   1      34.412  22.367  24.731  1.00  0.00     0.057 A 
ATOM     16  N   UNL A   1      33.025  22.410  24.536  1.00  0.00    -0.271 N 
ATOM     17  C   UNL A   1      32.730  23.651  23.997  1.00  0.00     0.135 A 
BRANCH  10  18
ATOM     18  O   UNL A   1      38.260  23.147  26.079  1.00  0.00    -0.497 OA
ATOM     19  C   UNL A   1      38.384  24.490  26.551  1.00  0.00     0.278 C 
ENDBRANCH  10  18
BRANCH  16  20
ATOM     20  C   UNL A   1      32.125  21.397  24.956  1.00  0.00     0.262 C 
ATOM     21  O   UNL A   1      31.232  21.655  25.737  1.00  0.00    -0.268 OA
BRANCH  20  22
ATOM     22  C   UNL A   1      32.350  19.980  24.613  1.00  0.00     0.040 A 
ATOM     23  C   UNL A   1      32.805  19.124  25.624  1.00  0.00     0.015 A 
ATOM     24  C   UNL A   1      32.299  19.573  23.278  1.00  0.00     0.015 A 
ATOM     25  C   UNL A   1      33.275  17.860  25.284  1.00  0.00     0.021 A 
ATOM     26  C   UNL A   1      32.781  18.306  22.945  1.00  0.00     0.021 A 
ATOM     27  C   UNL A   1      33.278  17.463  23.946  1.00  0.00     0.041 A 
ATOM     28  Cl  UNL A   1      33.948  15.936  23.518  1.00  0.00    -0.084 Cl
ENDBRANCH  20  22
ENDBRANCH  16  20
BRANCH  17  29
ATOM     29  C   UNL A   1      31.534  23.974  23.159  1.00  0.00     0.432 C 
ATOM     30  F   UNL A   1      30.968  22.835  22.691  1.00  0.00    -0.165 F 
ATOM     31  F   UNL A   1      30.594  24.585  23.925  1.00  0.00    -0.165 F 
ATOM     32  F   UNL A   1      31.736  24.788  22.106  1.00  0.00    -0.165 F 
ENDBRANCH  17  29
ENDBRANCH   8   9
ENDBRANCH   6   8
ENDBRANCH   5   6
ENDBRANCH   4   5
ENDBRANCH   3   4
ENDBRANCH   2   3
ENDBRANCH   1   2
BRANCH   1  33
ATOM     33  C   UNL A   1      35.597  30.863  27.996  1.00  0.00     0.188 C 
BRANCH  33  34
ATOM     34  O   UNL A   1      35.561  31.221  29.363  1.00  0.00    -0.376 OA
BRANCH  34  35
ATOM     35  C   UNL A   1      34.874  32.426  29.669  1.00  0.00     0.202 C 
BRANCH  35  36
ATOM     36  C   UNL A   1      34.784  32.764  31.168  1.00  0.00     0.261 C 
BRANCH  36  37
ATOM     37  O   UNL A   1      35.438  31.745  31.960  1.00  0.00    -0.460 OA
BRANCH  37  38
ATOM     38  C   UNL A   1      36.178  32.214  33.004  1.00  0.00     0.338 C 
ATOM     39  O   UNL A   1      35.748  32.840  33.958  1.00  0.00    -0.246 OA
BRANCH  38  40
ATOM     40  C   UNL A   1      37.480  31.488  33.000  1.00  0.00     0.060 A 
ATOM     41  C   UNL A   1      38.706  32.038  33.376  1.00  0.00     0.016 A 
ATOM     42  C   UNL A   1      37.463  30.240  32.378  1.00  0.00     0.016 A 
ATOM     43  C   UNL A   1      39.902  31.358  33.063  1.00  0.00     0.010 A 
ATOM     44  C   UNL A   1      38.643  29.605  31.996  1.00  0.00     0.010 A 
ATOM     45  C   UNL A   1      39.879  30.159  32.330  1.00  0.00    -0.014 A 
BRANCH  45  46
ATOM     46  C   UNL A   1      41.061  29.293  32.191  1.00  0.00     0.031 A 
ATOM     47  C   UNL A   1      41.809  29.132  33.447  1.00  0.00     0.074 A 
ATOM     48  C   UNL A   1      41.530  28.580  31.143  1.00  0.00     0.049 A 
ATOM     49  N   UNL A   1      42.895  29.774  33.714  1.00  0.00    -0.248 NA
ATOM     50  C   UNL A   1      41.301  28.298  34.536  1.00  0.00     0.031 C 
ATOM     51  C   UNL A   1      41.047  28.570  29.778  1.00  0.00     0.029 A 
ATOM     52  N   UNL A   1      42.559  27.667  31.096  1.00  0.00    -0.354 N 
ATOM     53  C   UNL A   1      43.342  29.263  34.912  1.00  0.00     0.074 A 
ATOM     54  C   UNL A   1      42.252  28.487  35.456  1.00  0.00     0.031 C 
ATOM     55  C   UNL A   1      41.594  27.540  29.086  1.00  0.00     0.029 A 
ATOM     56  C   UNL A   1      42.622  26.935  29.914  1.00  0.00     0.049 A 
ATOM     57  H   UNL A   1      43.196  27.542  31.836  1.00  0.00     0.167 HD
ATOM     58  C   UNL A   1      44.655  29.341  35.253  1.00  0.00     0.037 A 
ATOM     59  C   UNL A   1      43.611  26.129  29.453  1.00  0.00     0.037 A 
ATOM     60  C   UNL A   1      45.403  30.203  34.367  1.00  0.00     0.049 A 
ATOM     61  C   UNL A   1      44.876  26.696  29.959  1.00  0.00     0.074 A 
ATOM     62  C   UNL A   1      45.329  31.537  34.014  1.00  0.00     0.029 A 
ATOM     63  N   UNL A   1      46.158  29.596  33.391  1.00  0.00    -0.354 N 
ATOM     64  N   UNL A   1      45.367  27.838  29.563  1.00  0.00    -0.248 NA
ATOM     65  C   UNL A   1      45.471  26.149  31.168  1.00  0.00     0.031 C 
ATOM     66  C   UNL A   1      45.714  31.601  32.641  1.00  0.00     0.029 A 
ATOM     67  C   UNL A   1      46.030  30.310  32.221  1.00  0.00     0.049 A 
ATOM     68  H   UNL A   1      46.703  28.784  33.511  1.00  0.00     0.167 HD
ATOM     69  C   UNL A   1      45.982  28.357  30.685  1.00  0.00     0.074 A 
ATOM     70  C   UNL A   1      46.161  27.217  31.574  1.00  0.00     0.031 C 
ATOM     71  C   UNL A   1      46.030  29.704  30.900  1.00  0.00     0.037 A 
BRANCH  58  72
ATOM     72  C   UNL A   1      45.297  28.385  36.206  1.00  0.00     0.058 A 
ATOM     73  C   UNL A   1      45.452  27.035  35.858  1.00  0.00     0.135 A 
ATOM     74  C   UNL A   1      45.605  28.727  37.541  1.00  0.00     0.135 A 
ATOM     75  F   UNL A   1      45.132  26.610  34.625  1.00  0.00    -0.206 F 
ATOM     76  C   UNL A   1      45.896  26.084  36.774  1.00  0.00     0.059 A 
ATOM     77  C   UNL A   1      46.103  27.810  38.455  1.00  0.00     0.059 A 
ATOM     78  F   UNL A   1      45.359  29.955  38.024  1.00  0.00    -0.206 F 
ATOM     79  C   UNL A   1      46.222  26.483  38.070  1.00  0.00     0.060 A 
BRANCH  79  80
ATOM     80  S   UNL A   1      46.761  25.248  39.264  1.00  0.00     0.124 S 
ATOM     81  O   UNL A   1      45.487  24.660  39.666  1.00  0.00    -0.237 OA
ATOM     82  O   UNL A   1      47.631  24.400  38.455  1.00  0.00    -0.237 OA
ATOM     83  O   UNL A   1      47.441  26.041  40.283  1.00  0.00    -0.744 OA
ENDBRANCH  79  80
ENDBRANCH  58  72
BRANCH  59  84
ATOM     84  C   UNL A   1      43.518  24.822  28.753  1.00  0.00     0.058 A 
ATOM     85  C   UNL A   1      43.349  23.617  29.462  1.00  0.00     0.135 A 
ATOM     86  C   UNL A   1      43.308  24.756  27.361  1.00  0.00     0.135 A 
ATOM     87  F   UNL A   1      43.511  23.588  30.794  1.00  0.00    -0.206 F 
ATOM     88  C   UNL A   1      42.935  22.433  28.842  1.00  0.00     0.059 A 
ATOM     89  C   UNL A   1      42.900  23.583  26.718  1.00  0.00     0.059 A 
ATOM     90  F   UNL A   1      43.397  25.861  26.606  1.00  0.00    -0.206 F 
ATOM     91  C   UNL A   1      42.684  22.432  27.471  1.00  0.00     0.060 A 
BRANCH  91  92
ATOM     92  S   UNL A   1      41.944  20.962  26.715  1.00  0.00     0.124 S 
ATOM     93  O   UNL A   1      42.563  20.950  25.393  1.00  0.00    -0.237 OA
ATOM     94  O   UNL A   1      42.369  19.901  27.624  1.00  0.00    -0.237 OA
ATOM     95  O   UNL A   1      40.513  21.251  26.733  1.00  0.00    -0.744 OA
ENDBRANCH  91  92
ENDBRANCH  59  84
BRANCH  71  96
ATOM     96  C   UNL A   1      45.825  30.605  29.702  1.00  0.00     0.058 A 
ATOM     97  C   UNL A   1      44.572  31.061  29.254  1.00  0.00     0.135 A 
ATOM     98  C   UNL A   1      46.950  31.088  29.017  1.00  0.00     0.135 A 
ATOM     99  F   UNL A   1      43.453  30.737  29.910  1.00  0.00    -0.206 F 
ATOM    100  C   UNL A   1      44.437  31.910  28.153  1.00  0.00     0.059 A 
ATOM    101  C   UNL A   1      46.844  31.965  27.935  1.00  0.00     0.059 A 
ATOM    102  F   UNL A   1      48.183  30.739  29.422  1.00  0.00    -0.206 F 
ATOM    103  C   UNL A   1      45.581  32.357  27.497  1.00  0.00     0.060 A 
BRANCH 103 104
ATOM    104  S   UNL A   1      45.407  33.523  26.126  1.00  0.00     0.124 S 
ATOM    105  O   UNL A   1      44.891  34.713  26.795  1.00  0.00    -0.237 OA
ATOM    106  O   UNL A   1      46.774  33.625  25.620  1.00  0.00    -0.237 OA
ATOM    107  O   UNL A   1      44.470  32.854  25.228  1.00  0.00    -0.744 OA
ENDBRANCH 103 104
ENDBRANCH  71  96
ENDBRANCH  45  46
ENDBRANCH  38  40
ENDBRANCH  37  38
ENDBRANCH  36  37
ENDBRANCH  35  36
ENDBRANCH  34  35
ENDBRANCH  33  34
ENDBRANCH   1  33
TORSDOF 25
ENDMDL
