MODEL 1
REMARK VINA RESULT:     -11.2      0.000      0.000
REMARK SMILES O=C(OCCOCCOCCOC(=O)c1cc(Cl)ccc1N1C(=O)CC2(CCCC2)C1=O)c1ccc(-c2c3nc(c(-c4c(F)cc(S(=O)(=O)[O-])cc4F)c4ccc([nH]4)c(-c4c(F)cc(S(=O)(=O)[O-])cc4F)c4nc(c(-c5c(F)cc(S(=O)(=O)[O-])cc5F)c5ccc2[nH]5)C=C4)C=C3)cc1
REMARK SMILES IDX 7 1 6 2 5 3 4 4 3 5 2 6 1 7 33 8 34 9 98 10 35 11 97 12
REMARK SMILES IDX 36 13 37 14 38 15 91 16 39 17 96 18 90 19 92 20 40 21 95 22
REMARK SMILES IDX 89 23 88 24 41 26 75 27 54 28 74 29 55 30 58 31 73 32 93 33
REMARK SMILES IDX 56 34 57 35 72 37 94 38 59 39 42 40 43 41 52 42 44 43 45 44
REMARK SMILES IDX 51 45 53 46 46 47 47 48 48 49 49 50 50 51 76 52 77 53 86 54
REMARK SMILES IDX 78 55 79 56 85 57 87 58 80 59 81 60 82 61 83 62 84 63 60 64
REMARK SMILES IDX 61 65 70 66 62 67 63 68 69 69 71 70 64 71 65 72 66 73 67 74
REMARK SMILES IDX 68 75 8 76 9 77 10 78 11 79 12 80 13 81 14 82 15 83 16 84
REMARK SMILES IDX 21 85 17 86 20 87 18 88 19 89 22 90 23 91 31 92 24 93 25 94
REMARK SMILES IDX 26 95 32 96 27 97 30 98 28 99 29 100
REMARK H PARENT 92 25 58 36
REMARK Flexibility Score: inf
ROOT
ATOM      1  C   UNL A   1      34.476  33.046  29.369  1.00  0.00     0.188 C 
ENDROOT
BRANCH   1   2
ATOM      2  O   UNL A   1      34.509  32.680  30.746  1.00  0.00    -0.376 OA
BRANCH   2   3
ATOM      3  C   UNL A   1      35.783  32.672  31.373  1.00  0.00     0.202 C 
BRANCH   3   4
ATOM      4  C   UNL A   1      35.927  31.714  32.567  1.00  0.00     0.261 C 
BRANCH   4   5
ATOM      5  O   UNL A   1      36.908  30.697  32.316  1.00  0.00    -0.460 OA
BRANCH   5   6
ATOM      6  C   UNL A   1      36.941  30.060  31.114  1.00  0.00     0.338 C 
ATOM      7  O   UNL A   1      36.009  29.347  30.761  1.00  0.00    -0.246 OA
BRANCH   6   8
ATOM      8  C   UNL A   1      38.256  30.005  30.397  1.00  0.00     0.060 A 
ATOM      9  C   UNL A   1      38.394  30.085  29.011  1.00  0.00     0.016 A 
ATOM     10  C   UNL A   1      39.420  29.859  31.171  1.00  0.00     0.016 A 
ATOM     11  C   UNL A   1      39.641  29.984  28.409  1.00  0.00     0.010 A 
ATOM     12  C   UNL A   1      40.688  29.816  30.575  1.00  0.00     0.010 A 
ATOM     13  C   UNL A   1      40.793  29.814  29.180  1.00  0.00    -0.014 A 
BRANCH  13  14
ATOM     14  C   UNL A   1      42.004  29.360  28.460  1.00  0.00     0.031 A 
ATOM     15  C   UNL A   1      43.174  30.308  28.413  1.00  0.00     0.074 A 
ATOM     16  C   UNL A   1      42.134  28.066  28.107  1.00  0.00     0.049 A 
ATOM     17  N   UNL A   1      44.420  30.071  28.104  1.00  0.00    -0.248 NA
ATOM     18  C   UNL A   1      42.912  31.705  28.804  1.00  0.00     0.031 C 
ATOM     19  C   UNL A   1      41.073  27.060  28.183  1.00  0.00     0.029 A 
ATOM     20  N   UNL A   1      43.230  27.362  27.680  1.00  0.00    -0.354 N 
ATOM     21  C   UNL A   1      45.089  31.274  28.299  1.00  0.00     0.074 A 
ATOM     22  C   UNL A   1      44.108  32.257  28.689  1.00  0.00     0.031 C 
ATOM     23  C   UNL A   1      41.582  25.860  27.854  1.00  0.00     0.029 A 
ATOM     24  C   UNL A   1      42.995  26.015  27.524  1.00  0.00     0.049 A 
ATOM     25  H   UNL A   1      44.104  27.781  27.501  1.00  0.00     0.167 HD
ATOM     26  C   UNL A   1      46.411  31.532  28.197  1.00  0.00     0.037 A 
ATOM     27  C   UNL A   1      43.835  25.022  27.170  1.00  0.00     0.037 A 
ATOM     28  C   UNL A   1      47.375  30.552  27.786  1.00  0.00     0.049 A 
ATOM     29  C   UNL A   1      45.290  25.354  26.974  1.00  0.00     0.074 A 
ATOM     30  C   UNL A   1      48.727  30.713  27.553  1.00  0.00     0.029 A 
ATOM     31  N   UNL A   1      47.076  29.218  27.543  1.00  0.00    -0.354 N 
ATOM     32  N   UNL A   1      45.900  26.506  27.137  1.00  0.00    -0.248 NA
ATOM     33  C   UNL A   1      46.174  24.258  26.560  1.00  0.00     0.031 C 
ATOM     34  C   UNL A   1      49.241  29.480  27.135  1.00  0.00     0.029 A 
ATOM     35  C   UNL A   1      48.217  28.543  27.152  1.00  0.00     0.049 A 
ATOM     36  H   UNL A   1      46.184  28.812  27.636  1.00  0.00     0.167 HD
ATOM     37  C   UNL A   1      47.240  26.271  26.851  1.00  0.00     0.074 A 
ATOM     38  C   UNL A   1      47.355  24.861  26.537  1.00  0.00     0.031 C 
ATOM     39  C   UNL A   1      48.283  27.139  26.840  1.00  0.00     0.037 A 
BRANCH  26  40
ATOM     40  C   UNL A   1      46.857  32.931  28.512  1.00  0.00     0.058 A 
ATOM     41  C   UNL A   1      47.093  33.871  27.495  1.00  0.00     0.135 A 
ATOM     42  C   UNL A   1      47.097  33.324  29.837  1.00  0.00     0.135 A 
ATOM     43  F   UNL A   1      46.916  33.534  26.207  1.00  0.00    -0.206 F 
ATOM     44  C   UNL A   1      47.575  35.145  27.780  1.00  0.00     0.059 A 
ATOM     45  C   UNL A   1      47.558  34.600  30.147  1.00  0.00     0.059 A 
ATOM     46  F   UNL A   1      46.906  32.457  30.844  1.00  0.00    -0.206 F 
ATOM     47  C   UNL A   1      47.809  35.499  29.110  1.00  0.00     0.060 A 
BRANCH  47  48
ATOM     48  S   UNL A   1      48.450  37.149  29.464  1.00  0.00     0.124 S 
ATOM     49  O   UNL A   1      49.886  36.897  29.528  1.00  0.00    -0.237 OA
ATOM     50  O   UNL A   1      47.993  37.915  28.310  1.00  0.00    -0.237 OA
ATOM     51  O   UNL A   1      47.816  37.495  30.733  1.00  0.00    -0.744 OA
ENDBRANCH  47  48
ENDBRANCH  26  40
BRANCH  27  52
ATOM     52  C   UNL A   1      43.325  23.639  26.948  1.00  0.00     0.058 A 
ATOM     53  C   UNL A   1      43.040  22.767  28.009  1.00  0.00     0.135 A 
ATOM     54  C   UNL A   1      43.146  23.151  25.643  1.00  0.00     0.135 A 
ATOM     55  F   UNL A   1      43.205  23.176  29.277  1.00  0.00    -0.206 F 
ATOM     56  C   UNL A   1      42.619  21.457  27.787  1.00  0.00     0.059 A 
ATOM     57  C   UNL A   1      42.701  21.855  25.396  1.00  0.00     0.059 A 
ATOM     58  F   UNL A   1      43.405  23.942  24.590  1.00  0.00    -0.206 F 
ATOM     59  C   UNL A   1      42.455  21.009  26.474  1.00  0.00     0.060 A 
BRANCH  59  60
ATOM     60  S   UNL A   1      41.887  19.317  26.189  1.00  0.00     0.124 S 
ATOM     61  O   UNL A   1      42.652  18.947  25.005  1.00  0.00    -0.237 OA
ATOM     62  O   UNL A   1      42.271  18.648  27.429  1.00  0.00    -0.237 OA
ATOM     63  O   UNL A   1      40.450  19.473  25.991  1.00  0.00    -0.744 OA
ENDBRANCH  59  60
ENDBRANCH  27  52
BRANCH  39  64
ATOM     64  C   UNL A   1      49.626  26.578  26.475  1.00  0.00     0.058 A 
ATOM     65  C   UNL A   1      50.085  26.588  25.149  1.00  0.00     0.135 A 
ATOM     66  C   UNL A   1      50.479  26.071  27.468  1.00  0.00     0.135 A 
ATOM     67  F   UNL A   1      49.302  27.062  24.166  1.00  0.00    -0.206 F 
ATOM     68  C   UNL A   1      51.334  26.083  24.814  1.00  0.00     0.059 A 
ATOM     69  C   UNL A   1      51.743  25.587  27.158  1.00  0.00     0.059 A 
ATOM     70  F   UNL A   1      50.088  26.057  28.753  1.00  0.00    -0.206 F 
ATOM     71  C   UNL A   1      52.156  25.584  25.826  1.00  0.00     0.060 A 
BRANCH  71  72
ATOM     72  S   UNL A   1      53.786  24.950  25.383  1.00  0.00     0.124 S 
ATOM     73  O   UNL A   1      54.528  25.164  26.621  1.00  0.00    -0.237 OA
ATOM     74  O   UNL A   1      53.500  23.557  25.047  1.00  0.00    -0.237 OA
ATOM     75  O   UNL A   1      54.181  25.790  24.257  1.00  0.00    -0.744 OA
ENDBRANCH  71  72
ENDBRANCH  39  64
ENDBRANCH  13  14
ENDBRANCH   6   8
ENDBRANCH   5   6
ENDBRANCH   4   5
ENDBRANCH   3   4
ENDBRANCH   2   3
ENDBRANCH   1   2
BRANCH   1  76
ATOM     76  C   UNL A   1      34.884  31.981  28.338  1.00  0.00     0.188 C 
BRANCH  76  77
ATOM     77  O   UNL A   1      33.911  31.356  27.512  1.00  0.00    -0.376 OA
BRANCH  77  78
ATOM     78  C   UNL A   1      34.189  30.075  26.974  1.00  0.00     0.202 C 
BRANCH  78  79
ATOM     79  C   UNL A   1      33.201  29.539  25.935  1.00  0.00     0.261 C 
BRANCH  79  80
ATOM     80  O   UNL A   1      33.517  28.251  25.380  1.00  0.00    -0.460 OA
BRANCH  80  81
ATOM     81  C   UNL A   1      32.603  27.262  25.543  1.00  0.00     0.340 C 
ATOM     82  O   UNL A   1      31.974  26.994  26.556  1.00  0.00    -0.246 OA
BRANCH  81  83
ATOM     83  C   UNL A   1      32.491  26.502  24.284  1.00  0.00     0.085 A 
ATOM     84  C   UNL A   1      33.446  25.489  24.076  1.00  0.00     0.038 A 
ATOM     85  C   UNL A   1      31.444  26.682  23.361  1.00  0.00     0.066 A 
ATOM     86  C   UNL A   1      33.362  24.669  22.955  1.00  0.00     0.042 A 
ATOM     87  C   UNL A   1      31.407  25.867  22.214  1.00  0.00     0.029 A 
ATOM     88  Cl  UNL A   1      34.476  23.379  22.752  1.00  0.00    -0.084 Cl
ATOM     89  C   UNL A   1      32.359  24.866  22.013  1.00  0.00     0.023 A 
BRANCH  85  90
ATOM     90  N   UNL A   1      30.461  27.704  23.461  1.00  0.00    -0.249 N 
ATOM     91  C   UNL A   1      29.123  27.418  23.549  1.00  0.00     0.234 C 
ATOM     92  C   UNL A   1      30.654  28.905  22.835  1.00  0.00     0.240 C 
ATOM     93  O   UNL A   1      28.607  26.339  23.807  1.00  0.00    -0.274 OA
ATOM     94  C   UNL A   1      28.323  28.624  23.112  1.00  0.00     0.118 C 
ATOM     95  C   UNL A   1      29.363  29.701  22.828  1.00  0.00     0.059 C 
ATOM     96  O   UNL A   1      31.696  29.275  22.320  1.00  0.00    -0.273 OA
ATOM     97  C   UNL A   1      29.149  30.455  21.509  1.00  0.00     0.017 C 
ATOM     98  C   UNL A   1      29.388  30.817  23.874  1.00  0.00     0.017 C 
ATOM     99  C   UNL A   1      28.413  31.749  21.847  1.00  0.00     0.001 C 
ATOM    100  C   UNL A   1      28.462  31.906  23.359  1.00  0.00     0.001 C 
ENDBRANCH  85  90
ENDBRANCH  81  83
ENDBRANCH  80  81
ENDBRANCH  79  80
ENDBRANCH  78  79
ENDBRANCH  77  78
ENDBRANCH  76  77
ENDBRANCH   1  76
TORSDOF 21
ENDMDL
MODEL 2
REMARK VINA RESULT:     -11.0      6.414     12.276
REMARK SMILES O=C(OCCOCCOCCOC(=O)c1cc(Cl)ccc1N1C(=O)CC2(CCCC2)C1=O)c1ccc(-c2c3nc(c(-c4c(F)cc(S(=O)(=O)[O-])cc4F)c4ccc([nH]4)c(-c4c(F)cc(S(=O)(=O)[O-])cc4F)c4nc(c(-c5c(F)cc(S(=O)(=O)[O-])cc5F)c5ccc2[nH]5)C=C4)C=C3)cc1
REMARK SMILES IDX 7 1 6 2 5 3 4 4 3 5 2 6 1 7 33 8 34 9 98 10 35 11 97 12
REMARK SMILES IDX 36 13 37 14 38 15 91 16 39 17 96 18 90 19 92 20 40 21 95 22
REMARK SMILES IDX 89 23 88 24 41 26 75 27 54 28 74 29 55 30 58 31 73 32 93 33
REMARK SMILES IDX 56 34 57 35 72 37 94 38 59 39 42 40 43 41 52 42 44 43 45 44
REMARK SMILES IDX 51 45 53 46 46 47 47 48 48 49 49 50 50 51 76 52 77 53 86 54
REMARK SMILES IDX 78 55 79 56 85 57 87 58 80 59 81 60 82 61 83 62 84 63 60 64
REMARK SMILES IDX 61 65 70 66 62 67 63 68 69 69 71 70 64 71 65 72 66 73 67 74
REMARK SMILES IDX 68 75 8 76 9 77 10 78 11 79 12 80 13 81 14 82 15 83 16 84
REMARK SMILES IDX 21 85 17 86 20 87 18 88 19 89 22 90 23 91 31 92 24 93 25 94
REMARK SMILES IDX 26 95 32 96 27 97 30 98 28 99 29 100
REMARK H PARENT 92 25 58 36
REMARK Flexibility Score: inf
ROOT
ATOM      1  C   UNL A   1      40.975  22.406  26.485  1.00  0.00     0.188 C 
ENDROOT
BRANCH   1   2
ATOM      2  O   UNL A   1      42.041  21.615  25.966  1.00  0.00    -0.376 OA
BRANCH   2   3
ATOM      3  C   UNL A   1      43.360  22.046  26.269  1.00  0.00     0.202 C 
BRANCH   3   4
ATOM      4  C   UNL A   1      43.735  23.444  25.752  1.00  0.00     0.261 C 
BRANCH   4   5
ATOM      5  O   UNL A   1      44.046  24.342  26.828  1.00  0.00    -0.460 OA
BRANCH   5   6
ATOM      6  C   UNL A   1      44.021  25.687  26.627  1.00  0.00     0.338 C 
ATOM      7  O   UNL A   1      44.808  26.216  25.850  1.00  0.00    -0.246 OA
BRANCH   6   8
ATOM      8  C   UNL A   1      43.234  26.517  27.596  1.00  0.00     0.060 A 
ATOM      9  C   UNL A   1      43.541  27.838  27.922  1.00  0.00     0.016 A 
ATOM     10  C   UNL A   1      42.121  25.922  28.216  1.00  0.00     0.016 A 
ATOM     11  C   UNL A   1      42.793  28.535  28.862  1.00  0.00     0.010 A 
ATOM     12  C   UNL A   1      41.326  26.638  29.122  1.00  0.00     0.010 A 
ATOM     13  C   UNL A   1      41.703  27.933  29.494  1.00  0.00    -0.014 A 
BRANCH  13  14
ATOM     14  C   UNL A   1      41.201  28.602  30.716  1.00  0.00     0.031 A 
ATOM     15  C   UNL A   1      42.056  28.510  31.952  1.00  0.00     0.074 A 
ATOM     16  C   UNL A   1      40.171  29.466  30.637  1.00  0.00     0.049 A 
ATOM     17  N   UNL A   1      42.001  29.213  33.051  1.00  0.00    -0.248 NA
ATOM     18  C   UNL A   1      43.145  27.516  31.934  1.00  0.00     0.031 C 
ATOM     19  C   UNL A   1      39.329  29.671  29.455  1.00  0.00     0.029 A 
ATOM     20  N   UNL A   1      39.700  30.381  31.543  1.00  0.00    -0.354 N 
ATOM     21  C   UNL A   1      43.064  28.772  33.830  1.00  0.00     0.074 A 
ATOM     22  C   UNL A   1      43.710  27.699  33.115  1.00  0.00     0.031 C 
ATOM     23  C   UNL A   1      38.472  30.679  29.697  1.00  0.00     0.029 A 
ATOM     24  C   UNL A   1      38.689  31.175  31.052  1.00  0.00     0.049 A 
ATOM     25  H   UNL A   1      40.053  30.463  32.459  1.00  0.00     0.167 HD
ATOM     26  C   UNL A   1      43.491  29.244  35.023  1.00  0.00     0.037 A 
ATOM     27  C   UNL A   1      38.027  32.197  31.631  1.00  0.00     0.037 A 
ATOM     28  C   UNL A   1      42.827  30.296  35.736  1.00  0.00     0.049 A 
ATOM     29  C   UNL A   1      38.464  32.643  33.001  1.00  0.00     0.074 A 
ATOM     30  C   UNL A   1      43.103  30.798  36.993  1.00  0.00     0.029 A 
ATOM     31  N   UNL A   1      41.742  31.010  35.243  1.00  0.00    -0.354 N 
ATOM     32  N   UNL A   1      39.457  32.195  33.736  1.00  0.00    -0.248 NA
ATOM     33  C   UNL A   1      37.705  33.738  33.619  1.00  0.00     0.031 C 
ATOM     34  C   UNL A   1      42.161  31.795  37.275  1.00  0.00     0.029 A 
ATOM     35  C   UNL A   1      41.328  31.942  36.175  1.00  0.00     0.049 A 
ATOM     36  H   UNL A   1      41.329  30.872  34.360  1.00  0.00     0.167 HD
ATOM     37  C   UNL A   1      39.445  32.956  34.898  1.00  0.00     0.074 A 
ATOM     38  C   UNL A   1      38.367  33.915  34.754  1.00  0.00     0.031 C 
ATOM     39  C   UNL A   1      40.244  32.872  35.991  1.00  0.00     0.037 A 
BRANCH  26  40
ATOM     40  C   UNL A   1      44.707  28.592  35.616  1.00  0.00     0.058 A 
ATOM     41  C   UNL A   1      44.600  27.477  36.466  1.00  0.00     0.135 A 
ATOM     42  C   UNL A   1      45.987  29.111  35.374  1.00  0.00     0.135 A 
ATOM     43  F   UNL A   1      43.394  26.964  36.762  1.00  0.00    -0.206 F 
ATOM     44  C   UNL A   1      45.719  26.917  37.073  1.00  0.00     0.059 A 
ATOM     45  C   UNL A   1      47.122  28.553  35.953  1.00  0.00     0.059 A 
ATOM     46  F   UNL A   1      46.141  30.186  34.585  1.00  0.00    -0.206 F 
ATOM     47  C   UNL A   1      46.977  27.464  36.814  1.00  0.00     0.060 A 
BRANCH  47  48
ATOM     48  S   UNL A   1      48.418  26.737  37.622  1.00  0.00     0.124 S 
ATOM     49  O   UNL A   1      47.826  26.192  38.840  1.00  0.00    -0.237 OA
ATOM     50  O   UNL A   1      48.863  25.754  36.640  1.00  0.00    -0.237 OA
ATOM     51  O   UNL A   1      49.311  27.876  37.814  1.00  0.00    -0.744 OA
ENDBRANCH  47  48
ENDBRANCH  26  40
BRANCH  27  52
ATOM     52  C   UNL A   1      36.874  32.842  30.943  1.00  0.00     0.058 A 
ATOM     53  C   UNL A   1      35.544  32.506  31.236  1.00  0.00     0.135 A 
ATOM     54  C   UNL A   1      37.094  33.798  29.937  1.00  0.00     0.135 A 
ATOM     55  F   UNL A   1      35.276  31.588  32.178  1.00  0.00    -0.206 F 
ATOM     56  C   UNL A   1      34.476  33.075  30.545  1.00  0.00     0.059 A 
ATOM     57  C   UNL A   1      36.043  34.401  29.252  1.00  0.00     0.059 A 
ATOM     58  F   UNL A   1      38.346  34.157  29.615  1.00  0.00    -0.206 F 
ATOM     59  C   UNL A   1      34.736  34.021  29.550  1.00  0.00     0.060 A 
BRANCH  59  60
ATOM     60  S   UNL A   1      33.349  34.774  28.670  1.00  0.00     0.124 S 
ATOM     61  O   UNL A   1      32.450  35.106  29.769  1.00  0.00    -0.237 OA
ATOM     62  O   UNL A   1      33.983  35.906  28.001  1.00  0.00    -0.237 OA
ATOM     63  O   UNL A   1      32.895  33.708  27.782  1.00  0.00    -0.744 OA
ENDBRANCH  59  60
ENDBRANCH  27  52
BRANCH  39  64
ATOM     64  C   UNL A   1      39.972  33.839  37.105  1.00  0.00     0.058 A 
ATOM     65  C   UNL A   1      39.109  33.512  38.162  1.00  0.00     0.135 A 
ATOM     66  C   UNL A   1      40.619  35.085  37.138  1.00  0.00     0.135 A 
ATOM     67  F   UNL A   1      38.468  32.333  38.170  1.00  0.00    -0.206 F 
ATOM     68  C   UNL A   1      38.870  34.402  39.200  1.00  0.00     0.059 A 
ATOM     69  C   UNL A   1      40.416  35.978  38.182  1.00  0.00     0.059 A 
ATOM     70  F   UNL A   1      41.466  35.434  36.157  1.00  0.00    -0.206 F 
ATOM     71  C   UNL A   1      39.527  35.634  39.201  1.00  0.00     0.060 A 
BRANCH  71  72
ATOM     72  S   UNL A   1      39.226  36.775  40.566  1.00  0.00     0.124 S 
ATOM     73  O   UNL A   1      38.297  36.007  41.388  1.00  0.00    -0.237 OA
ATOM     74  O   UNL A   1      40.564  36.958  41.122  1.00  0.00    -0.237 OA
ATOM     75  O   UNL A   1      38.662  37.949  39.907  1.00  0.00    -0.744 OA
ENDBRANCH  71  72
ENDBRANCH  39  64
ENDBRANCH  13  14
ENDBRANCH   6   8
ENDBRANCH   5   6
ENDBRANCH   4   5
ENDBRANCH   3   4
ENDBRANCH   2   3
ENDBRANCH   1   2
BRANCH   1  76
ATOM     76  C   UNL A   1      39.552  21.833  26.393  1.00  0.00     0.188 C 
BRANCH  76  77
ATOM     77  O   UNL A   1      38.445  22.675  26.101  1.00  0.00    -0.376 OA
BRANCH  77  78
ATOM     78  C   UNL A   1      37.615  22.358  24.997  1.00  0.00     0.202 C 
BRANCH  78  79
ATOM     79  C   UNL A   1      36.123  22.661  25.151  1.00  0.00     0.261 C 
BRANCH  79  80
ATOM     80  O   UNL A   1      35.616  23.732  24.337  1.00  0.00    -0.460 OA
BRANCH  80  81
ATOM     81  C   UNL A   1      34.543  23.464  23.553  1.00  0.00     0.340 C 
ATOM     82  O   UNL A   1      34.542  23.242  22.350  1.00  0.00    -0.246 OA
BRANCH  81  83
ATOM     83  C   UNL A   1      33.322  23.509  24.378  1.00  0.00     0.085 A 
ATOM     84  C   UNL A   1      32.905  24.782  24.812  1.00  0.00     0.038 A 
ATOM     85  C   UNL A   1      32.534  22.377  24.657  1.00  0.00     0.066 A 
ATOM     86  C   UNL A   1      31.718  24.922  25.524  1.00  0.00     0.042 A 
ATOM     87  C   UNL A   1      31.360  22.542  25.417  1.00  0.00     0.029 A 
ATOM     88  Cl  UNL A   1      31.169  26.486  25.972  1.00  0.00    -0.084 Cl
ATOM     89  C   UNL A   1      30.954  23.807  25.845  1.00  0.00     0.023 A 
BRANCH  85  90
ATOM     90  N   UNL A   1      32.893  21.049  24.302  1.00  0.00    -0.249 N 
ATOM     91  C   UNL A   1      32.354  20.418  23.211  1.00  0.00     0.234 C 
ATOM     92  C   UNL A   1      33.207  20.139  25.275  1.00  0.00     0.240 C 
ATOM     93  O   UNL A   1      31.737  20.928  22.285  1.00  0.00    -0.274 OA
ATOM     94  C   UNL A   1      32.486  18.921  23.381  1.00  0.00     0.118 C 
ATOM     95  C   UNL A   1      33.254  18.742  24.686  1.00  0.00     0.059 C 
ATOM     96  O   UNL A   1      33.385  20.397  26.454  1.00  0.00    -0.273 OA
ATOM     97  C   UNL A   1      32.659  17.689  25.630  1.00  0.00     0.017 C 
ATOM     98  C   UNL A   1      34.693  18.267  24.487  1.00  0.00     0.017 C 
ATOM     99  C   UNL A   1      33.435  16.395  25.403  1.00  0.00     0.001 C 
ATOM    100  C   UNL A   1      34.659  16.750  24.573  1.00  0.00     0.001 C 
ENDBRANCH  85  90
ENDBRANCH  81  83
ENDBRANCH  80  81
ENDBRANCH  79  80
ENDBRANCH  78  79
ENDBRANCH  77  78
ENDBRANCH  76  77
ENDBRANCH   1  76
TORSDOF 21
ENDMDL
MODEL 3
REMARK VINA RESULT:     -11.0      5.984     11.701
REMARK SMILES O=C(OCCOCCOCCOC(=O)c1cc(Cl)ccc1N1C(=O)CC2(CCCC2)C1=O)c1ccc(-c2c3nc(c(-c4c(F)cc(S(=O)(=O)[O-])cc4F)c4ccc([nH]4)c(-c4c(F)cc(S(=O)(=O)[O-])cc4F)c4nc(c(-c5c(F)cc(S(=O)(=O)[O-])cc5F)c5ccc2[nH]5)C=C4)C=C3)cc1
REMARK SMILES IDX 7 1 6 2 5 3 4 4 3 5 2 6 1 7 33 8 34 9 98 10 35 11 97 12
REMARK SMILES IDX 36 13 37 14 38 15 91 16 39 17 96 18 90 19 92 20 40 21 95 22
REMARK SMILES IDX 89 23 88 24 41 26 75 27 54 28 74 29 55 30 58 31 73 32 93 33
REMARK SMILES IDX 56 34 57 35 72 37 94 38 59 39 42 40 43 41 52 42 44 43 45 44
REMARK SMILES IDX 51 45 53 46 46 47 47 48 48 49 49 50 50 51 76 52 77 53 86 54
REMARK SMILES IDX 78 55 79 56 85 57 87 58 80 59 81 60 82 61 83 62 84 63 60 64
REMARK SMILES IDX 61 65 70 66 62 67 63 68 69 69 71 70 64 71 65 72 66 73 67 74
REMARK SMILES IDX 68 75 8 76 9 77 10 78 11 79 12 80 13 81 14 82 15 83 16 84
REMARK SMILES IDX 21 85 17 86 20 87 18 88 19 89 22 90 23 91 31 92 24 93 25 94
REMARK SMILES IDX 26 95 32 96 27 97 30 98 28 99 29 100
REMARK H PARENT 92 25 58 36
REMARK Flexibility Score: inf
ROOT
ATOM      1  C   UNL A   1      41.119  22.499  26.365  1.00  0.00     0.188 C 
ENDROOT
BRANCH   1   2
ATOM      2  O   UNL A   1      41.958  21.903  25.379  1.00  0.00    -0.376 OA
BRANCH   2   3
ATOM      3  C   UNL A   1      43.320  22.309  25.371  1.00  0.00     0.202 C 
BRANCH   3   4
ATOM      4  C   UNL A   1      43.567  23.786  25.025  1.00  0.00     0.261 C 
BRANCH   4   5
ATOM      5  O   UNL A   1      43.863  24.563  26.196  1.00  0.00    -0.460 OA
BRANCH   5   6
ATOM      6  C   UNL A   1      43.895  25.921  26.126  1.00  0.00     0.338 C 
ATOM      7  O   UNL A   1      44.735  26.490  25.437  1.00  0.00    -0.246 OA
BRANCH   6   8
ATOM      8  C   UNL A   1      43.098  26.684  27.140  1.00  0.00     0.060 A 
ATOM      9  C   UNL A   1      43.286  28.037  27.423  1.00  0.00     0.016 A 
ATOM     10  C   UNL A   1      42.104  25.989  27.851  1.00  0.00     0.016 A 
ATOM     11  C   UNL A   1      42.539  28.672  28.407  1.00  0.00     0.010 A 
ATOM     12  C   UNL A   1      41.306  26.638  28.803  1.00  0.00     0.010 A 
ATOM     13  C   UNL A   1      41.569  27.973  29.128  1.00  0.00    -0.014 A 
BRANCH  13  14
ATOM     14  C   UNL A   1      41.089  28.612  30.375  1.00  0.00     0.031 A 
ATOM     15  C   UNL A   1      41.959  28.476  31.597  1.00  0.00     0.074 A 
ATOM     16  C   UNL A   1      40.068  29.489  30.334  1.00  0.00     0.049 A 
ATOM     17  N   UNL A   1      41.926  29.148  32.716  1.00  0.00    -0.248 NA
ATOM     18  C   UNL A   1      43.036  27.471  31.537  1.00  0.00     0.031 C 
ATOM     19  C   UNL A   1      39.214  29.736  29.170  1.00  0.00     0.029 A 
ATOM     20  N   UNL A   1      39.619  30.382  31.272  1.00  0.00    -0.354 N 
ATOM     21  C   UNL A   1      42.994  28.673  33.469  1.00  0.00     0.074 A 
ATOM     22  C   UNL A   1      43.618  27.614  32.715  1.00  0.00     0.031 C 
ATOM     23  C   UNL A   1      38.371  30.745  29.451  1.00  0.00     0.029 A 
ATOM     24  C   UNL A   1      38.610  31.201  30.817  1.00  0.00     0.049 A 
ATOM     25  H   UNL A   1      39.984  30.434  32.185  1.00  0.00     0.167 HD
ATOM     26  C   UNL A   1      43.440  29.105  34.669  1.00  0.00     0.037 A 
ATOM     27  C   UNL A   1      37.967  32.212  31.434  1.00  0.00     0.037 A 
ATOM     28  C   UNL A   1      42.797  30.144  35.421  1.00  0.00     0.049 A 
ATOM     29  C   UNL A   1      38.425  32.614  32.810  1.00  0.00     0.074 A 
ATOM     30  C   UNL A   1      43.094  30.606  36.688  1.00  0.00     0.029 A 
ATOM     31  N   UNL A   1      41.714  30.883  34.961  1.00  0.00    -0.354 N 
ATOM     32  N   UNL A   1      39.423  32.135  33.518  1.00  0.00    -0.248 NA
ATOM     33  C   UNL A   1      37.687  33.699  33.468  1.00  0.00     0.031 C 
ATOM     34  C   UNL A   1      42.167  31.605  37.010  1.00  0.00     0.029 A 
ATOM     35  C   UNL A   1      41.322  31.792  35.925  1.00  0.00     0.049 A 
ATOM     36  H   UNL A   1      41.289  30.775  34.080  1.00  0.00     0.167 HD
ATOM     37  C   UNL A   1      39.434  32.863  34.702  1.00  0.00     0.074 A 
ATOM     38  C   UNL A   1      38.365  33.836  34.599  1.00  0.00     0.031 C 
ATOM     39  C   UNL A   1      40.245  32.738  35.782  1.00  0.00     0.037 A 
BRANCH  26  40
ATOM     40  C   UNL A   1      44.656  28.424  35.228  1.00  0.00     0.058 A 
ATOM     41  C   UNL A   1      44.548  27.279  36.036  1.00  0.00     0.135 A 
ATOM     42  C   UNL A   1      45.938  28.943  34.994  1.00  0.00     0.135 A 
ATOM     43  F   UNL A   1      43.342  26.764  36.324  1.00  0.00    -0.206 F 
ATOM     44  C   UNL A   1      45.669  26.690  36.614  1.00  0.00     0.059 A 
ATOM     45  C   UNL A   1      47.074  28.356  35.543  1.00  0.00     0.059 A 
ATOM     46  F   UNL A   1      46.093  30.046  34.245  1.00  0.00    -0.206 F 
ATOM     47  C   UNL A   1      46.928  27.238  36.365  1.00  0.00     0.060 A 
BRANCH  47  48
ATOM     48  S   UNL A   1      48.371  26.472  37.133  1.00  0.00     0.124 S 
ATOM     49  O   UNL A   1      47.917  26.311  38.511  1.00  0.00    -0.237 OA
ATOM     50  O   UNL A   1      48.514  25.239  36.366  1.00  0.00    -0.237 OA
ATOM     51  O   UNL A   1      49.427  27.459  36.931  1.00  0.00    -0.744 OA
ENDBRANCH  47  48
ENDBRANCH  26  40
BRANCH  27  52
ATOM     52  C   UNL A   1      36.812  32.889  30.779  1.00  0.00     0.058 A 
ATOM     53  C   UNL A   1      36.981  33.843  29.764  1.00  0.00     0.135 A 
ATOM     54  C   UNL A   1      35.499  32.610  31.194  1.00  0.00     0.135 A 
ATOM     55  F   UNL A   1      38.214  34.158  29.338  1.00  0.00    -0.206 F 
ATOM     56  C   UNL A   1      35.895  34.511  29.200  1.00  0.00     0.059 A 
ATOM     57  C   UNL A   1      34.397  33.245  30.628  1.00  0.00     0.059 A 
ATOM     58  F   UNL A   1      35.279  31.708  32.163  1.00  0.00    -0.206 F 
ATOM     59  C   UNL A   1      34.606  34.206  29.641  1.00  0.00     0.060 A 
BRANCH  59  60
ATOM     60  S   UNL A   1      33.198  35.059  28.893  1.00  0.00     0.124 S 
ATOM     61  O   UNL A   1      32.660  34.024  28.019  1.00  0.00    -0.237 OA
ATOM     62  O   UNL A   1      32.384  35.395  30.058  1.00  0.00    -0.237 OA
ATOM     63  O   UNL A   1      33.814  36.198  28.220  1.00  0.00    -0.744 OA
ENDBRANCH  59  60
ENDBRANCH  27  52
BRANCH  39  64
ATOM     64  C   UNL A   1      39.998  33.676  36.927  1.00  0.00     0.058 A 
ATOM     65  C   UNL A   1      40.682  34.897  37.030  1.00  0.00     0.135 A 
ATOM     66  C   UNL A   1      39.036  33.370  37.901  1.00  0.00     0.135 A 
ATOM     67  F   UNL A   1      41.612  35.230  36.121  1.00  0.00    -0.206 F 
ATOM     68  C   UNL A   1      40.442  35.772  38.082  1.00  0.00     0.059 A 
ATOM     69  C   UNL A   1      38.760  34.243  38.946  1.00  0.00     0.059 A 
ATOM     70  F   UNL A   1      38.345  32.220  37.834  1.00  0.00    -0.206 F 
ATOM     71  C   UNL A   1      39.479  35.435  39.036  1.00  0.00     0.060 A 
BRANCH  71  72
ATOM     72  S   UNL A   1      39.160  36.588  40.387  1.00  0.00     0.124 S 
ATOM     73  O   UNL A   1      38.229  35.821  41.210  1.00  0.00    -0.237 OA
ATOM     74  O   UNL A   1      40.492  36.786  40.952  1.00  0.00    -0.237 OA
ATOM     75  O   UNL A   1      38.594  37.751  39.712  1.00  0.00    -0.744 OA
ENDBRANCH  71  72
ENDBRANCH  39  64
ENDBRANCH  13  14
ENDBRANCH   6   8
ENDBRANCH   5   6
ENDBRANCH   4   5
ENDBRANCH   3   4
ENDBRANCH   2   3
ENDBRANCH   1   2
BRANCH   1  76
ATOM     76  C   UNL A   1      39.684  21.965  26.498  1.00  0.00     0.188 C 
BRANCH  76  77
ATOM     77  O   UNL A   1      38.726  22.189  25.474  1.00  0.00    -0.376 OA
BRANCH  77  78
ATOM     78  C   UNL A   1      37.391  22.493  25.839  1.00  0.00     0.202 C 
BRANCH  78  79
ATOM     79  C   UNL A   1      36.866  23.873  25.434  1.00  0.00     0.261 C 
BRANCH  79  80
ATOM     80  O   UNL A   1      35.437  23.993  25.331  1.00  0.00    -0.460 OA
BRANCH  80  81
ATOM     81  C   UNL A   1      34.862  23.605  24.167  1.00  0.00     0.340 C 
ATOM     82  O   UNL A   1      35.085  24.044  23.048  1.00  0.00    -0.246 OA
BRANCH  81  83
ATOM     83  C   UNL A   1      33.864  22.556  24.451  1.00  0.00     0.085 A 
ATOM     84  C   UNL A   1      34.301  21.224  24.319  1.00  0.00     0.038 A 
ATOM     85  C   UNL A   1      32.568  22.828  24.924  1.00  0.00     0.066 A 
ATOM     86  C   UNL A   1      33.449  20.175  24.649  1.00  0.00     0.042 A 
ATOM     87  C   UNL A   1      31.712  21.748  25.209  1.00  0.00     0.029 A 
ATOM     88  Cl  UNL A   1      34.016  18.556  24.573  1.00  0.00    -0.084 Cl
ATOM     89  C   UNL A   1      32.151  20.429  25.075  1.00  0.00     0.023 A 
BRANCH  85  90
ATOM     90  N   UNL A   1      32.022  24.135  25.047  1.00  0.00    -0.249 N 
ATOM     91  C   UNL A   1      31.443  24.573  26.209  1.00  0.00     0.234 C 
ATOM     92  C   UNL A   1      31.445  24.743  23.965  1.00  0.00     0.240 C 
ATOM     93  O   UNL A   1      31.526  24.068  27.320  1.00  0.00    -0.274 OA
ATOM     94  C   UNL A   1      30.513  25.726  25.902  1.00  0.00     0.118 C 
ATOM     95  C   UNL A   1      30.678  25.974  24.407  1.00  0.00     0.059 C 
ATOM     96  O   UNL A   1      31.500  24.340  22.814  1.00  0.00    -0.273 OA
ATOM     97  C   UNL A   1      29.357  26.144  23.645  1.00  0.00     0.017 C 
ATOM     98  C   UNL A   1      31.443  27.257  24.081  1.00  0.00     0.017 C 
ATOM     99  C   UNL A   1      29.108  27.644  23.510  1.00  0.00     0.001 C 
ATOM    100  C   UNL A   1      30.397  28.346  23.908  1.00  0.00     0.001 C 
ENDBRANCH  85  90
ENDBRANCH  81  83
ENDBRANCH  80  81
ENDBRANCH  79  80
ENDBRANCH  78  79
ENDBRANCH  77  78
ENDBRANCH  76  77
ENDBRANCH   1  76
TORSDOF 21
ENDMDL
