MODEL 1
REMARK VINA RESULT:      -9.5      0.000      0.000
REMARK SMILES O=C(OCCOCCOCCOC(=O)c1sccc1NS(=O)(=O)N1CCCC1)c1ccc(-c2c3nc(c(-c4c(F)cc(S(=O)(=O)[O-])cc4F)c4ccc([nH]4)c(-c4c(F)cc(S(=O)(=O)[O-])cc4F)c4nc(c(-c5c(F)cc(S(=O)(=O)[O-])cc5F)c5ccc2[nH]5)C=C4)C=C3)cc1
REMARK SMILES IDX 7 1 6 2 5 3 4 4 3 5 2 6 1 7 29 8 30 9 94 10 31 11 93 12
REMARK SMILES IDX 32 13 33 14 34 15 87 16 35 17 92 18 86 19 88 20 36 21 91 22
REMARK SMILES IDX 85 23 84 24 37 26 71 27 50 28 70 29 51 30 54 31 69 32 89 33
REMARK SMILES IDX 52 34 53 35 68 37 90 38 55 39 38 40 39 41 48 42 40 43 41 44
REMARK SMILES IDX 47 45 49 46 42 47 43 48 44 49 45 50 46 51 72 52 73 53 82 54
REMARK SMILES IDX 74 55 75 56 81 57 83 58 76 59 77 60 78 61 79 62 80 63 56 64
REMARK SMILES IDX 57 65 66 66 58 67 59 68 65 69 67 70 60 71 61 72 62 73 63 74
REMARK SMILES IDX 64 75 8 76 9 77 10 78 11 79 12 80 13 81 14 82 15 83 16 84
REMARK SMILES IDX 19 85 17 86 18 87 20 88 21 90 22 91 23 92 24 93 25 94 28 95
REMARK SMILES IDX 26 96 27 97
REMARK H PARENT 88 25 54 36 20 89
REMARK Flexibility Score: inf
ROOT
ATOM      1  C   UNL A   1      31.076  28.629  23.891  1.00  0.00     0.188 C 
ENDROOT
BRANCH   1   2
ATOM      2  O   UNL A   1      31.760  28.154  25.057  1.00  0.00    -0.376 OA
BRANCH   2   3
ATOM      3  C   UNL A   1      33.183  28.287  24.974  1.00  0.00     0.202 C 
BRANCH   3   4
ATOM      4  C   UNL A   1      33.904  28.587  26.300  1.00  0.00     0.261 C 
BRANCH   4   5
ATOM      5  O   UNL A   1      33.677  29.920  26.788  1.00  0.00    -0.460 OA
BRANCH   5   6
ATOM      6  C   UNL A   1      34.518  30.713  27.501  1.00  0.00     0.338 C 
ATOM      7  O   UNL A   1      34.217  31.894  27.657  1.00  0.00    -0.246 OA
BRANCH   6   8
ATOM      8  C   UNL A   1      35.774  30.214  28.142  1.00  0.00     0.060 A 
ATOM      9  C   UNL A   1      35.845  29.610  29.396  1.00  0.00     0.016 A 
ATOM     10  C   UNL A   1      36.963  30.321  27.403  1.00  0.00     0.016 A 
ATOM     11  C   UNL A   1      37.065  29.269  29.975  1.00  0.00     0.010 A 
ATOM     12  C   UNL A   1      38.185  29.898  27.945  1.00  0.00     0.010 A 
ATOM     13  C   UNL A   1      38.250  29.414  29.262  1.00  0.00    -0.014 A 
BRANCH  13  14
ATOM     14  C   UNL A   1      39.556  29.222  29.940  1.00  0.00     0.031 A 
ATOM     15  C   UNL A   1      40.416  28.066  29.507  1.00  0.00     0.074 A 
ATOM     16  C   UNL A   1      40.065  30.118  30.811  1.00  0.00     0.049 A 
ATOM     17  N   UNL A   1      41.548  27.648  30.006  1.00  0.00    -0.248 NA
ATOM     18  C   UNL A   1      39.974  27.327  28.312  1.00  0.00     0.031 C 
ATOM     19  C   UNL A   1      39.520  31.447  31.090  1.00  0.00     0.029 A 
ATOM     20  N   UNL A   1      41.191  30.056  31.604  1.00  0.00    -0.354 N 
ATOM     21  C   UNL A   1      41.972  26.627  29.168  1.00  0.00     0.074 A 
ATOM     22  C   UNL A   1      40.946  26.438  28.167  1.00  0.00     0.031 C 
ATOM     23  C   UNL A   1      40.311  32.048  31.992  1.00  0.00     0.029 A 
ATOM     24  C   UNL A   1      41.281  31.104  32.493  1.00  0.00     0.049 A 
ATOM     25  H   UNL A   1      41.860  29.337  31.542  1.00  0.00     0.167 HD
ATOM     26  C   UNL A   1      43.135  25.939  29.210  1.00  0.00     0.037 A 
ATOM     27  C   UNL A   1      41.996  31.233  33.630  1.00  0.00     0.037 A 
ATOM     28  C   UNL A   1      44.141  26.136  30.218  1.00  0.00     0.049 A 
ATOM     29  C   UNL A   1      43.055  30.221  33.892  1.00  0.00     0.074 A 
ATOM     30  C   UNL A   1      45.357  25.496  30.366  1.00  0.00     0.029 A 
ATOM     31  N   UNL A   1      44.030  27.034  31.270  1.00  0.00    -0.354 N 
ATOM     32  N   UNL A   1      43.393  29.192  33.158  1.00  0.00    -0.248 NA
ATOM     33  C   UNL A   1      43.883  30.431  35.085  1.00  0.00     0.031 C 
ATOM     34  C   UNL A   1      45.950  25.959  31.546  1.00  0.00     0.029 A 
ATOM     35  C   UNL A   1      45.128  26.924  32.103  1.00  0.00     0.049 A 
ATOM     36  H   UNL A   1      43.279  27.658  31.404  1.00  0.00     0.167 HD
ATOM     37  C   UNL A   1      44.527  28.676  33.755  1.00  0.00     0.074 A 
ATOM     38  C   UNL A   1      44.775  29.462  34.949  1.00  0.00     0.031 C 
ATOM     39  C   UNL A   1      45.331  27.685  33.307  1.00  0.00     0.037 A 
BRANCH  26  40
ATOM     40  C   UNL A   1      43.336  24.879  28.169  1.00  0.00     0.058 A 
ATOM     41  C   UNL A   1      42.932  23.548  28.370  1.00  0.00     0.135 A 
ATOM     42  C   UNL A   1      43.986  25.194  26.966  1.00  0.00     0.135 A 
ATOM     43  F   UNL A   1      42.329  23.188  29.514  1.00  0.00    -0.206 F 
ATOM     44  C   UNL A   1      43.206  22.559  27.430  1.00  0.00     0.059 A 
ATOM     45  C   UNL A   1      44.249  24.227  26.004  1.00  0.00     0.059 A 
ATOM     46  F   UNL A   1      44.398  26.450  26.731  1.00  0.00    -0.206 F 
ATOM     47  C   UNL A   1      43.876  22.906  26.256  1.00  0.00     0.060 A 
BRANCH  47  48
ATOM     48  S   UNL A   1      44.277  21.607  25.071  1.00  0.00     0.124 S 
ATOM     49  O   UNL A   1      45.640  21.267  25.465  1.00  0.00    -0.237 OA
ATOM     50  O   UNL A   1      43.264  20.597  25.359  1.00  0.00    -0.237 OA
ATOM     51  O   UNL A   1      44.145  22.272  23.779  1.00  0.00    -0.744 OA
ENDBRANCH  47  48
ENDBRANCH  26  40
BRANCH  27  52
ATOM     52  C   UNL A   1      41.664  32.230  34.687  1.00  0.00     0.058 A 
ATOM     53  C   UNL A   1      42.288  33.475  34.814  1.00  0.00     0.135 A 
ATOM     54  C   UNL A   1      40.679  31.900  35.637  1.00  0.00     0.135 A 
ATOM     55  F   UNL A   1      43.262  33.824  33.962  1.00  0.00    -0.206 F 
ATOM     56  C   UNL A   1      41.895  34.391  35.795  1.00  0.00     0.059 A 
ATOM     57  C   UNL A   1      40.265  32.793  36.619  1.00  0.00     0.059 A 
ATOM     58  F   UNL A   1      40.056  30.712  35.568  1.00  0.00    -0.206 F 
ATOM     59  C   UNL A   1      40.861  34.052  36.674  1.00  0.00     0.060 A 
BRANCH  59  60
ATOM     60  S   UNL A   1      40.094  35.312  37.726  1.00  0.00     0.124 S 
ATOM     61  O   UNL A   1      41.102  35.488  38.763  1.00  0.00    -0.237 OA
ATOM     62  O   UNL A   1      39.913  36.436  36.815  1.00  0.00    -0.237 OA
ATOM     63  O   UNL A   1      38.858  34.648  38.139  1.00  0.00    -0.744 OA
ENDBRANCH  59  60
ENDBRANCH  27  52
BRANCH  39  64
ATOM     64  C   UNL A   1      46.576  27.452  34.094  1.00  0.00     0.058 A 
ATOM     65  C   UNL A   1      47.751  28.171  33.842  1.00  0.00     0.135 A 
ATOM     66  C   UNL A   1      46.585  26.480  35.106  1.00  0.00     0.135 A 
ATOM     67  F   UNL A   1      47.793  29.077  32.853  1.00  0.00    -0.206 F 
ATOM     68  C   UNL A   1      48.907  27.927  34.570  1.00  0.00     0.059 A 
ATOM     69  C   UNL A   1      47.721  26.242  35.865  1.00  0.00     0.059 A 
ATOM     70  F   UNL A   1      45.483  25.756  35.362  1.00  0.00    -0.206 F 
ATOM     71  C   UNL A   1      48.878  26.967  35.585  1.00  0.00     0.060 A 
BRANCH  71  72
ATOM     72  S   UNL A   1      50.366  26.704  36.566  1.00  0.00     0.124 S 
ATOM     73  O   UNL A   1      50.762  25.365  36.144  1.00  0.00    -0.237 OA
ATOM     74  O   UNL A   1      51.228  27.794  36.116  1.00  0.00    -0.237 OA
ATOM     75  O   UNL A   1      49.888  26.817  37.940  1.00  0.00    -0.744 OA
ENDBRANCH  71  72
ENDBRANCH  39  64
ENDBRANCH  13  14
ENDBRANCH   6   8
ENDBRANCH   5   6
ENDBRANCH   4   5
ENDBRANCH   3   4
ENDBRANCH   2   3
ENDBRANCH   1   2
BRANCH   1  76
ATOM     76  C   UNL A   1      30.947  27.569  22.796  1.00  0.00     0.188 C 
BRANCH  76  77
ATOM     77  O   UNL A   1      31.005  26.205  23.206  1.00  0.00    -0.376 OA
BRANCH  77  78
ATOM     78  C   UNL A   1      31.972  25.376  22.567  1.00  0.00     0.202 C 
BRANCH  78  79
ATOM     79  C   UNL A   1      32.445  24.111  23.303  1.00  0.00     0.261 C 
BRANCH  79  80
ATOM     80  O   UNL A   1      33.860  24.051  23.535  1.00  0.00    -0.459 OA
BRANCH  80  81
ATOM     81  C   UNL A   1      34.246  23.992  24.846  1.00  0.00     0.350 C 
ATOM     82  O   UNL A   1      33.750  24.643  25.755  1.00  0.00    -0.245 OA
BRANCH  81  83
ATOM     83  C   UNL A   1      35.307  23.032  24.988  1.00  0.00     0.136 A 
ATOM     84  S   UNL A   1      36.865  23.595  25.438  1.00  0.00    -0.135 S 
ATOM     85  C   UNL A   1      35.288  21.677  24.737  1.00  0.00     0.075 A 
ATOM     86  C   UNL A   1      37.499  22.023  25.464  1.00  0.00     0.068 A 
ATOM     87  C   UNL A   1      36.553  21.108  25.076  1.00  0.00     0.039 A 
BRANCH  85  88
ATOM     88  N   UNL A   1      34.177  20.920  24.297  1.00  0.00    -0.269 N 
ATOM     89  H   UNL A   1      34.030  20.797  23.332  1.00  0.00     0.181 HD
BRANCH  88  90
ATOM     90  S   UNL A   1      33.085  20.215  25.403  1.00  0.00     0.301 S 
ATOM     91  O   UNL A   1      33.650  20.501  26.692  1.00  0.00    -0.189 OA
ATOM     92  O   UNL A   1      31.765  20.680  25.019  1.00  0.00    -0.189 OA
BRANCH  90  93
ATOM     93  N   UNL A   1      33.258  18.628  25.029  1.00  0.00    -0.185 NA
ATOM     94  C   UNL A   1      32.599  17.600  25.802  1.00  0.00     0.104 C 
ATOM     95  C   UNL A   1      33.510  18.093  23.701  1.00  0.00     0.104 C 
ATOM     96  C   UNL A   1      33.414  16.374  25.446  1.00  0.00     0.018 C 
ATOM     97  C   UNL A   1      33.769  16.599  23.978  1.00  0.00     0.018 C 
ENDBRANCH  90  93
ENDBRANCH  88  90
ENDBRANCH  85  88
ENDBRANCH  81  83
ENDBRANCH  80  81
ENDBRANCH  79  80
ENDBRANCH  78  79
ENDBRANCH  77  78
ENDBRANCH  76  77
ENDBRANCH   1  76
TORSDOF 23
ENDMDL
MODEL 2
REMARK VINA RESULT:      -9.3      3.125      9.077
REMARK SMILES O=C(OCCOCCOCCOC(=O)c1sccc1NS(=O)(=O)N1CCCC1)c1ccc(-c2c3nc(c(-c4c(F)cc(S(=O)(=O)[O-])cc4F)c4ccc([nH]4)c(-c4c(F)cc(S(=O)(=O)[O-])cc4F)c4nc(c(-c5c(F)cc(S(=O)(=O)[O-])cc5F)c5ccc2[nH]5)C=C4)C=C3)cc1
REMARK SMILES IDX 7 1 6 2 5 3 4 4 3 5 2 6 1 7 29 8 30 9 94 10 31 11 93 12
REMARK SMILES IDX 32 13 33 14 34 15 87 16 35 17 92 18 86 19 88 20 36 21 91 22
REMARK SMILES IDX 85 23 84 24 37 26 71 27 50 28 70 29 51 30 54 31 69 32 89 33
REMARK SMILES IDX 52 34 53 35 68 37 90 38 55 39 38 40 39 41 48 42 40 43 41 44
REMARK SMILES IDX 47 45 49 46 42 47 43 48 44 49 45 50 46 51 72 52 73 53 82 54
REMARK SMILES IDX 74 55 75 56 81 57 83 58 76 59 77 60 78 61 79 62 80 63 56 64
REMARK SMILES IDX 57 65 66 66 58 67 59 68 65 69 67 70 60 71 61 72 62 73 63 74
REMARK SMILES IDX 64 75 8 76 9 77 10 78 11 79 12 80 13 81 14 82 15 83 16 84
REMARK SMILES IDX 19 85 17 86 18 87 20 88 21 90 22 91 23 92 24 93 25 94 28 95
REMARK SMILES IDX 26 96 27 97
REMARK H PARENT 88 25 54 36 20 89
REMARK Flexibility Score: inf
ROOT
ATOM      1  C   UNL A   1      40.791  21.182  26.436  1.00  0.00     0.188 C 
ENDROOT
BRANCH   1   2
ATOM      2  O   UNL A   1      42.172  21.478  26.676  1.00  0.00    -0.376 OA
BRANCH   2   3
ATOM      3  C   UNL A   1      42.376  22.716  27.365  1.00  0.00     0.202 C 
BRANCH   3   4
ATOM      4  C   UNL A   1      43.287  23.733  26.654  1.00  0.00     0.261 C 
BRANCH   4   5
ATOM      5  O   UNL A   1      42.575  24.631  25.786  1.00  0.00    -0.460 OA
BRANCH   5   6
ATOM      6  C   UNL A   1      42.278  25.940  25.985  1.00  0.00     0.338 C 
ATOM      7  O   UNL A   1      42.152  26.669  25.003  1.00  0.00    -0.246 OA
BRANCH   6   8
ATOM      8  C   UNL A   1      42.057  26.538  27.339  1.00  0.00     0.060 A 
ATOM      9  C   UNL A   1      41.042  26.167  28.218  1.00  0.00     0.016 A 
ATOM     10  C   UNL A   1      42.970  27.512  27.773  1.00  0.00     0.016 A 
ATOM     11  C   UNL A   1      40.831  26.843  29.419  1.00  0.00     0.010 A 
ATOM     12  C   UNL A   1      42.817  28.135  29.019  1.00  0.00     0.010 A 
ATOM     13  C   UNL A   1      41.710  27.839  29.832  1.00  0.00    -0.014 A 
BRANCH  13  14
ATOM     14  C   UNL A   1      41.385  28.676  31.012  1.00  0.00     0.031 A 
ATOM     15  C   UNL A   1      40.315  29.724  30.865  1.00  0.00     0.074 A 
ATOM     16  C   UNL A   1      41.894  28.439  32.239  1.00  0.00     0.049 A 
ATOM     17  N   UNL A   1      39.921  30.626  31.722  1.00  0.00    -0.248 NA
ATOM     18  C   UNL A   1      39.544  29.707  29.609  1.00  0.00     0.031 C 
ATOM     19  C   UNL A   1      42.681  27.268  32.628  1.00  0.00     0.029 A 
ATOM     20  N   UNL A   1      41.791  29.163  33.407  1.00  0.00    -0.354 N 
ATOM     21  C   UNL A   1      38.835  31.256  31.129  1.00  0.00     0.074 A 
ATOM     22  C   UNL A   1      38.674  30.684  29.811  1.00  0.00     0.031 C 
ATOM     23  C   UNL A   1      42.987  27.378  33.930  1.00  0.00     0.029 A 
ATOM     24  C   UNL A   1      42.600  28.682  34.412  1.00  0.00     0.049 A 
ATOM     25  H   UNL A   1      41.201  29.944  33.512  1.00  0.00     0.167 HD
ATOM     26  C   UNL A   1      38.025  32.200  31.659  1.00  0.00     0.037 A 
ATOM     27  C   UNL A   1      43.049  29.273  35.539  1.00  0.00     0.037 A 
ATOM     28  C   UNL A   1      38.206  32.762  32.969  1.00  0.00     0.049 A 
ATOM     29  C   UNL A   1      42.413  30.558  35.938  1.00  0.00     0.074 A 
ATOM     30  C   UNL A   1      37.451  33.725  33.612  1.00  0.00     0.029 A 
ATOM     31  N   UNL A   1      39.239  32.420  33.832  1.00  0.00    -0.354 N 
ATOM     32  N   UNL A   1      41.459  31.214  35.329  1.00  0.00    -0.248 NA
ATOM     33  C   UNL A   1      42.848  31.138  37.214  1.00  0.00     0.031 C 
ATOM     34  C   UNL A   1      38.068  34.015  34.834  1.00  0.00     0.029 A 
ATOM     35  C   UNL A   1      39.175  33.195  34.975  1.00  0.00     0.049 A 
ATOM     36  H   UNL A   1      39.917  31.728  33.655  1.00  0.00     0.167 HD
ATOM     37  C   UNL A   1      41.121  32.243  36.186  1.00  0.00     0.074 A 
ATOM     38  C   UNL A   1      42.019  32.164  37.323  1.00  0.00     0.031 C 
ATOM     39  C   UNL A   1      40.104  33.128  36.071  1.00  0.00     0.037 A 
BRANCH  26  40
ATOM     40  C   UNL A   1      36.916  32.709  30.788  1.00  0.00     0.058 A 
ATOM     41  C   UNL A   1      37.122  33.714  29.827  1.00  0.00     0.135 A 
ATOM     42  C   UNL A   1      35.613  32.214  30.951  1.00  0.00     0.135 A 
ATOM     43  F   UNL A   1      38.345  34.240  29.649  1.00  0.00    -0.206 F 
ATOM     44  C   UNL A   1      36.066  34.238  29.089  1.00  0.00     0.059 A 
ATOM     45  C   UNL A   1      34.548  32.707  30.209  1.00  0.00     0.059 A 
ATOM     46  F   UNL A   1      35.364  31.260  31.862  1.00  0.00    -0.206 F 
ATOM     47  C   UNL A   1      34.780  33.736  29.296  1.00  0.00     0.060 A 
BRANCH  47  48
ATOM     48  S   UNL A   1      33.408  34.463  28.377  1.00  0.00     0.124 S 
ATOM     49  O   UNL A   1      34.095  35.479  27.587  1.00  0.00    -0.237 OA
ATOM     50  O   UNL A   1      32.893  33.320  27.629  1.00  0.00    -0.237 OA
ATOM     51  O   UNL A   1      32.528  34.970  29.425  1.00  0.00    -0.744 OA
ENDBRANCH  47  48
ENDBRANCH  26  40
BRANCH  27  52
ATOM     52  C   UNL A   1      44.240  28.786  36.291  1.00  0.00     0.058 A 
ATOM     53  C   UNL A   1      45.526  29.317  36.154  1.00  0.00     0.135 A 
ATOM     54  C   UNL A   1      44.076  27.709  37.184  1.00  0.00     0.135 A 
ATOM     55  F   UNL A   1      45.747  30.315  35.288  1.00  0.00    -0.206 F 
ATOM     56  C   UNL A   1      46.593  28.852  36.929  1.00  0.00     0.059 A 
ATOM     57  C   UNL A   1      45.118  27.231  37.970  1.00  0.00     0.059 A 
ATOM     58  F   UNL A   1      42.864  27.154  37.346  1.00  0.00    -0.206 F 
ATOM     59  C   UNL A   1      46.372  27.829  37.857  1.00  0.00     0.060 A 
BRANCH  59  60
ATOM     60  S   UNL A   1      47.621  27.431  39.107  1.00  0.00     0.124 S 
ATOM     61  O   UNL A   1      48.396  26.395  38.434  1.00  0.00    -0.237 OA
ATOM     62  O   UNL A   1      48.300  28.704  39.310  1.00  0.00    -0.237 OA
ATOM     63  O   UNL A   1      46.795  26.986  40.228  1.00  0.00    -0.744 OA
ENDBRANCH  59  60
ENDBRANCH  27  52
BRANCH  39  64
ATOM     64  C   UNL A   1      39.892  34.031  37.239  1.00  0.00     0.058 A 
ATOM     65  C   UNL A   1      39.099  33.649  38.329  1.00  0.00     0.135 A 
ATOM     66  C   UNL A   1      40.486  35.301  37.251  1.00  0.00     0.135 A 
ATOM     67  F   UNL A   1      38.480  32.459  38.334  1.00  0.00    -0.206 F 
ATOM     68  C   UNL A   1      38.896  34.509  39.399  1.00  0.00     0.059 A 
ATOM     69  C   UNL A   1      40.319  36.164  38.323  1.00  0.00     0.059 A 
ATOM     70  F   UNL A   1      41.235  35.709  36.214  1.00  0.00    -0.206 F 
ATOM     71  C   UNL A   1      39.518  35.761  39.389  1.00  0.00     0.060 A 
BRANCH  71  72
ATOM     72  S   UNL A   1      39.298  36.843  40.812  1.00  0.00     0.124 S 
ATOM     73  O   UNL A   1      38.422  36.040  41.658  1.00  0.00    -0.237 OA
ATOM     74  O   UNL A   1      40.668  37.007  41.291  1.00  0.00    -0.237 OA
ATOM     75  O   UNL A   1      38.694  38.040  40.236  1.00  0.00    -0.744 OA
ENDBRANCH  71  72
ENDBRANCH  39  64
ENDBRANCH  13  14
ENDBRANCH   6   8
ENDBRANCH   5   6
ENDBRANCH   4   5
ENDBRANCH   3   4
ENDBRANCH   2   3
ENDBRANCH   1   2
BRANCH   1  76
ATOM     76  C   UNL A   1      39.951  22.429  26.149  1.00  0.00     0.188 C 
BRANCH  76  77
ATOM     77  O   UNL A   1      38.556  22.350  26.434  1.00  0.00    -0.376 OA
BRANCH  77  78
ATOM     78  C   UNL A   1      37.692  23.203  25.691  1.00  0.00     0.202 C 
BRANCH  78  79
ATOM     79  C   UNL A   1      36.224  23.316  26.133  1.00  0.00     0.261 C 
BRANCH  79  80
ATOM     80  O   UNL A   1      35.518  24.434  25.575  1.00  0.00    -0.459 OA
BRANCH  80  81
ATOM     81  C   UNL A   1      34.155  24.316  25.531  1.00  0.00     0.350 C 
ATOM     82  O   UNL A   1      33.412  24.385  26.500  1.00  0.00    -0.245 OA
BRANCH  81  83
ATOM     83  C   UNL A   1      33.738  24.122  24.169  1.00  0.00     0.136 A 
ATOM     84  S   UNL A   1      33.094  25.464  23.312  1.00  0.00    -0.135 S 
ATOM     85  C   UNL A   1      33.701  22.959  23.430  1.00  0.00     0.075 A 
ATOM     86  C   UNL A   1      32.909  24.555  21.893  1.00  0.00     0.068 A 
ATOM     87  C   UNL A   1      33.273  23.248  22.100  1.00  0.00     0.039 A 
BRANCH  85  88
ATOM     88  N   UNL A   1      34.106  21.675  23.866  1.00  0.00    -0.269 N 
ATOM     89  H   UNL A   1      34.964  21.309  23.552  1.00  0.00     0.181 HD
BRANCH  88  90
ATOM     90  S   UNL A   1      33.140  20.748  24.924  1.00  0.00     0.301 S 
ATOM     91  O   UNL A   1      33.829  20.811  26.183  1.00  0.00    -0.189 OA
ATOM     92  O   UNL A   1      31.783  21.234  24.762  1.00  0.00    -0.189 OA
BRANCH  90  93
ATOM     93  N   UNL A   1      33.294  19.261  24.249  1.00  0.00    -0.185 NA
ATOM     94  C   UNL A   1      34.215  18.286  24.786  1.00  0.00     0.104 C 
ATOM     95  C   UNL A   1      32.250  18.542  23.536  1.00  0.00     0.104 C 
ATOM     96  C   UNL A   1      34.387  17.343  23.614  1.00  0.00     0.018 C 
ATOM     97  C   UNL A   1      33.002  17.321  22.970  1.00  0.00     0.018 C 
ENDBRANCH  90  93
ENDBRANCH  88  90
ENDBRANCH  85  88
ENDBRANCH  81  83
ENDBRANCH  80  81
ENDBRANCH  79  80
ENDBRANCH  78  79
ENDBRANCH  77  78
ENDBRANCH  76  77
ENDBRANCH   1  76
TORSDOF 23
ENDMDL
MODEL 3
REMARK VINA RESULT:      -9.2      1.230      8.160
REMARK SMILES O=C(OCCOCCOCCOC(=O)c1sccc1NS(=O)(=O)N1CCCC1)c1ccc(-c2c3nc(c(-c4c(F)cc(S(=O)(=O)[O-])cc4F)c4ccc([nH]4)c(-c4c(F)cc(S(=O)(=O)[O-])cc4F)c4nc(c(-c5c(F)cc(S(=O)(=O)[O-])cc5F)c5ccc2[nH]5)C=C4)C=C3)cc1
REMARK SMILES IDX 7 1 6 2 5 3 4 4 3 5 2 6 1 7 29 8 30 9 94 10 31 11 93 12
REMARK SMILES IDX 32 13 33 14 34 15 87 16 35 17 92 18 86 19 88 20 36 21 91 22
REMARK SMILES IDX 85 23 84 24 37 26 71 27 50 28 70 29 51 30 54 31 69 32 89 33
REMARK SMILES IDX 52 34 53 35 68 37 90 38 55 39 38 40 39 41 48 42 40 43 41 44
REMARK SMILES IDX 47 45 49 46 42 47 43 48 44 49 45 50 46 51 72 52 73 53 82 54
REMARK SMILES IDX 74 55 75 56 81 57 83 58 76 59 77 60 78 61 79 62 80 63 56 64
REMARK SMILES IDX 57 65 66 66 58 67 59 68 65 69 67 70 60 71 61 72 62 73 63 74
REMARK SMILES IDX 64 75 8 76 9 77 10 78 11 79 12 80 13 81 14 82 15 83 16 84
REMARK SMILES IDX 19 85 17 86 18 87 20 88 21 90 22 91 23 92 24 93 25 94 28 95
REMARK SMILES IDX 26 96 27 97
REMARK H PARENT 88 25 54 36 20 89
REMARK Flexibility Score: inf
ROOT
ATOM      1  C   UNL A   1      31.124  29.178  24.166  1.00  0.00     0.188 C 
ENDROOT
BRANCH   1   2
ATOM      2  O   UNL A   1      31.711  28.468  25.263  1.00  0.00    -0.376 OA
BRANCH   2   3
ATOM      3  C   UNL A   1      33.116  28.706  25.407  1.00  0.00     0.202 C 
BRANCH   3   4
ATOM      4  C   UNL A   1      33.598  29.005  26.838  1.00  0.00     0.261 C 
BRANCH   4   5
ATOM      5  O   UNL A   1      33.770  30.407  27.104  1.00  0.00    -0.460 OA
BRANCH   5   6
ATOM      6  C   UNL A   1      34.821  31.033  27.693  1.00  0.00     0.338 C 
ATOM      7  O   UNL A   1      34.769  32.252  27.842  1.00  0.00    -0.246 OA
BRANCH   6   8
ATOM      8  C   UNL A   1      36.026  30.310  28.206  1.00  0.00     0.060 A 
ATOM      9  C   UNL A   1      36.081  29.600  29.404  1.00  0.00     0.016 A 
ATOM     10  C   UNL A   1      37.174  30.310  27.397  1.00  0.00     0.016 A 
ATOM     11  C   UNL A   1      37.270  29.043  29.871  1.00  0.00     0.010 A 
ATOM     12  C   UNL A   1      38.350  29.675  27.819  1.00  0.00     0.010 A 
ATOM     13  C   UNL A   1      38.420  29.079  29.089  1.00  0.00    -0.014 A 
BRANCH  13  14
ATOM     14  C   UNL A   1      39.721  28.650  29.659  1.00  0.00     0.031 A 
ATOM     15  C   UNL A   1      40.265  29.413  30.837  1.00  0.00     0.074 A 
ATOM     16  C   UNL A   1      40.355  27.526  29.268  1.00  0.00     0.049 A 
ATOM     17  N   UNL A   1      41.412  29.281  31.447  1.00  0.00    -0.248 NA
ATOM     18  C   UNL A   1      39.367  30.409  31.448  1.00  0.00     0.031 C 
ATOM     19  C   UNL A   1      39.808  26.499  28.379  1.00  0.00     0.029 A 
ATOM     20  N   UNL A   1      41.599  27.036  29.603  1.00  0.00    -0.354 N 
ATOM     21  C   UNL A   1      41.359  30.145  32.531  1.00  0.00     0.074 A 
ATOM     22  C   UNL A   1      40.099  30.849  32.461  1.00  0.00     0.031 C 
ATOM     23  C   UNL A   1      40.723  25.526  28.243  1.00  0.00     0.029 A 
ATOM     24  C   UNL A   1      41.964  25.937  28.857  1.00  0.00     0.049 A 
ATOM     25  H   UNL A   1      42.169  27.431  30.301  1.00  0.00     0.167 HD
ATOM     26  C   UNL A   1      42.270  30.304  33.519  1.00  0.00     0.037 A 
ATOM     27  C   UNL A   1      43.178  25.394  28.625  1.00  0.00     0.037 A 
ATOM     28  C   UNL A   1      43.522  29.600  33.568  1.00  0.00     0.049 A 
ATOM     29  C   UNL A   1      44.309  25.861  29.473  1.00  0.00     0.074 A 
ATOM     30  C   UNL A   1      44.525  29.679  34.515  1.00  0.00     0.029 A 
ATOM     31  N   UNL A   1      43.951  28.696  32.605  1.00  0.00    -0.354 N 
ATOM     32  N   UNL A   1      44.291  26.753  30.429  1.00  0.00    -0.248 NA
ATOM     33  C   UNL A   1      45.599  25.193  29.270  1.00  0.00     0.031 C 
ATOM     34  C   UNL A   1      45.590  28.876  34.089  1.00  0.00     0.029 A 
ATOM     35  C   UNL A   1      45.227  28.257  32.905  1.00  0.00     0.049 A 
ATOM     36  H   UNL A   1      43.424  28.411  31.823  1.00  0.00     0.167 HD
ATOM     37  C   UNL A   1      45.548  26.697  31.001  1.00  0.00     0.074 A 
ATOM     38  C   UNL A   1      46.321  25.736  30.238  1.00  0.00     0.031 C 
ATOM     39  C   UNL A   1      45.992  27.335  32.108  1.00  0.00     0.037 A 
BRANCH  26  40
ATOM     40  C   UNL A   1      41.954  31.316  34.578  1.00  0.00     0.058 A 
ATOM     41  C   UNL A   1      41.168  31.003  35.700  1.00  0.00     0.135 A 
ATOM     42  C   UNL A   1      42.408  32.637  34.441  1.00  0.00     0.135 A 
ATOM     43  F   UNL A   1      40.687  29.760  35.865  1.00  0.00    -0.206 F 
ATOM     44  C   UNL A   1      40.810  31.976  36.628  1.00  0.00     0.059 A 
ATOM     45  C   UNL A   1      42.081  33.619  35.368  1.00  0.00     0.059 A 
ATOM     46  F   UNL A   1      43.154  32.988  33.382  1.00  0.00    -0.206 F 
ATOM     47  C   UNL A   1      41.262  33.285  36.446  1.00  0.00     0.060 A 
BRANCH  47  48
ATOM     48  S   UNL A   1      40.745  34.551  37.622  1.00  0.00     0.124 S 
ATOM     49  O   UNL A   1      41.676  35.630  37.313  1.00  0.00    -0.237 OA
ATOM     50  O   UNL A   1      39.356  34.784  37.239  1.00  0.00    -0.237 OA
ATOM     51  O   UNL A   1      40.935  33.908  38.918  1.00  0.00    -0.744 OA
ENDBRANCH  47  48
ENDBRANCH  26  40
BRANCH  27  52
ATOM     52  C   UNL A   1      43.455  24.489  27.475  1.00  0.00     0.058 A 
ATOM     53  C   UNL A   1      43.748  24.931  26.181  1.00  0.00     0.135 A 
ATOM     54  C   UNL A   1      43.400  23.097  27.687  1.00  0.00     0.135 A 
ATOM     55  F   UNL A   1      43.772  26.244  25.914  1.00  0.00    -0.206 F 
ATOM     56  C   UNL A   1      44.053  24.031  25.155  1.00  0.00     0.059 A 
ATOM     57  C   UNL A   1      43.704  22.181  26.686  1.00  0.00     0.059 A 
ATOM     58  F   UNL A   1      43.112  22.618  28.908  1.00  0.00    -0.206 F 
ATOM     59  C   UNL A   1      44.058  22.659  25.425  1.00  0.00     0.060 A 
BRANCH  59  60
ATOM     60  S   UNL A   1      44.768  21.488  24.239  1.00  0.00     0.124 S 
ATOM     61  O   UNL A   1      44.393  22.089  22.966  1.00  0.00    -0.237 OA
ATOM     62  O   UNL A   1      46.189  21.513  24.563  1.00  0.00    -0.237 OA
ATOM     63  O   UNL A   1      44.077  20.248  24.590  1.00  0.00    -0.744 OA
ENDBRANCH  59  60
ENDBRANCH  27  52
BRANCH  39  64
ATOM     64  C   UNL A   1      47.357  26.954  32.575  1.00  0.00     0.058 A 
ATOM     65  C   UNL A   1      48.492  27.682  32.198  1.00  0.00     0.135 A 
ATOM     66  C   UNL A   1      47.519  25.833  33.402  1.00  0.00     0.135 A 
ATOM     67  F   UNL A   1      48.381  28.735  31.373  1.00  0.00    -0.206 F 
ATOM     68  C   UNL A   1      49.756  27.303  32.626  1.00  0.00     0.059 A 
ATOM     69  C   UNL A   1      48.770  25.454  33.864  1.00  0.00     0.059 A 
ATOM     70  F   UNL A   1      46.455  25.099  33.766  1.00  0.00    -0.206 F 
ATOM     71  C   UNL A   1      49.883  26.193  33.465  1.00  0.00     0.060 A 
BRANCH  71  72
ATOM     72  S   UNL A   1      51.522  25.748  34.065  1.00  0.00     0.124 S 
ATOM     73  O   UNL A   1      51.479  26.248  35.434  1.00  0.00    -0.237 OA
ATOM     74  O   UNL A   1      51.521  24.295  33.918  1.00  0.00    -0.237 OA
ATOM     75  O   UNL A   1      52.417  26.462  33.160  1.00  0.00    -0.744 OA
ENDBRANCH  71  72
ENDBRANCH  39  64
ENDBRANCH  13  14
ENDBRANCH   6   8
ENDBRANCH   5   6
ENDBRANCH   4   5
ENDBRANCH   3   4
ENDBRANCH   2   3
ENDBRANCH   1   2
BRANCH   1  76
ATOM     76  C   UNL A   1      31.423  28.539  22.809  1.00  0.00     0.188 C 
BRANCH  76  77
ATOM     77  O   UNL A   1      31.535  27.119  22.772  1.00  0.00    -0.376 OA
BRANCH  77  78
ATOM     78  C   UNL A   1      32.752  26.576  22.269  1.00  0.00     0.202 C 
BRANCH  78  79
ATOM     79  C   UNL A   1      33.243  25.236  22.843  1.00  0.00     0.261 C 
BRANCH  79  80
ATOM     80  O   UNL A   1      34.472  25.320  23.579  1.00  0.00    -0.459 OA
BRANCH  80  81
ATOM     81  C   UNL A   1      34.439  24.815  24.851  1.00  0.00     0.350 C 
ATOM     82  O   UNL A   1      33.785  25.279  25.775  1.00  0.00    -0.245 OA
BRANCH  81  83
ATOM     83  C   UNL A   1      35.273  23.645  24.922  1.00  0.00     0.136 A 
ATOM     84  S   UNL A   1      36.735  23.736  25.817  1.00  0.00    -0.135 S 
ATOM     85  C   UNL A   1      35.113  22.428  24.294  1.00  0.00     0.075 A 
ATOM     86  C   UNL A   1      37.097  22.107  25.519  1.00  0.00     0.068 A 
ATOM     87  C   UNL A   1      36.152  21.538  24.703  1.00  0.00     0.039 A 
BRANCH  85  88
ATOM     88  N   UNL A   1      34.047  22.057  23.442  1.00  0.00    -0.269 N 
ATOM     89  H   UNL A   1      34.147  22.167  22.469  1.00  0.00     0.181 HD
BRANCH  88  90
ATOM     90  S   UNL A   1      32.590  21.421  24.064  1.00  0.00     0.301 S 
ATOM     91  O   UNL A   1      32.576  21.841  25.437  1.00  0.00    -0.189 OA
ATOM     92  O   UNL A   1      31.550  21.807  23.128  1.00  0.00    -0.189 OA
BRANCH  90  93
ATOM     93  N   UNL A   1      32.889  19.813  23.948  1.00  0.00    -0.185 NA
ATOM     94  C   UNL A   1      33.246  19.032  25.109  1.00  0.00     0.104 C 
ATOM     95  C   UNL A   1      32.304  18.910  22.968  1.00  0.00     0.104 C 
ATOM     96  C   UNL A   1      33.895  17.817  24.478  1.00  0.00     0.018 C 
ATOM     97  C   UNL A   1      33.078  17.599  23.207  1.00  0.00     0.018 C 
ENDBRANCH  90  93
ENDBRANCH  88  90
ENDBRANCH  85  88
ENDBRANCH  81  83
ENDBRANCH  80  81
ENDBRANCH  79  80
ENDBRANCH  78  79
ENDBRANCH  77  78
ENDBRANCH  76  77
ENDBRANCH   1  76
TORSDOF 23
ENDMDL
