MODEL 1
REMARK VINA RESULT:      -9.8      0.000      0.000
REMARK SMILES Cc1ccc(Cl)c(Nc2ccccc2C(=O)NCC(=O)OCCOCCOCCOC(=O)c2ccc(-c3c4nc(c(-c5c(F)cc(S(=O)(=O)[O-])cc5F)c5ccc([nH]5)c(-c5c(F)cc(S(=O)(=O)[O-])cc5F)c5nc(c(-c6c(F)cc(S(=O)(=O)[O-])cc6F)c6ccc3[nH]6)C=C5)C=C4)cc2)c1Cl
REMARK SMILES IDX 25 1 24 2 23 3 22 4 21 5 19 6 20 7 18 8 17 9 15 10 16 11
REMARK SMILES IDX 14 13 9 14 10 15 11 16 13 17 12 18 8 19 7 21 1 22 2 23 3 24
REMARK SMILES IDX 99 25 4 26 100 27 5 28 6 29 26 30 27 31 28 32 29 33 30 34
REMARK SMILES IDX 31 35 32 36 33 37 34 38 98 39 35 40 97 41 36 42 37 43 38 44
REMARK SMILES IDX 91 45 39 46 96 47 90 48 92 49 40 50 95 51 89 52 88 53 41 55
REMARK SMILES IDX 75 56 54 57 74 58 55 59 58 60 73 61 93 62 56 63 57 64 72 66
REMARK SMILES IDX 94 67 59 68 42 69 43 70 52 71 44 72 45 73 51 74 53 75 46 76
REMARK SMILES IDX 47 77 48 78 49 79 50 80 76 81 77 82 86 83 78 84 79 85 85 86
REMARK SMILES IDX 87 87 80 88 81 89 82 90 83 91 84 92 60 93 61 94 70 95 62 96
REMARK SMILES IDX 63 97 69 98 71 99 64 100 65 101 66 102 67 103 68 104
REMARK H PARENT 17 12 8 20 92 54 58 65
REMARK Flexibility Score: inf
ROOT
ATOM      1  C   UNL A   1      40.199  21.844  26.144  1.00  0.00     0.188 C 
ENDROOT
BRANCH   1   2
ATOM      2  O   UNL A   1      39.906  23.107  26.706  1.00  0.00    -0.376 OA
BRANCH   2   3
ATOM      3  C   UNL A   1      38.622  23.683  26.494  1.00  0.00     0.202 C 
BRANCH   3   4
ATOM      4  C   UNL A   1      37.412  22.858  26.030  1.00  0.00     0.261 C 
BRANCH   4   5
ATOM      5  O   UNL A   1      36.132  23.418  26.352  1.00  0.00    -0.462 OA
BRANCH   5   6
ATOM      6  C   UNL A   1      35.510  23.922  25.257  1.00  0.00     0.325 C 
ATOM      7  O   UNL A   1      35.119  25.087  25.167  1.00  0.00    -0.250 OA
BRANCH   6   8
ATOM      8  C   UNL A   1      35.615  23.059  24.019  1.00  0.00     0.239 C 
BRANCH   8   9
ATOM      9  N   UNL A   1      35.011  23.252  22.721  1.00  0.00    -0.341 N 
ATOM     10  C   UNL A   1      33.658  23.445  22.494  1.00  0.00     0.253 C 
ATOM     11  O   UNL A   1      33.286  23.911  21.418  1.00  0.00    -0.269 OA
ATOM     12  H   UNL A   1      35.607  23.246  21.937  1.00  0.00     0.164 HD
BRANCH  10  13
ATOM     13  C   UNL A   1      32.644  22.871  23.435  1.00  0.00     0.063 A 
ATOM     14  C   UNL A   1      31.615  23.553  24.124  1.00  0.00     0.051 A 
ATOM     15  C   UNL A   1      31.014  22.892  25.217  1.00  0.00     0.027 A 
ATOM     16  C   UNL A   1      31.345  21.579  25.560  1.00  0.00     0.002 A 
ATOM     17  C   UNL A   1      32.913  21.520  23.745  1.00  0.00     0.016 A 
ATOM     18  C   UNL A   1      32.264  20.876  24.795  1.00  0.00     0.001 A 
BRANCH  14  19
ATOM     19  N   UNL A   1      31.091  24.835  23.833  1.00  0.00    -0.352 N 
ATOM     20  H   UNL A   1      30.245  24.801  23.332  1.00  0.00     0.167 HD
BRANCH  19  21
ATOM     21  C   UNL A   1      31.520  26.159  24.106  1.00  0.00     0.077 A 
ATOM     22  C   UNL A   1      32.118  28.635  26.978  1.00  0.00     0.046 C 
ATOM     23  C   UNL A   1      31.972  28.055  25.598  1.00  0.00    -0.030 A 
ATOM     24  C   UNL A   1      32.092  28.905  24.488  1.00  0.00     0.006 A 
ATOM     25  C   UNL A   1      31.715  26.680  25.400  1.00  0.00     0.069 A 
ATOM     26  C   UNL A   1      31.977  28.400  23.199  1.00  0.00     0.023 A 
ATOM     27  Cl  UNL A   1      31.806  25.614  26.773  1.00  0.00    -0.082 Cl
ATOM     28  C   UNL A   1      31.700  27.046  23.014  1.00  0.00     0.066 A 
ATOM     29  Cl  UNL A   1      31.535  26.483  21.380  1.00  0.00    -0.082 Cl
ENDBRANCH  19  21
ENDBRANCH  14  19
ENDBRANCH  10  13
ENDBRANCH   8   9
ENDBRANCH   6   8
ENDBRANCH   5   6
ENDBRANCH   4   5
ENDBRANCH   3   4
ENDBRANCH   2   3
ENDBRANCH   1   2
BRANCH   1  30
ATOM     30  C   UNL A   1      41.589  21.296  26.516  1.00  0.00     0.188 C 
BRANCH  30  31
ATOM     31  O   UNL A   1      42.776  21.855  25.975  1.00  0.00    -0.376 OA
BRANCH  31  32
ATOM     32  C   UNL A   1      42.725  23.193  25.482  1.00  0.00     0.202 C 
BRANCH  32  33
ATOM     33  C   UNL A   1      43.629  24.316  26.045  1.00  0.00     0.261 C 
BRANCH  33  34
ATOM     34  O   UNL A   1      43.388  25.645  25.557  1.00  0.00    -0.460 OA
BRANCH  34  35
ATOM     35  C   UNL A   1      42.146  26.136  25.819  1.00  0.00     0.338 C 
ATOM     36  O   UNL A   1      41.142  25.987  25.148  1.00  0.00    -0.246 OA
BRANCH  35  37
ATOM     37  C   UNL A   1      42.123  26.694  27.190  1.00  0.00     0.060 A 
ATOM     38  C   UNL A   1      41.206  26.157  28.109  1.00  0.00     0.016 A 
ATOM     39  C   UNL A   1      42.956  27.749  27.559  1.00  0.00     0.016 A 
ATOM     40  C   UNL A   1      41.114  26.673  29.399  1.00  0.00     0.010 A 
ATOM     41  C   UNL A   1      42.831  28.296  28.841  1.00  0.00     0.010 A 
ATOM     42  C   UNL A   1      41.894  27.777  29.755  1.00  0.00    -0.014 A 
BRANCH  42  43
ATOM     43  C   UNL A   1      41.574  28.530  30.991  1.00  0.00     0.031 A 
ATOM     44  C   UNL A   1      40.398  29.467  30.961  1.00  0.00     0.074 A 
ATOM     45  C   UNL A   1      42.302  28.395  32.112  1.00  0.00     0.049 A 
ATOM     46  N   UNL A   1      39.996  30.326  31.860  1.00  0.00    -0.248 NA
ATOM     47  C   UNL A   1      39.570  29.430  29.746  1.00  0.00     0.031 C 
ATOM     48  C   UNL A   1      43.422  27.473  32.290  1.00  0.00     0.029 A 
ATOM     49  N   UNL A   1      42.217  29.060  33.311  1.00  0.00    -0.354 N 
ATOM     50  C   UNL A   1      38.885  30.952  31.308  1.00  0.00     0.074 A 
ATOM     51  C   UNL A   1      38.685  30.381  29.994  1.00  0.00     0.031 C 
ATOM     52  C   UNL A   1      43.944  27.657  33.515  1.00  0.00     0.029 A 
ATOM     53  C   UNL A   1      43.224  28.738  34.189  1.00  0.00     0.049 A 
ATOM     54  H   UNL A   1      41.503  29.704  33.521  1.00  0.00     0.167 HD
ATOM     55  C   UNL A   1      38.107  31.921  31.846  1.00  0.00     0.037 A 
ATOM     56  C   UNL A   1      43.553  29.287  35.377  1.00  0.00     0.037 A 
ATOM     57  C   UNL A   1      38.320  32.490  33.151  1.00  0.00     0.049 A 
ATOM     58  C   UNL A   1      42.722  30.417  35.930  1.00  0.00     0.074 A 
ATOM     59  C   UNL A   1      37.579  33.466  33.795  1.00  0.00     0.029 A 
ATOM     60  N   UNL A   1      39.362  32.152  34.003  1.00  0.00    -0.354 N 
ATOM     61  N   UNL A   1      41.668  30.999  35.407  1.00  0.00    -0.248 NA
ATOM     62  C   UNL A   1      43.125  30.966  37.233  1.00  0.00     0.031 C 
ATOM     63  C   UNL A   1      38.208  33.761  35.008  1.00  0.00     0.029 A 
ATOM     64  C   UNL A   1      39.302  32.921  35.153  1.00  0.00     0.049 A 
ATOM     65  H   UNL A   1      40.043  31.466  33.817  1.00  0.00     0.167 HD
ATOM     66  C   UNL A   1      41.265  31.963  36.329  1.00  0.00     0.074 A 
ATOM     67  C   UNL A   1      42.187  31.880  37.444  1.00  0.00     0.031 C 
ATOM     68  C   UNL A   1      40.225  32.831  36.260  1.00  0.00     0.037 A 
BRANCH  55  69
ATOM     69  C   UNL A   1      36.994  32.464  30.991  1.00  0.00     0.058 A 
ATOM     70  C   UNL A   1      35.672  32.004  31.100  1.00  0.00     0.135 A 
ATOM     71  C   UNL A   1      37.263  33.459  30.036  1.00  0.00     0.135 A 
ATOM     72  F   UNL A   1      35.362  31.041  31.983  1.00  0.00    -0.206 F 
ATOM     73  C   UNL A   1      34.667  32.476  30.263  1.00  0.00     0.059 A 
ATOM     74  C   UNL A   1      36.267  33.970  29.211  1.00  0.00     0.059 A 
ATOM     75  F   UNL A   1      38.509  33.934  29.886  1.00  0.00    -0.206 F 
ATOM     76  C   UNL A   1      34.976  33.456  29.317  1.00  0.00     0.060 A 
BRANCH  76  77
ATOM     77  S   UNL A   1      33.668  34.039  28.217  1.00  0.00     0.124 S 
ATOM     78  O   UNL A   1      32.742  34.651  29.167  1.00  0.00    -0.237 OA
ATOM     79  O   UNL A   1      34.383  34.963  27.344  1.00  0.00    -0.237 OA
ATOM     80  O   UNL A   1      33.192  32.816  27.578  1.00  0.00    -0.744 OA
ENDBRANCH  76  77
ENDBRANCH  55  69
BRANCH  56  81
ATOM     81  C   UNL A   1      44.749  28.786  36.109  1.00  0.00     0.058 A 
ATOM     82  C   UNL A   1      46.020  29.338  35.890  1.00  0.00     0.135 A 
ATOM     83  C   UNL A   1      44.636  27.767  37.068  1.00  0.00     0.135 A 
ATOM     84  F   UNL A   1      46.184  30.300  34.970  1.00  0.00    -0.206 F 
ATOM     85  C   UNL A   1      47.134  28.903  36.600  1.00  0.00     0.059 A 
ATOM     86  C   UNL A   1      45.730  27.334  37.809  1.00  0.00     0.059 A 
ATOM     87  F   UNL A   1      43.440  27.209  37.318  1.00  0.00    -0.206 F 
ATOM     88  C   UNL A   1      46.976  27.909  37.568  1.00  0.00     0.060 A 
BRANCH  88  89
ATOM     89  S   UNL A   1      48.411  27.425  38.553  1.00  0.00     0.124 S 
ATOM     90  O   UNL A   1      48.293  28.313  39.704  1.00  0.00    -0.237 OA
ATOM     91  O   UNL A   1      48.143  26.012  38.803  1.00  0.00    -0.237 OA
ATOM     92  O   UNL A   1      49.535  27.692  37.661  1.00  0.00    -0.744 OA
ENDBRANCH  88  89
ENDBRANCH  56  81
BRANCH  68  93
ATOM     93  C   UNL A   1      39.988  33.741  37.438  1.00  0.00     0.058 A 
ATOM     94  C   UNL A   1      40.690  34.946  37.602  1.00  0.00     0.135 A 
ATOM     95  C   UNL A   1      38.992  33.432  38.380  1.00  0.00     0.135 A 
ATOM     96  F   UNL A   1      41.655  35.288  36.735  1.00  0.00    -0.206 F 
ATOM     97  C   UNL A   1      40.426  35.801  38.668  1.00  0.00     0.059 A 
ATOM     98  C   UNL A   1      38.691  34.287  39.436  1.00  0.00     0.059 A 
ATOM     99  F   UNL A   1      38.281  32.299  38.266  1.00  0.00    -0.206 F 
ATOM    100  C   UNL A   1      39.422  35.465  39.578  1.00  0.00     0.060 A 
BRANCH 100 101
ATOM    101  S   UNL A   1      39.065  36.603  40.936  1.00  0.00     0.124 S 
ATOM    102  O   UNL A   1      38.541  37.761  40.219  1.00  0.00    -0.237 OA
ATOM    103  O   UNL A   1      38.095  35.852  41.725  1.00  0.00    -0.237 OA
ATOM    104  O   UNL A   1      40.367  36.793  41.570  1.00  0.00    -0.744 OA
ENDBRANCH 100 101
ENDBRANCH  68  93
ENDBRANCH  42  43
ENDBRANCH  35  37
ENDBRANCH  34  35
ENDBRANCH  33  34
ENDBRANCH  32  33
ENDBRANCH  31  32
ENDBRANCH  30  31
ENDBRANCH   1  30
TORSDOF 24
ENDMDL
MODEL 2
REMARK VINA RESULT:      -8.9      9.024     15.263
REMARK SMILES Cc1ccc(Cl)c(Nc2ccccc2C(=O)NCC(=O)OCCOCCOCCOC(=O)c2ccc(-c3c4nc(c(-c5c(F)cc(S(=O)(=O)[O-])cc5F)c5ccc([nH]5)c(-c5c(F)cc(S(=O)(=O)[O-])cc5F)c5nc(c(-c6c(F)cc(S(=O)(=O)[O-])cc6F)c6ccc3[nH]6)C=C5)C=C4)cc2)c1Cl
REMARK SMILES IDX 25 1 24 2 23 3 22 4 21 5 19 6 20 7 18 8 17 9 15 10 16 11
REMARK SMILES IDX 14 13 9 14 10 15 11 16 13 17 12 18 8 19 7 21 1 22 2 23 3 24
REMARK SMILES IDX 99 25 4 26 100 27 5 28 6 29 26 30 27 31 28 32 29 33 30 34
REMARK SMILES IDX 31 35 32 36 33 37 34 38 98 39 35 40 97 41 36 42 37 43 38 44
REMARK SMILES IDX 91 45 39 46 96 47 90 48 92 49 40 50 95 51 89 52 88 53 41 55
REMARK SMILES IDX 75 56 54 57 74 58 55 59 58 60 73 61 93 62 56 63 57 64 72 66
REMARK SMILES IDX 94 67 59 68 42 69 43 70 52 71 44 72 45 73 51 74 53 75 46 76
REMARK SMILES IDX 47 77 48 78 49 79 50 80 76 81 77 82 86 83 78 84 79 85 85 86
REMARK SMILES IDX 87 87 80 88 81 89 82 90 83 91 84 92 60 93 61 94 70 95 62 96
REMARK SMILES IDX 63 97 69 98 71 99 64 100 65 101 66 102 67 103 68 104
REMARK H PARENT 17 12 8 20 92 54 58 65
REMARK Flexibility Score: inf
ROOT
ATOM      1  C   UNL A   1      49.903  40.707  32.403  1.00  0.00     0.188 C 
ENDROOT
BRANCH   1   2
ATOM      2  O   UNL A   1      49.857  41.409  31.177  1.00  0.00    -0.376 OA
BRANCH   2   3
ATOM      3  C   UNL A   1      48.643  41.436  30.435  1.00  0.00     0.202 C 
BRANCH   3   4
ATOM      4  C   UNL A   1      47.670  42.625  30.485  1.00  0.00     0.261 C 
BRANCH   4   5
ATOM      5  O   UNL A   1      46.294  42.278  30.694  1.00  0.00    -0.462 OA
BRANCH   5   6
ATOM      6  C   UNL A   1      45.484  42.834  29.758  1.00  0.00     0.325 C 
ATOM      7  O   UNL A   1      45.309  44.047  29.639  1.00  0.00    -0.250 OA
BRANCH   6   8
ATOM      8  C   UNL A   1      45.060  41.893  28.652  1.00  0.00     0.239 C 
BRANCH   8   9
ATOM      9  N   UNL A   1      45.866  41.276  27.624  1.00  0.00    -0.341 N 
ATOM     10  C   UNL A   1      45.403  40.891  26.376  1.00  0.00     0.253 C 
ATOM     11  O   UNL A   1      46.211  40.677  25.473  1.00  0.00    -0.269 OA
ATOM     12  H   UNL A   1      46.816  41.118  27.825  1.00  0.00     0.164 HD
BRANCH  10  13
ATOM     13  C   UNL A   1      43.970  40.499  26.188  1.00  0.00     0.063 A 
ATOM     14  C   UNL A   1      42.875  41.337  25.875  1.00  0.00     0.051 A 
ATOM     15  C   UNL A   1      41.579  40.824  26.097  1.00  0.00     0.027 A 
ATOM     16  C   UNL A   1      41.366  39.510  26.519  1.00  0.00     0.002 A 
ATOM     17  C   UNL A   1      43.738  39.152  26.541  1.00  0.00     0.016 A 
ATOM     18  C   UNL A   1      42.446  38.658  26.698  1.00  0.00     0.001 A 
BRANCH  14  19
ATOM     19  N   UNL A   1      42.921  42.646  25.338  1.00  0.00    -0.352 N 
ATOM     20  H   UNL A   1      42.470  43.311  25.906  1.00  0.00     0.167 HD
BRANCH  19  21
ATOM     21  C   UNL A   1      43.475  43.207  24.160  1.00  0.00     0.077 A 
ATOM     22  C   UNL A   1      43.200  43.133  20.331  1.00  0.00     0.046 C 
ATOM     23  C   UNL A   1      43.686  43.428  21.724  1.00  0.00    -0.030 A 
ATOM     24  C   UNL A   1      44.870  44.163  21.889  1.00  0.00     0.006 A 
ATOM     25  C   UNL A   1      42.979  42.978  22.861  1.00  0.00     0.069 A 
ATOM     26  C   UNL A   1      45.339  44.465  23.161  1.00  0.00     0.023 A 
ATOM     27  Cl  UNL A   1      41.402  42.278  22.634  1.00  0.00    -0.082 Cl
ATOM     28  C   UNL A   1      44.647  43.997  24.278  1.00  0.00     0.066 A 
ATOM     29  Cl  UNL A   1      45.304  44.380  25.839  1.00  0.00    -0.082 Cl
ENDBRANCH  19  21
ENDBRANCH  14  19
ENDBRANCH  10  13
ENDBRANCH   8   9
ENDBRANCH   6   8
ENDBRANCH   5   6
ENDBRANCH   4   5
ENDBRANCH   3   4
ENDBRANCH   2   3
ENDBRANCH   1   2
BRANCH   1  30
ATOM     30  C   UNL A   1      48.546  40.134  32.852  1.00  0.00     0.188 C 
BRANCH  30  31
ATOM     31  O   UNL A   1      48.442  38.842  33.432  1.00  0.00    -0.376 OA
BRANCH  31  32
ATOM     32  C   UNL A   1      49.418  37.864  33.076  1.00  0.00     0.202 C 
BRANCH  32  33
ATOM     33  C   UNL A   1      49.127  36.740  32.054  1.00  0.00     0.261 C 
BRANCH  33  34
ATOM     34  O   UNL A   1      47.745  36.448  31.792  1.00  0.00    -0.460 OA
BRANCH  34  35
ATOM     35  C   UNL A   1      47.386  36.499  30.480  1.00  0.00     0.338 C 
ATOM     36  O   UNL A   1      47.360  37.481  29.765  1.00  0.00    -0.246 OA
BRANCH  35  37
ATOM     37  C   UNL A   1      47.252  35.119  29.959  1.00  0.00     0.060 A 
ATOM     38  C   UNL A   1      46.848  34.952  28.624  1.00  0.00     0.016 A 
ATOM     39  C   UNL A   1      47.481  34.010  30.772  1.00  0.00     0.016 A 
ATOM     40  C   UNL A   1      46.666  33.676  28.095  1.00  0.00     0.010 A 
ATOM     41  C   UNL A   1      47.254  32.731  30.253  1.00  0.00     0.010 A 
ATOM     42  C   UNL A   1      46.823  32.560  28.923  1.00  0.00    -0.014 A 
BRANCH  42  43
ATOM     43  C   UNL A   1      46.320  31.241  28.474  1.00  0.00     0.031 A 
ATOM     44  C   UNL A   1      44.874  30.915  28.724  1.00  0.00     0.074 A 
ATOM     45  C   UNL A   1      47.119  30.349  27.862  1.00  0.00     0.049 A 
ATOM     46  N   UNL A   1      44.232  29.790  28.546  1.00  0.00    -0.248 NA
ATOM     47  C   UNL A   1      44.045  32.008  29.254  1.00  0.00     0.031 C 
ATOM     48  C   UNL A   1      48.517  30.570  27.503  1.00  0.00     0.029 A 
ATOM     49  N   UNL A   1      46.863  29.062  27.456  1.00  0.00    -0.354 N 
ATOM     50  C   UNL A   1      42.930  30.032  28.967  1.00  0.00     0.074 A 
ATOM     51  C   UNL A   1      42.879  31.406  29.419  1.00  0.00     0.031 C 
ATOM     52  C   UNL A   1      49.009  29.442  26.962  1.00  0.00     0.029 A 
ATOM     53  C   UNL A   1      47.973  28.408  26.978  1.00  0.00     0.049 A 
ATOM     54  H   UNL A   1      45.972  28.648  27.502  1.00  0.00     0.167 HD
ATOM     55  C   UNL A   1      41.876  29.184  28.983  1.00  0.00     0.037 A 
ATOM     56  C   UNL A   1      48.144  27.113  26.640  1.00  0.00     0.037 A 
ATOM     57  C   UNL A   1      41.939  27.815  28.541  1.00  0.00     0.049 A 
ATOM     58  C   UNL A   1      46.979  26.160  26.735  1.00  0.00     0.074 A 
ATOM     59  C   UNL A   1      40.923  26.877  28.501  1.00  0.00     0.029 A 
ATOM     60  N   UNL A   1      43.085  27.183  28.081  1.00  0.00    -0.354 N 
ATOM     61  N   UNL A   1      45.749  26.397  27.126  1.00  0.00    -0.248 NA
ATOM     62  C   UNL A   1      47.224  24.765  26.342  1.00  0.00     0.031 C 
ATOM     63  C   UNL A   1      41.469  25.661  28.077  1.00  0.00     0.029 A 
ATOM     64  C   UNL A   1      42.810  25.858  27.785  1.00  0.00     0.049 A 
ATOM     65  H   UNL A   1      43.965  27.613  27.980  1.00  0.00     0.167 HD
ATOM     66  C   UNL A   1      45.067  25.188  27.001  1.00  0.00     0.074 A 
ATOM     67  C   UNL A   1      46.022  24.225  26.492  1.00  0.00     0.031 C 
ATOM     68  C   UNL A   1      43.769  24.906  27.277  1.00  0.00     0.037 A 
BRANCH  55  69
ATOM     69  C   UNL A   1      40.584  29.701  29.557  1.00  0.00     0.058 A 
ATOM     70  C   UNL A   1      40.401  29.894  30.936  1.00  0.00     0.135 A 
ATOM     71  C   UNL A   1      39.506  29.999  28.707  1.00  0.00     0.135 A 
ATOM     72  F   UNL A   1      41.392  29.607  31.796  1.00  0.00    -0.206 F 
ATOM     73  C   UNL A   1      39.182  30.317  31.455  1.00  0.00     0.059 A 
ATOM     74  C   UNL A   1      38.289  30.456  29.201  1.00  0.00     0.059 A 
ATOM     75  F   UNL A   1      39.624  29.831  27.381  1.00  0.00    -0.206 F 
ATOM     76  C   UNL A   1      38.130  30.591  30.579  1.00  0.00     0.060 A 
BRANCH  76  77
ATOM     77  S   UNL A   1      36.545  31.113  31.268  1.00  0.00     0.124 S 
ATOM     78  O   UNL A   1      35.750  31.299  30.058  1.00  0.00    -0.237 OA
ATOM     79  O   UNL A   1      36.175  29.973  32.100  1.00  0.00    -0.237 OA
ATOM     80  O   UNL A   1      36.876  32.335  31.994  1.00  0.00    -0.744 OA
ENDBRANCH  76  77
ENDBRANCH  55  69
BRANCH  56  81
ATOM     81  C   UNL A   1      49.487  26.639  26.206  1.00  0.00     0.058 A 
ATOM     82  C   UNL A   1      49.902  26.753  24.871  1.00  0.00     0.135 A 
ATOM     83  C   UNL A   1      50.394  26.094  27.128  1.00  0.00     0.135 A 
ATOM     84  F   UNL A   1      49.065  27.250  23.949  1.00  0.00    -0.206 F 
ATOM     85  C   UNL A   1      51.171  26.350  24.468  1.00  0.00     0.059 A 
ATOM     86  C   UNL A   1      51.676  25.708  26.754  1.00  0.00     0.059 A 
ATOM     87  F   UNL A   1      50.046  25.967  28.419  1.00  0.00    -0.206 F 
ATOM     88  C   UNL A   1      52.056  25.842  25.420  1.00  0.00     0.060 A 
BRANCH  88  89
ATOM     89  S   UNL A   1      53.734  25.416  24.901  1.00  0.00     0.124 S 
ATOM     90  O   UNL A   1      53.869  26.192  23.674  1.00  0.00    -0.237 OA
ATOM     91  O   UNL A   1      54.527  25.872  26.039  1.00  0.00    -0.237 OA
ATOM     92  O   UNL A   1      53.674  23.967  24.730  1.00  0.00    -0.744 OA
ENDBRANCH  88  89
ENDBRANCH  56  81
BRANCH  68  93
ATOM     93  C   UNL A   1      43.278  23.508  26.997  1.00  0.00     0.058 A 
ATOM     94  C   UNL A   1      42.991  23.065  25.697  1.00  0.00     0.135 A 
ATOM     95  C   UNL A   1      43.160  22.578  28.045  1.00  0.00     0.135 A 
ATOM     96  F   UNL A   1      43.081  23.912  24.659  1.00  0.00    -0.206 F 
ATOM     97  C   UNL A   1      42.586  21.757  25.448  1.00  0.00     0.059 A 
ATOM     98  C   UNL A   1      42.787  21.258  27.815  1.00  0.00     0.059 A 
ATOM     99  F   UNL A   1      43.434  22.943  29.308  1.00  0.00    -0.206 F 
ATOM    100  C   UNL A   1      42.491  20.859  26.513  1.00  0.00     0.060 A 
BRANCH 100 101
ATOM    101  S   UNL A   1      42.000  19.154  26.169  1.00  0.00     0.124 S 
ATOM    102  O   UNL A   1      42.811  18.846  24.995  1.00  0.00    -0.237 OA
ATOM    103  O   UNL A   1      42.378  18.466  27.399  1.00  0.00    -0.237 OA
ATOM    104  O   UNL A   1      40.563  19.256  25.930  1.00  0.00    -0.744 OA
ENDBRANCH 100 101
ENDBRANCH  68  93
ENDBRANCH  42  43
ENDBRANCH  35  37
ENDBRANCH  34  35
ENDBRANCH  33  34
ENDBRANCH  32  33
ENDBRANCH  31  32
ENDBRANCH  30  31
ENDBRANCH   1  30
TORSDOF 24
ENDMDL
MODEL 3
REMARK VINA RESULT:      -8.8      7.061     14.288
REMARK SMILES Cc1ccc(Cl)c(Nc2ccccc2C(=O)NCC(=O)OCCOCCOCCOC(=O)c2ccc(-c3c4nc(c(-c5c(F)cc(S(=O)(=O)[O-])cc5F)c5ccc([nH]5)c(-c5c(F)cc(S(=O)(=O)[O-])cc5F)c5nc(c(-c6c(F)cc(S(=O)(=O)[O-])cc6F)c6ccc3[nH]6)C=C5)C=C4)cc2)c1Cl
REMARK SMILES IDX 25 1 24 2 23 3 22 4 21 5 19 6 20 7 18 8 17 9 15 10 16 11
REMARK SMILES IDX 14 13 9 14 10 15 11 16 13 17 12 18 8 19 7 21 1 22 2 23 3 24
REMARK SMILES IDX 99 25 4 26 100 27 5 28 6 29 26 30 27 31 28 32 29 33 30 34
REMARK SMILES IDX 31 35 32 36 33 37 34 38 98 39 35 40 97 41 36 42 37 43 38 44
REMARK SMILES IDX 91 45 39 46 96 47 90 48 92 49 40 50 95 51 89 52 88 53 41 55
REMARK SMILES IDX 75 56 54 57 74 58 55 59 58 60 73 61 93 62 56 63 57 64 72 66
REMARK SMILES IDX 94 67 59 68 42 69 43 70 52 71 44 72 45 73 51 74 53 75 46 76
REMARK SMILES IDX 47 77 48 78 49 79 50 80 76 81 77 82 86 83 78 84 79 85 85 86
REMARK SMILES IDX 87 87 80 88 81 89 82 90 83 91 84 92 60 93 61 94 70 95 62 96
REMARK SMILES IDX 63 97 69 98 71 99 64 100 65 101 66 102 67 103 68 104
REMARK H PARENT 17 12 8 20 92 54 58 65
REMARK Flexibility Score: inf
ROOT
ATOM      1  C   UNL A   1      47.113  20.314  36.272  1.00  0.00     0.188 C 
ENDROOT
BRANCH   1   2
ATOM      2  O   UNL A   1      48.092  19.865  37.185  1.00  0.00    -0.376 OA
BRANCH   2   3
ATOM      3  C   UNL A   1      47.683  19.336  38.442  1.00  0.00     0.202 C 
BRANCH   3   4
ATOM      4  C   UNL A   1      47.264  20.232  39.618  1.00  0.00     0.261 C 
BRANCH   4   5
ATOM      5  O   UNL A   1      45.884  20.137  39.995  1.00  0.00    -0.462 OA
BRANCH   5   6
ATOM      6  C   UNL A   1      45.736  19.701  41.272  1.00  0.00     0.325 C 
ATOM      7  O   UNL A   1      44.674  19.754  41.894  1.00  0.00    -0.250 OA
BRANCH   6   8
ATOM      8  C   UNL A   1      46.872  18.841  41.780  1.00  0.00     0.239 C 
BRANCH   8   9
ATOM      9  N   UNL A   1      46.815  17.564  42.454  1.00  0.00    -0.341 N 
ATOM     10  C   UNL A   1      46.240  16.416  41.935  1.00  0.00     0.253 C 
ATOM     11  O   UNL A   1      46.517  15.325  42.430  1.00  0.00    -0.269 OA
ATOM     12  H   UNL A   1      47.216  17.506  43.351  1.00  0.00     0.164 HD
BRANCH  10  13
ATOM     13  C   UNL A   1      45.112  16.512  40.953  1.00  0.00     0.063 A 
ATOM     14  C   UNL A   1      43.738  16.269  41.184  1.00  0.00     0.051 A 
ATOM     15  C   UNL A   1      42.915  16.070  40.055  1.00  0.00     0.027 A 
ATOM     16  C   UNL A   1      43.402  16.196  38.752  1.00  0.00     0.002 A 
ATOM     17  C   UNL A   1      45.573  16.712  39.634  1.00  0.00     0.016 A 
ATOM     18  C   UNL A   1      44.723  16.563  38.541  1.00  0.00     0.001 A 
BRANCH  14  19
ATOM     19  N   UNL A   1      43.073  16.220  42.432  1.00  0.00    -0.352 N 
ATOM     20  H   UNL A   1      42.410  16.939  42.543  1.00  0.00     0.167 HD
BRANCH  19  21
ATOM     21  C   UNL A   1      43.153  15.362  43.557  1.00  0.00     0.077 A 
ATOM     22  C   UNL A   1      44.926  14.927  46.934  1.00  0.00     0.046 C 
ATOM     23  C   UNL A   1      44.076  14.663  45.722  1.00  0.00    -0.030 A 
ATOM     24  C   UNL A   1      43.447  13.415  45.592  1.00  0.00     0.006 A 
ATOM     25  C   UNL A   1      43.902  15.641  44.717  1.00  0.00     0.069 A 
ATOM     26  C   UNL A   1      42.643  13.144  44.492  1.00  0.00     0.023 A 
ATOM     27  Cl  UNL A   1      44.494  17.250  45.015  1.00  0.00    -0.082 Cl
ATOM     28  C   UNL A   1      42.496  14.106  43.493  1.00  0.00     0.066 A 
ATOM     29  Cl  UNL A   1      41.506  13.693  42.129  1.00  0.00    -0.082 Cl
ENDBRANCH  19  21
ENDBRANCH  14  19
ENDBRANCH  10  13
ENDBRANCH   8   9
ENDBRANCH   6   8
ENDBRANCH   5   6
ENDBRANCH   4   5
ENDBRANCH   3   4
ENDBRANCH   2   3
ENDBRANCH   1   2
BRANCH   1  30
ATOM     30  C   UNL A   1      46.719  21.793  36.445  1.00  0.00     0.188 C 
BRANCH  30  31
ATOM     31  O   UNL A   1      45.360  22.201  36.460  1.00  0.00    -0.376 OA
BRANCH  31  32
ATOM     32  C   UNL A   1      45.063  23.540  36.855  1.00  0.00     0.202 C 
BRANCH  32  33
ATOM     33  C   UNL A   1      45.719  24.766  36.177  1.00  0.00     0.261 C 
BRANCH  33  34
ATOM     34  O   UNL A   1      46.974  25.208  36.718  1.00  0.00    -0.460 OA
BRANCH  34  35
ATOM     35  C   UNL A   1      46.894  26.285  37.546  1.00  0.00     0.338 C 
ATOM     36  O   UNL A   1      47.597  26.522  38.510  1.00  0.00    -0.246 OA
BRANCH  35  37
ATOM     37  C   UNL A   1      45.962  27.278  36.965  1.00  0.00     0.060 A 
ATOM     38  C   UNL A   1      44.602  27.188  37.306  1.00  0.00     0.016 A 
ATOM     39  C   UNL A   1      46.404  28.255  36.075  1.00  0.00     0.016 A 
ATOM     40  C   UNL A   1      43.676  28.071  36.755  1.00  0.00     0.010 A 
ATOM     41  C   UNL A   1      45.467  29.112  35.488  1.00  0.00     0.010 A 
ATOM     42  C   UNL A   1      44.098  29.007  35.806  1.00  0.00    -0.014 A 
BRANCH  42  43
ATOM     43  C   UNL A   1      43.093  29.718  34.982  1.00  0.00     0.031 A 
ATOM     44  C   UNL A   1      42.480  30.970  35.543  1.00  0.00     0.074 A 
ATOM     45  C   UNL A   1      42.726  29.270  33.769  1.00  0.00     0.049 A 
ATOM     46  N   UNL A   1      41.495  31.694  35.080  1.00  0.00    -0.248 NA
ATOM     47  C   UNL A   1      43.057  31.467  36.802  1.00  0.00     0.031 C 
ATOM     48  C   UNL A   1      43.292  28.109  33.088  1.00  0.00     0.029 A 
ATOM     49  N   UNL A   1      41.763  29.734  32.906  1.00  0.00    -0.354 N 
ATOM     50  C   UNL A   1      41.315  32.716  36.005  1.00  0.00     0.074 A 
ATOM     51  C   UNL A   1      42.285  32.511  37.058  1.00  0.00     0.031 C 
ATOM     52  C   UNL A   1      42.641  27.928  31.925  1.00  0.00     0.029 A 
ATOM     53  C   UNL A   1      41.584  28.934  31.804  1.00  0.00     0.049 A 
ATOM     54  H   UNL A   1      41.252  30.560  33.062  1.00  0.00     0.167 HD
ATOM     55  C   UNL A   1      40.417  33.728  35.981  1.00  0.00     0.037 A 
ATOM     56  C   UNL A   1      40.646  28.981  30.836  1.00  0.00     0.037 A 
ATOM     57  C   UNL A   1      39.448  33.918  34.934  1.00  0.00     0.049 A 
ATOM     58  C   UNL A   1      39.604  30.071  30.863  1.00  0.00     0.074 A 
ATOM     59  C   UNL A   1      38.503  34.922  34.807  1.00  0.00     0.029 A 
ATOM     60  N   UNL A   1      39.284  33.076  33.843  1.00  0.00    -0.354 N 
ATOM     61  N   UNL A   1      39.444  31.038  31.735  1.00  0.00    -0.248 NA
ATOM     62  C   UNL A   1      38.615  30.075  29.775  1.00  0.00     0.031 C 
ATOM     63  C   UNL A   1      37.729  34.651  33.674  1.00  0.00     0.029 A 
ATOM     64  C   UNL A   1      38.234  33.519  33.055  1.00  0.00     0.049 A 
ATOM     65  H   UNL A   1      39.834  32.281  33.656  1.00  0.00     0.167 HD
ATOM     66  C   UNL A   1      38.355  31.783  31.287  1.00  0.00     0.074 A 
ATOM     67  C   UNL A   1      37.899  31.155  30.063  1.00  0.00     0.031 C 
ATOM     68  C   UNL A   1      37.789  32.887  31.836  1.00  0.00     0.037 A 
BRANCH  55  69
ATOM     69  C   UNL A   1      40.405  34.666  37.158  1.00  0.00     0.058 A 
ATOM     70  C   UNL A   1      39.595  34.446  38.284  1.00  0.00     0.135 A 
ATOM     71  C   UNL A   1      41.214  35.814  37.151  1.00  0.00     0.135 A 
ATOM     72  F   UNL A   1      38.786  33.374  38.335  1.00  0.00    -0.206 F 
ATOM     73  C   UNL A   1      39.552  35.352  39.338  1.00  0.00     0.059 A 
ATOM     74  C   UNL A   1      41.214  36.718  38.208  1.00  0.00     0.059 A 
ATOM     75  F   UNL A   1      42.007  36.077  36.100  1.00  0.00    -0.206 F 
ATOM     76  C   UNL A   1      40.362  36.489  39.288  1.00  0.00     0.060 A 
BRANCH  76  77
ATOM     77  S   UNL A   1      40.276  37.671  40.649  1.00  0.00     0.124 S 
ATOM     78  O   UNL A   1      38.895  37.502  41.093  1.00  0.00    -0.237 OA
ATOM     79  O   UNL A   1      41.300  37.173  41.561  1.00  0.00    -0.237 OA
ATOM     80  O   UNL A   1      40.577  38.948  40.010  1.00  0.00    -0.744 OA
ENDBRANCH  76  77
ENDBRANCH  55  69
BRANCH  56  81
ATOM     81  C   UNL A   1      40.637  27.939  29.772  1.00  0.00     0.058 A 
ATOM     82  C   UNL A   1      39.682  26.912  29.768  1.00  0.00     0.135 A 
ATOM     83  C   UNL A   1      41.566  27.972  28.720  1.00  0.00     0.135 A 
ATOM     84  F   UNL A   1      38.785  26.826  30.761  1.00  0.00    -0.206 F 
ATOM     85  C   UNL A   1      39.643  25.960  28.754  1.00  0.00     0.059 A 
ATOM     86  C   UNL A   1      41.530  27.047  27.682  1.00  0.00     0.059 A 
ATOM     87  F   UNL A   1      42.498  28.937  28.676  1.00  0.00    -0.206 F 
ATOM     88  C   UNL A   1      40.563  26.044  27.708  1.00  0.00     0.060 A 
BRANCH  88  89
ATOM     89  S   UNL A   1      40.437  24.861  26.348  1.00  0.00     0.124 S 
ATOM     90  O   UNL A   1      38.995  24.662  26.262  1.00  0.00    -0.237 OA
ATOM     91  O   UNL A   1      41.049  25.600  25.248  1.00  0.00    -0.237 OA
ATOM     92  O   UNL A   1      41.206  23.716  26.828  1.00  0.00    -0.744 OA
ENDBRANCH  88  89
ENDBRANCH  56  81
BRANCH  68  93
ATOM     93  C   UNL A   1      36.637  33.526  31.103  1.00  0.00     0.058 A 
ATOM     94  C   UNL A   1      36.807  34.183  29.874  1.00  0.00     0.135 A 
ATOM     95  C   UNL A   1      35.330  33.416  31.609  1.00  0.00     0.135 A 
ATOM     96  F   UNL A   1      38.033  34.321  29.347  1.00  0.00    -0.206 F 
ATOM     97  C   UNL A   1      35.726  34.725  29.185  1.00  0.00     0.059 A 
ATOM     98  C   UNL A   1      34.232  33.923  30.922  1.00  0.00     0.059 A 
ATOM     99  F   UNL A   1      35.106  32.787  32.774  1.00  0.00    -0.206 F 
ATOM    100  C   UNL A   1      34.442  34.586  29.714  1.00  0.00     0.060 A 
BRANCH 100 101
ATOM    101  S   UNL A   1      33.045  35.263  28.789  1.00  0.00     0.124 S 
ATOM    102  O   UNL A   1      33.697  36.284  27.976  1.00  0.00    -0.237 OA
ATOM    103  O   UNL A   1      32.553  34.094  28.067  1.00  0.00    -0.237 OA
ATOM    104  O   UNL A   1      32.156  35.765  29.834  1.00  0.00    -0.744 OA
ENDBRANCH 100 101
ENDBRANCH  68  93
ENDBRANCH  42  43
ENDBRANCH  35  37
ENDBRANCH  34  35
ENDBRANCH  33  34
ENDBRANCH  32  33
ENDBRANCH  31  32
ENDBRANCH  30  31
ENDBRANCH   1  30
TORSDOF 24
ENDMDL
