MODEL 1
REMARK VINA RESULT:      -9.8      0.000      0.000
REMARK SMILES C[C@H](NC(=O)N(CC(=O)OCCOCCOCCOC(=O)c1ccc(-c2c3nc(c(-c4c(F)cc(S(=O)(=O)[O-])cc4F)c4ccc([nH]4)c(-c4c(F)cc(S(=O)(=O)[O-])cc4F)c4nc(c(-c5c(F)cc(S(=O)(=O)[O-])cc5F)c5ccc2[nH]5)C=C4)C=C3)cc1)C(C)(C)C)c1ccccc1
REMARK SMILES IDX 14 1 13 2 12 3 11 4 10 5 8 6 9 7 7 8 6 9 4 10 3 11 5 13 2 14
REMARK SMILES IDX 1 15 92 16 93 17 97 18 94 19 96 20 95 21 88 22 89 23 90 24
REMARK SMILES IDX 91 25 15 26 16 27 17 28 18 29 19 30 20 31 21 32 22 33 23 34
REMARK SMILES IDX 87 35 24 36 86 37 25 38 26 39 27 40 80 41 28 42 85 43 79 44
REMARK SMILES IDX 81 45 29 46 84 47 78 48 77 49 30 51 64 52 43 53 63 54 44 55
REMARK SMILES IDX 47 56 62 57 82 58 45 59 46 60 61 62 83 63 48 64 31 65 32 66
REMARK SMILES IDX 41 67 33 68 34 69 40 70 42 71 35 72 36 73 37 74 38 75 39 76
REMARK SMILES IDX 65 77 66 78 75 79 67 80 68 81 74 82 76 83 69 84 70 85 71 86
REMARK SMILES IDX 72 87 73 88 49 89 50 90 59 91 51 92 52 93 58 94 60 95 53 96
REMARK SMILES IDX 54 97 55 98 56 99 57 100
REMARK H PARENT 3 12 81 50 47 61
REMARK Flexibility Score: inf
ROOT
ATOM      1  C   UNL A   1      40.255  22.366  27.210  1.00  0.00     0.188 C 
ENDROOT
BRANCH   1   2
ATOM      2  O   UNL A   1      39.889  23.573  26.542  1.00  0.00    -0.376 OA
BRANCH   2   3
ATOM      3  C   UNL A   1      38.592  24.104  26.767  1.00  0.00     0.202 C 
BRANCH   3   4
ATOM      4  C   UNL A   1      37.439  23.382  26.057  1.00  0.00     0.261 C 
BRANCH   4   5
ATOM      5  O   UNL A   1      36.241  24.167  25.853  1.00  0.00    -0.462 OA
BRANCH   5   6
ATOM      6  C   UNL A   1      35.659  23.977  24.642  1.00  0.00     0.325 C 
ATOM      7  O   UNL A   1      36.155  23.303  23.740  1.00  0.00    -0.250 OA
BRANCH   6   8
ATOM      8  C   UNL A   1      34.404  24.809  24.373  1.00  0.00     0.244 C 
BRANCH   8   9
ATOM      9  N   UNL A   1      33.230  24.416  23.561  1.00  0.00    -0.309 N 
BRANCH   9  10
ATOM     10  C   UNL A   1      33.183  23.347  22.701  1.00  0.00     0.318 C 
ATOM     11  N   UNL A   1      33.080  22.071  23.100  1.00  0.00    -0.331 N 
ATOM     12  H   UNL A   1      32.935  21.471  22.333  1.00  0.00     0.165 HD
ATOM     13  O   UNL A   1      33.123  23.485  21.474  1.00  0.00    -0.249 OA
BRANCH  11  14
ATOM     14  C   UNL A   1      33.122  21.321  24.352  1.00  0.00     0.111 C 
ATOM     15  C   UNL A   1      31.826  21.498  25.140  1.00  0.00     0.036 C 
BRANCH  14  16
ATOM     16  C   UNL A   1      33.397  19.857  24.037  1.00  0.00    -0.026 A 
ATOM     17  C   UNL A   1      32.505  19.112  23.252  1.00  0.00     0.006 A 
ATOM     18  C   UNL A   1      34.508  19.197  24.594  1.00  0.00     0.006 A 
ATOM     19  C   UNL A   1      32.687  17.738  23.083  1.00  0.00     0.000 A 
ATOM     20  C   UNL A   1      34.691  17.826  24.419  1.00  0.00     0.000 A 
ATOM     21  C   UNL A   1      33.774  17.094  23.671  1.00  0.00     0.000 A 
ENDBRANCH  14  16
ENDBRANCH  11  14
ENDBRANCH   9  10
BRANCH   9  22
ATOM     22  C   UNL A   1      31.964  25.227  23.698  1.00  0.00     0.037 C 
ATOM     23  C   UNL A   1      31.696  25.643  25.160  1.00  0.00     0.034 C 
ATOM     24  C   UNL A   1      32.033  26.496  22.807  1.00  0.00     0.034 C 
ATOM     25  C   UNL A   1      30.723  24.469  23.201  1.00  0.00     0.034 C 
ENDBRANCH   9  22
ENDBRANCH   8   9
ENDBRANCH   6   8
ENDBRANCH   5   6
ENDBRANCH   4   5
ENDBRANCH   3   4
ENDBRANCH   2   3
ENDBRANCH   1   2
BRANCH   1  26
ATOM     26  C   UNL A   1      41.445  21.571  26.673  1.00  0.00     0.188 C 
BRANCH  26  27
ATOM     27  O   UNL A   1      42.028  22.241  25.554  1.00  0.00    -0.376 OA
BRANCH  27  28
ATOM     28  C   UNL A   1      43.203  22.964  25.916  1.00  0.00     0.202 C 
BRANCH  28  29
ATOM     29  C   UNL A   1      43.452  24.118  24.939  1.00  0.00     0.261 C 
BRANCH  29  30
ATOM     30  O   UNL A   1      43.581  25.411  25.567  1.00  0.00    -0.460 OA
BRANCH  30  31
ATOM     31  C   UNL A   1      42.428  26.062  25.815  1.00  0.00     0.338 C 
ATOM     32  O   UNL A   1      41.439  26.091  25.095  1.00  0.00    -0.246 OA
BRANCH  31  33
ATOM     33  C   UNL A   1      42.465  26.649  27.168  1.00  0.00     0.060 A 
ATOM     34  C   UNL A   1      41.814  25.967  28.195  1.00  0.00     0.016 A 
ATOM     35  C   UNL A   1      43.000  27.910  27.409  1.00  0.00     0.016 A 
ATOM     36  C   UNL A   1      41.614  26.558  29.441  1.00  0.00     0.010 A 
ATOM     37  C   UNL A   1      42.830  28.497  28.673  1.00  0.00     0.010 A 
ATOM     38  C   UNL A   1      42.097  27.848  29.688  1.00  0.00    -0.014 A 
BRANCH  38  39
ATOM     39  C   UNL A   1      41.721  28.579  30.931  1.00  0.00     0.031 A 
ATOM     40  C   UNL A   1      40.494  29.456  30.916  1.00  0.00     0.074 A 
ATOM     41  C   UNL A   1      42.424  28.457  32.075  1.00  0.00     0.049 A 
ATOM     42  N   UNL A   1      40.114  30.371  31.768  1.00  0.00    -0.248 NA
ATOM     43  C   UNL A   1      39.576  29.275  29.779  1.00  0.00     0.031 C 
ATOM     44  C   UNL A   1      43.567  27.569  32.282  1.00  0.00     0.029 A 
ATOM     45  N   UNL A   1      42.277  29.096  33.285  1.00  0.00    -0.354 N 
ATOM     46  C   UNL A   1      38.954  30.925  31.236  1.00  0.00     0.074 A 
ATOM     47  C   UNL A   1      38.682  30.228  29.997  1.00  0.00     0.031 C 
ATOM     48  C   UNL A   1      44.015  27.717  33.541  1.00  0.00     0.029 A 
ATOM     49  C   UNL A   1      43.244  28.764  34.204  1.00  0.00     0.049 A 
ATOM     50  H   UNL A   1      41.549  29.730  33.473  1.00  0.00     0.167 HD
ATOM     51  C   UNL A   1      38.194  31.932  31.730  1.00  0.00     0.037 A 
ATOM     52  C   UNL A   1      43.514  29.282  35.420  1.00  0.00     0.037 A 
ATOM     53  C   UNL A   1      38.438  32.583  32.990  1.00  0.00     0.049 A 
ATOM     54  C   UNL A   1      42.686  30.431  35.936  1.00  0.00     0.074 A 
ATOM     55  C   UNL A   1      37.742  33.630  33.571  1.00  0.00     0.029 A 
ATOM     56  N   UNL A   1      39.443  32.231  33.878  1.00  0.00    -0.354 N 
ATOM     57  N   UNL A   1      41.660  31.025  35.375  1.00  0.00    -0.248 NA
ATOM     58  C   UNL A   1      43.071  30.998  37.237  1.00  0.00     0.031 C 
ATOM     59  C   UNL A   1      38.341  33.925  34.801  1.00  0.00     0.029 A 
ATOM     60  C   UNL A   1      39.389  33.041  35.000  1.00  0.00     0.049 A 
ATOM     61  H   UNL A   1      40.099  31.513  33.731  1.00  0.00     0.167 HD
ATOM     62  C   UNL A   1      41.274  32.030  36.256  1.00  0.00     0.074 A 
ATOM     63  C   UNL A   1      42.164  31.952  37.396  1.00  0.00     0.031 C 
ATOM     64  C   UNL A   1      40.278  32.942  36.129  1.00  0.00     0.037 A 
BRANCH  51  65
ATOM     65  C   UNL A   1      37.062  32.427  30.877  1.00  0.00     0.058 A 
ATOM     66  C   UNL A   1      35.730  32.057  31.114  1.00  0.00     0.135 A 
ATOM     67  C   UNL A   1      37.319  33.302  29.807  1.00  0.00     0.135 A 
ATOM     68  F   UNL A   1      35.432  31.207  32.110  1.00  0.00    -0.206 F 
ATOM     69  C   UNL A   1      34.694  32.515  30.305  1.00  0.00     0.059 A 
ATOM     70  C   UNL A   1      36.297  33.789  28.999  1.00  0.00     0.059 A 
ATOM     71  F   UNL A   1      38.577  33.685  29.536  1.00  0.00    -0.206 F 
ATOM     72  C   UNL A   1      34.989  33.377  29.246  1.00  0.00     0.060 A 
BRANCH  72  73
ATOM     73  S   UNL A   1      33.640  33.957  28.194  1.00  0.00     0.124 S 
ATOM     74  O   UNL A   1      34.346  34.864  27.294  1.00  0.00    -0.237 OA
ATOM     75  O   UNL A   1      33.154  32.719  27.593  1.00  0.00    -0.237 OA
ATOM     76  O   UNL A   1      32.725  34.594  29.136  1.00  0.00    -0.744 OA
ENDBRANCH  72  73
ENDBRANCH  51  65
BRANCH  52  77
ATOM     77  C   UNL A   1      44.663  28.765  36.212  1.00  0.00     0.058 A 
ATOM     78  C   UNL A   1      45.943  29.323  36.081  1.00  0.00     0.135 A 
ATOM     79  C   UNL A   1      44.503  27.703  37.117  1.00  0.00     0.135 A 
ATOM     80  F   UNL A   1      46.152  30.327  35.215  1.00  0.00    -0.206 F 
ATOM     81  C   UNL A   1      47.025  28.845  36.815  1.00  0.00     0.059 A 
ATOM     82  C   UNL A   1      45.562  27.225  37.880  1.00  0.00     0.059 A 
ATOM     83  F   UNL A   1      43.297  27.137  37.281  1.00  0.00    -0.206 F 
ATOM     84  C   UNL A   1      46.823  27.797  37.716  1.00  0.00     0.060 A 
BRANCH  84  85
ATOM     85  S   UNL A   1      48.215  27.222  38.712  1.00  0.00     0.124 S 
ATOM     86  O   UNL A   1      47.731  27.468  40.065  1.00  0.00    -0.237 OA
ATOM     87  O   UNL A   1      48.322  25.820  38.316  1.00  0.00    -0.237 OA
ATOM     88  O   UNL A   1      49.315  28.073  38.268  1.00  0.00    -0.744 OA
ENDBRANCH  84  85
ENDBRANCH  52  77
BRANCH  64  89
ATOM     89  C   UNL A   1      40.078  33.908  37.260  1.00  0.00     0.058 A 
ATOM     90  C   UNL A   1      40.700  35.166  37.268  1.00  0.00     0.135 A 
ATOM     91  C   UNL A   1      39.214  33.594  38.321  1.00  0.00     0.135 A 
ATOM     92  F   UNL A   1      41.540  35.510  36.278  1.00  0.00    -0.206 F 
ATOM     93  C   UNL A   1      40.486  36.075  38.299  1.00  0.00     0.059 A 
ATOM     94  C   UNL A   1      38.970  34.496  39.352  1.00  0.00     0.059 A 
ATOM     95  F   UNL A   1      38.588  32.407  38.353  1.00  0.00    -0.206 F 
ATOM     96  C   UNL A   1      39.618  35.731  39.338  1.00  0.00     0.060 A 
BRANCH  96  97
ATOM     97  S   UNL A   1      39.317  36.929  40.654  1.00  0.00     0.124 S 
ATOM     98  O   UNL A   1      38.737  38.042  39.910  1.00  0.00    -0.237 OA
ATOM     99  O   UNL A   1      38.401  36.209  41.534  1.00  0.00    -0.237 OA
ATOM    100  O   UNL A   1      40.648  37.166  41.206  1.00  0.00    -0.744 OA
ENDBRANCH  96  97
ENDBRANCH  64  89
ENDBRANCH  38  39
ENDBRANCH  31  33
ENDBRANCH  30  31
ENDBRANCH  29  30
ENDBRANCH  28  29
ENDBRANCH  27  28
ENDBRANCH  26  27
ENDBRANCH   1  26
TORSDOF 25
ENDMDL
MODEL 2
REMARK VINA RESULT:      -9.4      1.239      3.170
REMARK SMILES C[C@H](NC(=O)N(CC(=O)OCCOCCOCCOC(=O)c1ccc(-c2c3nc(c(-c4c(F)cc(S(=O)(=O)[O-])cc4F)c4ccc([nH]4)c(-c4c(F)cc(S(=O)(=O)[O-])cc4F)c4nc(c(-c5c(F)cc(S(=O)(=O)[O-])cc5F)c5ccc2[nH]5)C=C4)C=C3)cc1)C(C)(C)C)c1ccccc1
REMARK SMILES IDX 14 1 13 2 12 3 11 4 10 5 8 6 9 7 7 8 6 9 4 10 3 11 5 13 2 14
REMARK SMILES IDX 1 15 92 16 93 17 97 18 94 19 96 20 95 21 88 22 89 23 90 24
REMARK SMILES IDX 91 25 15 26 16 27 17 28 18 29 19 30 20 31 21 32 22 33 23 34
REMARK SMILES IDX 87 35 24 36 86 37 25 38 26 39 27 40 80 41 28 42 85 43 79 44
REMARK SMILES IDX 81 45 29 46 84 47 78 48 77 49 30 51 64 52 43 53 63 54 44 55
REMARK SMILES IDX 47 56 62 57 82 58 45 59 46 60 61 62 83 63 48 64 31 65 32 66
REMARK SMILES IDX 41 67 33 68 34 69 40 70 42 71 35 72 36 73 37 74 38 75 39 76
REMARK SMILES IDX 65 77 66 78 75 79 67 80 68 81 74 82 76 83 69 84 70 85 71 86
REMARK SMILES IDX 72 87 73 88 49 89 50 90 59 91 51 92 52 93 58 94 60 95 53 96
REMARK SMILES IDX 54 97 55 98 56 99 57 100
REMARK H PARENT 3 12 81 50 47 61
REMARK Flexibility Score: inf
ROOT
ATOM      1  C   UNL A   1      40.261  20.834  26.105  1.00  0.00     0.188 C 
ENDROOT
BRANCH   1   2
ATOM      2  O   UNL A   1      39.305  21.893  26.073  1.00  0.00    -0.376 OA
BRANCH   2   3
ATOM      3  C   UNL A   1      38.045  21.649  25.467  1.00  0.00     0.202 C 
BRANCH   3   4
ATOM      4  C   UNL A   1      36.931  22.646  25.811  1.00  0.00     0.261 C 
BRANCH   4   5
ATOM      5  O   UNL A   1      36.512  23.513  24.732  1.00  0.00    -0.462 OA
BRANCH   5   6
ATOM      6  C   UNL A   1      35.194  23.834  24.765  1.00  0.00     0.325 C 
ATOM      7  O   UNL A   1      34.748  24.937  24.453  1.00  0.00    -0.250 OA
BRANCH   6   8
ATOM      8  C   UNL A   1      34.273  22.788  25.397  1.00  0.00     0.244 C 
BRANCH   8   9
ATOM      9  N   UNL A   1      32.854  22.962  25.781  1.00  0.00    -0.309 N 
BRANCH   9  10
ATOM     10  C   UNL A   1      32.404  23.753  26.810  1.00  0.00     0.318 C 
ATOM     11  N   UNL A   1      31.773  24.923  26.631  1.00  0.00    -0.331 N 
ATOM     12  H   UNL A   1      31.421  25.269  27.484  1.00  0.00     0.165 HD
ATOM     13  O   UNL A   1      32.448  23.393  27.991  1.00  0.00    -0.249 OA
BRANCH  11  14
ATOM     14  C   UNL A   1      31.461  25.828  25.529  1.00  0.00     0.111 C 
ATOM     15  C   UNL A   1      29.952  25.926  25.312  1.00  0.00     0.036 C 
BRANCH  14  16
ATOM     16  C   UNL A   1      32.079  27.189  25.822  1.00  0.00    -0.026 A 
ATOM     17  C   UNL A   1      31.678  28.328  25.109  1.00  0.00     0.006 A 
ATOM     18  C   UNL A   1      33.124  27.319  26.755  1.00  0.00     0.006 A 
ATOM     19  C   UNL A   1      32.344  29.543  25.281  1.00  0.00     0.000 A 
ATOM     20  C   UNL A   1      33.784  28.534  26.930  1.00  0.00     0.000 A 
ATOM     21  C   UNL A   1      33.400  29.644  26.185  1.00  0.00     0.000 A 
ENDBRANCH  14  16
ENDBRANCH  11  14
ENDBRANCH   9  10
BRANCH   9  22
ATOM     22  C   UNL A   1      31.802  22.245  24.972  1.00  0.00     0.037 C 
ATOM     23  C   UNL A   1      31.566  22.916  23.602  1.00  0.00     0.034 C 
ATOM     24  C   UNL A   1      32.202  20.761  24.755  1.00  0.00     0.034 C 
ATOM     25  C   UNL A   1      30.446  22.182  25.692  1.00  0.00     0.034 C 
ENDBRANCH   9  22
ENDBRANCH   8   9
ENDBRANCH   6   8
ENDBRANCH   5   6
ENDBRANCH   4   5
ENDBRANCH   3   4
ENDBRANCH   2   3
ENDBRANCH   1   2
BRANCH   1  26
ATOM     26  C   UNL A   1      41.730  21.189  26.340  1.00  0.00     0.188 C 
BRANCH  26  27
ATOM     27  O   UNL A   1      41.954  22.578  26.088  1.00  0.00    -0.376 OA
BRANCH  27  28
ATOM     28  C   UNL A   1      43.301  22.840  25.701  1.00  0.00     0.202 C 
BRANCH  28  29
ATOM     29  C   UNL A   1      43.394  24.155  24.920  1.00  0.00     0.261 C 
BRANCH  29  30
ATOM     30  O   UNL A   1      43.580  25.324  25.744  1.00  0.00    -0.460 OA
BRANCH  30  31
ATOM     31  C   UNL A   1      42.496  26.108  25.908  1.00  0.00     0.338 C 
ATOM     32  O   UNL A   1      41.545  26.204  25.144  1.00  0.00    -0.246 OA
BRANCH  31  33
ATOM     33  C   UNL A   1      42.543  26.760  27.231  1.00  0.00     0.060 A 
ATOM     34  C   UNL A   1      42.097  26.035  28.334  1.00  0.00     0.016 A 
ATOM     35  C   UNL A   1      42.883  28.101  27.379  1.00  0.00     0.016 A 
ATOM     36  C   UNL A   1      41.901  26.647  29.571  1.00  0.00     0.010 A 
ATOM     37  C   UNL A   1      42.720  28.715  28.630  1.00  0.00     0.010 A 
ATOM     38  C   UNL A   1      42.185  28.008  29.727  1.00  0.00    -0.014 A 
BRANCH  38  39
ATOM     39  C   UNL A   1      41.794  28.731  30.972  1.00  0.00     0.031 A 
ATOM     40  C   UNL A   1      40.557  29.591  30.954  1.00  0.00     0.074 A 
ATOM     41  C   UNL A   1      42.494  28.615  32.118  1.00  0.00     0.049 A 
ATOM     42  N   UNL A   1      40.160  30.499  31.807  1.00  0.00    -0.248 NA
ATOM     43  C   UNL A   1      39.645  29.401  29.812  1.00  0.00     0.031 C 
ATOM     44  C   UNL A   1      43.648  27.741  32.327  1.00  0.00     0.029 A 
ATOM     45  N   UNL A   1      42.334  29.248  33.329  1.00  0.00    -0.354 N 
ATOM     46  C   UNL A   1      38.996  31.039  31.271  1.00  0.00     0.074 A 
ATOM     47  C   UNL A   1      38.738  30.342  30.029  1.00  0.00     0.031 C 
ATOM     48  C   UNL A   1      44.089  27.891  33.588  1.00  0.00     0.029 A 
ATOM     49  C   UNL A   1      43.301  28.926  34.252  1.00  0.00     0.049 A 
ATOM     50  H   UNL A   1      41.596  29.872  33.516  1.00  0.00     0.167 HD
ATOM     51  C   UNL A   1      38.221  32.035  31.765  1.00  0.00     0.037 A 
ATOM     52  C   UNL A   1      43.559  29.445  35.469  1.00  0.00     0.037 A 
ATOM     53  C   UNL A   1      38.450  32.686  33.028  1.00  0.00     0.049 A 
ATOM     54  C   UNL A   1      42.714  30.580  35.986  1.00  0.00     0.074 A 
ATOM     55  C   UNL A   1      37.738  33.721  33.609  1.00  0.00     0.029 A 
ATOM     56  N   UNL A   1      39.456  32.344  33.919  1.00  0.00    -0.354 N 
ATOM     57  N   UNL A   1      41.682  31.163  35.422  1.00  0.00    -0.248 NA
ATOM     58  C   UNL A   1      43.086  31.149  37.289  1.00  0.00     0.031 C 
ATOM     59  C   UNL A   1      38.328  34.021  34.842  1.00  0.00     0.029 A 
ATOM     60  C   UNL A   1      39.387  33.150  35.043  1.00  0.00     0.049 A 
ATOM     61  H   UNL A   1      40.122  31.635  33.773  1.00  0.00     0.167 HD
ATOM     62  C   UNL A   1      41.280  32.160  36.304  1.00  0.00     0.074 A 
ATOM     63  C   UNL A   1      42.166  32.091  37.448  1.00  0.00     0.031 C 
ATOM     64  C   UNL A   1      40.272  33.059  36.176  1.00  0.00     0.037 A 
BRANCH  51  65
ATOM     65  C   UNL A   1      37.085  32.517  30.908  1.00  0.00     0.058 A 
ATOM     66  C   UNL A   1      35.769  32.068  31.089  1.00  0.00     0.135 A 
ATOM     67  C   UNL A   1      37.323  33.460  29.894  1.00  0.00     0.135 A 
ATOM     68  F   UNL A   1      35.491  31.152  32.031  1.00  0.00    -0.206 F 
ATOM     69  C   UNL A   1      34.731  32.516  30.277  1.00  0.00     0.059 A 
ATOM     70  C   UNL A   1      36.297  33.938  29.085  1.00  0.00     0.059 A 
ATOM     71  F   UNL A   1      38.565  33.921  29.678  1.00  0.00    -0.206 F 
ATOM     72  C   UNL A   1      35.006  33.447  29.274  1.00  0.00     0.060 A 
BRANCH  72  73
ATOM     73  S   UNL A   1      33.656  34.015  28.218  1.00  0.00     0.124 S 
ATOM     74  O   UNL A   1      32.768  34.639  29.195  1.00  0.00    -0.237 OA
ATOM     75  O   UNL A   1      34.333  34.928  27.303  1.00  0.00    -0.237 OA
ATOM     76  O   UNL A   1      33.157  32.784  27.613  1.00  0.00    -0.744 OA
ENDBRANCH  72  73
ENDBRANCH  51  65
BRANCH  52  77
ATOM     77  C   UNL A   1      44.712  28.940  36.265  1.00  0.00     0.058 A 
ATOM     78  C   UNL A   1      44.571  27.847  37.132  1.00  0.00     0.135 A 
ATOM     79  C   UNL A   1      45.977  29.542  36.174  1.00  0.00     0.135 A 
ATOM     80  F   UNL A   1      43.377  27.249  37.269  1.00  0.00    -0.206 F 
ATOM     81  C   UNL A   1      45.641  27.369  37.883  1.00  0.00     0.059 A 
ATOM     82  C   UNL A   1      47.068  29.067  36.894  1.00  0.00     0.059 A 
ATOM     83  F   UNL A   1      46.165  30.591  35.356  1.00  0.00    -0.206 F 
ATOM     84  C   UNL A   1      46.888  27.984  37.753  1.00  0.00     0.060 A 
BRANCH  84  85
ATOM     85  S   UNL A   1      48.289  27.323  38.681  1.00  0.00     0.124 S 
ATOM     86  O   UNL A   1      47.915  27.654  40.052  1.00  0.00    -0.237 OA
ATOM     87  O   UNL A   1      48.250  25.904  38.334  1.00  0.00    -0.237 OA
ATOM     88  O   UNL A   1      49.426  28.060  38.138  1.00  0.00    -0.744 OA
ENDBRANCH  84  85
ENDBRANCH  52  77
BRANCH  64  89
ATOM     89  C   UNL A   1      40.055  34.020  37.308  1.00  0.00     0.058 A 
ATOM     90  C   UNL A   1      40.706  35.262  37.351  1.00  0.00     0.135 A 
ATOM     91  C   UNL A   1      39.147  33.717  38.335  1.00  0.00     0.135 A 
ATOM     92  F   UNL A   1      41.589  35.595  36.395  1.00  0.00    -0.206 F 
ATOM     93  C   UNL A   1      40.476  36.166  38.383  1.00  0.00     0.059 A 
ATOM     94  C   UNL A   1      38.887  34.614  39.366  1.00  0.00     0.059 A 
ATOM     95  F   UNL A   1      38.492  32.545  38.333  1.00  0.00    -0.206 F 
ATOM     96  C   UNL A   1      39.564  35.833  39.387  1.00  0.00     0.060 A 
BRANCH  96  97
ATOM     97  S   UNL A   1      39.245  37.026  40.703  1.00  0.00     0.124 S 
ATOM     98  O   UNL A   1      38.240  37.884  40.085  1.00  0.00    -0.237 OA
ATOM     99  O   UNL A   1      38.769  36.177  41.792  1.00  0.00    -0.237 OA
ATOM    100  O   UNL A   1      40.550  37.643  40.924  1.00  0.00    -0.744 OA
ENDBRANCH  96  97
ENDBRANCH  64  89
ENDBRANCH  38  39
ENDBRANCH  31  33
ENDBRANCH  30  31
ENDBRANCH  29  30
ENDBRANCH  28  29
ENDBRANCH  27  28
ENDBRANCH  26  27
ENDBRANCH   1  26
TORSDOF 25
ENDMDL
MODEL 3
REMARK VINA RESULT:      -8.7      1.528      3.481
REMARK SMILES C[C@H](NC(=O)N(CC(=O)OCCOCCOCCOC(=O)c1ccc(-c2c3nc(c(-c4c(F)cc(S(=O)(=O)[O-])cc4F)c4ccc([nH]4)c(-c4c(F)cc(S(=O)(=O)[O-])cc4F)c4nc(c(-c5c(F)cc(S(=O)(=O)[O-])cc5F)c5ccc2[nH]5)C=C4)C=C3)cc1)C(C)(C)C)c1ccccc1
REMARK SMILES IDX 14 1 13 2 12 3 11 4 10 5 8 6 9 7 7 8 6 9 4 10 3 11 5 13 2 14
REMARK SMILES IDX 1 15 92 16 93 17 97 18 94 19 96 20 95 21 88 22 89 23 90 24
REMARK SMILES IDX 91 25 15 26 16 27 17 28 18 29 19 30 20 31 21 32 22 33 23 34
REMARK SMILES IDX 87 35 24 36 86 37 25 38 26 39 27 40 80 41 28 42 85 43 79 44
REMARK SMILES IDX 81 45 29 46 84 47 78 48 77 49 30 51 64 52 43 53 63 54 44 55
REMARK SMILES IDX 47 56 62 57 82 58 45 59 46 60 61 62 83 63 48 64 31 65 32 66
REMARK SMILES IDX 41 67 33 68 34 69 40 70 42 71 35 72 36 73 37 74 38 75 39 76
REMARK SMILES IDX 65 77 66 78 75 79 67 80 68 81 74 82 76 83 69 84 70 85 71 86
REMARK SMILES IDX 72 87 73 88 49 89 50 90 59 91 51 92 52 93 58 94 60 95 53 96
REMARK SMILES IDX 54 97 55 98 56 99 57 100
REMARK H PARENT 3 12 81 50 47 61
REMARK Flexibility Score: inf
ROOT
ATOM      1  C   UNL A   1      37.270  22.389  25.816  1.00  0.00     0.188 C 
ENDROOT
BRANCH   1   2
ATOM      2  O   UNL A   1      35.988  22.300  25.195  1.00  0.00    -0.376 OA
BRANCH   2   3
ATOM      3  C   UNL A   1      35.918  22.346  23.778  1.00  0.00     0.202 C 
BRANCH   3   4
ATOM      4  C   UNL A   1      35.241  23.586  23.180  1.00  0.00     0.261 C 
BRANCH   4   5
ATOM      5  O   UNL A   1      34.227  23.324  22.182  1.00  0.00    -0.462 OA
BRANCH   5   6
ATOM      6  C   UNL A   1      33.032  22.941  22.699  1.00  0.00     0.325 C 
ATOM      7  O   UNL A   1      32.415  21.941  22.335  1.00  0.00    -0.250 OA
BRANCH   6   8
ATOM      8  C   UNL A   1      32.379  23.935  23.662  1.00  0.00     0.244 C 
BRANCH   8   9
ATOM      9  N   UNL A   1      32.723  24.159  25.084  1.00  0.00    -0.309 N 
BRANCH   9  10
ATOM     10  C   UNL A   1      33.436  25.228  25.567  1.00  0.00     0.318 C 
ATOM     11  N   UNL A   1      32.876  26.294  26.158  1.00  0.00    -0.331 N 
ATOM     12  H   UNL A   1      33.562  26.885  26.545  1.00  0.00     0.165 HD
ATOM     13  O   UNL A   1      34.672  25.244  25.594  1.00  0.00    -0.249 OA
BRANCH  11  14
ATOM     14  C   UNL A   1      31.536  26.824  26.389  1.00  0.00     0.111 C 
ATOM     15  C   UNL A   1      31.540  27.846  27.524  1.00  0.00     0.036 C 
BRANCH  14  16
ATOM     16  C   UNL A   1      31.015  27.423  25.090  1.00  0.00    -0.026 A 
ATOM     17  C   UNL A   1      31.330  28.742  24.731  1.00  0.00     0.006 A 
ATOM     18  C   UNL A   1      30.139  26.697  24.262  1.00  0.00     0.006 A 
ATOM     19  C   UNL A   1      30.738  29.333  23.612  1.00  0.00     0.000 A 
ATOM     20  C   UNL A   1      29.553  27.287  23.143  1.00  0.00     0.000 A 
ATOM     21  C   UNL A   1      29.845  28.609  22.824  1.00  0.00     0.000 A 
ENDBRANCH  14  16
ENDBRANCH  11  14
ENDBRANCH   9  10
BRANCH   9  22
ATOM     22  C   UNL A   1      32.237  23.158  26.103  1.00  0.00     0.037 C 
ATOM     23  C   UNL A   1      30.777  23.426  26.529  1.00  0.00     0.034 C 
ATOM     24  C   UNL A   1      32.351  21.714  25.543  1.00  0.00     0.034 C 
ATOM     25  C   UNL A   1      33.094  23.150  27.378  1.00  0.00     0.034 C 
ENDBRANCH   9  22
ENDBRANCH   8   9
ENDBRANCH   6   8
ENDBRANCH   5   6
ENDBRANCH   4   5
ENDBRANCH   3   4
ENDBRANCH   2   3
ENDBRANCH   1   2
BRANCH   1  26
ATOM     26  C   UNL A   1      38.333  21.358  25.438  1.00  0.00     0.188 C 
BRANCH  26  27
ATOM     27  O   UNL A   1      39.579  21.674  26.062  1.00  0.00    -0.376 OA
BRANCH  27  28
ATOM     28  C   UNL A   1      39.637  23.037  26.478  1.00  0.00     0.202 C 
BRANCH  28  29
ATOM     29  C   UNL A   1      40.990  23.349  27.125  1.00  0.00     0.261 C 
BRANCH  29  30
ATOM     30  O   UNL A   1      41.812  24.266  26.372  1.00  0.00    -0.460 OA
BRANCH  30  31
ATOM     31  C   UNL A   1      41.389  25.545  26.341  1.00  0.00     0.338 C 
ATOM     32  O   UNL A   1      40.980  26.153  25.361  1.00  0.00    -0.246 OA
BRANCH  31  33
ATOM     33  C   UNL A   1      41.361  26.098  27.709  1.00  0.00     0.060 A 
ATOM     34  C   UNL A   1      40.168  26.012  28.425  1.00  0.00     0.016 A 
ATOM     35  C   UNL A   1      42.432  26.812  28.236  1.00  0.00     0.016 A 
ATOM     36  C   UNL A   1      39.995  26.700  29.625  1.00  0.00     0.010 A 
ATOM     37  C   UNL A   1      42.274  27.480  29.461  1.00  0.00     0.010 A 
ATOM     38  C   UNL A   1      41.041  27.469  30.146  1.00  0.00    -0.014 A 
BRANCH  38  39
ATOM     39  C   UNL A   1      40.817  28.373  31.310  1.00  0.00     0.031 A 
ATOM     40  C   UNL A   1      39.728  29.411  31.225  1.00  0.00     0.074 A 
ATOM     41  C   UNL A   1      41.536  28.270  32.446  1.00  0.00     0.049 A 
ATOM     42  N   UNL A   1      39.512  30.456  31.980  1.00  0.00    -0.248 NA
ATOM     43  C   UNL A   1      38.754  29.248  30.133  1.00  0.00     0.031 C 
ATOM     44  C   UNL A   1      42.548  27.252  32.725  1.00  0.00     0.029 A 
ATOM     45  N   UNL A   1      41.525  29.046  33.582  1.00  0.00    -0.354 N 
ATOM     46  C   UNL A   1      38.425  31.114  31.415  1.00  0.00     0.074 A 
ATOM     47  C   UNL A   1      38.013  30.338  30.265  1.00  0.00     0.031 C 
ATOM     48  C   UNL A   1      43.058  27.463  33.951  1.00  0.00     0.029 A 
ATOM     49  C   UNL A   1      42.467  28.675  34.512  1.00  0.00     0.049 A 
ATOM     50  H   UNL A   1      40.902  29.795  33.715  1.00  0.00     0.167 HD
ATOM     51  C   UNL A   1      37.834  32.267  31.812  1.00  0.00     0.037 A 
ATOM     52  C   UNL A   1      42.851  29.273  35.659  1.00  0.00     0.037 A 
ATOM     53  C   UNL A   1      38.213  33.004  32.989  1.00  0.00     0.049 A 
ATOM     54  C   UNL A   1      42.214  30.576  36.064  1.00  0.00     0.074 A 
ATOM     55  C   UNL A   1      37.694  34.195  33.467  1.00  0.00     0.029 A 
ATOM     56  N   UNL A   1      39.189  32.604  33.889  1.00  0.00    -0.354 N 
ATOM     57  N   UNL A   1      41.264  31.252  35.463  1.00  0.00    -0.248 NA
ATOM     58  C   UNL A   1      42.722  31.214  37.288  1.00  0.00     0.031 C 
ATOM     59  C   UNL A   1      38.373  34.527  34.645  1.00  0.00     0.029 A 
ATOM     60  C   UNL A   1      39.290  33.525  34.918  1.00  0.00     0.049 A 
ATOM     61  H   UNL A   1      39.730  31.787  33.808  1.00  0.00     0.167 HD
ATOM     62  C   UNL A   1      41.056  32.388  36.237  1.00  0.00     0.074 A 
ATOM     63  C   UNL A   1      41.967  32.302  37.361  1.00  0.00     0.031 C 
ATOM     64  C   UNL A   1      40.196  33.417  36.033  1.00  0.00     0.037 A 
BRANCH  51  65
ATOM     65  C   UNL A   1      36.754  32.829  30.934  1.00  0.00     0.058 A 
ATOM     66  C   UNL A   1      35.396  32.554  31.150  1.00  0.00     0.135 A 
ATOM     67  C   UNL A   1      37.089  33.673  29.861  1.00  0.00     0.135 A 
ATOM     68  F   UNL A   1      35.023  31.737  32.148  1.00  0.00    -0.206 F 
ATOM     69  C   UNL A   1      34.408  33.073  30.317  1.00  0.00     0.059 A 
ATOM     70  C   UNL A   1      36.118  34.221  29.030  1.00  0.00     0.059 A 
ATOM     71  F   UNL A   1      38.375  33.967  29.610  1.00  0.00    -0.206 F 
ATOM     72  C   UNL A   1      34.780  33.902  29.256  1.00  0.00     0.060 A 
BRANCH  72  73
ATOM     73  S   UNL A   1      33.494  34.562  28.175  1.00  0.00     0.124 S 
ATOM     74  O   UNL A   1      32.699  35.345  29.116  1.00  0.00    -0.237 OA
ATOM     75  O   UNL A   1      34.264  35.331  27.202  1.00  0.00    -0.237 OA
ATOM     76  O   UNL A   1      32.845  33.365  27.649  1.00  0.00    -0.744 OA
ENDBRANCH  72  73
ENDBRANCH  51  65
BRANCH  52  77
ATOM     77  C   UNL A   1      43.943  28.680  36.479  1.00  0.00     0.058 A 
ATOM     78  C   UNL A   1      45.232  29.230  36.476  1.00  0.00     0.135 A 
ATOM     79  C   UNL A   1      43.717  27.550  37.282  1.00  0.00     0.135 A 
ATOM     80  F   UNL A   1      45.504  30.298  35.710  1.00  0.00    -0.206 F 
ATOM     81  C   UNL A   1      46.261  28.682  37.237  1.00  0.00     0.059 A 
ATOM     82  C   UNL A   1      44.722  27.000  38.071  1.00  0.00     0.059 A 
ATOM     83  F   UNL A   1      42.499  26.987  37.322  1.00  0.00    -0.206 F 
ATOM     84  C   UNL A   1      45.994  27.568  38.035  1.00  0.00     0.060 A 
BRANCH  84  85
ATOM     85  S   UNL A   1      47.315  26.897  39.068  1.00  0.00     0.124 S 
ATOM     86  O   UNL A   1      47.215  27.739  40.255  1.00  0.00    -0.237 OA
ATOM     87  O   UNL A   1      46.903  25.506  39.236  1.00  0.00    -0.237 OA
ATOM     88  O   UNL A   1      48.508  27.093  38.250  1.00  0.00    -0.744 OA
ENDBRANCH  84  85
ENDBRANCH  52  77
BRANCH  64  89
ATOM     89  C   UNL A   1      40.177  34.515  37.056  1.00  0.00     0.058 A 
ATOM     90  C   UNL A   1      39.281  34.496  38.135  1.00  0.00     0.135 A 
ATOM     91  C   UNL A   1      41.100  35.571  36.985  1.00  0.00     0.135 A 
ATOM     92  F   UNL A   1      38.375  33.511  38.244  1.00  0.00    -0.206 F 
ATOM     93  C   UNL A   1      39.288  35.497  39.102  1.00  0.00     0.059 A 
ATOM     94  C   UNL A   1      41.138  36.571  37.950  1.00  0.00     0.059 A 
ATOM     95  F   UNL A   1      41.984  35.627  35.976  1.00  0.00    -0.206 F 
ATOM     96  C   UNL A   1      40.222  36.531  39.001  1.00  0.00     0.060 A 
BRANCH  96  97
ATOM     97  S   UNL A   1      40.249  37.806  40.279  1.00  0.00     0.124 S 
ATOM     98  O   UNL A   1      41.582  38.372  40.100  1.00  0.00    -0.237 OA
ATOM     99  O   UNL A   1      39.137  38.669  39.889  1.00  0.00    -0.237 OA
ATOM    100  O   UNL A   1      40.044  37.052  41.513  1.00  0.00    -0.744 OA
ENDBRANCH  96  97
ENDBRANCH  64  89
ENDBRANCH  38  39
ENDBRANCH  31  33
ENDBRANCH  30  31
ENDBRANCH  29  30
ENDBRANCH  28  29
ENDBRANCH  27  28
ENDBRANCH  26  27
ENDBRANCH   1  26
TORSDOF 25
ENDMDL
