MODEL 1
REMARK VINA RESULT:     -10.2      0.000      0.000
REMARK SMILES O=C(OCCOCCOCCOC(=O)[C@H]1CCCN1S(=O)(=O)c1ccccc1Cl)c1ccc(-c2c3nc(c(-c4c(F)cc(S(=O)(=O)[O-])cc4F)c4ccc([nH]4)c(-c4c(F)cc(S(=O)(=O)[O-])cc4F)c4nc(c(-c5c(F)cc(S(=O)(=O)[O-])cc5F)c5ccc2[nH]5)C=C4)C=C3)cc1
REMARK SMILES IDX 7 1 6 2 5 3 4 4 3 5 2 6 1 7 30 8 31 9 95 10 32 11 94 12
REMARK SMILES IDX 33 13 34 14 35 15 88 16 36 17 93 18 87 19 89 20 37 21 92 22
REMARK SMILES IDX 86 23 85 24 38 26 72 27 51 28 71 29 52 30 55 31 70 32 90 33
REMARK SMILES IDX 53 34 54 35 69 37 91 38 56 39 39 40 40 41 49 42 41 43 42 44
REMARK SMILES IDX 48 45 50 46 43 47 44 48 45 49 46 50 47 51 73 52 74 53 83 54
REMARK SMILES IDX 75 55 76 56 82 57 84 58 77 59 78 60 79 61 80 62 81 63 57 64
REMARK SMILES IDX 58 65 67 66 59 67 60 68 66 69 68 70 61 71 62 72 63 73 64 74
REMARK SMILES IDX 65 75 8 76 9 77 10 78 11 79 12 80 13 81 14 82 15 83 16 84
REMARK SMILES IDX 19 85 17 86 18 87 20 88 21 89 22 90 23 91 24 92 28 93 25 94
REMARK SMILES IDX 27 95 29 96 26 97
REMARK H PARENT 89 25 55 36
REMARK Flexibility Score: inf
ROOT
ATOM      1  C   UNL A   1      38.854  22.168  26.151  1.00  0.00     0.188 C 
ENDROOT
BRANCH   1   2
ATOM      2  O   UNL A   1      40.033  21.364  26.145  1.00  0.00    -0.376 OA
BRANCH   2   3
ATOM      3  C   UNL A   1      41.117  21.939  26.886  1.00  0.00     0.202 C 
BRANCH   3   4
ATOM      4  C   UNL A   1      41.986  22.976  26.138  1.00  0.00     0.261 C 
BRANCH   4   5
ATOM      5  O   UNL A   1      41.290  24.179  25.760  1.00  0.00    -0.460 OA
BRANCH   5   6
ATOM      6  C   UNL A   1      41.652  25.474  25.945  1.00  0.00     0.338 C 
ATOM      7  O   UNL A   1      42.170  26.073  25.002  1.00  0.00    -0.246 OA
BRANCH   6   8
ATOM      8  C   UNL A   1      41.507  26.206  27.243  1.00  0.00     0.060 A 
ATOM      9  C   UNL A   1      40.542  25.927  28.208  1.00  0.00     0.016 A 
ATOM     10  C   UNL A   1      42.448  27.208  27.539  1.00  0.00     0.016 A 
ATOM     11  C   UNL A   1      40.427  26.674  29.370  1.00  0.00     0.010 A 
ATOM     12  C   UNL A   1      42.380  27.930  28.740  1.00  0.00     0.010 A 
ATOM     13  C   UNL A   1      41.333  27.690  29.641  1.00  0.00    -0.014 A 
BRANCH  13  14
ATOM     14  C   UNL A   1      41.026  28.601  30.761  1.00  0.00     0.031 A 
ATOM     15  C   UNL A   1      41.876  28.501  31.994  1.00  0.00     0.074 A 
ATOM     16  C   UNL A   1      40.164  29.625  30.614  1.00  0.00     0.049 A 
ATOM     17  N   UNL A   1      41.829  29.207  33.089  1.00  0.00    -0.248 NA
ATOM     18  C   UNL A   1      42.961  27.505  31.965  1.00  0.00     0.031 C 
ATOM     19  C   UNL A   1      39.464  29.977  29.376  1.00  0.00     0.029 A 
ATOM     20  N   UNL A   1      39.765  30.591  31.502  1.00  0.00    -0.354 N 
ATOM     21  C   UNL A   1      42.883  28.753  33.870  1.00  0.00     0.074 A 
ATOM     22  C   UNL A   1      43.520  27.676  33.151  1.00  0.00     0.031 C 
ATOM     23  C   UNL A   1      38.727  31.076  29.596  1.00  0.00     0.029 A 
ATOM     24  C   UNL A   1      38.796  31.425  31.000  1.00  0.00     0.049 A 
ATOM     25  H   UNL A   1      40.136  30.678  32.410  1.00  0.00     0.167 HD
ATOM     26  C   UNL A   1      43.299  29.220  35.069  1.00  0.00     0.037 A 
ATOM     27  C   UNL A   1      38.015  32.330  31.616  1.00  0.00     0.037 A 
ATOM     28  C   UNL A   1      42.649  30.292  35.769  1.00  0.00     0.049 A 
ATOM     29  C   UNL A   1      38.318  32.652  33.043  1.00  0.00     0.074 A 
ATOM     30  C   UNL A   1      42.955  30.827  37.005  1.00  0.00     0.029 A 
ATOM     31  N   UNL A   1      41.543  30.983  35.292  1.00  0.00    -0.354 N 
ATOM     32  N   UNL A   1      39.281  32.181  33.797  1.00  0.00    -0.248 NA
ATOM     33  C   UNL A   1      37.473  33.663  33.685  1.00  0.00     0.031 C 
ATOM     34  C   UNL A   1      41.999  31.806  37.301  1.00  0.00     0.029 A 
ATOM     35  C   UNL A   1      41.131  31.918  36.226  1.00  0.00     0.049 A 
ATOM     36  H   UNL A   1      41.114  30.832  34.419  1.00  0.00     0.167 HD
ATOM     37  C   UNL A   1      39.201  32.886  34.986  1.00  0.00     0.074 A 
ATOM     38  C   UNL A   1      38.078  33.796  34.856  1.00  0.00     0.031 C 
ATOM     39  C   UNL A   1      40.009  32.810  36.071  1.00  0.00     0.037 A 
BRANCH  26  40
ATOM     40  C   UNL A   1      44.467  28.518  35.696  1.00  0.00     0.058 A 
ATOM     41  C   UNL A   1      45.795  28.886  35.422  1.00  0.00     0.135 A 
ATOM     42  C   UNL A   1      44.252  27.415  36.537  1.00  0.00     0.135 A 
ATOM     43  F   UNL A   1      46.056  29.911  34.595  1.00  0.00    -0.206 F 
ATOM     44  C   UNL A   1      46.868  28.159  35.926  1.00  0.00     0.059 A 
ATOM     45  C   UNL A   1      45.311  26.689  37.073  1.00  0.00     0.059 A 
ATOM     46  F   UNL A   1      43.002  27.012  36.817  1.00  0.00    -0.206 F 
ATOM     47  C   UNL A   1      46.614  27.057  36.744  1.00  0.00     0.060 A 
BRANCH  47  48
ATOM     48  S   UNL A   1      48.013  26.095  37.357  1.00  0.00     0.124 S 
ATOM     49  O   UNL A   1      48.422  26.883  38.516  1.00  0.00    -0.237 OA
ATOM     50  O   UNL A   1      47.398  24.805  37.654  1.00  0.00    -0.237 OA
ATOM     51  O   UNL A   1      48.946  26.098  36.235  1.00  0.00    -0.744 OA
ENDBRANCH  47  48
ENDBRANCH  26  40
BRANCH  27  52
ATOM     52  C   UNL A   1      36.856  32.954  30.927  1.00  0.00     0.058 A 
ATOM     53  C   UNL A   1      35.546  32.509  31.138  1.00  0.00     0.135 A 
ATOM     54  C   UNL A   1      37.055  33.990  29.999  1.00  0.00     0.135 A 
ATOM     55  F   UNL A   1      35.308  31.513  32.004  1.00  0.00    -0.206 F 
ATOM     56  C   UNL A   1      34.469  33.075  30.462  1.00  0.00     0.059 A 
ATOM     57  C   UNL A   1      35.993  34.579  29.318  1.00  0.00     0.059 A 
ATOM     58  F   UNL A   1      38.292  34.448  29.760  1.00  0.00    -0.206 F 
ATOM     59  C   UNL A   1      34.700  34.117  29.559  1.00  0.00     0.060 A 
BRANCH  59  60
ATOM     60  S   UNL A   1      33.277  34.944  28.811  1.00  0.00     0.124 S 
ATOM     61  O   UNL A   1      32.742  33.896  27.951  1.00  0.00    -0.237 OA
ATOM     62  O   UNL A   1      32.475  35.280  29.986  1.00  0.00    -0.237 OA
ATOM     63  O   UNL A   1      33.872  36.086  28.126  1.00  0.00    -0.744 OA
ENDBRANCH  59  60
ENDBRANCH  27  52
BRANCH  39  64
ATOM     64  C   UNL A   1      39.740  33.789  37.170  1.00  0.00     0.058 A 
ATOM     65  C   UNL A   1      38.948  33.458  38.277  1.00  0.00     0.135 A 
ATOM     66  C   UNL A   1      40.304  35.073  37.112  1.00  0.00     0.135 A 
ATOM     67  F   UNL A   1      38.372  32.249  38.362  1.00  0.00    -0.206 F 
ATOM     68  C   UNL A   1      38.701  34.381  39.285  1.00  0.00     0.059 A 
ATOM     69  C   UNL A   1      40.097  36.000  38.124  1.00  0.00     0.059 A 
ATOM     70  F   UNL A   1      41.071  35.431  36.070  1.00  0.00    -0.206 F 
ATOM     71  C   UNL A   1      39.282  35.649  39.200  1.00  0.00     0.060 A 
BRANCH  71  72
ATOM     72  S   UNL A   1      38.984  36.827  40.530  1.00  0.00     0.124 S 
ATOM     73  O   UNL A   1      38.082  36.072  41.393  1.00  0.00    -0.237 OA
ATOM     74  O   UNL A   1      40.327  37.051  41.055  1.00  0.00    -0.237 OA
ATOM     75  O   UNL A   1      38.388  37.969  39.844  1.00  0.00    -0.744 OA
ENDBRANCH  71  72
ENDBRANCH  39  64
ENDBRANCH  13  14
ENDBRANCH   6   8
ENDBRANCH   5   6
ENDBRANCH   4   5
ENDBRANCH   3   4
ENDBRANCH   2   3
ENDBRANCH   1   2
BRANCH   1  76
ATOM     76  C   UNL A   1      37.751  21.747  25.183  1.00  0.00     0.188 C 
BRANCH  76  77
ATOM     77  O   UNL A   1      36.420  21.669  25.664  1.00  0.00    -0.376 OA
BRANCH  77  78
ATOM     78  C   UNL A   1      35.579  20.686  25.074  1.00  0.00     0.202 C 
BRANCH  78  79
ATOM     79  C   UNL A   1      34.051  20.729  25.308  1.00  0.00     0.261 C 
BRANCH  79  80
ATOM     80  O   UNL A   1      33.199  21.080  24.193  1.00  0.00    -0.462 OA
BRANCH  80  81
ATOM     81  C   UNL A   1      33.183  22.412  23.900  1.00  0.00     0.324 C 
ATOM     82  O   UNL A   1      34.007  22.948  23.160  1.00  0.00    -0.250 OA
BRANCH  81  83
ATOM     83  C   UNL A   1      32.028  23.213  24.471  1.00  0.00     0.183 C 
ATOM     84  C   UNL A   1      31.044  22.380  25.285  1.00  0.00     0.034 C 
ATOM     85  N   UNL A   1      32.245  24.457  25.263  1.00  0.00    -0.184 NA
ATOM     86  C   UNL A   1      31.150  22.863  26.718  1.00  0.00     0.019 C 
ATOM     87  C   UNL A   1      32.026  24.101  26.693  1.00  0.00     0.103 C 
BRANCH  85  88
ATOM     88  S   UNL A   1      31.274  25.801  24.736  1.00  0.00     0.245 S 
ATOM     89  O   UNL A   1      31.431  25.920  23.302  1.00  0.00    -0.207 OA
ATOM     90  O   UNL A   1      29.956  25.605  25.299  1.00  0.00    -0.207 OA
BRANCH  88  91
ATOM     91  C   UNL A   1      32.027  27.173  25.576  1.00  0.00     0.101 A 
ATOM     92  C   UNL A   1      31.388  27.601  26.746  1.00  0.00     0.023 A 
ATOM     93  C   UNL A   1      33.194  27.817  25.174  1.00  0.00     0.061 A 
ATOM     94  C   UNL A   1      31.978  28.535  27.592  1.00  0.00     0.002 A 
ATOM     95  C   UNL A   1      33.789  28.756  26.033  1.00  0.00     0.022 A 
ATOM     96  Cl  UNL A   1      33.975  27.610  23.649  1.00  0.00    -0.083 Cl
ATOM     97  C   UNL A   1      33.194  29.099  27.246  1.00  0.00     0.002 A 
ENDBRANCH  88  91
ENDBRANCH  85  88
ENDBRANCH  81  83
ENDBRANCH  80  81
ENDBRANCH  79  80
ENDBRANCH  78  79
ENDBRANCH  77  78
ENDBRANCH  76  77
ENDBRANCH   1  76
TORSDOF 22
ENDMDL
MODEL 2
REMARK VINA RESULT:     -10.2      0.986      8.216
REMARK SMILES O=C(OCCOCCOCCOC(=O)[C@H]1CCCN1S(=O)(=O)c1ccccc1Cl)c1ccc(-c2c3nc(c(-c4c(F)cc(S(=O)(=O)[O-])cc4F)c4ccc([nH]4)c(-c4c(F)cc(S(=O)(=O)[O-])cc4F)c4nc(c(-c5c(F)cc(S(=O)(=O)[O-])cc5F)c5ccc2[nH]5)C=C4)C=C3)cc1
REMARK SMILES IDX 7 1 6 2 5 3 4 4 3 5 2 6 1 7 30 8 31 9 95 10 32 11 94 12
REMARK SMILES IDX 33 13 34 14 35 15 88 16 36 17 93 18 87 19 89 20 37 21 92 22
REMARK SMILES IDX 86 23 85 24 38 26 72 27 51 28 71 29 52 30 55 31 70 32 90 33
REMARK SMILES IDX 53 34 54 35 69 37 91 38 56 39 39 40 40 41 49 42 41 43 42 44
REMARK SMILES IDX 48 45 50 46 43 47 44 48 45 49 46 50 47 51 73 52 74 53 83 54
REMARK SMILES IDX 75 55 76 56 82 57 84 58 77 59 78 60 79 61 80 62 81 63 57 64
REMARK SMILES IDX 58 65 67 66 59 67 60 68 66 69 68 70 61 71 62 72 63 73 64 74
REMARK SMILES IDX 65 75 8 76 9 77 10 78 11 79 12 80 13 81 14 82 15 83 16 84
REMARK SMILES IDX 19 85 17 86 18 87 20 88 21 89 22 90 23 91 24 92 28 93 25 94
REMARK SMILES IDX 27 95 29 96 26 97
REMARK H PARENT 89 25 55 36
REMARK Flexibility Score: inf
ROOT
ATOM      1  C   UNL A   1      38.244  23.518  26.174  1.00  0.00     0.188 C 
ENDROOT
BRANCH   1   2
ATOM      2  O   UNL A   1      39.013  22.316  26.172  1.00  0.00    -0.376 OA
BRANCH   2   3
ATOM      3  C   UNL A   1      40.122  22.349  27.082  1.00  0.00     0.202 C 
BRANCH   3   4
ATOM      4  C   UNL A   1      41.496  22.713  26.475  1.00  0.00     0.261 C 
BRANCH   4   5
ATOM      5  O   UNL A   1      41.674  24.114  26.194  1.00  0.00    -0.460 OA
BRANCH   5   6
ATOM      6  C   UNL A   1      42.577  24.985  26.710  1.00  0.00     0.338 C 
ATOM      7  O   UNL A   1      43.756  24.868  26.374  1.00  0.00    -0.246 OA
BRANCH   6   8
ATOM      8  C   UNL A   1      42.238  26.051  27.705  1.00  0.00     0.060 A 
ATOM      9  C   UNL A   1      42.990  27.203  27.922  1.00  0.00     0.016 A 
ATOM     10  C   UNL A   1      41.042  25.912  28.433  1.00  0.00     0.016 A 
ATOM     11  C   UNL A   1      42.650  28.131  28.894  1.00  0.00     0.010 A 
ATOM     12  C   UNL A   1      40.656  26.875  29.376  1.00  0.00     0.010 A 
ATOM     13  C   UNL A   1      41.490  27.970  29.640  1.00  0.00    -0.014 A 
BRANCH  13  14
ATOM     14  C   UNL A   1      41.303  28.847  30.812  1.00  0.00     0.031 A 
ATOM     15  C   UNL A   1      40.216  29.880  30.743  1.00  0.00     0.074 A 
ATOM     16  C   UNL A   1      41.928  28.599  31.978  1.00  0.00     0.049 A 
ATOM     17  N   UNL A   1      39.833  30.739  31.647  1.00  0.00    -0.248 NA
ATOM     18  C   UNL A   1      39.417  29.912  29.505  1.00  0.00     0.031 C 
ATOM     19  C   UNL A   1      42.819  27.467  32.242  1.00  0.00     0.029 A 
ATOM     20  N   UNL A   1      41.872  29.260  33.179  1.00  0.00    -0.354 N 
ATOM     21  C   UNL A   1      38.745  31.399  31.095  1.00  0.00     0.074 A 
ATOM     22  C   UNL A   1      38.558  30.884  29.759  1.00  0.00     0.031 C 
ATOM     23  C   UNL A   1      43.219  27.524  33.522  1.00  0.00     0.029 A 
ATOM     24  C   UNL A   1      42.729  28.747  34.122  1.00  0.00     0.049 A 
ATOM     25  H   UNL A   1      41.278  30.026  33.349  1.00  0.00     0.167 HD
ATOM     26  C   UNL A   1      37.952  32.332  31.669  1.00  0.00     0.037 A 
ATOM     27  C   UNL A   1      43.115  29.238  35.314  1.00  0.00     0.037 A 
ATOM     28  C   UNL A   1      38.157  32.834  32.999  1.00  0.00     0.049 A 
ATOM     29  C   UNL A   1      42.403  30.446  35.830  1.00  0.00     0.074 A 
ATOM     30  C   UNL A   1      37.443  33.804  33.675  1.00  0.00     0.029 A 
ATOM     31  N   UNL A   1      39.167  32.408  33.850  1.00  0.00    -0.354 N 
ATOM     32  N   UNL A   1      41.411  31.103  35.282  1.00  0.00    -0.248 NA
ATOM     33  C   UNL A   1      42.820  30.945  37.144  1.00  0.00     0.031 C 
ATOM     34  C   UNL A   1      38.057  34.005  34.916  1.00  0.00     0.029 A 
ATOM     35  C   UNL A   1      39.119  33.122  35.035  1.00  0.00     0.049 A 
ATOM     36  H   UNL A   1      39.822  31.702  33.644  1.00  0.00     0.167 HD
ATOM     37  C   UNL A   1      41.036  32.057  36.213  1.00  0.00     0.074 A 
ATOM     38  C   UNL A   1      41.929  31.905  37.347  1.00  0.00     0.031 C 
ATOM     39  C   UNL A   1      40.021  32.951  36.147  1.00  0.00     0.037 A 
BRANCH  26  40
ATOM     40  C   UNL A   1      36.848  32.891  30.821  1.00  0.00     0.058 A 
ATOM     41  C   UNL A   1      37.074  33.904  29.873  1.00  0.00     0.135 A 
ATOM     42  C   UNL A   1      35.529  32.450  31.008  1.00  0.00     0.135 A 
ATOM     43  F   UNL A   1      38.312  34.387  29.682  1.00  0.00    -0.206 F 
ATOM     44  C   UNL A   1      36.025  34.487  29.171  1.00  0.00     0.059 A 
ATOM     45  C   UNL A   1      34.468  33.002  30.298  1.00  0.00     0.059 A 
ATOM     46  F   UNL A   1      35.257  31.496  31.913  1.00  0.00    -0.206 F 
ATOM     47  C   UNL A   1      34.724  34.034  29.398  1.00  0.00     0.060 A 
BRANCH  47  48
ATOM     48  S   UNL A   1      33.366  34.829  28.513  1.00  0.00     0.124 S 
ATOM     49  O   UNL A   1      34.085  35.771  27.662  1.00  0.00    -0.237 OA
ATOM     50  O   UNL A   1      32.742  33.703  27.824  1.00  0.00    -0.237 OA
ATOM     51  O   UNL A   1      32.569  35.426  29.579  1.00  0.00    -0.744 OA
ENDBRANCH  47  48
ENDBRANCH  26  40
BRANCH  27  52
ATOM     52  C   UNL A   1      44.243  28.639  36.073  1.00  0.00     0.058 A 
ATOM     53  C   UNL A   1      45.566  29.050  35.874  1.00  0.00     0.135 A 
ATOM     54  C   UNL A   1      44.011  27.599  36.988  1.00  0.00     0.135 A 
ATOM     55  F   UNL A   1      45.839  30.030  35.000  1.00  0.00    -0.206 F 
ATOM     56  C   UNL A   1      46.622  28.460  36.563  1.00  0.00     0.059 A 
ATOM     57  C   UNL A   1      45.048  26.999  37.698  1.00  0.00     0.059 A 
ATOM     58  F   UNL A   1      42.760  27.168  37.211  1.00  0.00    -0.206 F 
ATOM     59  C   UNL A   1      46.353  27.439  37.481  1.00  0.00     0.060 A 
BRANCH  59  60
ATOM     60  S   UNL A   1      47.715  26.796  38.479  1.00  0.00     0.124 S 
ATOM     61  O   UNL A   1      47.109  26.727  39.802  1.00  0.00    -0.237 OA
ATOM     62  O   UNL A   1      47.983  25.514  37.830  1.00  0.00    -0.237 OA
ATOM     63  O   UNL A   1      48.760  27.800  38.311  1.00  0.00    -0.744 OA
ENDBRANCH  59  60
ENDBRANCH  27  52
BRANCH  39  64
ATOM     64  C   UNL A   1      39.787  33.783  37.368  1.00  0.00     0.058 A 
ATOM     65  C   UNL A   1      40.412  35.024  37.548  1.00  0.00     0.135 A 
ATOM     66  C   UNL A   1      38.908  33.328  38.363  1.00  0.00     0.135 A 
ATOM     67  F   UNL A   1      41.277  35.487  36.631  1.00  0.00    -0.206 F 
ATOM     68  C   UNL A   1      40.191  35.781  38.691  1.00  0.00     0.059 A 
ATOM     69  C   UNL A   1      38.647  34.082  39.498  1.00  0.00     0.059 A 
ATOM     70  F   UNL A   1      38.287  32.145  38.231  1.00  0.00    -0.206 F 
ATOM     71  C   UNL A   1      39.305  35.302  39.660  1.00  0.00     0.060 A 
BRANCH  71  72
ATOM     72  S   UNL A   1      38.998  36.308  41.123  1.00  0.00     0.124 S 
ATOM     73  O   UNL A   1      37.830  35.646  41.692  1.00  0.00    -0.237 OA
ATOM     74  O   UNL A   1      40.242  36.156  41.872  1.00  0.00    -0.237 OA
ATOM     75  O   UNL A   1      38.762  37.640  40.575  1.00  0.00    -0.744 OA
ENDBRANCH  71  72
ENDBRANCH  39  64
ENDBRANCH  13  14
ENDBRANCH   6   8
ENDBRANCH   5   6
ENDBRANCH   4   5
ENDBRANCH   3   4
ENDBRANCH   2   3
ENDBRANCH   1   2
BRANCH   1  76
ATOM     76  C   UNL A   1      37.022  23.532  25.258  1.00  0.00     0.188 C 
BRANCH  76  77
ATOM     77  O   UNL A   1      36.514  22.297  24.786  1.00  0.00    -0.376 OA
BRANCH  77  78
ATOM     78  C   UNL A   1      35.151  22.273  24.382  1.00  0.00     0.202 C 
BRANCH  78  79
ATOM     79  C   UNL A   1      34.276  21.033  24.675  1.00  0.00     0.261 C 
BRANCH  79  80
ATOM     80  O   UNL A   1      32.928  21.008  24.150  1.00  0.00    -0.462 OA
BRANCH  80  81
ATOM     81  C   UNL A   1      32.529  22.181  23.579  1.00  0.00     0.324 C 
ATOM     82  O   UNL A   1      32.775  22.479  22.410  1.00  0.00    -0.250 OA
BRANCH  81  83
ATOM     83  C   UNL A   1      31.675  23.093  24.441  1.00  0.00     0.183 C 
ATOM     84  C   UNL A   1      31.087  22.406  25.669  1.00  0.00     0.034 C 
ATOM     85  N   UNL A   1      32.170  24.414  24.922  1.00  0.00    -0.184 NA
ATOM     86  C   UNL A   1      31.732  23.055  26.878  1.00  0.00     0.019 C 
ATOM     87  C   UNL A   1      32.520  24.244  26.361  1.00  0.00     0.103 C 
BRANCH  85  88
ATOM     88  S   UNL A   1      31.059  25.723  24.640  1.00  0.00     0.245 S 
ATOM     89  O   UNL A   1      30.035  25.242  23.737  1.00  0.00    -0.207 OA
ATOM     90  O   UNL A   1      30.686  26.237  25.940  1.00  0.00    -0.207 OA
BRANCH  88  91
ATOM     91  C   UNL A   1      32.088  26.936  23.849  1.00  0.00     0.101 A 
ATOM     92  C   UNL A   1      32.404  28.064  24.614  1.00  0.00     0.023 A 
ATOM     93  C   UNL A   1      32.608  26.830  22.561  1.00  0.00     0.061 A 
ATOM     94  C   UNL A   1      33.349  28.990  24.182  1.00  0.00     0.002 A 
ATOM     95  C   UNL A   1      33.565  27.764  22.130  1.00  0.00     0.022 A 
ATOM     96  Cl  UNL A   1      32.134  25.659  21.385  1.00  0.00    -0.083 Cl
ATOM     97  C   UNL A   1      33.949  28.828  22.945  1.00  0.00     0.002 A 
ENDBRANCH  88  91
ENDBRANCH  85  88
ENDBRANCH  81  83
ENDBRANCH  80  81
ENDBRANCH  79  80
ENDBRANCH  78  79
ENDBRANCH  77  78
ENDBRANCH  76  77
ENDBRANCH   1  76
TORSDOF 22
ENDMDL
MODEL 3
REMARK VINA RESULT:      -9.8      4.439     10.273
REMARK SMILES O=C(OCCOCCOCCOC(=O)[C@H]1CCCN1S(=O)(=O)c1ccccc1Cl)c1ccc(-c2c3nc(c(-c4c(F)cc(S(=O)(=O)[O-])cc4F)c4ccc([nH]4)c(-c4c(F)cc(S(=O)(=O)[O-])cc4F)c4nc(c(-c5c(F)cc(S(=O)(=O)[O-])cc5F)c5ccc2[nH]5)C=C4)C=C3)cc1
REMARK SMILES IDX 7 1 6 2 5 3 4 4 3 5 2 6 1 7 30 8 31 9 95 10 32 11 94 12
REMARK SMILES IDX 33 13 34 14 35 15 88 16 36 17 93 18 87 19 89 20 37 21 92 22
REMARK SMILES IDX 86 23 85 24 38 26 72 27 51 28 71 29 52 30 55 31 70 32 90 33
REMARK SMILES IDX 53 34 54 35 69 37 91 38 56 39 39 40 40 41 49 42 41 43 42 44
REMARK SMILES IDX 48 45 50 46 43 47 44 48 45 49 46 50 47 51 73 52 74 53 83 54
REMARK SMILES IDX 75 55 76 56 82 57 84 58 77 59 78 60 79 61 80 62 81 63 57 64
REMARK SMILES IDX 58 65 67 66 59 67 60 68 66 69 68 70 61 71 62 72 63 73 64 74
REMARK SMILES IDX 65 75 8 76 9 77 10 78 11 79 12 80 13 81 14 82 15 83 16 84
REMARK SMILES IDX 19 85 17 86 18 87 20 88 21 89 22 90 23 91 24 92 28 93 25 94
REMARK SMILES IDX 27 95 29 96 26 97
REMARK H PARENT 89 25 55 36
REMARK Flexibility Score: inf
ROOT
ATOM      1  C   UNL A   1      45.045  24.142  34.574  1.00  0.00     0.188 C 
ENDROOT
BRANCH   1   2
ATOM      2  O   UNL A   1      46.440  24.046  34.294  1.00  0.00    -0.376 OA
BRANCH   2   3
ATOM      3  C   UNL A   1      47.229  23.712  35.445  1.00  0.00     0.202 C 
BRANCH   3   4
ATOM      4  C   UNL A   1      46.492  23.711  36.804  1.00  0.00     0.261 C 
BRANCH   4   5
ATOM      5  O   UNL A   1      46.789  24.843  37.645  1.00  0.00    -0.460 OA
BRANCH   5   6
ATOM      6  C   UNL A   1      46.895  26.154  37.314  1.00  0.00     0.338 C 
ATOM      7  O   UNL A   1      47.991  26.699  37.444  1.00  0.00    -0.246 OA
BRANCH   6   8
ATOM      8  C   UNL A   1      45.748  26.995  36.846  1.00  0.00     0.060 A 
ATOM      9  C   UNL A   1      44.413  26.764  37.167  1.00  0.00     0.016 A 
ATOM     10  C   UNL A   1      46.042  28.135  36.077  1.00  0.00     0.016 A 
ATOM     11  C   UNL A   1      43.389  27.551  36.662  1.00  0.00     0.010 A 
ATOM     12  C   UNL A   1      45.019  28.974  35.611  1.00  0.00     0.010 A 
ATOM     13  C   UNL A   1      43.680  28.653  35.869  1.00  0.00    -0.014 A 
BRANCH  13  14
ATOM     14  C   UNL A   1      42.557  29.306  35.168  1.00  0.00     0.031 A 
ATOM     15  C   UNL A   1      41.943  30.516  35.811  1.00  0.00     0.074 A 
ATOM     16  C   UNL A   1      42.231  28.973  33.905  1.00  0.00     0.049 A 
ATOM     17  N   UNL A   1      40.978  31.280  35.381  1.00  0.00    -0.248 NA
ATOM     18  C   UNL A   1      42.535  30.953  37.088  1.00  0.00     0.031 C 
ATOM     19  C   UNL A   1      42.926  27.980  33.081  1.00  0.00     0.029 A 
ATOM     20  N   UNL A   1      41.259  29.468  33.073  1.00  0.00    -0.354 N 
ATOM     21  C   UNL A   1      40.857  32.293  36.323  1.00  0.00     0.074 A 
ATOM     22  C   UNL A   1      41.808  32.020  37.374  1.00  0.00     0.031 C 
ATOM     23  C   UNL A   1      42.350  27.949  31.869  1.00  0.00     0.029 A 
ATOM     24  C   UNL A   1      41.183  28.805  31.872  1.00  0.00     0.049 A 
ATOM     25  H   UNL A   1      40.674  30.222  33.312  1.00  0.00     0.167 HD
ATOM     26  C   UNL A   1      40.045  33.373  36.292  1.00  0.00     0.037 A 
ATOM     27  C   UNL A   1      40.247  28.847  30.907  1.00  0.00     0.037 A 
ATOM     28  C   UNL A   1      39.103  33.624  35.237  1.00  0.00     0.049 A 
ATOM     29  C   UNL A   1      39.181  29.889  31.019  1.00  0.00     0.074 A 
ATOM     30  C   UNL A   1      38.202  34.663  35.114  1.00  0.00     0.029 A 
ATOM     31  N   UNL A   1      38.935  32.809  34.126  1.00  0.00    -0.354 N 
ATOM     32  N   UNL A   1      39.037  30.810  31.939  1.00  0.00    -0.248 NA
ATOM     33  C   UNL A   1      38.189  29.936  29.941  1.00  0.00     0.031 C 
ATOM     34  C   UNL A   1      37.449  34.447  33.955  1.00  0.00     0.029 A 
ATOM     35  C   UNL A   1      37.918  33.303  33.327  1.00  0.00     0.049 A 
ATOM     36  H   UNL A   1      39.462  32.000  33.932  1.00  0.00     0.167 HD
ATOM     37  C   UNL A   1      37.975  31.593  31.519  1.00  0.00     0.074 A 
ATOM     38  C   UNL A   1      37.499  31.017  30.275  1.00  0.00     0.031 C 
ATOM     39  C   UNL A   1      37.465  32.709  32.094  1.00  0.00     0.037 A 
BRANCH  26  40
ATOM     40  C   UNL A   1      40.117  34.303  37.467  1.00  0.00     0.058 A 
ATOM     41  C   UNL A   1      39.227  34.207  38.550  1.00  0.00     0.135 A 
ATOM     42  C   UNL A   1      41.052  35.349  37.476  1.00  0.00     0.135 A 
ATOM     43  F   UNL A   1      38.289  33.246  38.573  1.00  0.00    -0.206 F 
ATOM     44  C   UNL A   1      39.236  35.141  39.581  1.00  0.00     0.059 A 
ATOM     45  C   UNL A   1      41.096  36.279  38.510  1.00  0.00     0.059 A 
ATOM     46  F   UNL A   1      41.914  35.494  36.457  1.00  0.00    -0.206 F 
ATOM     47  C   UNL A   1      40.169  36.178  39.546  1.00  0.00     0.060 A 
BRANCH  47  48
ATOM     48  S   UNL A   1      40.143  37.409  40.866  1.00  0.00     0.124 S 
ATOM     49  O   UNL A   1      41.554  37.466  41.239  1.00  0.00    -0.237 OA
ATOM     50  O   UNL A   1      39.621  38.588  40.182  1.00  0.00    -0.237 OA
ATOM     51  O   UNL A   1      39.254  36.820  41.862  1.00  0.00    -0.744 OA
ENDBRANCH  47  48
ENDBRANCH  26  40
BRANCH  27  52
ATOM     52  C   UNL A   1      40.232  27.864  29.794  1.00  0.00     0.058 A 
ATOM     53  C   UNL A   1      41.035  28.024  28.658  1.00  0.00     0.135 A 
ATOM     54  C   UNL A   1      39.366  26.759  29.833  1.00  0.00     0.135 A 
ATOM     55  F   UNL A   1      41.867  29.072  28.568  1.00  0.00    -0.206 F 
ATOM     56  C   UNL A   1      40.990  27.117  27.603  1.00  0.00     0.059 A 
ATOM     57  C   UNL A   1      39.310  25.832  28.795  1.00  0.00     0.059 A 
ATOM     58  F   UNL A   1      38.575  26.564  30.898  1.00  0.00    -0.206 F 
ATOM     59  C   UNL A   1      40.130  26.018  27.683  1.00  0.00     0.060 A 
BRANCH  59  60
ATOM     60  S   UNL A   1      40.201  24.770  26.377  1.00  0.00     0.124 S 
ATOM     61  O   UNL A   1      38.791  24.446  26.198  1.00  0.00    -0.237 OA
ATOM     62  O   UNL A   1      40.831  25.512  25.287  1.00  0.00    -0.237 OA
ATOM     63  O   UNL A   1      41.025  23.718  26.961  1.00  0.00    -0.744 OA
ENDBRANCH  59  60
ENDBRANCH  27  52
BRANCH  39  64
ATOM     64  C   UNL A   1      36.380  33.410  31.340  1.00  0.00     0.058 A 
ATOM     65  C   UNL A   1      35.051  33.406  31.782  1.00  0.00     0.135 A 
ATOM     66  C   UNL A   1      36.691  34.110  30.164  1.00  0.00     0.135 A 
ATOM     67  F   UNL A   1      34.706  32.731  32.890  1.00  0.00    -0.206 F 
ATOM     68  C   UNL A   1      34.054  34.055  31.065  1.00  0.00     0.059 A 
ATOM     69  C   UNL A   1      35.716  34.793  29.449  1.00  0.00     0.059 A 
ATOM     70  F   UNL A   1      37.952  34.141  29.705  1.00  0.00    -0.206 F 
ATOM     71  C   UNL A   1      34.397  34.748  29.901  1.00  0.00     0.060 A 
BRANCH  71  72
ATOM     72  S   UNL A   1      33.102  35.616  28.998  1.00  0.00     0.124 S 
ATOM     73  O   UNL A   1      33.865  36.667  28.333  1.00  0.00    -0.237 OA
ATOM     74  O   UNL A   1      32.572  34.570  28.131  1.00  0.00    -0.237 OA
ATOM     75  O   UNL A   1      32.198  36.065  30.052  1.00  0.00    -0.744 OA
ENDBRANCH  71  72
ENDBRANCH  39  64
ENDBRANCH  13  14
ENDBRANCH   6   8
ENDBRANCH   5   6
ENDBRANCH   4   5
ENDBRANCH   3   4
ENDBRANCH   2   3
ENDBRANCH   1   2
BRANCH   1  76
ATOM     76  C   UNL A   1      44.166  24.648  33.432  1.00  0.00     0.188 C 
BRANCH  76  77
ATOM     77  O   UNL A   1      44.792  25.095  32.242  1.00  0.00    -0.376 OA
BRANCH  77  78
ATOM     78  C   UNL A   1      44.511  24.365  31.054  1.00  0.00     0.202 C 
BRANCH  78  79
ATOM     79  C   UNL A   1      45.142  24.796  29.710  1.00  0.00     0.261 C 
BRANCH  79  80
ATOM     80  O   UNL A   1      44.610  24.226  28.491  1.00  0.00    -0.462 OA
BRANCH  80  81
ATOM     81  C   UNL A   1      44.407  25.133  27.493  1.00  0.00     0.324 C 
ATOM     82  O   UNL A   1      44.159  26.320  27.702  1.00  0.00    -0.250 OA
BRANCH  81  83
ATOM     83  C   UNL A   1      44.587  24.623  26.075  1.00  0.00     0.183 C 
ATOM     84  C   UNL A   1      45.463  25.519  25.205  1.00  0.00     0.034 C 
ATOM     85  N   UNL A   1      45.035  23.230  25.788  1.00  0.00    -0.184 NA
ATOM     86  C   UNL A   1      46.713  24.724  24.886  1.00  0.00     0.019 C 
ATOM     87  C   UNL A   1      46.467  23.313  25.387  1.00  0.00     0.103 C 
BRANCH  85  88
ATOM     88  S   UNL A   1      44.044  22.403  24.621  1.00  0.00     0.245 S 
ATOM     89  O   UNL A   1      42.785  23.112  24.533  1.00  0.00    -0.207 OA
ATOM     90  O   UNL A   1      44.856  22.234  23.435  1.00  0.00    -0.207 OA
BRANCH  88  91
ATOM     91  C   UNL A   1      43.826  20.806  25.365  1.00  0.00     0.101 A 
ATOM     92  C   UNL A   1      42.642  20.622  26.088  1.00  0.00     0.023 A 
ATOM     93  C   UNL A   1      44.720  19.742  25.259  1.00  0.00     0.061 A 
ATOM     94  C   UNL A   1      42.266  19.366  26.556  1.00  0.00     0.002 A 
ATOM     95  C   UNL A   1      44.336  18.475  25.729  1.00  0.00     0.022 A 
ATOM     96  Cl  UNL A   1      46.327  19.846  24.638  1.00  0.00    -0.083 Cl
ATOM     97  C   UNL A   1      43.106  18.283  26.357  1.00  0.00     0.002 A 
ENDBRANCH  88  91
ENDBRANCH  85  88
ENDBRANCH  81  83
ENDBRANCH  80  81
ENDBRANCH  79  80
ENDBRANCH  78  79
ENDBRANCH  77  78
ENDBRANCH  76  77
ENDBRANCH   1  76
TORSDOF 22
ENDMDL
