MODEL 1
REMARK VINA RESULT:      -7.7      0.000      0.000
REMARK SMILES O=C(OCCOCCOCCOC(=O)[C@@H](CCOCCO)c1cccc(F)c1)c1ccc(-c2c3nc(c(-c4c(F)cc(S(=O)(=O)[O-])cc4F)c4ccc([nH]4)c(-c4c(F)cc(S(=O)(=O)[O-])cc4F)c4nc(c(-c5c(F)cc(S(=O)(=O)[O-])cc5F)c5ccc2[nH]5)C=C4)C=C3)cc1
REMARK SMILES IDX 9 1 8 2 7 3 6 4 5 5 4 6 3 7 2 8 1 9 29 10 30 11 94 12 31 13
REMARK SMILES IDX 93 14 32 15 33 16 34 17 87 18 35 19 92 20 86 21 88 22 36 23
REMARK SMILES IDX 91 24 85 25 84 26 37 28 71 29 50 30 70 31 51 32 54 33 69 34
REMARK SMILES IDX 89 35 52 36 53 37 68 39 90 40 55 41 38 42 39 43 48 44 40 45
REMARK SMILES IDX 41 46 47 47 49 48 42 49 43 50 44 51 45 52 46 53 72 54 73 55
REMARK SMILES IDX 82 56 74 57 75 58 81 59 83 60 76 61 77 62 78 63 79 64 80 65
REMARK SMILES IDX 56 66 57 67 66 68 58 69 59 70 65 71 67 72 60 73 61 74 62 75
REMARK SMILES IDX 63 76 64 77 10 78 11 79 12 80 13 81 14 82 15 83 16 84 17 85
REMARK SMILES IDX 18 86 19 87 20 88 21 89 22 91 23 92 28 93 24 94 26 95 25 96
REMARK SMILES IDX 27 97
REMARK H PARENT 88 27 54 38 21 90
REMARK Flexibility Score: inf
ROOT
ATOM      1  O   UNL A   1      34.795  33.758  27.730  1.00  0.00    -0.376 OA
ENDROOT
BRANCH   1   2
ATOM      2  C   UNL A   1      34.445  35.031  28.265  1.00  0.00     0.188 C 
BRANCH   2   3
ATOM      3  C   UNL A   1      33.415  35.045  29.391  1.00  0.00     0.188 C 
BRANCH   3   4
ATOM      4  O   UNL A   1      33.811  35.792  30.548  1.00  0.00    -0.376 OA
BRANCH   4   5
ATOM      5  C   UNL A   1      33.723  35.037  31.762  1.00  0.00     0.202 C 
BRANCH   5   6
ATOM      6  C   UNL A   1      34.212  33.575  31.712  1.00  0.00     0.261 C 
BRANCH   6   7
ATOM      7  O   UNL A   1      34.604  33.011  32.977  1.00  0.00    -0.460 OA
BRANCH   7   8
ATOM      8  C   UNL A   1      35.816  32.940  33.580  1.00  0.00     0.338 C 
ATOM      9  O   UNL A   1      35.839  32.966  34.810  1.00  0.00    -0.246 OA
BRANCH   8  10
ATOM     10  C   UNL A   1      37.127  32.865  32.859  1.00  0.00     0.060 A 
ATOM     11  C   UNL A   1      37.302  32.432  31.550  1.00  0.00     0.016 A 
ATOM     12  C   UNL A   1      38.280  33.272  33.571  1.00  0.00     0.016 A 
ATOM     13  C   UNL A   1      38.566  32.344  30.983  1.00  0.00     0.010 A 
ATOM     14  C   UNL A   1      39.560  33.202  33.001  1.00  0.00     0.010 A 
ATOM     15  C   UNL A   1      39.702  32.712  31.706  1.00  0.00    -0.014 A 
BRANCH  15  16
ATOM     16  C   UNL A   1      40.988  32.337  31.086  1.00  0.00     0.031 A 
ATOM     17  C   UNL A   1      41.755  33.433  30.419  1.00  0.00     0.074 A 
ATOM     18  C   UNL A   1      41.556  31.153  31.385  1.00  0.00     0.049 A 
ATOM     19  N   UNL A   1      42.990  33.432  30.006  1.00  0.00    -0.248 NA
ATOM     20  C   UNL A   1      41.041  34.705  30.198  1.00  0.00     0.031 C 
ATOM     21  C   UNL A   1      40.877  30.062  32.072  1.00  0.00     0.029 A 
ATOM     22  N   UNL A   1      42.845  30.706  31.254  1.00  0.00    -0.354 N 
ATOM     23  C   UNL A   1      43.190  34.682  29.439  1.00  0.00     0.074 A 
ATOM     24  C   UNL A   1      41.966  35.433  29.591  1.00  0.00     0.031 C 
ATOM     25  C   UNL A   1      41.779  29.140  32.443  1.00  0.00     0.029 A 
ATOM     26  C   UNL A   1      43.087  29.527  31.933  1.00  0.00     0.049 A 
ATOM     27  H   UNL A   1      43.530  31.178  30.730  1.00  0.00     0.167 HD
ATOM     28  C   UNL A   1      44.299  35.132  28.816  1.00  0.00     0.037 A 
ATOM     29  C   UNL A   1      44.237  28.845  32.111  1.00  0.00     0.037 A 
ATOM     30  C   UNL A   1      45.491  34.342  28.675  1.00  0.00     0.049 A 
ATOM     31  C   UNL A   1      45.455  29.374  31.403  1.00  0.00     0.074 A 
ATOM     32  C   UNL A   1      46.640  34.635  27.967  1.00  0.00     0.029 A 
ATOM     33  N   UNL A   1      45.682  33.098  29.262  1.00  0.00    -0.354 N 
ATOM     34  N   UNL A   1      45.605  30.511  30.763  1.00  0.00    -0.248 NA
ATOM     35  C   UNL A   1      46.635  28.503  31.373  1.00  0.00     0.031 C 
ATOM     36  C   UNL A   1      47.511  33.549  28.093  1.00  0.00     0.029 A 
ATOM     37  C   UNL A   1      46.929  32.605  28.926  1.00  0.00     0.049 A 
ATOM     38  H   UNL A   1      45.027  32.635  29.833  1.00  0.00     0.167 HD
ATOM     39  C   UNL A   1      46.878  30.469  30.213  1.00  0.00     0.074 A 
ATOM     40  C   UNL A   1      47.483  29.228  30.659  1.00  0.00     0.031 C 
ATOM     41  C   UNL A   1      47.482  31.353  29.381  1.00  0.00     0.037 A 
BRANCH  28  42
ATOM     42  C   UNL A   1      44.232  36.479  28.168  1.00  0.00     0.058 A 
ATOM     43  C   UNL A   1      44.889  37.570  28.758  1.00  0.00     0.135 A 
ATOM     44  C   UNL A   1      43.508  36.707  26.989  1.00  0.00     0.135 A 
ATOM     45  F   UNL A   1      45.628  37.395  29.866  1.00  0.00    -0.206 F 
ATOM     46  C   UNL A   1      44.794  38.849  28.228  1.00  0.00     0.059 A 
ATOM     47  C   UNL A   1      43.416  37.977  26.426  1.00  0.00     0.059 A 
ATOM     48  F   UNL A   1      42.907  35.686  26.355  1.00  0.00    -0.206 F 
ATOM     49  C   UNL A   1      44.045  39.046  27.068  1.00  0.00     0.060 A 
BRANCH  49  50
ATOM     50  S   UNL A   1      43.912  40.720  26.410  1.00  0.00     0.124 S 
ATOM     51  O   UNL A   1      42.503  40.781  26.033  1.00  0.00    -0.237 OA
ATOM     52  O   UNL A   1      44.298  41.531  27.562  1.00  0.00    -0.237 OA
ATOM     53  O   UNL A   1      44.861  40.727  25.303  1.00  0.00    -0.744 OA
ENDBRANCH  49  50
ENDBRANCH  28  42
BRANCH  29  54
ATOM     54  C   UNL A   1      44.290  27.576  32.895  1.00  0.00     0.058 A 
ATOM     55  C   UNL A   1      44.388  27.589  34.296  1.00  0.00     0.135 A 
ATOM     56  C   UNL A   1      44.205  26.317  32.274  1.00  0.00     0.135 A 
ATOM     57  F   UNL A   1      44.446  28.756  34.954  1.00  0.00    -0.206 F 
ATOM     58  C   UNL A   1      44.443  26.416  35.042  1.00  0.00     0.059 A 
ATOM     59  C   UNL A   1      44.225  25.127  33.004  1.00  0.00     0.059 A 
ATOM     60  F   UNL A   1      44.066  26.237  30.941  1.00  0.00    -0.206 F 
ATOM     61  C   UNL A   1      44.371  25.187  34.389  1.00  0.00     0.060 A 
BRANCH  61  62
ATOM     62  S   UNL A   1      44.443  23.677  35.378  1.00  0.00     0.124 S 
ATOM     63  O   UNL A   1      44.256  24.199  36.730  1.00  0.00    -0.237 OA
ATOM     64  O   UNL A   1      43.327  22.898  34.844  1.00  0.00    -0.237 OA
ATOM     65  O   UNL A   1      45.767  23.144  35.087  1.00  0.00    -0.744 OA
ENDBRANCH  61  62
ENDBRANCH  29  54
BRANCH  41  66
ATOM     66  C   UNL A   1      48.850  30.991  28.890  1.00  0.00     0.058 A 
ATOM     67  C   UNL A   1      49.005  30.192  27.747  1.00  0.00     0.135 A 
ATOM     68  C   UNL A   1      50.003  31.385  29.586  1.00  0.00     0.135 A 
ATOM     69  F   UNL A   1      47.931  29.782  27.055  1.00  0.00    -0.206 F 
ATOM     70  C   UNL A   1      50.261  29.789  27.316  1.00  0.00     0.059 A 
ATOM     71  C   UNL A   1      51.272  31.019  29.154  1.00  0.00     0.059 A 
ATOM     72  F   UNL A   1      49.901  32.157  30.681  1.00  0.00    -0.206 F 
ATOM     73  C   UNL A   1      51.389  30.209  28.025  1.00  0.00     0.060 A 
BRANCH  73  74
ATOM     74  S   UNL A   1      53.012  29.704  27.425  1.00  0.00     0.124 S 
ATOM     75  O   UNL A   1      53.896  30.288  28.429  1.00  0.00    -0.237 OA
ATOM     76  O   UNL A   1      52.906  28.248  27.442  1.00  0.00    -0.237 OA
ATOM     77  O   UNL A   1      53.085  30.304  26.097  1.00  0.00    -0.744 OA
ENDBRANCH  73  74
ENDBRANCH  41  66
ENDBRANCH  15  16
ENDBRANCH   8  10
ENDBRANCH   7   8
ENDBRANCH   6   7
ENDBRANCH   5   6
ENDBRANCH   4   5
ENDBRANCH   3   4
ENDBRANCH   2   3
ENDBRANCH   1   2
BRANCH   1  78
ATOM     78  C   UNL A   1      33.984  32.645  28.080  1.00  0.00     0.202 C 
BRANCH  78  79
ATOM     79  C   UNL A   1      34.548  31.248  27.809  1.00  0.00     0.261 C 
BRANCH  79  80
ATOM     80  O   UNL A   1      33.569  30.282  27.397  1.00  0.00    -0.463 OA
BRANCH  80  81
ATOM     81  C   UNL A   1      34.047  29.081  26.964  1.00  0.00     0.313 C 
ATOM     82  O   UNL A   1      35.242  28.845  26.817  1.00  0.00    -0.252 OA
BRANCH  81  83
ATOM     83  C   UNL A   1      32.946  28.048  26.663  1.00  0.00     0.131 C 
BRANCH  83  84
ATOM     84  C   UNL A   1      31.566  28.698  26.397  1.00  0.00     0.048 C 
BRANCH  84  85
ATOM     85  C   UNL A   1      31.374  29.631  25.190  1.00  0.00     0.161 C 
BRANCH  85  86
ATOM     86  O   UNL A   1      30.658  29.126  24.079  1.00  0.00    -0.379 OA
BRANCH  86  87
ATOM     87  C   UNL A   1      29.642  29.946  23.520  1.00  0.00     0.188 C 
BRANCH  87  88
ATOM     88  C   UNL A   1      29.361  29.792  22.020  1.00  0.00     0.184 C 
BRANCH  88  89
ATOM     89  O   UNL A   1      30.403  30.223  21.152  1.00  0.00    -0.394 OA
ATOM     90  H   UNL A   1      31.150  30.546  21.678  1.00  0.00     0.210 HD
ENDBRANCH  88  89
ENDBRANCH  87  88
ENDBRANCH  86  87
ENDBRANCH  85  86
ENDBRANCH  84  85
ENDBRANCH  83  84
BRANCH  83  91
ATOM     91  C   UNL A   1      33.380  26.956  25.681  1.00  0.00    -0.031 A 
ATOM     92  C   UNL A   1      33.681  27.254  24.338  1.00  0.00     0.005 A 
ATOM     93  C   UNL A   1      33.474  25.611  26.075  1.00  0.00     0.043 A 
ATOM     94  C   UNL A   1      33.908  26.242  23.400  1.00  0.00     0.003 A 
ATOM     95  C   UNL A   1      33.711  24.610  25.136  1.00  0.00     0.123 A 
ATOM     96  C   UNL A   1      33.891  24.910  23.796  1.00  0.00     0.039 A 
ATOM     97  F   UNL A   1      33.749  23.337  25.545  1.00  0.00    -0.207 F 
ENDBRANCH  83  91
ENDBRANCH  81  83
ENDBRANCH  80  81
ENDBRANCH  79  80
ENDBRANCH  78  79
ENDBRANCH   1  78
TORSDOF 27
ENDMDL
MODEL 2
REMARK VINA RESULT:      -7.6      5.404     11.745
REMARK SMILES O=C(OCCOCCOCCOC(=O)[C@@H](CCOCCO)c1cccc(F)c1)c1ccc(-c2c3nc(c(-c4c(F)cc(S(=O)(=O)[O-])cc4F)c4ccc([nH]4)c(-c4c(F)cc(S(=O)(=O)[O-])cc4F)c4nc(c(-c5c(F)cc(S(=O)(=O)[O-])cc5F)c5ccc2[nH]5)C=C4)C=C3)cc1
REMARK SMILES IDX 9 1 8 2 7 3 6 4 5 5 4 6 3 7 2 8 1 9 29 10 30 11 94 12 31 13
REMARK SMILES IDX 93 14 32 15 33 16 34 17 87 18 35 19 92 20 86 21 88 22 36 23
REMARK SMILES IDX 91 24 85 25 84 26 37 28 71 29 50 30 70 31 51 32 54 33 69 34
REMARK SMILES IDX 89 35 52 36 53 37 68 39 90 40 55 41 38 42 39 43 48 44 40 45
REMARK SMILES IDX 41 46 47 47 49 48 42 49 43 50 44 51 45 52 46 53 72 54 73 55
REMARK SMILES IDX 82 56 74 57 75 58 81 59 83 60 76 61 77 62 78 63 79 64 80 65
REMARK SMILES IDX 56 66 57 67 66 68 58 69 59 70 65 71 67 72 60 73 61 74 62 75
REMARK SMILES IDX 63 76 64 77 10 78 11 79 12 80 13 81 14 82 15 83 16 84 17 85
REMARK SMILES IDX 18 86 19 87 20 88 21 89 22 91 23 92 28 93 24 94 26 95 25 96
REMARK SMILES IDX 27 97
REMARK H PARENT 88 27 54 38 21 90
REMARK Flexibility Score: inf
ROOT
ATOM      1  O   UNL A   1      40.945  22.125  26.100  1.00  0.00    -0.376 OA
ENDROOT
BRANCH   1   2
ATOM      2  C   UNL A   1      42.039  21.252  26.366  1.00  0.00     0.188 C 
BRANCH   2   3
ATOM      3  C   UNL A   1      43.438  21.801  26.105  1.00  0.00     0.188 C 
BRANCH   3   4
ATOM      4  O   UNL A   1      43.649  22.279  24.770  1.00  0.00    -0.376 OA
BRANCH   4   5
ATOM      5  C   UNL A   1      43.980  23.672  24.717  1.00  0.00     0.202 C 
BRANCH   5   6
ATOM      6  C   UNL A   1      42.948  24.657  25.304  1.00  0.00     0.261 C 
BRANCH   6   7
ATOM      7  O   UNL A   1      43.106  26.030  24.902  1.00  0.00    -0.460 OA
BRANCH   7   8
ATOM      8  C   UNL A   1      43.683  27.080  25.536  1.00  0.00     0.338 C 
ATOM      9  O   UNL A   1      44.529  27.723  24.915  1.00  0.00    -0.246 OA
BRANCH   8  10
ATOM     10  C   UNL A   1      43.392  27.492  26.947  1.00  0.00     0.060 A 
ATOM     11  C   UNL A   1      42.660  26.750  27.867  1.00  0.00     0.016 A 
ATOM     12  C   UNL A   1      43.905  28.738  27.376  1.00  0.00     0.016 A 
ATOM     13  C   UNL A   1      42.393  27.240  29.138  1.00  0.00     0.010 A 
ATOM     14  C   UNL A   1      43.654  29.236  28.663  1.00  0.00     0.010 A 
ATOM     15  C   UNL A   1      42.872  28.488  29.540  1.00  0.00    -0.014 A 
BRANCH  15  16
ATOM     16  C   UNL A   1      42.312  28.996  30.808  1.00  0.00     0.031 A 
ATOM     17  C   UNL A   1      43.251  29.082  31.968  1.00  0.00     0.074 A 
ATOM     18  C   UNL A   1      41.122  29.625  30.810  1.00  0.00     0.049 A 
ATOM     19  N   UNL A   1      43.090  29.691  33.107  1.00  0.00    -0.248 NA
ATOM     20  C   UNL A   1      44.552  28.399  31.822  1.00  0.00     0.031 C 
ATOM     21  C   UNL A   1      40.182  29.617  29.697  1.00  0.00     0.029 A 
ATOM     22  N   UNL A   1      40.545  30.474  31.720  1.00  0.00    -0.354 N 
ATOM     23  C   UNL A   1      44.244  29.433  33.830  1.00  0.00     0.074 A 
ATOM     24  C   UNL A   1      45.118  28.644  32.994  1.00  0.00     0.031 C 
ATOM     25  C   UNL A   1      39.228  30.536  29.913  1.00  0.00     0.029 A 
ATOM     26  C   UNL A   1      39.433  31.128  31.228  1.00  0.00     0.049 A 
ATOM     27  H   UNL A   1      40.890  30.603  32.631  1.00  0.00     0.167 HD
ATOM     28  C   UNL A   1      44.517  29.802  35.099  1.00  0.00     0.037 A 
ATOM     29  C   UNL A   1      38.671  32.090  31.788  1.00  0.00     0.037 A 
ATOM     30  C   UNL A   1      43.610  30.576  35.900  1.00  0.00     0.049 A 
ATOM     31  C   UNL A   1      39.002  32.480  33.203  1.00  0.00     0.074 A 
ATOM     32  C   UNL A   1      43.714  30.918  37.234  1.00  0.00     0.029 A 
ATOM     33  N   UNL A   1      42.426  31.132  35.430  1.00  0.00    -0.354 N 
ATOM     34  N   UNL A   1      40.042  32.136  33.929  1.00  0.00    -0.248 NA
ATOM     35  C   UNL A   1      38.027  33.323  33.904  1.00  0.00     0.031 C 
ATOM     36  C   UNL A   1      42.572  31.646  37.581  1.00  0.00     0.029 A 
ATOM     37  C   UNL A   1      41.785  31.808  36.451  1.00  0.00     0.049 A 
ATOM     38  H   UNL A   1      42.093  31.055  34.507  1.00  0.00     0.167 HD
ATOM     39  C   UNL A   1      39.821  32.679  35.186  1.00  0.00     0.074 A 
ATOM     40  C   UNL A   1      38.587  33.437  35.100  1.00  0.00     0.031 C 
ATOM     41  C   UNL A   1      40.547  32.535  36.322  1.00  0.00     0.037 A 
BRANCH  28  42
ATOM     42  C   UNL A   1      45.784  29.294  35.712  1.00  0.00     0.058 A 
ATOM     43  C   UNL A   1      45.809  28.022  36.306  1.00  0.00     0.135 A 
ATOM     44  C   UNL A   1      46.960  30.057  35.743  1.00  0.00     0.135 A 
ATOM     45  F   UNL A   1      44.720  27.237  36.269  1.00  0.00    -0.206 F 
ATOM     46  C   UNL A   1      46.942  27.542  36.949  1.00  0.00     0.059 A 
ATOM     47  C   UNL A   1      48.115  29.587  36.361  1.00  0.00     0.059 A 
ATOM     48  F   UNL A   1      47.004  31.256  35.140  1.00  0.00    -0.206 F 
ATOM     49  C   UNL A   1      48.088  28.337  36.982  1.00  0.00     0.060 A 
BRANCH  49  50
ATOM     50  S   UNL A   1      49.541  27.706  37.844  1.00  0.00     0.124 S 
ATOM     51  O   UNL A   1      49.645  28.630  38.969  1.00  0.00    -0.237 OA
ATOM     52  O   UNL A   1      49.131  26.344  38.175  1.00  0.00    -0.237 OA
ATOM     53  O   UNL A   1      50.599  27.808  36.846  1.00  0.00    -0.744 OA
ENDBRANCH  49  50
ENDBRANCH  28  42
BRANCH  29  54
ATOM     54  C   UNL A   1      37.497  32.682  31.079  1.00  0.00     0.058 A 
ATOM     55  C   UNL A   1      36.242  32.052  31.098  1.00  0.00     0.135 A 
ATOM     56  C   UNL A   1      37.584  33.908  30.398  1.00  0.00     0.135 A 
ATOM     57  F   UNL A   1      36.083  30.892  31.753  1.00  0.00    -0.206 F 
ATOM     58  C   UNL A   1      35.139  32.586  30.440  1.00  0.00     0.059 A 
ATOM     59  C   UNL A   1      36.483  34.481  29.758  1.00  0.00     0.059 A 
ATOM     60  F   UNL A   1      38.746  34.582  30.378  1.00  0.00    -0.206 F 
ATOM     61  C   UNL A   1      35.269  33.797  29.763  1.00  0.00     0.060 A 
BRANCH  61  62
ATOM     62  S   UNL A   1      33.822  34.473  28.917  1.00  0.00     0.124 S 
ATOM     63  O   UNL A   1      32.922  34.740  30.036  1.00  0.00    -0.237 OA
ATOM     64  O   UNL A   1      34.370  35.655  28.254  1.00  0.00    -0.237 OA
ATOM     65  O   UNL A   1      33.416  33.394  28.026  1.00  0.00    -0.744 OA
ENDBRANCH  61  62
ENDBRANCH  29  54
BRANCH  41  66
ATOM     66  C   UNL A   1      40.006  33.191  37.556  1.00  0.00     0.058 A 
ATOM     67  C   UNL A   1      38.964  32.593  38.278  1.00  0.00     0.135 A 
ATOM     68  C   UNL A   1      40.482  34.440  37.985  1.00  0.00     0.135 A 
ATOM     69  F   UNL A   1      38.470  31.404  37.899  1.00  0.00    -0.206 F 
ATOM     70  C   UNL A   1      38.403  33.218  39.384  1.00  0.00     0.059 A 
ATOM     71  C   UNL A   1      39.957  35.069  39.107  1.00  0.00     0.059 A 
ATOM     72  F   UNL A   1      41.484  35.044  37.327  1.00  0.00    -0.206 F 
ATOM     73  C   UNL A   1      38.908  34.454  39.792  1.00  0.00     0.060 A 
BRANCH  73  74
ATOM     74  S   UNL A   1      38.190  35.230  41.252  1.00  0.00     0.124 S 
ATOM     75  O   UNL A   1      36.847  34.660  41.264  1.00  0.00    -0.237 OA
ATOM     76  O   UNL A   1      39.084  34.773  42.312  1.00  0.00    -0.237 OA
ATOM     77  O   UNL A   1      38.266  36.656  40.950  1.00  0.00    -0.744 OA
ENDBRANCH  73  74
ENDBRANCH  41  66
ENDBRANCH  15  16
ENDBRANCH   8  10
ENDBRANCH   7   8
ENDBRANCH   6   7
ENDBRANCH   5   6
ENDBRANCH   4   5
ENDBRANCH   3   4
ENDBRANCH   2   3
ENDBRANCH   1   2
BRANCH   1  78
ATOM     78  C   UNL A   1      39.662  21.745  26.576  1.00  0.00     0.202 C 
BRANCH  78  79
ATOM     79  C   UNL A   1      38.590  21.423  25.533  1.00  0.00     0.261 C 
BRANCH  79  80
ATOM     80  O   UNL A   1      37.471  22.323  25.532  1.00  0.00    -0.463 OA
BRANCH  80  81
ATOM     81  C   UNL A   1      36.723  22.360  24.393  1.00  0.00     0.313 C 
ATOM     82  O   UNL A   1      37.021  21.751  23.371  1.00  0.00    -0.252 OA
BRANCH  81  83
ATOM     83  C   UNL A   1      35.471  23.249  24.503  1.00  0.00     0.131 C 
BRANCH  83  84
ATOM     84  C   UNL A   1      35.273  24.167  23.271  1.00  0.00     0.048 C 
BRANCH  84  85
ATOM     85  C   UNL A   1      33.902  24.808  23.001  1.00  0.00     0.161 C 
BRANCH  85  86
ATOM     86  O   UNL A   1      33.836  25.825  22.019  1.00  0.00    -0.379 OA
BRANCH  86  87
ATOM     87  C   UNL A   1      32.552  26.316  21.663  1.00  0.00     0.188 C 
BRANCH  87  88
ATOM     88  C   UNL A   1      32.030  25.969  20.263  1.00  0.00     0.184 C 
BRANCH  88  89
ATOM     89  O   UNL A   1      33.027  25.766  19.268  1.00  0.00    -0.394 OA
ATOM     90  H   UNL A   1      33.877  25.580  19.695  1.00  0.00     0.210 HD
ENDBRANCH  88  89
ENDBRANCH  87  88
ENDBRANCH  86  87
ENDBRANCH  85  86
ENDBRANCH  84  85
ENDBRANCH  83  84
BRANCH  83  91
ATOM     91  C   UNL A   1      34.229  22.503  24.997  1.00  0.00    -0.031 A 
ATOM     92  C   UNL A   1      33.448  22.999  26.060  1.00  0.00     0.005 A 
ATOM     93  C   UNL A   1      33.830  21.283  24.426  1.00  0.00     0.043 A 
ATOM     94  C   UNL A   1      32.420  22.239  26.626  1.00  0.00     0.003 A 
ATOM     95  C   UNL A   1      32.798  20.538  24.990  1.00  0.00     0.123 A 
ATOM     96  C   UNL A   1      32.115  20.987  26.108  1.00  0.00     0.039 A 
ATOM     97  F   UNL A   1      32.478  19.360  24.442  1.00  0.00    -0.207 F 
ENDBRANCH  83  91
ENDBRANCH  81  83
ENDBRANCH  80  81
ENDBRANCH  79  80
ENDBRANCH  78  79
ENDBRANCH   1  78
TORSDOF 27
ENDMDL
MODEL 3
REMARK VINA RESULT:      -7.6      5.003     11.980
REMARK SMILES O=C(OCCOCCOCCOC(=O)[C@@H](CCOCCO)c1cccc(F)c1)c1ccc(-c2c3nc(c(-c4c(F)cc(S(=O)(=O)[O-])cc4F)c4ccc([nH]4)c(-c4c(F)cc(S(=O)(=O)[O-])cc4F)c4nc(c(-c5c(F)cc(S(=O)(=O)[O-])cc5F)c5ccc2[nH]5)C=C4)C=C3)cc1
REMARK SMILES IDX 9 1 8 2 7 3 6 4 5 5 4 6 3 7 2 8 1 9 29 10 30 11 94 12 31 13
REMARK SMILES IDX 93 14 32 15 33 16 34 17 87 18 35 19 92 20 86 21 88 22 36 23
REMARK SMILES IDX 91 24 85 25 84 26 37 28 71 29 50 30 70 31 51 32 54 33 69 34
REMARK SMILES IDX 89 35 52 36 53 37 68 39 90 40 55 41 38 42 39 43 48 44 40 45
REMARK SMILES IDX 41 46 47 47 49 48 42 49 43 50 44 51 45 52 46 53 72 54 73 55
REMARK SMILES IDX 82 56 74 57 75 58 81 59 83 60 76 61 77 62 78 63 79 64 80 65
REMARK SMILES IDX 56 66 57 67 66 68 58 69 59 70 65 71 67 72 60 73 61 74 62 75
REMARK SMILES IDX 63 76 64 77 10 78 11 79 12 80 13 81 14 82 15 83 16 84 17 85
REMARK SMILES IDX 18 86 19 87 20 88 21 89 22 91 23 92 28 93 24 94 26 95 25 96
REMARK SMILES IDX 27 97
REMARK H PARENT 88 27 54 38 21 90
REMARK Flexibility Score: inf
ROOT
ATOM      1  O   UNL A   1      40.366  21.912  25.922  1.00  0.00    -0.376 OA
ENDROOT
BRANCH   1   2
ATOM      2  C   UNL A   1      41.100  20.773  26.362  1.00  0.00     0.188 C 
BRANCH   2   3
ATOM      3  C   UNL A   1      42.612  20.933  26.484  1.00  0.00     0.188 C 
BRANCH   3   4
ATOM      4  O   UNL A   1      43.337  20.661  25.278  1.00  0.00    -0.376 OA
BRANCH   4   5
ATOM      5  C   UNL A   1      44.186  21.743  24.876  1.00  0.00     0.202 C 
BRANCH   5   6
ATOM      6  C   UNL A   1      43.508  23.103  24.617  1.00  0.00     0.261 C 
BRANCH   6   7
ATOM      7  O   UNL A   1      44.403  24.203  24.369  1.00  0.00    -0.460 OA
BRANCH   7   8
ATOM      8  C   UNL A   1      45.347  24.775  25.155  1.00  0.00     0.338 C 
ATOM      9  O   UNL A   1      46.498  24.819  24.720  1.00  0.00    -0.246 OA
BRANCH   8  10
ATOM     10  C   UNL A   1      45.099  25.326  26.526  1.00  0.00     0.060 A 
ATOM     11  C   UNL A   1      43.899  25.241  27.222  1.00  0.00     0.016 A 
ATOM     12  C   UNL A   1      46.176  25.984  27.164  1.00  0.00     0.016 A 
ATOM     13  C   UNL A   1      43.745  25.832  28.469  1.00  0.00     0.010 A 
ATOM     14  C   UNL A   1      46.036  26.571  28.430  1.00  0.00     0.010 A 
ATOM     15  C   UNL A   1      44.803  26.513  29.074  1.00  0.00    -0.014 A 
BRANCH  15  16
ATOM     16  C   UNL A   1      44.440  27.302  30.268  1.00  0.00     0.031 A 
ATOM     17  C   UNL A   1      44.836  26.733  31.592  1.00  0.00     0.074 A 
ATOM     18  C   UNL A   1      44.060  28.586  30.131  1.00  0.00     0.049 A 
ATOM     19  N   UNL A   1      44.848  27.311  32.759  1.00  0.00    -0.248 NA
ATOM     20  C   UNL A   1      45.293  25.330  31.604  1.00  0.00     0.031 C 
ATOM     21  C   UNL A   1      43.704  29.212  28.864  1.00  0.00     0.029 A 
ATOM     22  N   UNL A   1      44.012  29.619  31.031  1.00  0.00    -0.354 N 
ATOM     23  C   UNL A   1      45.269  26.335  33.649  1.00  0.00     0.074 A 
ATOM     24  C   UNL A   1      45.541  25.137  32.890  1.00  0.00     0.031 C 
ATOM     25  C   UNL A   1      43.627  30.541  29.030  1.00  0.00     0.029 A 
ATOM     26  C   UNL A   1      43.830  30.853  30.438  1.00  0.00     0.049 A 
ATOM     27  H   UNL A   1      44.099  29.493  32.003  1.00  0.00     0.167 HD
ATOM     28  C   UNL A   1      45.378  26.439  34.990  1.00  0.00     0.037 A 
ATOM     29  C   UNL A   1      43.825  32.088  30.982  1.00  0.00     0.037 A 
ATOM     30  C   UNL A   1      45.082  27.650  35.706  1.00  0.00     0.049 A 
ATOM     31  C   UNL A   1      43.949  32.170  32.479  1.00  0.00     0.074 A 
ATOM     32  C   UNL A   1      45.040  27.856  37.071  1.00  0.00     0.029 A 
ATOM     33  N   UNL A   1      44.779  28.864  35.103  1.00  0.00    -0.354 N 
ATOM     34  N   UNL A   1      44.233  31.214  33.334  1.00  0.00    -0.248 NA
ATOM     35  C   UNL A   1      43.681  33.473  33.096  1.00  0.00     0.031 C 
ATOM     36  C   UNL A   1      44.671  29.185  37.294  1.00  0.00     0.029 A 
ATOM     37  C   UNL A   1      44.540  29.823  36.069  1.00  0.00     0.049 A 
ATOM     38  H   UNL A   1      44.739  29.019  34.132  1.00  0.00     0.167 HD
ATOM     39  C   UNL A   1      44.128  31.789  34.592  1.00  0.00     0.074 A 
ATOM     40  C   UNL A   1      43.829  33.193  34.383  1.00  0.00     0.031 C 
ATOM     41  C   UNL A   1      44.228  31.207  35.812  1.00  0.00     0.037 A 
BRANCH  28  42
ATOM     42  C   UNL A   1      45.732  25.204  35.756  1.00  0.00     0.058 A 
ATOM     43  C   UNL A   1      44.714  24.389  36.274  1.00  0.00     0.135 A 
ATOM     44  C   UNL A   1      47.062  24.833  36.005  1.00  0.00     0.135 A 
ATOM     45  F   UNL A   1      43.426  24.680  36.031  1.00  0.00    -0.206 F 
ATOM     46  C   UNL A   1      44.999  23.274  37.051  1.00  0.00     0.059 A 
ATOM     47  C   UNL A   1      47.373  23.706  36.761  1.00  0.00     0.059 A 
ATOM     48  F   UNL A   1      48.073  25.548  35.483  1.00  0.00    -0.206 F 
ATOM     49  C   UNL A   1      46.332  22.947  37.299  1.00  0.00     0.060 A 
BRANCH  49  50
ATOM     50  S   UNL A   1      46.681  21.510  38.332  1.00  0.00     0.124 S 
ATOM     51  O   UNL A   1      48.060  21.763  38.738  1.00  0.00    -0.237 OA
ATOM     52  O   UNL A   1      45.675  21.638  39.382  1.00  0.00    -0.237 OA
ATOM     53  O   UNL A   1      46.489  20.385  37.424  1.00  0.00    -0.744 OA
ENDBRANCH  49  50
ENDBRANCH  28  42
BRANCH  29  54
ATOM     54  C   UNL A   1      43.615  33.314  30.156  1.00  0.00     0.058 A 
ATOM     55  C   UNL A   1      44.700  34.009  29.597  1.00  0.00     0.135 A 
ATOM     56  C   UNL A   1      42.329  33.803  29.870  1.00  0.00     0.135 A 
ATOM     57  F   UNL A   1      45.953  33.580  29.807  1.00  0.00    -0.206 F 
ATOM     58  C   UNL A   1      44.524  35.156  28.829  1.00  0.00     0.059 A 
ATOM     59  C   UNL A   1      42.125  34.933  29.075  1.00  0.00     0.059 A 
ATOM     60  F   UNL A   1      41.248  33.160  30.340  1.00  0.00    -0.206 F 
ATOM     61  C   UNL A   1      43.233  35.619  28.580  1.00  0.00     0.060 A 
BRANCH  61  62
ATOM     62  S   UNL A   1      43.028  37.109  27.579  1.00  0.00     0.124 S 
ATOM     63  O   UNL A   1      44.349  37.724  27.687  1.00  0.00    -0.237 OA
ATOM     64  O   UNL A   1      42.694  36.562  26.265  1.00  0.00    -0.237 OA
ATOM     65  O   UNL A   1      41.947  37.820  28.248  1.00  0.00    -0.744 OA
ENDBRANCH  61  62
ENDBRANCH  29  54
BRANCH  41  66
ATOM     66  C   UNL A   1      43.988  32.087  37.002  1.00  0.00     0.058 A 
ATOM     67  C   UNL A   1      42.695  32.238  37.523  1.00  0.00     0.135 A 
ATOM     68  C   UNL A   1      45.030  32.825  37.584  1.00  0.00     0.135 A 
ATOM     69  F   UNL A   1      41.666  31.561  36.991  1.00  0.00    -0.206 F 
ATOM     70  C   UNL A   1      42.442  33.101  38.580  1.00  0.00     0.059 A 
ATOM     71  C   UNL A   1      44.805  33.670  38.663  1.00  0.00     0.059 A 
ATOM     72  F   UNL A   1      46.286  32.704  37.122  1.00  0.00    -0.206 F 
ATOM     73  C   UNL A   1      43.503  33.811  39.145  1.00  0.00     0.060 A 
BRANCH  73  74
ATOM     74  S   UNL A   1      43.158  34.898  40.541  1.00  0.00     0.124 S 
ATOM     75  O   UNL A   1      44.004  36.049  40.241  1.00  0.00    -0.237 OA
ATOM     76  O   UNL A   1      41.720  35.116  40.411  1.00  0.00    -0.237 OA
ATOM     77  O   UNL A   1      43.562  34.104  41.697  1.00  0.00    -0.744 OA
ENDBRANCH  73  74
ENDBRANCH  41  66
ENDBRANCH  15  16
ENDBRANCH   8  10
ENDBRANCH   7   8
ENDBRANCH   6   7
ENDBRANCH   5   6
ENDBRANCH   4   5
ENDBRANCH   3   4
ENDBRANCH   2   3
ENDBRANCH   1   2
BRANCH   1  78
ATOM     78  C   UNL A   1      39.008  22.023  26.324  1.00  0.00     0.202 C 
BRANCH  78  79
ATOM     79  C   UNL A   1      37.937  21.894  25.238  1.00  0.00     0.261 C 
BRANCH  79  80
ATOM     80  O   UNL A   1      36.594  21.802  25.736  1.00  0.00    -0.463 OA
BRANCH  80  81
ATOM     81  C   UNL A   1      35.720  22.754  25.302  1.00  0.00     0.313 C 
ATOM     82  O   UNL A   1      36.050  23.697  24.590  1.00  0.00    -0.252 OA
BRANCH  81  83
ATOM     83  C   UNL A   1      34.278  22.544  25.799  1.00  0.00     0.131 C 
BRANCH  83  84
ATOM     84  C   UNL A   1      33.526  23.875  26.049  1.00  0.00     0.048 C 
BRANCH  84  85
ATOM     85  C   UNL A   1      32.174  23.869  26.781  1.00  0.00     0.161 C 
BRANCH  85  86
ATOM     86  O   UNL A   1      31.411  25.060  26.757  1.00  0.00    -0.379 OA
BRANCH  86  87
ATOM     87  C   UNL A   1      30.177  25.040  26.053  1.00  0.00     0.188 C 
BRANCH  87  88
ATOM     88  C   UNL A   1      29.935  26.156  25.028  1.00  0.00     0.184 C 
BRANCH  88  89
ATOM     89  O   UNL A   1      28.814  25.971  24.171  1.00  0.00    -0.394 OA
ATOM     90  H   UNL A   1      28.257  25.257  24.517  1.00  0.00     0.210 HD
ENDBRANCH  88  89
ENDBRANCH  87  88
ENDBRANCH  86  87
ENDBRANCH  85  86
ENDBRANCH  84  85
ENDBRANCH  83  84
BRANCH  83  91
ATOM     91  C   UNL A   1      33.511  21.469  25.024  1.00  0.00    -0.031 A 
ATOM     92  C   UNL A   1      33.467  20.133  25.469  1.00  0.00     0.005 A 
ATOM     93  C   UNL A   1      32.840  21.766  23.826  1.00  0.00     0.043 A 
ATOM     94  C   UNL A   1      32.918  19.119  24.679  1.00  0.00     0.003 A 
ATOM     95  C   UNL A   1      32.286  20.751  23.050  1.00  0.00     0.123 A 
ATOM     96  C   UNL A   1      32.353  19.426  23.447  1.00  0.00     0.039 A 
ATOM     97  F   UNL A   1      31.694  21.073  21.895  1.00  0.00    -0.207 F 
ENDBRANCH  83  91
ENDBRANCH  81  83
ENDBRANCH  80  81
ENDBRANCH  79  80
ENDBRANCH  78  79
ENDBRANCH   1  78
TORSDOF 27
ENDMDL
