MODEL 1
REMARK VINA RESULT:      -9.9      0.000      0.000
REMARK SMILES O=C(CSc1ccc2ccccc2c1)OCCOCCOCCOC(=O)c1ccc(-c2c3nc(c(-c4c(F)cc(S(=O)(=O)[O-])cc4F)c4ccc([nH]4)c(-c4c(F)cc(S(=O)(=O)[O-])cc4F)c4nc(c(-c5c(F)cc(S(=O)(=O)[O-])cc5F)c5ccc2[nH]5)C=C4)C=C3)cc1
REMARK SMILES IDX 20 1 19 2 18 3 17 4 16 5 15 6 2 7 1 8 3 9 4 10 5 11 6 12
REMARK SMILES IDX 14 13 7 14 13 15 8 16 12 17 9 18 11 19 10 20 21 21 22 22
REMARK SMILES IDX 23 23 24 24 25 25 26 26 27 27 28 28 92 29 29 30 91 31 30 32
REMARK SMILES IDX 31 33 32 34 85 35 33 36 90 37 84 38 86 39 34 40 89 41 83 42
REMARK SMILES IDX 82 43 35 45 69 46 48 47 68 48 49 49 52 50 67 51 87 52 50 53
REMARK SMILES IDX 51 54 66 56 88 57 53 58 36 59 37 60 46 61 38 62 39 63 45 64
REMARK SMILES IDX 47 65 40 66 41 67 42 68 43 69 44 70 70 71 71 72 80 73 72 74
REMARK SMILES IDX 73 75 79 76 81 77 74 78 75 79 76 80 77 81 78 82 54 83 55 84
REMARK SMILES IDX 64 85 56 86 57 87 63 88 65 89 58 90 59 91 60 92 61 93 62 94
REMARK H PARENT 86 44 52 55
REMARK Flexibility Score: inf
ROOT
ATOM      1  C   UNL A   1      45.990  22.338  25.332  1.00  0.00     0.188 C 
ENDROOT
BRANCH   1   2
ATOM      2  C   UNL A   1      45.014  22.506  24.158  1.00  0.00     0.188 C 
BRANCH   2   3
ATOM      3  O   UNL A   1      44.506  21.255  23.730  1.00  0.00    -0.376 OA
BRANCH   3   4
ATOM      4  C   UNL A   1      45.287  20.108  23.992  1.00  0.00     0.202 C 
BRANCH   4   5
ATOM      5  C   UNL A   1      44.379  18.917  24.275  1.00  0.00     0.261 C 
BRANCH   5   6
ATOM      6  O   UNL A   1      43.083  19.224  24.843  1.00  0.00    -0.463 OA
BRANCH   6   7
ATOM      7  C   UNL A   1      42.506  18.744  25.965  1.00  0.00     0.316 C 
ATOM      8  O   UNL A   1      42.554  17.531  26.176  1.00  0.00    -0.251 OA
BRANCH   7   9
ATOM      9  C   UNL A   1      41.738  19.654  26.895  1.00  0.00     0.197 C 
BRANCH   9  10
ATOM     10  S   UNL A   1      42.206  21.408  26.767  1.00  0.00    -0.114 SA
BRANCH  10  11
ATOM     11  C   UNL A   1      40.555  22.055  26.659  1.00  0.00     0.008 A 
ATOM     12  C   UNL A   1      40.295  23.339  27.129  1.00  0.00     0.016 A 
ATOM     13  C   UNL A   1      39.574  21.351  25.955  1.00  0.00     0.023 A 
ATOM     14  C   UNL A   1      39.070  23.943  26.849  1.00  0.00     0.010 A 
ATOM     15  C   UNL A   1      38.366  21.965  25.619  1.00  0.00    -0.017 A 
ATOM     16  C   UNL A   1      38.108  23.278  26.074  1.00  0.00    -0.018 A 
ATOM     17  C   UNL A   1      37.432  21.316  24.798  1.00  0.00     0.009 A 
ATOM     18  C   UNL A   1      36.905  23.898  25.711  1.00  0.00     0.009 A 
ATOM     19  C   UNL A   1      36.250  21.955  24.431  1.00  0.00     0.001 A 
ATOM     20  C   UNL A   1      35.984  23.242  24.893  1.00  0.00     0.001 A 
ENDBRANCH  10  11
ENDBRANCH   9  10
ENDBRANCH   7   9
ENDBRANCH   6   7
ENDBRANCH   5   6
ENDBRANCH   4   5
ENDBRANCH   3   4
ENDBRANCH   2   3
ENDBRANCH   1   2
BRANCH   1  21
ATOM     21  O   UNL A   1      45.659  22.876  26.609  1.00  0.00    -0.376 OA
BRANCH  21  22
ATOM     22  C   UNL A   1      46.155  24.153  26.985  1.00  0.00     0.202 C 
BRANCH  22  23
ATOM     23  C   UNL A   1      46.114  25.267  25.935  1.00  0.00     0.261 C 
BRANCH  23  24
ATOM     24  O   UNL A   1      45.276  26.388  26.274  1.00  0.00    -0.460 OA
BRANCH  24  25
ATOM     25  C   UNL A   1      43.940  26.161  26.191  1.00  0.00     0.338 C 
ATOM     26  O   UNL A   1      43.372  25.394  25.433  1.00  0.00    -0.246 OA
BRANCH  25  27
ATOM     27  C   UNL A   1      43.218  26.897  27.251  1.00  0.00     0.060 A 
ATOM     28  C   UNL A   1      43.444  28.275  27.378  1.00  0.00     0.016 A 
ATOM     29  C   UNL A   1      42.425  26.228  28.185  1.00  0.00     0.016 A 
ATOM     30  C   UNL A   1      42.901  28.981  28.456  1.00  0.00     0.010 A 
ATOM     31  C   UNL A   1      41.897  26.935  29.275  1.00  0.00     0.010 A 
ATOM     32  C   UNL A   1      42.155  28.309  29.434  1.00  0.00    -0.014 A 
BRANCH  32  33
ATOM     33  C   UNL A   1      41.750  29.009  30.682  1.00  0.00     0.031 A 
ATOM     34  C   UNL A   1      40.539  29.907  30.665  1.00  0.00     0.074 A 
ATOM     35  C   UNL A   1      42.449  28.857  31.822  1.00  0.00     0.049 A 
ATOM     36  N   UNL A   1      40.061  30.671  31.614  1.00  0.00    -0.248 NA
ATOM     37  C   UNL A   1      39.766  29.947  29.413  1.00  0.00     0.031 C 
ATOM     38  C   UNL A   1      43.615  27.992  31.990  1.00  0.00     0.029 A 
ATOM     39  N   UNL A   1      42.288  29.445  33.055  1.00  0.00    -0.354 N 
ATOM     40  C   UNL A   1      38.938  31.288  31.075  1.00  0.00     0.074 A 
ATOM     41  C   UNL A   1      38.815  30.822  29.710  1.00  0.00     0.031 C 
ATOM     42  C   UNL A   1      44.080  28.126  33.245  1.00  0.00     0.029 A 
ATOM     43  C   UNL A   1      43.267  29.108  33.960  1.00  0.00     0.049 A 
ATOM     44  H   UNL A   1      41.541  30.050  33.268  1.00  0.00     0.167 HD
ATOM     45  C   UNL A   1      38.086  32.162  31.663  1.00  0.00     0.037 A 
ATOM     46  C   UNL A   1      43.500  29.565  35.208  1.00  0.00     0.037 A 
ATOM     47  C   UNL A   1      38.200  32.625  33.023  1.00  0.00     0.049 A 
ATOM     48  C   UNL A   1      42.580  30.594  35.815  1.00  0.00     0.074 A 
ATOM     49  C   UNL A   1      37.359  33.484  33.711  1.00  0.00     0.029 A 
ATOM     50  N   UNL A   1      39.219  32.281  33.896  1.00  0.00    -0.354 N 
ATOM     51  N   UNL A   1      41.504  31.144  35.303  1.00  0.00    -0.248 NA
ATOM     52  C   UNL A   1      42.907  31.069  37.168  1.00  0.00     0.031 C 
ATOM     53  C   UNL A   1      37.896  33.697  34.984  1.00  0.00     0.029 A 
ATOM     54  C   UNL A   1      39.046  32.935  35.105  1.00  0.00     0.049 A 
ATOM     55  H   UNL A   1      39.957  31.664  33.688  1.00  0.00     0.167 HD
ATOM     56  C   UNL A   1      41.017  32.008  36.280  1.00  0.00     0.074 A 
ATOM     57  C   UNL A   1      41.905  31.900  37.417  1.00  0.00     0.031 C 
ATOM     58  C   UNL A   1      39.931  32.819  36.236  1.00  0.00     0.037 A 
BRANCH  45  59
ATOM     59  C   UNL A   1      36.951  32.700  30.838  1.00  0.00     0.058 A 
ATOM     60  C   UNL A   1      37.149  33.702  29.877  1.00  0.00     0.135 A 
ATOM     61  C   UNL A   1      35.665  32.148  30.958  1.00  0.00     0.135 A 
ATOM     62  F   UNL A   1      38.356  34.272  29.733  1.00  0.00    -0.206 F 
ATOM     63  C   UNL A   1      36.108  34.145  29.067  1.00  0.00     0.059 A 
ATOM     64  C   UNL A   1      34.614  32.561  30.144  1.00  0.00     0.059 A 
ATOM     65  F   UNL A   1      35.423  31.188  31.864  1.00  0.00    -0.206 F 
ATOM     66  C   UNL A   1      34.845  33.566  29.205  1.00  0.00     0.060 A 
BRANCH  66  67
ATOM     67  S   UNL A   1      33.514  34.127  28.123  1.00  0.00     0.124 S 
ATOM     68  O   UNL A   1      34.243  34.967  27.177  1.00  0.00    -0.237 OA
ATOM     69  O   UNL A   1      32.996  32.872  27.587  1.00  0.00    -0.237 OA
ATOM     70  O   UNL A   1      32.615  34.836  29.027  1.00  0.00    -0.744 OA
ENDBRANCH  66  67
ENDBRANCH  45  59
BRANCH  46  71
ATOM     71  C   UNL A   1      44.687  29.086  35.969  1.00  0.00     0.058 A 
ATOM     72  C   UNL A   1      45.939  29.705  35.828  1.00  0.00     0.135 A 
ATOM     73  C   UNL A   1      44.598  27.975  36.822  1.00  0.00     0.135 A 
ATOM     74  F   UNL A   1      46.077  30.760  35.011  1.00  0.00    -0.206 F 
ATOM     75  C   UNL A   1      47.065  29.227  36.490  1.00  0.00     0.059 A 
ATOM     76  C   UNL A   1      45.705  27.495  37.513  1.00  0.00     0.059 A 
ATOM     77  F   UNL A   1      43.422  27.353  36.996  1.00  0.00    -0.206 F 
ATOM     78  C   UNL A   1      46.937  28.120  37.330  1.00  0.00     0.060 A 
BRANCH  78  79
ATOM     79  S   UNL A   1      48.396  27.525  38.213  1.00  0.00     0.124 S 
ATOM     80  O   UNL A   1      47.799  26.933  39.404  1.00  0.00    -0.237 OA
ATOM     81  O   UNL A   1      48.976  26.590  37.255  1.00  0.00    -0.237 OA
ATOM     82  O   UNL A   1      49.172  28.743  38.433  1.00  0.00    -0.744 OA
ENDBRANCH  78  79
ENDBRANCH  46  71
BRANCH  58  83
ATOM     83  C   UNL A   1      39.621  33.638  37.460  1.00  0.00     0.058 A 
ATOM     84  C   UNL A   1      38.714  33.193  38.433  1.00  0.00     0.135 A 
ATOM     85  C   UNL A   1      40.278  34.859  37.688  1.00  0.00     0.135 A 
ATOM     86  F   UNL A   1      38.054  32.036  38.262  1.00  0.00    -0.206 F 
ATOM     87  C   UNL A   1      38.452  33.937  39.580  1.00  0.00     0.059 A 
ATOM     88  C   UNL A   1      40.051  35.608  38.840  1.00  0.00     0.059 A 
ATOM     89  F   UNL A   1      41.164  35.327  36.795  1.00  0.00    -0.206 F 
ATOM     90  C   UNL A   1      39.126  35.144  39.775  1.00  0.00     0.060 A 
BRANCH  90  91
ATOM     91  S   UNL A   1      38.804  36.085  41.282  1.00  0.00     0.124 S 
ATOM     92  O   UNL A   1      38.618  37.432  40.753  1.00  0.00    -0.237 OA
ATOM     93  O   UNL A   1      37.605  35.439  41.805  1.00  0.00    -0.237 OA
ATOM     94  O   UNL A   1      40.013  35.883  42.075  1.00  0.00    -0.744 OA
ENDBRANCH  90  91
ENDBRANCH  58  83
ENDBRANCH  32  33
ENDBRANCH  25  27
ENDBRANCH  24  25
ENDBRANCH  23  24
ENDBRANCH  22  23
ENDBRANCH  21  22
ENDBRANCH   1  21
TORSDOF 22
ENDMDL
MODEL 2
REMARK VINA RESULT:      -9.6      6.367     12.788
REMARK SMILES O=C(CSc1ccc2ccccc2c1)OCCOCCOCCOC(=O)c1ccc(-c2c3nc(c(-c4c(F)cc(S(=O)(=O)[O-])cc4F)c4ccc([nH]4)c(-c4c(F)cc(S(=O)(=O)[O-])cc4F)c4nc(c(-c5c(F)cc(S(=O)(=O)[O-])cc5F)c5ccc2[nH]5)C=C4)C=C3)cc1
REMARK SMILES IDX 20 1 19 2 18 3 17 4 16 5 15 6 2 7 1 8 3 9 4 10 5 11 6 12
REMARK SMILES IDX 14 13 7 14 13 15 8 16 12 17 9 18 11 19 10 20 21 21 22 22
REMARK SMILES IDX 23 23 24 24 25 25 26 26 27 27 28 28 92 29 29 30 91 31 30 32
REMARK SMILES IDX 31 33 32 34 85 35 33 36 90 37 84 38 86 39 34 40 89 41 83 42
REMARK SMILES IDX 82 43 35 45 69 46 48 47 68 48 49 49 52 50 67 51 87 52 50 53
REMARK SMILES IDX 51 54 66 56 88 57 53 58 36 59 37 60 46 61 38 62 39 63 45 64
REMARK SMILES IDX 47 65 40 66 41 67 42 68 43 69 44 70 70 71 71 72 80 73 72 74
REMARK SMILES IDX 73 75 79 76 81 77 74 78 75 79 76 80 77 81 78 82 54 83 55 84
REMARK SMILES IDX 64 85 56 86 57 87 63 88 65 89 58 90 59 91 60 92 61 93 62 94
REMARK H PARENT 86 44 52 55
REMARK Flexibility Score: inf
ROOT
ATOM      1  C   UNL A   1      33.527  30.107  27.083  1.00  0.00     0.188 C 
ENDROOT
BRANCH   1   2
ATOM      2  C   UNL A   1      33.117  29.621  25.684  1.00  0.00     0.188 C 
BRANCH   2   3
ATOM      3  O   UNL A   1      31.812  29.071  25.694  1.00  0.00    -0.376 OA
BRANCH   3   4
ATOM      4  C   UNL A   1      31.184  28.858  24.447  1.00  0.00     0.202 C 
BRANCH   4   5
ATOM      5  C   UNL A   1      31.044  27.363  24.187  1.00  0.00     0.261 C 
BRANCH   5   6
ATOM      6  O   UNL A   1      31.418  26.488  25.278  1.00  0.00    -0.463 OA
BRANCH   6   7
ATOM      7  C   UNL A   1      32.527  25.732  25.427  1.00  0.00     0.316 C 
ATOM      8  O   UNL A   1      33.363  26.076  26.263  1.00  0.00    -0.251 OA
BRANCH   7   9
ATOM      9  C   UNL A   1      32.786  24.546  24.526  1.00  0.00     0.197 C 
BRANCH   9  10
ATOM     10  S   UNL A   1      31.524  23.241  24.641  1.00  0.00    -0.114 SA
BRANCH  10  11
ATOM     11  C   UNL A   1      32.628  21.867  24.417  1.00  0.00     0.008 A 
ATOM     12  C   UNL A   1      33.857  21.867  25.070  1.00  0.00     0.016 A 
ATOM     13  C   UNL A   1      32.192  20.727  23.735  1.00  0.00     0.023 A 
ATOM     14  C   UNL A   1      34.630  20.707  25.087  1.00  0.00     0.010 A 
ATOM     15  C   UNL A   1      32.930  19.542  23.792  1.00  0.00    -0.017 A 
ATOM     16  C   UNL A   1      34.167  19.532  24.475  1.00  0.00    -0.018 A 
ATOM     17  C   UNL A   1      32.435  18.358  23.227  1.00  0.00     0.009 A 
ATOM     18  C   UNL A   1      34.889  18.334  24.552  1.00  0.00     0.009 A 
ATOM     19  C   UNL A   1      33.158  17.171  23.329  1.00  0.00     0.001 A 
ATOM     20  C   UNL A   1      34.387  17.161  23.985  1.00  0.00     0.001 A 
ENDBRANCH  10  11
ENDBRANCH   9  10
ENDBRANCH   7   9
ENDBRANCH   6   7
ENDBRANCH   5   6
ENDBRANCH   4   5
ENDBRANCH   3   4
ENDBRANCH   2   3
ENDBRANCH   1   2
BRANCH   1  21
ATOM     21  O   UNL A   1      34.430  31.201  27.216  1.00  0.00    -0.376 OA
BRANCH  21  22
ATOM     22  C   UNL A   1      34.245  32.144  28.261  1.00  0.00     0.202 C 
BRANCH  22  23
ATOM     23  C   UNL A   1      35.111  31.992  29.515  1.00  0.00     0.261 C 
BRANCH  23  24
ATOM     24  O   UNL A   1      35.839  30.752  29.602  1.00  0.00    -0.460 OA
BRANCH  24  25
ATOM     25  C   UNL A   1      36.640  30.623  30.690  1.00  0.00     0.338 C 
ATOM     26  O   UNL A   1      36.288  30.532  31.853  1.00  0.00    -0.246 OA
BRANCH  25  27
ATOM     27  C   UNL A   1      38.055  30.483  30.283  1.00  0.00     0.060 A 
ATOM     28  C   UNL A   1      38.343  30.312  28.922  1.00  0.00     0.016 A 
ATOM     29  C   UNL A   1      39.075  30.397  31.232  1.00  0.00     0.016 A 
ATOM     30  C   UNL A   1      39.648  30.026  28.509  1.00  0.00     0.010 A 
ATOM     31  C   UNL A   1      40.380  30.092  30.817  1.00  0.00     0.010 A 
ATOM     32  C   UNL A   1      40.669  29.876  29.457  1.00  0.00    -0.014 A 
BRANCH  32  33
ATOM     33  C   UNL A   1      42.008  29.374  29.045  1.00  0.00     0.031 A 
ATOM     34  C   UNL A   1      43.164  30.337  28.962  1.00  0.00     0.074 A 
ATOM     35  C   UNL A   1      42.200  28.076  28.742  1.00  0.00     0.049 A 
ATOM     36  N   UNL A   1      44.389  30.127  28.549  1.00  0.00    -0.248 NA
ATOM     37  C   UNL A   1      42.906  31.717  29.403  1.00  0.00     0.031 C 
ATOM     38  C   UNL A   1      41.181  27.031  28.818  1.00  0.00     0.029 A 
ATOM     39  N   UNL A   1      43.321  27.420  28.291  1.00  0.00    -0.354 N 
ATOM     40  C   UNL A   1      45.044  31.347  28.672  1.00  0.00     0.074 A 
ATOM     41  C   UNL A   1      44.077  32.296  29.183  1.00  0.00     0.031 C 
ATOM     42  C   UNL A   1      41.716  25.870  28.399  1.00  0.00     0.029 A 
ATOM     43  C   UNL A   1      43.104  26.094  27.998  1.00  0.00     0.049 A 
ATOM     44  H   UNL A   1      44.195  27.859  28.187  1.00  0.00     0.167 HD
ATOM     45  C   UNL A   1      46.334  31.649  28.388  1.00  0.00     0.037 A 
ATOM     46  C   UNL A   1      43.919  25.176  27.439  1.00  0.00     0.037 A 
ATOM     47  C   UNL A   1      47.302  30.708  27.884  1.00  0.00     0.049 A 
ATOM     48  C   UNL A   1      45.330  25.556  27.061  1.00  0.00     0.074 A 
ATOM     49  C   UNL A   1      48.641  30.921  27.602  1.00  0.00     0.029 A 
ATOM     50  N   UNL A   1      47.036  29.384  27.576  1.00  0.00    -0.354 N 
ATOM     51  N   UNL A   1      45.944  26.705  27.214  1.00  0.00    -0.248 NA
ATOM     52  C   UNL A   1      46.157  24.516  26.431  1.00  0.00     0.031 C 
ATOM     53  C   UNL A   1      49.173  29.738  27.078  1.00  0.00     0.029 A 
ATOM     54  C   UNL A   1      48.177  28.776  27.077  1.00  0.00     0.049 A 
ATOM     55  H   UNL A   1      46.165  28.940  27.694  1.00  0.00     0.167 HD
ATOM     56  C   UNL A   1      47.233  26.516  26.722  1.00  0.00     0.074 A 
ATOM     57  C   UNL A   1      47.315  25.142  26.278  1.00  0.00     0.031 C 
ATOM     58  C   UNL A   1      48.254  27.405  26.642  1.00  0.00     0.037 A 
BRANCH  45  59
ATOM     59  C   UNL A   1      46.786  33.068  28.595  1.00  0.00     0.058 A 
ATOM     60  C   UNL A   1      47.347  33.492  29.808  1.00  0.00     0.135 A 
ATOM     61  C   UNL A   1      46.724  33.991  27.539  1.00  0.00     0.135 A 
ATOM     62  F   UNL A   1      47.415  32.652  30.853  1.00  0.00    -0.206 F 
ATOM     63  C   UNL A   1      47.828  34.787  29.970  1.00  0.00     0.059 A 
ATOM     64  C   UNL A   1      47.218  35.286  27.672  1.00  0.00     0.059 A 
ATOM     65  F   UNL A   1      46.193  33.635  26.359  1.00  0.00    -0.206 F 
ATOM     66  C   UNL A   1      47.763  35.676  28.895  1.00  0.00     0.060 A 
BRANCH  66  67
ATOM     67  S   UNL A   1      48.423  37.343  29.109  1.00  0.00     0.124 S 
ATOM     68  O   UNL A   1      49.794  37.175  28.637  1.00  0.00    -0.237 OA
ATOM     69  O   UNL A   1      47.550  38.138  28.251  1.00  0.00    -0.237 OA
ATOM     70  O   UNL A   1      48.278  37.585  30.541  1.00  0.00    -0.744 OA
ENDBRANCH  66  67
ENDBRANCH  45  59
BRANCH  46  71
ATOM     71  C   UNL A   1      43.417  23.804  27.156  1.00  0.00     0.058 A 
ATOM     72  C   UNL A   1      42.910  23.461  25.893  1.00  0.00     0.135 A 
ATOM     73  C   UNL A   1      43.399  22.820  28.157  1.00  0.00     0.135 A 
ATOM     74  F   UNL A   1      42.890  24.373  24.909  1.00  0.00    -0.206 F 
ATOM     75  C   UNL A   1      42.384  22.199  25.638  1.00  0.00     0.059 A 
ATOM     76  C   UNL A   1      42.902  21.544  27.919  1.00  0.00     0.059 A 
ATOM     77  F   UNL A   1      43.880  23.096  29.380  1.00  0.00    -0.206 F 
ATOM     78  C   UNL A   1      42.384  21.247  26.659  1.00  0.00     0.060 A 
BRANCH  78  79
ATOM     79  S   UNL A   1      41.732  19.599  26.312  1.00  0.00     0.124 S 
ATOM     80  O   UNL A   1      42.555  19.189  25.181  1.00  0.00    -0.237 OA
ATOM     81  O   UNL A   1      41.977  18.900  27.569  1.00  0.00    -0.237 OA
ATOM     82  O   UNL A   1      40.326  19.854  26.011  1.00  0.00    -0.744 OA
ENDBRANCH  78  79
ENDBRANCH  46  71
BRANCH  58  83
ATOM     83  C   UNL A   1      49.562  26.917  26.080  1.00  0.00     0.058 A 
ATOM     84  C   UNL A   1      49.880  27.064  24.721  1.00  0.00     0.135 A 
ATOM     85  C   UNL A   1      50.531  26.343  26.920  1.00  0.00     0.135 A 
ATOM     86  F   UNL A   1      48.988  27.600  23.873  1.00  0.00    -0.206 F 
ATOM     87  C   UNL A   1      51.104  26.641  24.209  1.00  0.00     0.059 A 
ATOM     88  C   UNL A   1      51.771  25.937  26.436  1.00  0.00     0.059 A 
ATOM     89  F   UNL A   1      50.284  26.189  28.231  1.00  0.00    -0.206 F 
ATOM     90  C   UNL A   1      52.044  26.079  25.075  1.00  0.00     0.060 A 
BRANCH  90  91
ATOM     91  S   UNL A   1      53.641  25.564  24.407  1.00  0.00     0.124 S 
ATOM     92  O   UNL A   1      53.498  25.918  22.998  1.00  0.00    -0.237 OA
ATOM     93  O   UNL A   1      54.579  26.379  25.172  1.00  0.00    -0.237 OA
ATOM     94  O   UNL A   1      53.684  24.134  24.693  1.00  0.00    -0.744 OA
ENDBRANCH  90  91
ENDBRANCH  58  83
ENDBRANCH  32  33
ENDBRANCH  25  27
ENDBRANCH  24  25
ENDBRANCH  23  24
ENDBRANCH  22  23
ENDBRANCH  21  22
ENDBRANCH   1  21
TORSDOF 22
ENDMDL
MODEL 3
REMARK VINA RESULT:      -9.6      6.240     12.665
REMARK SMILES O=C(CSc1ccc2ccccc2c1)OCCOCCOCCOC(=O)c1ccc(-c2c3nc(c(-c4c(F)cc(S(=O)(=O)[O-])cc4F)c4ccc([nH]4)c(-c4c(F)cc(S(=O)(=O)[O-])cc4F)c4nc(c(-c5c(F)cc(S(=O)(=O)[O-])cc5F)c5ccc2[nH]5)C=C4)C=C3)cc1
REMARK SMILES IDX 20 1 19 2 18 3 17 4 16 5 15 6 2 7 1 8 3 9 4 10 5 11 6 12
REMARK SMILES IDX 14 13 7 14 13 15 8 16 12 17 9 18 11 19 10 20 21 21 22 22
REMARK SMILES IDX 23 23 24 24 25 25 26 26 27 27 28 28 92 29 29 30 91 31 30 32
REMARK SMILES IDX 31 33 32 34 85 35 33 36 90 37 84 38 86 39 34 40 89 41 83 42
REMARK SMILES IDX 82 43 35 45 69 46 48 47 68 48 49 49 52 50 67 51 87 52 50 53
REMARK SMILES IDX 51 54 66 56 88 57 53 58 36 59 37 60 46 61 38 62 39 63 45 64
REMARK SMILES IDX 47 65 40 66 41 67 42 68 43 69 44 70 70 71 71 72 80 73 72 74
REMARK SMILES IDX 73 75 79 76 81 77 74 78 75 79 76 80 77 81 78 82 54 83 55 84
REMARK SMILES IDX 64 85 56 86 57 87 63 88 65 89 58 90 59 91 60 92 61 93 62 94
REMARK H PARENT 86 44 52 55
REMARK Flexibility Score: inf
ROOT
ATOM      1  C   UNL A   1      34.343  30.771  27.179  1.00  0.00     0.188 C 
ENDROOT
BRANCH   1   2
ATOM      2  C   UNL A   1      34.407  29.258  26.923  1.00  0.00     0.188 C 
BRANCH   2   3
ATOM      3  O   UNL A   1      33.269  28.810  26.209  1.00  0.00    -0.376 OA
BRANCH   3   4
ATOM      4  C   UNL A   1      32.141  29.659  26.178  1.00  0.00     0.202 C 
BRANCH   4   5
ATOM      5  C   UNL A   1      31.373  29.453  24.878  1.00  0.00     0.261 C 
BRANCH   5   6
ATOM      6  O   UNL A   1      32.144  28.971  23.751  1.00  0.00    -0.463 OA
BRANCH   6   7
ATOM      7  C   UNL A   1      32.001  27.831  23.042  1.00  0.00     0.316 C 
ATOM      8  O   UNL A   1      30.982  27.685  22.366  1.00  0.00    -0.251 OA
BRANCH   7   9
ATOM      9  C   UNL A   1      33.019  26.718  23.146  1.00  0.00     0.197 C 
BRANCH   9  10
ATOM     10  S   UNL A   1      32.732  25.344  21.989  1.00  0.00    -0.114 SA
BRANCH  10  11
ATOM     11  C   UNL A   1      33.367  24.056  23.037  1.00  0.00     0.008 A 
ATOM     12  C   UNL A   1      32.534  23.001  23.399  1.00  0.00     0.016 A 
ATOM     13  C   UNL A   1      34.730  24.017  23.345  1.00  0.00     0.023 A 
ATOM     14  C   UNL A   1      33.074  21.879  24.026  1.00  0.00     0.010 A 
ATOM     15  C   UNL A   1      35.292  22.875  23.921  1.00  0.00    -0.017 A 
ATOM     16  C   UNL A   1      34.454  21.792  24.269  1.00  0.00    -0.018 A 
ATOM     17  C   UNL A   1      36.678  22.773  24.110  1.00  0.00     0.009 A 
ATOM     18  C   UNL A   1      35.028  20.640  24.821  1.00  0.00     0.009 A 
ATOM     19  C   UNL A   1      37.234  21.612  24.643  1.00  0.00     0.001 A 
ATOM     20  C   UNL A   1      36.409  20.549  25.004  1.00  0.00     0.001 A 
ENDBRANCH  10  11
ENDBRANCH   9  10
ENDBRANCH   7   9
ENDBRANCH   6   7
ENDBRANCH   5   6
ENDBRANCH   4   5
ENDBRANCH   3   4
ENDBRANCH   2   3
ENDBRANCH   1   2
BRANCH   1  21
ATOM     21  O   UNL A   1      34.432  31.268  28.512  1.00  0.00    -0.376 OA
BRANCH  21  22
ATOM     22  C   UNL A   1      34.315  32.663  28.752  1.00  0.00     0.202 C 
BRANCH  22  23
ATOM     23  C   UNL A   1      35.090  33.246  29.938  1.00  0.00     0.261 C 
BRANCH  23  24
ATOM     24  O   UNL A   1      36.455  32.799  30.047  1.00  0.00    -0.460 OA
BRANCH  24  25
ATOM     25  C   UNL A   1      36.646  31.698  30.817  1.00  0.00     0.338 C 
ATOM     26  O   UNL A   1      35.928  31.299  31.717  1.00  0.00    -0.246 OA
BRANCH  25  27
ATOM     27  C   UNL A   1      37.819  30.929  30.349  1.00  0.00     0.060 A 
ATOM     28  C   UNL A   1      38.779  30.538  31.292  1.00  0.00     0.016 A 
ATOM     29  C   UNL A   1      38.038  30.701  28.989  1.00  0.00     0.016 A 
ATOM     30  C   UNL A   1      39.974  29.943  30.875  1.00  0.00     0.010 A 
ATOM     31  C   UNL A   1      39.245  30.121  28.573  1.00  0.00     0.010 A 
ATOM     32  C   UNL A   1      40.233  29.764  29.509  1.00  0.00    -0.014 A 
BRANCH  32  33
ATOM     33  C   UNL A   1      41.578  29.323  29.051  1.00  0.00     0.031 A 
ATOM     34  C   UNL A   1      42.689  30.335  28.940  1.00  0.00     0.074 A 
ATOM     35  C   UNL A   1      41.814  28.037  28.730  1.00  0.00     0.049 A 
ATOM     36  N   UNL A   1      43.907  30.181  28.486  1.00  0.00    -0.248 NA
ATOM     37  C   UNL A   1      42.386  31.700  29.402  1.00  0.00     0.031 C 
ATOM     38  C   UNL A   1      40.843  26.949  28.828  1.00  0.00     0.029 A 
ATOM     39  N   UNL A   1      42.947  27.433  28.237  1.00  0.00    -0.354 N 
ATOM     40  C   UNL A   1      44.514  31.427  28.600  1.00  0.00     0.074 A 
ATOM     41  C   UNL A   1      43.525  32.329  29.150  1.00  0.00     0.031 C 
ATOM     42  C   UNL A   1      41.414  25.815  28.382  1.00  0.00     0.029 A 
ATOM     43  C   UNL A   1      42.778  26.101  27.939  1.00  0.00     0.049 A 
ATOM     44  H   UNL A   1      43.799  27.910  28.110  1.00  0.00     0.167 HD
ATOM     45  C   UNL A   1      45.780  31.785  28.277  1.00  0.00     0.037 A 
ATOM     46  C   UNL A   1      43.613  25.223  27.346  1.00  0.00     0.037 A 
ATOM     47  C   UNL A   1      46.770  30.891  27.735  1.00  0.00     0.049 A 
ATOM     48  C   UNL A   1      44.993  25.666  26.928  1.00  0.00     0.074 A 
ATOM     49  C   UNL A   1      48.090  31.163  27.412  1.00  0.00     0.029 A 
ATOM     50  N   UNL A   1      46.551  29.559  27.423  1.00  0.00    -0.354 N 
ATOM     51  N   UNL A   1      45.562  26.839  27.071  1.00  0.00    -0.248 NA
ATOM     52  C   UNL A   1      45.842  24.667  26.262  1.00  0.00     0.031 C 
ATOM     53  C   UNL A   1      48.653  30.008  26.861  1.00  0.00     0.029 A 
ATOM     54  C   UNL A   1      47.700  29.004  26.882  1.00  0.00     0.049 A 
ATOM     55  H   UNL A   1      45.704  29.077  27.565  1.00  0.00     0.167 HD
ATOM     56  C   UNL A   1      46.841  26.709  26.536  1.00  0.00     0.074 A 
ATOM     57  C   UNL A   1      46.968  25.343  26.078  1.00  0.00     0.031 C 
ATOM     58  C   UNL A   1      47.821  27.641  26.433  1.00  0.00     0.037 A 
BRANCH  45  59
ATOM     59  C   UNL A   1      46.178  33.220  28.483  1.00  0.00     0.058 A 
ATOM     60  C   UNL A   1      46.006  34.184  27.479  1.00  0.00     0.135 A 
ATOM     61  C   UNL A   1      46.664  33.648  29.730  1.00  0.00     0.135 A 
ATOM     62  F   UNL A   1      45.558  33.824  26.266  1.00  0.00    -0.206 F 
ATOM     63  C   UNL A   1      46.310  35.523  27.701  1.00  0.00     0.059 A 
ATOM     64  C   UNL A   1      46.955  34.986  29.980  1.00  0.00     0.059 A 
ATOM     65  F   UNL A   1      46.849  32.764  30.722  1.00  0.00    -0.206 F 
ATOM     66  C   UNL A   1      46.780  35.915  28.956  1.00  0.00     0.060 A 
BRANCH  66  67
ATOM     67  S   UNL A   1      47.136  37.663  29.238  1.00  0.00     0.124 S 
ATOM     68  O   UNL A   1      47.631  38.074  27.928  1.00  0.00    -0.237 OA
ATOM     69  O   UNL A   1      45.829  38.191  29.616  1.00  0.00    -0.237 OA
ATOM     70  O   UNL A   1      48.131  37.639  30.305  1.00  0.00    -0.744 OA
ENDBRANCH  66  67
ENDBRANCH  45  59
BRANCH  46  71
ATOM     71  C   UNL A   1      43.160  23.833  27.067  1.00  0.00     0.058 A 
ATOM     72  C   UNL A   1      43.113  22.865  28.081  1.00  0.00     0.135 A 
ATOM     73  C   UNL A   1      42.804  23.437  25.768  1.00  0.00     0.135 A 
ATOM     74  F   UNL A   1      43.461  23.192  29.335  1.00  0.00    -0.206 F 
ATOM     75  C   UNL A   1      42.749  21.549  27.816  1.00  0.00     0.059 A 
ATOM     76  C   UNL A   1      42.412  22.133  25.483  1.00  0.00     0.059 A 
ATOM     77  F   UNL A   1      42.826  24.327  24.763  1.00  0.00    -0.206 F 
ATOM     78  C   UNL A   1      42.401  21.193  26.512  1.00  0.00     0.060 A 
BRANCH  78  79
ATOM     79  S   UNL A   1      41.896  19.492  26.181  1.00  0.00     0.124 S 
ATOM     80  O   UNL A   1      40.464  19.648  25.956  1.00  0.00    -0.237 OA
ATOM     81  O   UNL A   1      42.696  19.156  25.007  1.00  0.00    -0.237 OA
ATOM     82  O   UNL A   1      42.272  18.788  27.404  1.00  0.00    -0.744 OA
ENDBRANCH  78  79
ENDBRANCH  46  71
BRANCH  58  83
ATOM     83  C   UNL A   1      49.130  27.214  25.825  1.00  0.00     0.058 A 
ATOM     84  C   UNL A   1      49.384  27.353  24.452  1.00  0.00     0.135 A 
ATOM     85  C   UNL A   1      50.162  26.707  26.633  1.00  0.00     0.135 A 
ATOM     86  F   UNL A   1      48.432  27.826  23.633  1.00  0.00    -0.206 F 
ATOM     87  C   UNL A   1      50.608  26.988  23.897  1.00  0.00     0.059 A 
ATOM     88  C   UNL A   1      51.401  26.359  26.104  1.00  0.00     0.059 A 
ATOM     89  F   UNL A   1      49.976  26.563  27.955  1.00  0.00    -0.206 F 
ATOM     90  C   UNL A   1      51.611  26.492  24.732  1.00  0.00     0.060 A 
BRANCH  90  91
ATOM     91  S   UNL A   1      53.205  26.051  24.006  1.00  0.00     0.124 S 
ATOM     92  O   UNL A   1      53.525  24.822  24.725  1.00  0.00    -0.237 OA
ATOM     93  O   UNL A   1      52.874  25.892  22.594  1.00  0.00    -0.237 OA
ATOM     94  O   UNL A   1      54.050  27.199  24.320  1.00  0.00    -0.744 OA
ENDBRANCH  90  91
ENDBRANCH  58  83
ENDBRANCH  32  33
ENDBRANCH  25  27
ENDBRANCH  24  25
ENDBRANCH  23  24
ENDBRANCH  22  23
ENDBRANCH  21  22
ENDBRANCH   1  21
TORSDOF 22
ENDMDL
