MODEL 1
REMARK VINA RESULT:     -11.2      0.000      0.000
REMARK SMILES O=C(OCCOCCOCCOC(=O)c1ccc2c(c1)[C@@H](C1CCOCC1)C(=O)N2)c1ccc(-c2c3nc(c(-c4c(F)cc(S(=O)(=O)[O-])cc4F)c4ccc([nH]4)c(-c4c(F)cc(S(=O)(=O)[O-])cc4F)c4nc(c(-c5c(F)cc(S(=O)(=O)[O-])cc5F)c5ccc2[nH]5)C=C4)C=C3)cc1
REMARK SMILES IDX 7 1 6 2 5 3 4 4 3 5 2 6 1 7 31 8 32 9 96 10 33 11 95 12
REMARK SMILES IDX 34 13 35 14 36 15 89 16 37 17 94 18 88 19 90 20 38 21 93 22
REMARK SMILES IDX 87 23 86 24 39 26 73 27 52 28 72 29 53 30 56 31 71 32 91 33
REMARK SMILES IDX 54 34 55 35 70 37 92 38 57 39 40 40 41 41 50 42 42 43 43 44
REMARK SMILES IDX 49 45 51 46 44 47 45 48 46 49 47 50 48 51 74 52 75 53 84 54
REMARK SMILES IDX 76 55 77 56 83 57 85 58 78 59 79 60 80 61 81 62 82 63 58 64
REMARK SMILES IDX 59 65 68 66 60 67 61 68 67 69 69 70 62 71 63 72 64 73 65 74
REMARK SMILES IDX 66 75 8 76 9 77 10 78 11 79 12 80 13 81 14 82 15 83 16 84
REMARK SMILES IDX 20 85 17 86 19 87 18 88 21 89 30 90 28 91 29 93 22 94 23 95
REMARK SMILES IDX 27 96 24 97 26 98 25 99
REMARK H PARENT 90 25 56 36 30 92
REMARK Flexibility Score: inf
ROOT
ATOM      1  C   UNL A   1      42.426  20.534  26.477  1.00  0.00     0.188 C 
ENDROOT
BRANCH   1   2
ATOM      2  O   UNL A   1      43.100  20.993  25.312  1.00  0.00    -0.376 OA
BRANCH   2   3
ATOM      3  C   UNL A   1      43.301  22.398  25.158  1.00  0.00     0.202 C 
BRANCH   3   4
ATOM      4  C   UNL A   1      43.016  23.332  26.348  1.00  0.00     0.261 C 
BRANCH   4   5
ATOM      5  O   UNL A   1      41.869  24.185  26.201  1.00  0.00    -0.460 OA
BRANCH   5   6
ATOM      6  C   UNL A   1      41.875  25.536  26.090  1.00  0.00     0.338 C 
ATOM      7  O   UNL A   1      42.025  26.066  24.993  1.00  0.00    -0.246 OA
BRANCH   6   8
ATOM      8  C   UNL A   1      41.696  26.402  27.275  1.00  0.00     0.060 A 
ATOM      9  C   UNL A   1      42.281  27.658  27.416  1.00  0.00     0.016 A 
ATOM     10  C   UNL A   1      40.801  25.972  28.245  1.00  0.00     0.016 A 
ATOM     11  C   UNL A   1      42.129  28.410  28.569  1.00  0.00     0.010 A 
ATOM     12  C   UNL A   1      40.547  26.784  29.348  1.00  0.00     0.010 A 
ATOM     13  C   UNL A   1      41.226  27.998  29.538  1.00  0.00    -0.014 A 
BRANCH  13  14
ATOM     14  C   UNL A   1      41.047  28.785  30.780  1.00  0.00     0.031 A 
ATOM     15  C   UNL A   1      39.888  29.734  30.839  1.00  0.00     0.074 A 
ATOM     16  C   UNL A   1      41.891  28.649  31.824  1.00  0.00     0.049 A 
ATOM     17  N   UNL A   1      39.633  30.679  31.699  1.00  0.00    -0.248 NA
ATOM     18  C   UNL A   1      38.911  29.646  29.737  1.00  0.00     0.031 C 
ATOM     19  C   UNL A   1      43.021  27.719  31.895  1.00  0.00     0.029 A 
ATOM     20  N   UNL A   1      41.918  29.276  33.043  1.00  0.00    -0.354 N 
ATOM     21  C   UNL A   1      38.524  31.344  31.192  1.00  0.00     0.074 A 
ATOM     22  C   UNL A   1      38.211  30.750  29.915  1.00  0.00     0.031 C 
ATOM     23  C   UNL A   1      43.582  27.789  33.112  1.00  0.00     0.029 A 
ATOM     24  C   UNL A   1      42.924  28.835  33.873  1.00  0.00     0.049 A 
ATOM     25  H   UNL A   1      41.277  29.977  33.302  1.00  0.00     0.167 HD
ATOM     26  C   UNL A   1      37.807  32.333  31.766  1.00  0.00     0.037 A 
ATOM     27  C   UNL A   1      43.288  29.247  35.102  1.00  0.00     0.037 A 
ATOM     28  C   UNL A   1      38.096  32.836  33.079  1.00  0.00     0.049 A 
ATOM     29  C   UNL A   1      42.490  30.361  35.720  1.00  0.00     0.074 A 
ATOM     30  C   UNL A   1      37.440  33.816  33.795  1.00  0.00     0.029 A 
ATOM     31  N   UNL A   1      39.132  32.369  33.881  1.00  0.00    -0.354 N 
ATOM     32  N   UNL A   1      41.459  31.002  35.222  1.00  0.00    -0.248 NA
ATOM     33  C   UNL A   1      42.897  30.808  37.055  1.00  0.00     0.031 C 
ATOM     34  C   UNL A   1      38.107  33.972  35.015  1.00  0.00     0.029 A 
ATOM     35  C   UNL A   1      39.141  33.047  35.084  1.00  0.00     0.049 A 
ATOM     36  H   UNL A   1      39.767  31.660  33.629  1.00  0.00     0.167 HD
ATOM     37  C   UNL A   1      41.068  31.909  36.197  1.00  0.00     0.074 A 
ATOM     38  C   UNL A   1      41.974  31.724  37.316  1.00  0.00     0.031 C 
ATOM     39  C   UNL A   1      40.053  32.809  36.177  1.00  0.00     0.037 A 
BRANCH  26  40
ATOM     40  C   UNL A   1      36.687  32.920  30.951  1.00  0.00     0.058 A 
ATOM     41  C   UNL A   1      36.919  33.821  29.896  1.00  0.00     0.135 A 
ATOM     42  C   UNL A   1      35.352  32.655  31.297  1.00  0.00     0.135 A 
ATOM     43  F   UNL A   1      38.176  34.138  29.540  1.00  0.00    -0.206 F 
ATOM     44  C   UNL A   1      35.876  34.491  29.266  1.00  0.00     0.059 A 
ATOM     45  C   UNL A   1      34.291  33.282  30.652  1.00  0.00     0.059 A 
ATOM     46  F   UNL A   1      35.069  31.808  32.298  1.00  0.00    -0.206 F 
ATOM     47  C   UNL A   1      34.565  34.222  29.659  1.00  0.00     0.060 A 
BRANCH  47  48
ATOM     48  S   UNL A   1      33.225  35.138  28.869  1.00  0.00     0.124 S 
ATOM     49  O   UNL A   1      32.394  35.484  30.018  1.00  0.00    -0.237 OA
ATOM     50  O   UNL A   1      33.935  36.249  28.244  1.00  0.00    -0.237 OA
ATOM     51  O   UNL A   1      32.649  34.166  27.945  1.00  0.00    -0.744 OA
ENDBRANCH  47  48
ENDBRANCH  26  40
BRANCH  27  52
ATOM     52  C   UNL A   1      44.425  28.600  35.818  1.00  0.00     0.058 A 
ATOM     53  C   UNL A   1      45.729  29.113  35.713  1.00  0.00     0.135 A 
ATOM     54  C   UNL A   1      44.238  27.480  36.645  1.00  0.00     0.135 A 
ATOM     55  F   UNL A   1      45.965  30.184  34.941  1.00  0.00    -0.206 F 
ATOM     56  C   UNL A   1      46.802  28.535  36.387  1.00  0.00     0.059 A 
ATOM     57  C   UNL A   1      45.291  26.898  37.348  1.00  0.00     0.059 A 
ATOM     58  F   UNL A   1      43.012  26.962  36.814  1.00  0.00    -0.206 F 
ATOM     59  C   UNL A   1      46.572  27.429  37.206  1.00  0.00     0.060 A 
BRANCH  59  60
ATOM     60  S   UNL A   1      47.963  26.727  38.122  1.00  0.00     0.124 S 
ATOM     61  O   UNL A   1      48.377  25.639  37.243  1.00  0.00    -0.237 OA
ATOM     62  O   UNL A   1      48.872  27.865  38.206  1.00  0.00    -0.237 OA
ATOM     63  O   UNL A   1      47.357  26.323  39.387  1.00  0.00    -0.744 OA
ENDBRANCH  59  60
ENDBRANCH  27  52
BRANCH  39  64
ATOM     64  C   UNL A   1      39.834  33.612  37.424  1.00  0.00     0.058 A 
ATOM     65  C   UNL A   1      40.447  34.858  37.619  1.00  0.00     0.135 A 
ATOM     66  C   UNL A   1      38.935  33.154  38.398  1.00  0.00     0.135 A 
ATOM     67  F   UNL A   1      41.323  35.331  36.718  1.00  0.00    -0.206 F 
ATOM     68  C   UNL A   1      40.187  35.618  38.752  1.00  0.00     0.059 A 
ATOM     69  C   UNL A   1      38.633  33.913  39.520  1.00  0.00     0.059 A 
ATOM     70  F   UNL A   1      38.317  31.972  38.248  1.00  0.00    -0.206 F 
ATOM     71  C   UNL A   1      39.272  35.140  39.693  1.00  0.00     0.060 A 
BRANCH  71  72
ATOM     72  S   UNL A   1      38.903  36.161  41.132  1.00  0.00     0.124 S 
ATOM     73  O   UNL A   1      38.768  37.481  40.526  1.00  0.00    -0.237 OA
ATOM     74  O   UNL A   1      37.669  35.560  41.630  1.00  0.00    -0.237 OA
ATOM     75  O   UNL A   1      40.072  35.977  41.986  1.00  0.00    -0.744 OA
ENDBRANCH  71  72
ENDBRANCH  39  64
ENDBRANCH  13  14
ENDBRANCH   6   8
ENDBRANCH   5   6
ENDBRANCH   4   5
ENDBRANCH   3   4
ENDBRANCH   2   3
ENDBRANCH   1   2
BRANCH   1  76
ATOM     76  C   UNL A   1      40.962  20.173  26.218  1.00  0.00     0.188 C 
BRANCH  76  77
ATOM     77  O   UNL A   1      39.983  20.904  26.942  1.00  0.00    -0.376 OA
BRANCH  77  78
ATOM     78  C   UNL A   1      39.366  21.992  26.263  1.00  0.00     0.202 C 
BRANCH  78  79
ATOM     79  C   UNL A   1      38.205  21.706  25.288  1.00  0.00     0.261 C 
BRANCH  79  80
ATOM     80  O   UNL A   1      36.857  21.785  25.799  1.00  0.00    -0.460 OA
BRANCH  80  81
ATOM     81  C   UNL A   1      36.014  20.851  25.289  1.00  0.00     0.338 C 
ATOM     82  O   UNL A   1      36.320  19.742  24.880  1.00  0.00    -0.246 OA
BRANCH  81  83
ATOM     83  C   UNL A   1      34.627  21.350  25.169  1.00  0.00     0.060 A 
ATOM     84  C   UNL A   1      33.665  20.378  24.825  1.00  0.00     0.018 A 
ATOM     85  C   UNL A   1      34.242  22.618  25.661  1.00  0.00     0.022 A 
ATOM     86  C   UNL A   1      32.309  20.626  25.023  1.00  0.00     0.027 A 
ATOM     87  C   UNL A   1      32.882  22.861  25.846  1.00  0.00    -0.011 A 
ATOM     88  C   UNL A   1      31.960  21.848  25.559  1.00  0.00     0.045 A 
ATOM     89  C   UNL A   1      32.142  24.009  26.523  1.00  0.00     0.114 C 
ATOM     90  N   UNL A   1      30.704  22.190  26.020  1.00  0.00    -0.325 N 
ATOM     91  C   UNL A   1      30.725  23.393  26.706  1.00  0.00     0.232 C 
ATOM     92  H   UNL A   1      29.895  21.647  25.879  1.00  0.00     0.169 HD
ATOM     93  O   UNL A   1      29.798  23.851  27.345  1.00  0.00    -0.274 OA
BRANCH  89  94
ATOM     94  C   UNL A   1      32.069  25.361  25.761  1.00  0.00     0.010 C 
ATOM     95  C   UNL A   1      31.789  25.150  24.253  1.00  0.00     0.033 C 
ATOM     96  C   UNL A   1      33.330  26.230  25.931  1.00  0.00     0.033 C 
ATOM     97  C   UNL A   1      31.877  26.441  23.449  1.00  0.00     0.160 C 
ATOM     98  C   UNL A   1      33.312  27.440  25.006  1.00  0.00     0.160 C 
ATOM     99  O   UNL A   1      33.147  27.054  23.648  1.00  0.00    -0.381 OA
ENDBRANCH  89  94
ENDBRANCH  81  83
ENDBRANCH  80  81
ENDBRANCH  79  80
ENDBRANCH  78  79
ENDBRANCH  77  78
ENDBRANCH  76  77
ENDBRANCH   1  76
TORSDOF 21
ENDMDL
MODEL 2
REMARK VINA RESULT:     -11.1      0.613      8.124
REMARK SMILES O=C(OCCOCCOCCOC(=O)c1ccc2c(c1)[C@@H](C1CCOCC1)C(=O)N2)c1ccc(-c2c3nc(c(-c4c(F)cc(S(=O)(=O)[O-])cc4F)c4ccc([nH]4)c(-c4c(F)cc(S(=O)(=O)[O-])cc4F)c4nc(c(-c5c(F)cc(S(=O)(=O)[O-])cc5F)c5ccc2[nH]5)C=C4)C=C3)cc1
REMARK SMILES IDX 7 1 6 2 5 3 4 4 3 5 2 6 1 7 31 8 32 9 96 10 33 11 95 12
REMARK SMILES IDX 34 13 35 14 36 15 89 16 37 17 94 18 88 19 90 20 38 21 93 22
REMARK SMILES IDX 87 23 86 24 39 26 73 27 52 28 72 29 53 30 56 31 71 32 91 33
REMARK SMILES IDX 54 34 55 35 70 37 92 38 57 39 40 40 41 41 50 42 42 43 43 44
REMARK SMILES IDX 49 45 51 46 44 47 45 48 46 49 47 50 48 51 74 52 75 53 84 54
REMARK SMILES IDX 76 55 77 56 83 57 85 58 78 59 79 60 80 61 81 62 82 63 58 64
REMARK SMILES IDX 59 65 68 66 60 67 61 68 67 69 69 70 62 71 63 72 64 73 65 74
REMARK SMILES IDX 66 75 8 76 9 77 10 78 11 79 12 80 13 81 14 82 15 83 16 84
REMARK SMILES IDX 20 85 17 86 19 87 18 88 21 89 30 90 28 91 29 93 22 94 23 95
REMARK SMILES IDX 27 96 24 97 26 98 25 99
REMARK H PARENT 90 25 56 36 30 92
REMARK Flexibility Score: inf
ROOT
ATOM      1  C   UNL A   1      42.196  19.838  26.235  1.00  0.00     0.188 C 
ENDROOT
BRANCH   1   2
ATOM      2  O   UNL A   1      42.641  20.930  25.439  1.00  0.00    -0.376 OA
BRANCH   2   3
ATOM      3  C   UNL A   1      43.369  21.978  26.078  1.00  0.00     0.202 C 
BRANCH   3   4
ATOM      4  C   UNL A   1      43.080  23.439  25.691  1.00  0.00     0.261 C 
BRANCH   4   5
ATOM      5  O   UNL A   1      41.899  24.010  26.275  1.00  0.00    -0.460 OA
BRANCH   5   6
ATOM      6  C   UNL A   1      41.453  25.280  26.121  1.00  0.00     0.338 C 
ATOM      7  O   UNL A   1      41.205  25.718  25.002  1.00  0.00    -0.246 OA
BRANCH   6   8
ATOM      8  C   UNL A   1      41.248  26.166  27.287  1.00  0.00     0.060 A 
ATOM      9  C   UNL A   1      40.446  25.843  28.380  1.00  0.00     0.016 A 
ATOM     10  C   UNL A   1      41.994  27.336  27.333  1.00  0.00     0.016 A 
ATOM     11  C   UNL A   1      40.242  26.729  29.424  1.00  0.00     0.010 A 
ATOM     12  C   UNL A   1      41.887  28.171  28.443  1.00  0.00     0.010 A 
ATOM     13  C   UNL A   1      40.991  27.893  29.488  1.00  0.00    -0.014 A 
BRANCH  13  14
ATOM     14  C   UNL A   1      40.789  28.856  30.595  1.00  0.00     0.031 A 
ATOM     15  C   UNL A   1      41.727  28.778  31.762  1.00  0.00     0.074 A 
ATOM     16  C   UNL A   1      39.803  29.776  30.553  1.00  0.00     0.049 A 
ATOM     17  N   UNL A   1      41.641  29.343  32.933  1.00  0.00    -0.248 NA
ATOM     18  C   UNL A   1      42.893  27.888  31.609  1.00  0.00     0.031 C 
ATOM     19  C   UNL A   1      38.865  29.974  29.444  1.00  0.00     0.029 A 
ATOM     20  N   UNL A   1      39.435  30.739  31.458  1.00  0.00    -0.354 N 
ATOM     21  C   UNL A   1      42.688  28.808  33.673  1.00  0.00     0.074 A 
ATOM     22  C   UNL A   1      43.337  27.817  32.850  1.00  0.00     0.031 C 
ATOM     23  C   UNL A   1      38.083  31.032  29.705  1.00  0.00     0.029 A 
ATOM     24  C   UNL A   1      38.386  31.525  31.037  1.00  0.00     0.049 A 
ATOM     25  H   UNL A   1      39.879  30.857  32.328  1.00  0.00     0.167 HD
ATOM     26  C   UNL A   1      43.095  29.148  34.916  1.00  0.00     0.037 A 
ATOM     27  C   UNL A   1      37.730  32.518  31.665  1.00  0.00     0.037 A 
ATOM     28  C   UNL A   1      42.477  30.202  35.669  1.00  0.00     0.049 A 
ATOM     29  C   UNL A   1      38.184  32.873  33.053  1.00  0.00     0.074 A 
ATOM     30  C   UNL A   1      42.800  30.672  36.925  1.00  0.00     0.029 A 
ATOM     31  N   UNL A   1      41.410  30.967  35.209  1.00  0.00    -0.354 N 
ATOM     32  N   UNL A   1      39.158  32.343  33.756  1.00  0.00    -0.248 NA
ATOM     33  C   UNL A   1      37.459  33.950  33.734  1.00  0.00     0.031 C 
ATOM     34  C   UNL A   1      41.899  31.694  37.244  1.00  0.00     0.029 A 
ATOM     35  C   UNL A   1      41.054  31.902  36.161  1.00  0.00     0.049 A 
ATOM     36  H   UNL A   1      40.973  30.858  34.334  1.00  0.00     0.167 HD
ATOM     37  C   UNL A   1      39.189  33.046  34.953  1.00  0.00     0.074 A 
ATOM     38  C   UNL A   1      38.137  34.043  34.870  1.00  0.00     0.031 C 
ATOM     39  C   UNL A   1      40.010  32.889  36.021  1.00  0.00     0.037 A 
BRANCH  26  40
ATOM     40  C   UNL A   1      44.223  28.346  35.503  1.00  0.00     0.058 A 
ATOM     41  C   UNL A   1      45.571  28.606  35.190  1.00  0.00     0.135 A 
ATOM     42  C   UNL A   1      43.948  27.235  36.315  1.00  0.00     0.135 A 
ATOM     43  F   UNL A   1      45.894  29.637  34.391  1.00  0.00    -0.206 F 
ATOM     44  C   UNL A   1      46.591  27.753  35.596  1.00  0.00     0.059 A 
ATOM     45  C   UNL A   1      44.958  26.392  36.768  1.00  0.00     0.059 A 
ATOM     46  F   UNL A   1      42.682  26.935  36.644  1.00  0.00    -0.206 F 
ATOM     47  C   UNL A   1      46.272  26.642  36.377  1.00  0.00     0.060 A 
BRANCH  47  48
ATOM     48  S   UNL A   1      47.600  25.516  36.854  1.00  0.00     0.124 S 
ATOM     49  O   UNL A   1      48.780  26.344  36.619  1.00  0.00    -0.237 OA
ATOM     50  O   UNL A   1      47.289  25.242  38.252  1.00  0.00    -0.237 OA
ATOM     51  O   UNL A   1      47.432  24.388  35.943  1.00  0.00    -0.744 OA
ENDBRANCH  47  48
ENDBRANCH  26  40
BRANCH  27  52
ATOM     52  C   UNL A   1      36.614  33.242  30.991  1.00  0.00     0.058 A 
ATOM     53  C   UNL A   1      35.286  33.080  31.420  1.00  0.00     0.135 A 
ATOM     54  C   UNL A   1      36.844  34.133  29.929  1.00  0.00     0.135 A 
ATOM     55  F   UNL A   1      35.008  32.247  32.434  1.00  0.00    -0.206 F 
ATOM     56  C   UNL A   1      34.231  33.760  30.817  1.00  0.00     0.059 A 
ATOM     57  C   UNL A   1      35.808  34.841  29.324  1.00  0.00     0.059 A 
ATOM     58  F   UNL A   1      38.093  34.356  29.493  1.00  0.00    -0.206 F 
ATOM     59  C   UNL A   1      34.503  34.643  29.771  1.00  0.00     0.060 A 
BRANCH  59  60
ATOM     60  S   UNL A   1      33.132  35.563  29.037  1.00  0.00     0.124 S 
ATOM     61  O   UNL A   1      33.831  36.653  28.368  1.00  0.00    -0.237 OA
ATOM     62  O   UNL A   1      32.528  34.559  28.167  1.00  0.00    -0.237 OA
ATOM     63  O   UNL A   1      32.328  35.941  30.195  1.00  0.00    -0.744 OA
ENDBRANCH  59  60
ENDBRANCH  27  52
BRANCH  39  64
ATOM     64  C   UNL A   1      39.843  33.857  37.153  1.00  0.00     0.058 A 
ATOM     65  C   UNL A   1      40.551  35.067  37.204  1.00  0.00     0.135 A 
ATOM     66  C   UNL A   1      38.898  33.598  38.158  1.00  0.00     0.135 A 
ATOM     67  F   UNL A   1      41.472  35.352  36.269  1.00  0.00    -0.206 F 
ATOM     68  C   UNL A   1      40.340  35.981  38.227  1.00  0.00     0.059 A 
ATOM     69  C   UNL A   1      38.646  34.513  39.170  1.00  0.00     0.059 A 
ATOM     70  F   UNL A   1      38.190  32.457  38.143  1.00  0.00    -0.206 F 
ATOM     71  C   UNL A   1      39.379  35.698  39.201  1.00  0.00     0.060 A 
BRANCH  71  72
ATOM     72  S   UNL A   1      39.078  36.918  40.494  1.00  0.00     0.124 S 
ATOM     73  O   UNL A   1      38.354  36.124  41.481  1.00  0.00    -0.237 OA
ATOM     74  O   UNL A   1      40.432  37.316  40.866  1.00  0.00    -0.237 OA
ATOM     75  O   UNL A   1      38.293  37.945  39.814  1.00  0.00    -0.744 OA
ENDBRANCH  71  72
ENDBRANCH  39  64
ENDBRANCH  13  14
ENDBRANCH   6   8
ENDBRANCH   5   6
ENDBRANCH   4   5
ENDBRANCH   3   4
ENDBRANCH   2   3
ENDBRANCH   1   2
BRANCH   1  76
ATOM     76  C   UNL A   1      40.695  19.884  26.529  1.00  0.00     0.188 C 
BRANCH  76  77
ATOM     77  O   UNL A   1      40.185  21.088  27.083  1.00  0.00    -0.376 OA
BRANCH  77  78
ATOM     78  C   UNL A   1      39.231  21.797  26.302  1.00  0.00     0.202 C 
BRANCH  78  79
ATOM     79  C   UNL A   1      38.290  21.007  25.368  1.00  0.00     0.261 C 
BRANCH  79  80
ATOM     80  O   UNL A   1      36.952  21.512  25.170  1.00  0.00    -0.460 OA
BRANCH  80  81
ATOM     81  C   UNL A   1      36.010  20.546  25.026  1.00  0.00     0.338 C 
ATOM     82  O   UNL A   1      36.211  19.351  24.870  1.00  0.00    -0.246 OA
BRANCH  81  83
ATOM     83  C   UNL A   1      34.639  21.100  24.968  1.00  0.00     0.060 A 
ATOM     84  C   UNL A   1      33.630  20.176  24.627  1.00  0.00     0.018 A 
ATOM     85  C   UNL A   1      34.320  22.365  25.512  1.00  0.00     0.022 A 
ATOM     86  C   UNL A   1      32.292  20.468  24.878  1.00  0.00     0.027 A 
ATOM     87  C   UNL A   1      32.977  22.653  25.750  1.00  0.00    -0.011 A 
ATOM     88  C   UNL A   1      32.008  21.684  25.463  1.00  0.00     0.045 A 
ATOM     89  C   UNL A   1      32.304  23.805  26.487  1.00  0.00     0.114 C 
ATOM     90  N   UNL A   1      30.782  22.058  25.977  1.00  0.00    -0.325 N 
ATOM     91  C   UNL A   1      30.871  23.236  26.698  1.00  0.00     0.232 C 
ATOM     92  H   UNL A   1      29.948  21.550  25.847  1.00  0.00     0.169 HD
ATOM     93  O   UNL A   1      29.984  23.709  27.382  1.00  0.00    -0.274 OA
BRANCH  89  94
ATOM     94  C   UNL A   1      32.259  25.183  25.770  1.00  0.00     0.010 C 
ATOM     95  C   UNL A   1      31.707  25.056  24.328  1.00  0.00     0.033 C 
ATOM     96  C   UNL A   1      33.621  25.902  25.736  1.00  0.00     0.033 C 
ATOM     97  C   UNL A   1      31.805  26.358  23.542  1.00  0.00     0.160 C 
ATOM     98  C   UNL A   1      33.585  27.139  24.847  1.00  0.00     0.160 C 
ATOM     99  O   UNL A   1      33.151  26.820  23.531  1.00  0.00    -0.381 OA
ENDBRANCH  89  94
ENDBRANCH  81  83
ENDBRANCH  80  81
ENDBRANCH  79  80
ENDBRANCH  78  79
ENDBRANCH  77  78
ENDBRANCH  76  77
ENDBRANCH   1  76
TORSDOF 21
ENDMDL
MODEL 3
REMARK VINA RESULT:     -10.8      6.412     11.106
REMARK SMILES O=C(OCCOCCOCCOC(=O)c1ccc2c(c1)[C@@H](C1CCOCC1)C(=O)N2)c1ccc(-c2c3nc(c(-c4c(F)cc(S(=O)(=O)[O-])cc4F)c4ccc([nH]4)c(-c4c(F)cc(S(=O)(=O)[O-])cc4F)c4nc(c(-c5c(F)cc(S(=O)(=O)[O-])cc5F)c5ccc2[nH]5)C=C4)C=C3)cc1
REMARK SMILES IDX 7 1 6 2 5 3 4 4 3 5 2 6 1 7 31 8 32 9 96 10 33 11 95 12
REMARK SMILES IDX 34 13 35 14 36 15 89 16 37 17 94 18 88 19 90 20 38 21 93 22
REMARK SMILES IDX 87 23 86 24 39 26 73 27 52 28 72 29 53 30 56 31 71 32 91 33
REMARK SMILES IDX 54 34 55 35 70 37 92 38 57 39 40 40 41 41 50 42 42 43 43 44
REMARK SMILES IDX 49 45 51 46 44 47 45 48 46 49 47 50 48 51 74 52 75 53 84 54
REMARK SMILES IDX 76 55 77 56 83 57 85 58 78 59 79 60 80 61 81 62 82 63 58 64
REMARK SMILES IDX 59 65 68 66 60 67 61 68 67 69 69 70 62 71 63 72 64 73 65 74
REMARK SMILES IDX 66 75 8 76 9 77 10 78 11 79 12 80 13 81 14 82 15 83 16 84
REMARK SMILES IDX 20 85 17 86 19 87 18 88 21 89 30 90 28 91 29 93 22 94 23 95
REMARK SMILES IDX 27 96 24 97 26 98 25 99
REMARK H PARENT 90 25 56 36 30 92
REMARK Flexibility Score: inf
ROOT
ATOM      1  C   UNL A   1      41.815  21.540  27.575  1.00  0.00     0.188 C 
ENDROOT
BRANCH   1   2
ATOM      2  O   UNL A   1      42.213  20.175  27.543  1.00  0.00    -0.376 OA
BRANCH   2   3
ATOM      3  C   UNL A   1      41.858  19.396  26.401  1.00  0.00     0.202 C 
BRANCH   3   4
ATOM      4  C   UNL A   1      42.899  18.441  25.790  1.00  0.00     0.261 C 
BRANCH   4   5
ATOM      5  O   UNL A   1      43.479  18.874  24.549  1.00  0.00    -0.460 OA
BRANCH   5   6
ATOM      6  C   UNL A   1      44.651  19.536  24.391  1.00  0.00     0.338 C 
ATOM      7  O   UNL A   1      45.636  18.952  23.946  1.00  0.00    -0.246 OA
BRANCH   6   8
ATOM      8  C   UNL A   1      44.776  20.966  24.742  1.00  0.00     0.060 A 
ATOM      9  C   UNL A   1      44.333  22.009  23.930  1.00  0.00     0.016 A 
ATOM     10  C   UNL A   1      45.264  21.269  26.006  1.00  0.00     0.016 A 
ATOM     11  C   UNL A   1      44.522  23.336  24.277  1.00  0.00     0.010 A 
ATOM     12  C   UNL A   1      45.337  22.601  26.409  1.00  0.00     0.010 A 
ATOM     13  C   UNL A   1      44.993  23.651  25.542  1.00  0.00    -0.014 A 
BRANCH  13  14
ATOM     14  C   UNL A   1      45.204  25.064  25.934  1.00  0.00     0.031 A 
ATOM     15  C   UNL A   1      46.569  25.645  25.721  1.00  0.00     0.074 A 
ATOM     16  C   UNL A   1      44.204  25.803  26.457  1.00  0.00     0.049 A 
ATOM     17  N   UNL A   1      47.073  26.760  26.168  1.00  0.00    -0.248 NA
ATOM     18  C   UNL A   1      47.520  24.824  24.949  1.00  0.00     0.031 C 
ATOM     19  C   UNL A   1      42.824  25.354  26.660  1.00  0.00     0.029 A 
ATOM     20  N   UNL A   1      44.184  27.103  26.894  1.00  0.00    -0.354 N 
ATOM     21  C   UNL A   1      48.413  26.727  25.804  1.00  0.00     0.074 A 
ATOM     22  C   UNL A   1      48.659  25.450  25.180  1.00  0.00     0.031 C 
ATOM     23  C   UNL A   1      42.083  26.377  27.113  1.00  0.00     0.029 A 
ATOM     24  C   UNL A   1      42.948  27.522  27.332  1.00  0.00     0.049 A 
ATOM     25  H   UNL A   1      44.979  27.682  26.894  1.00  0.00     0.167 HD
ATOM     26  C   UNL A   1      49.343  27.696  25.941  1.00  0.00     0.037 A 
ATOM     27  C   UNL A   1      42.562  28.694  27.871  1.00  0.00     0.037 A 
ATOM     28  C   UNL A   1      49.037  28.988  26.487  1.00  0.00     0.049 A 
ATOM     29  C   UNL A   1      43.612  29.757  28.033  1.00  0.00     0.074 A 
ATOM     30  C   UNL A   1      49.871  30.073  26.662  1.00  0.00     0.029 A 
ATOM     31  N   UNL A   1      47.774  29.368  26.929  1.00  0.00    -0.354 N 
ATOM     32  N   UNL A   1      44.884  29.706  27.711  1.00  0.00    -0.248 NA
ATOM     33  C   UNL A   1      43.186  31.027  28.627  1.00  0.00     0.031 C 
ATOM     34  C   UNL A   1      49.121  31.097  27.251  1.00  0.00     0.029 A 
ATOM     35  C   UNL A   1      47.806  30.671  27.387  1.00  0.00     0.049 A 
ATOM     36  H   UNL A   1      46.975  28.793  26.918  1.00  0.00     0.167 HD
ATOM     37  C   UNL A   1      45.407  30.951  28.030  1.00  0.00     0.074 A 
ATOM     38  C   UNL A   1      44.307  31.733  28.565  1.00  0.00     0.031 C 
ATOM     39  C   UNL A   1      46.675  31.413  27.891  1.00  0.00     0.037 A 
BRANCH  26  40
ATOM     40  C   UNL A   1      50.746  27.356  25.519  1.00  0.00     0.058 A 
ATOM     41  C   UNL A   1      51.730  26.950  26.439  1.00  0.00     0.135 A 
ATOM     42  C   UNL A   1      51.140  27.536  24.183  1.00  0.00     0.135 A 
ATOM     43  F   UNL A   1      51.419  26.792  27.737  1.00  0.00    -0.206 F 
ATOM     44  C   UNL A   1      53.062  26.809  26.068  1.00  0.00     0.059 A 
ATOM     45  C   UNL A   1      52.460  27.360  23.781  1.00  0.00     0.059 A 
ATOM     46  F   UNL A   1      50.247  27.927  23.261  1.00  0.00    -0.206 F 
ATOM     47  C   UNL A   1      53.419  27.027  24.737  1.00  0.00     0.060 A 
BRANCH  47  48
ATOM     48  S   UNL A   1      55.160  26.890  24.280  1.00  0.00     0.124 S 
ATOM     49  O   UNL A   1      55.736  28.028  24.992  1.00  0.00    -0.237 OA
ATOM     50  O   UNL A   1      55.515  25.574  24.800  1.00  0.00    -0.237 OA
ATOM     51  O   UNL A   1      55.139  27.003  22.825  1.00  0.00    -0.744 OA
ENDBRANCH  47  48
ENDBRANCH  26  40
BRANCH  27  52
ATOM     52  C   UNL A   1      41.142  28.921  28.266  1.00  0.00     0.058 A 
ATOM     53  C   UNL A   1      40.753  28.873  29.615  1.00  0.00     0.135 A 
ATOM     54  C   UNL A   1      40.149  29.223  27.320  1.00  0.00     0.135 A 
ATOM     55  F   UNL A   1      41.660  28.595  30.563  1.00  0.00    -0.206 F 
ATOM     56  C   UNL A   1      39.436  29.100  30.008  1.00  0.00     0.059 A 
ATOM     57  C   UNL A   1      38.830  29.476  27.690  1.00  0.00     0.059 A 
ATOM     58  F   UNL A   1      40.462  29.316  26.018  1.00  0.00    -0.206 F 
ATOM     59  C   UNL A   1      38.482  29.406  29.038  1.00  0.00     0.060 A 
BRANCH  59  60
ATOM     60  S   UNL A   1      36.790  29.757  29.567  1.00  0.00     0.124 S 
ATOM     61  O   UNL A   1      36.687  28.954  30.780  1.00  0.00    -0.237 OA
ATOM     62  O   UNL A   1      36.829  31.203  29.757  1.00  0.00    -0.237 OA
ATOM     63  O   UNL A   1      35.987  29.302  28.436  1.00  0.00    -0.744 OA
ENDBRANCH  59  60
ENDBRANCH  27  52
BRANCH  39  64
ATOM     64  C   UNL A   1      46.921  32.843  28.266  1.00  0.00     0.058 A 
ATOM     65  C   UNL A   1      47.362  33.208  29.546  1.00  0.00     0.135 A 
ATOM     66  C   UNL A   1      46.786  33.850  27.297  1.00  0.00     0.135 A 
ATOM     67  F   UNL A   1      47.496  32.280  30.507  1.00  0.00    -0.206 F 
ATOM     68  C   UNL A   1      47.644  34.531  29.859  1.00  0.00     0.059 A 
ATOM     69  C   UNL A   1      47.097  35.173  27.579  1.00  0.00     0.059 A 
ATOM     70  F   UNL A   1      46.377  33.545  26.056  1.00  0.00    -0.206 F 
ATOM     71  C   UNL A   1      47.515  35.505  28.866  1.00  0.00     0.060 A 
BRANCH  71  72
ATOM     72  S   UNL A   1      47.936  37.210  29.271  1.00  0.00     0.124 S 
ATOM     73  O   UNL A   1      47.341  37.932  28.152  1.00  0.00    -0.237 OA
ATOM     74  O   UNL A   1      47.284  37.391  30.564  1.00  0.00    -0.237 OA
ATOM     75  O   UNL A   1      49.396  37.199  29.308  1.00  0.00    -0.744 OA
ENDBRANCH  71  72
ENDBRANCH  39  64
ENDBRANCH  13  14
ENDBRANCH   6   8
ENDBRANCH   5   6
ENDBRANCH   4   5
ENDBRANCH   3   4
ENDBRANCH   2   3
ENDBRANCH   1   2
BRANCH   1  76
ATOM     76  C   UNL A   1      41.145  21.999  26.278  1.00  0.00     0.188 C 
BRANCH  76  77
ATOM     77  O   UNL A   1      39.781  22.386  26.362  1.00  0.00    -0.376 OA
BRANCH  77  78
ATOM     78  C   UNL A   1      38.835  21.531  25.730  1.00  0.00     0.202 C 
BRANCH  78  79
ATOM     79  C   UNL A   1      37.649  22.159  24.968  1.00  0.00     0.261 C 
BRANCH  79  80
ATOM     80  O   UNL A   1      36.419  22.378  25.691  1.00  0.00    -0.460 OA
BRANCH  80  81
ATOM     81  C   UNL A   1      35.396  21.575  25.303  1.00  0.00     0.338 C 
ATOM     82  O   UNL A   1      35.449  20.370  25.113  1.00  0.00    -0.246 OA
BRANCH  81  83
ATOM     83  C   UNL A   1      34.161  22.336  25.013  1.00  0.00     0.060 A 
ATOM     84  C   UNL A   1      33.193  21.648  24.252  1.00  0.00     0.018 A 
ATOM     85  C   UNL A   1      33.840  23.530  25.699  1.00  0.00     0.022 A 
ATOM     86  C   UNL A   1      31.876  22.100  24.211  1.00  0.00     0.027 A 
ATOM     87  C   UNL A   1      32.521  23.980  25.643  1.00  0.00    -0.011 A 
ATOM     88  C   UNL A   1      31.572  23.233  24.935  1.00  0.00     0.045 A 
ATOM     89  C   UNL A   1      31.796  25.087  26.400  1.00  0.00     0.114 C 
ATOM     90  N   UNL A   1      30.299  23.704  25.187  1.00  0.00    -0.325 N 
ATOM     91  C   UNL A   1      30.309  24.720  26.127  1.00  0.00     0.232 C 
ATOM     92  H   UNL A   1      29.484  23.359  24.753  1.00  0.00     0.169 HD
ATOM     93  O   UNL A   1      29.323  25.206  26.645  1.00  0.00    -0.274 OA
BRANCH  89  94
ATOM     94  C   UNL A   1      32.097  26.553  25.983  1.00  0.00     0.010 C 
ATOM     95  C   UNL A   1      31.624  26.841  24.537  1.00  0.00     0.033 C 
ATOM     96  C   UNL A   1      33.582  26.939  26.124  1.00  0.00     0.033 C 
ATOM     97  C   UNL A   1      32.052  28.217  24.039  1.00  0.00     0.160 C 
ATOM     98  C   UNL A   1      33.872  28.303  25.509  1.00  0.00     0.160 C 
ATOM     99  O   UNL A   1      33.465  28.357  24.148  1.00  0.00    -0.381 OA
ENDBRANCH  89  94
ENDBRANCH  81  83
ENDBRANCH  80  81
ENDBRANCH  79  80
ENDBRANCH  78  79
ENDBRANCH  77  78
ENDBRANCH  76  77
ENDBRANCH   1  76
TORSDOF 21
ENDMDL
