MODEL 1
REMARK VINA RESULT:      -8.6      0.000      0.000
REMARK SMILES C#CC[N@H+](CC(=O)OCCOCCOCCOC(=O)c1ccc(-c2c3nc(c(-c4c(F)cc(S(=O)(=O)[O-])cc4F)c4ccc([nH]4)c(-c4c(F)cc(S(=O)(=O)[O-])cc4F)c4nc(c(-c5c(F)cc(S(=O)(=O)[O-])cc5F)c5ccc2[nH]5)C=C4)C=C3)cc1)[C@H]1CCO[C@@H](C(C)C)C1
REMARK SMILES IDX 12 1 11 2 10 3 9 4 8 5 6 6 7 7 5 8 4 9 3 11 2 12 1 13 86 14
REMARK SMILES IDX 87 15 94 16 88 17 90 18 89 19 91 20 92 21 93 22 13 23 14 24
REMARK SMILES IDX 15 25 16 26 17 27 18 28 19 29 20 30 21 31 85 32 22 33 84 34
REMARK SMILES IDX 23 35 24 36 25 37 78 38 26 39 83 40 77 41 79 42 27 43 82 44
REMARK SMILES IDX 76 45 75 46 28 48 62 49 41 50 61 51 42 52 45 53 60 54 80 55
REMARK SMILES IDX 43 56 44 57 59 59 81 60 46 61 29 62 30 63 39 64 31 65 32 66
REMARK SMILES IDX 38 67 40 68 33 69 34 70 35 71 36 72 37 73 63 74 64 75 73 76
REMARK SMILES IDX 65 77 66 78 72 79 74 80 67 81 68 82 69 83 70 84 71 85 47 86
REMARK SMILES IDX 48 87 57 88 49 89 50 90 56 91 58 92 51 93 52 94 53 95 54 96
REMARK SMILES IDX 55 97
REMARK H PARENT 4 10 79 47 45 58
REMARK Flexibility Score: inf
ROOT
ATOM      1  C   UNL A   1      35.972  32.713  28.709  1.00  0.00     0.188 C 
ENDROOT
BRANCH   1   2
ATOM      2  O   UNL A   1      35.131  32.262  27.650  1.00  0.00    -0.376 OA
BRANCH   2   3
ATOM      3  C   UNL A   1      34.030  31.417  27.958  1.00  0.00     0.202 C 
BRANCH   3   4
ATOM      4  C   UNL A   1      33.469  30.593  26.800  1.00  0.00     0.261 C 
BRANCH   4   5
ATOM      5  O   UNL A   1      34.236  29.392  26.582  1.00  0.00    -0.459 OA
BRANCH   5   6
ATOM      6  C   UNL A   1      33.764  28.565  25.629  1.00  0.00     0.361 C 
ATOM      7  O   UNL A   1      34.230  28.515  24.492  1.00  0.00    -0.245 OA
BRANCH   6   8
ATOM      8  C   UNL A   1      32.634  27.621  26.036  1.00  0.00     0.387 C 
BRANCH   8   9
ATOM      9  N   UNL A   1      32.303  26.320  25.307  1.00  0.00    -0.313 N 
ATOM     10  H   UNL A   1      32.939  26.088  24.545  1.00  0.00     0.349 HD
BRANCH   9  11
ATOM     11  C   UNL A   1      32.409  25.202  26.293  1.00  0.00     0.354 C 
BRANCH  11  12
ATOM     12  C   UNL A   1      33.606  24.283  26.105  1.00  0.00    -0.047 C 
ATOM     13  C   UNL A   1      34.632  23.496  25.945  1.00  0.00     0.010 C 
ENDBRANCH  11  12
ENDBRANCH   9  11
BRANCH   9  14
ATOM     14  C   UNL A   1      30.906  26.513  24.715  1.00  0.00     0.190 C 
ATOM     15  C   UNL A   1      30.605  27.962  24.222  1.00  0.00     0.093 C 
ATOM     16  C   UNL A   1      30.401  25.643  23.527  1.00  0.00     0.097 C 
ATOM     17  C   UNL A   1      31.199  28.238  22.847  1.00  0.00     0.166 C 
ATOM     18  C   UNL A   1      30.977  25.948  22.144  1.00  0.00     0.126 C 
ATOM     19  O   UNL A   1      30.684  27.332  21.872  1.00  0.00    -0.377 OA
BRANCH  18  20
ATOM     20  C   UNL A   1      32.455  25.651  21.781  1.00  0.00     0.012 C 
ATOM     21  C   UNL A   1      33.090  24.382  22.341  1.00  0.00     0.010 C 
ATOM     22  C   UNL A   1      32.587  25.567  20.250  1.00  0.00     0.010 C 
ENDBRANCH  18  20
ENDBRANCH   9  14
ENDBRANCH   8   9
ENDBRANCH   6   8
ENDBRANCH   5   6
ENDBRANCH   4   5
ENDBRANCH   3   4
ENDBRANCH   2   3
ENDBRANCH   1   2
BRANCH   1  23
ATOM     23  C   UNL A   1      35.510  33.889  29.579  1.00  0.00     0.188 C 
BRANCH  23  24
ATOM     24  O   UNL A   1      35.318  33.589  30.952  1.00  0.00    -0.376 OA
BRANCH  24  25
ATOM     25  C   UNL A   1      35.274  32.194  31.232  1.00  0.00     0.202 C 
BRANCH  25  26
ATOM     26  C   UNL A   1      35.891  31.892  32.600  1.00  0.00     0.261 C 
BRANCH  26  27
ATOM     27  O   UNL A   1      37.034  31.017  32.527  1.00  0.00    -0.460 OA
BRANCH  27  28
ATOM     28  C   UNL A   1      38.228  31.584  32.791  1.00  0.00     0.338 C 
ATOM     29  O   UNL A   1      38.487  32.351  33.713  1.00  0.00    -0.246 OA
BRANCH  28  30
ATOM     30  C   UNL A   1      39.234  31.028  31.870  1.00  0.00     0.060 A 
ATOM     31  C   UNL A   1      40.106  30.037  32.326  1.00  0.00     0.016 A 
ATOM     32  C   UNL A   1      39.371  31.537  30.584  1.00  0.00     0.016 A 
ATOM     33  C   UNL A   1      41.156  29.585  31.536  1.00  0.00     0.010 A 
ATOM     34  C   UNL A   1      40.410  31.064  29.775  1.00  0.00     0.010 A 
ATOM     35  C   UNL A   1      41.325  30.108  30.257  1.00  0.00    -0.014 A 
BRANCH  35  36
ATOM     36  C   UNL A   1      42.520  29.751  29.460  1.00  0.00     0.031 A 
ATOM     37  C   UNL A   1      42.603  28.379  28.855  1.00  0.00     0.074 A 
ATOM     38  C   UNL A   1      43.517  30.635  29.274  1.00  0.00     0.049 A 
ATOM     39  N   UNL A   1      43.630  27.765  28.335  1.00  0.00    -0.248 NA
ATOM     40  C   UNL A   1      41.357  27.594  28.847  1.00  0.00     0.031 C 
ATOM     41  C   UNL A   1      43.511  32.028  29.721  1.00  0.00     0.029 A 
ATOM     42  N   UNL A   1      44.741  30.480  28.674  1.00  0.00    -0.354 N 
ATOM     43  C   UNL A   1      43.172  26.502  27.980  1.00  0.00     0.074 A 
ATOM     44  C   UNL A   1      41.771  26.442  28.341  1.00  0.00     0.031 C 
ATOM     45  C   UNL A   1      44.689  32.593  29.403  1.00  0.00     0.029 A 
ATOM     46  C   UNL A   1      45.551  31.584  28.793  1.00  0.00     0.049 A 
ATOM     47  H   UNL A   1      45.013  29.659  28.205  1.00  0.00     0.167 HD
ATOM     48  C   UNL A   1      43.864  25.486  27.414  1.00  0.00     0.037 A 
ATOM     49  C   UNL A   1      46.856  31.743  28.498  1.00  0.00     0.037 A 
ATOM     50  C   UNL A   1      45.249  25.574  27.035  1.00  0.00     0.049 A 
ATOM     51  C   UNL A   1      47.628  30.578  27.938  1.00  0.00     0.074 A 
ATOM     52  C   UNL A   1      46.047  24.603  26.455  1.00  0.00     0.029 A 
ATOM     53  N   UNL A   1      46.042  26.702  27.190  1.00  0.00    -0.354 N 
ATOM     54  N   UNL A   1      47.209  29.365  27.661  1.00  0.00    -0.248 NA
ATOM     55  C   UNL A   1      49.056  30.796  27.666  1.00  0.00     0.031 C 
ATOM     56  C   UNL A   1      47.332  25.134  26.293  1.00  0.00     0.029 A 
ATOM     57  C   UNL A   1      47.323  26.449  26.732  1.00  0.00     0.049 A 
ATOM     58  H   UNL A   1      45.736  27.558  27.569  1.00  0.00     0.167 HD
ATOM     59  C   UNL A   1      48.313  28.685  27.162  1.00  0.00     0.074 A 
ATOM     60  C   UNL A   1      49.418  29.622  27.168  1.00  0.00     0.031 C 
ATOM     61  C   UNL A   1      48.407  27.399  26.737  1.00  0.00     0.037 A 
BRANCH  48  62
ATOM     62  C   UNL A   1      43.146  24.181  27.222  1.00  0.00     0.058 A 
ATOM     63  C   UNL A   1      42.950  23.276  28.276  1.00  0.00     0.135 A 
ATOM     64  C   UNL A   1      42.633  23.841  25.960  1.00  0.00     0.135 A 
ATOM     65  F   UNL A   1      43.439  23.544  29.497  1.00  0.00    -0.206 F 
ATOM     66  C   UNL A   1      42.289  22.067  28.079  1.00  0.00     0.059 A 
ATOM     67  C   UNL A   1      41.948  22.648  25.747  1.00  0.00     0.059 A 
ATOM     68  F   UNL A   1      42.799  24.669  24.916  1.00  0.00    -0.206 F 
ATOM     69  C   UNL A   1      41.793  21.761  26.810  1.00  0.00     0.060 A 
BRANCH  69  70
ATOM     70  S   UNL A   1      40.937  20.190  26.568  1.00  0.00     0.124 S 
ATOM     71  O   UNL A   1      41.803  19.535  25.592  1.00  0.00    -0.237 OA
ATOM     72  O   UNL A   1      40.949  19.617  27.911  1.00  0.00    -0.237 OA
ATOM     73  O   UNL A   1      39.624  20.591  26.072  1.00  0.00    -0.744 OA
ENDBRANCH  69  70
ENDBRANCH  48  62
BRANCH  49  74
ATOM     74  C   UNL A   1      47.528  33.038  28.779  1.00  0.00     0.058 A 
ATOM     75  C   UNL A   1      48.074  33.310  30.042  1.00  0.00     0.135 A 
ATOM     76  C   UNL A   1      47.645  34.027  27.790  1.00  0.00     0.135 A 
ATOM     77  F   UNL A   1      47.977  32.400  31.024  1.00  0.00    -0.206 F 
ATOM     78  C   UNL A   1      48.704  34.519  30.318  1.00  0.00     0.059 A 
ATOM     79  C   UNL A   1      48.293  35.234  28.034  1.00  0.00     0.059 A 
ATOM     80  F   UNL A   1      47.146  33.814  26.562  1.00  0.00    -0.206 F 
ATOM     81  C   UNL A   1      48.811  35.474  29.305  1.00  0.00     0.060 A 
BRANCH  81  82
ATOM     82  S   UNL A   1      49.680  37.018  29.656  1.00  0.00     0.124 S 
ATOM     83  O   UNL A   1      50.946  36.527  30.188  1.00  0.00    -0.237 OA
ATOM     84  O   UNL A   1      49.740  37.644  28.339  1.00  0.00    -0.237 OA
ATOM     85  O   UNL A   1      48.806  37.684  30.618  1.00  0.00    -0.744 OA
ENDBRANCH  81  82
ENDBRANCH  49  74
BRANCH  61  86
ATOM     86  C   UNL A   1      49.736  26.943  26.206  1.00  0.00     0.058 A 
ATOM     87  C   UNL A   1      50.097  27.125  24.864  1.00  0.00     0.135 A 
ATOM     88  C   UNL A   1      50.681  26.364  27.069  1.00  0.00     0.135 A 
ATOM     89  F   UNL A   1      49.226  27.667  23.997  1.00  0.00    -0.206 F 
ATOM     90  C   UNL A   1      51.344  26.732  24.388  1.00  0.00     0.059 A 
ATOM     91  C   UNL A   1      51.943  25.986  26.620  1.00  0.00     0.059 A 
ATOM     92  F   UNL A   1      50.389  26.178  28.366  1.00  0.00    -0.206 F 
ATOM     93  C   UNL A   1      52.260  26.164  25.274  1.00  0.00     0.060 A 
BRANCH  93  94
ATOM     94  S   UNL A   1      53.888  25.689  24.655  1.00  0.00     0.124 S 
ATOM     95  O   UNL A   1      53.877  24.247  24.876  1.00  0.00    -0.237 OA
ATOM     96  O   UNL A   1      53.831  26.117  23.260  1.00  0.00    -0.237 OA
ATOM     97  O   UNL A   1      54.807  26.448  25.498  1.00  0.00    -0.744 OA
ENDBRANCH  93  94
ENDBRANCH  61  86
ENDBRANCH  35  36
ENDBRANCH  28  30
ENDBRANCH  27  28
ENDBRANCH  26  27
ENDBRANCH  25  26
ENDBRANCH  24  25
ENDBRANCH  23  24
ENDBRANCH   1  23
TORSDOF 25
ENDMDL
MODEL 2
REMARK VINA RESULT:      -7.8      9.408     15.148
REMARK SMILES C#CC[N@H+](CC(=O)OCCOCCOCCOC(=O)c1ccc(-c2c3nc(c(-c4c(F)cc(S(=O)(=O)[O-])cc4F)c4ccc([nH]4)c(-c4c(F)cc(S(=O)(=O)[O-])cc4F)c4nc(c(-c5c(F)cc(S(=O)(=O)[O-])cc5F)c5ccc2[nH]5)C=C4)C=C3)cc1)[C@H]1CCO[C@@H](C(C)C)C1
REMARK SMILES IDX 12 1 11 2 10 3 9 4 8 5 6 6 7 7 5 8 4 9 3 11 2 12 1 13 86 14
REMARK SMILES IDX 87 15 94 16 88 17 90 18 89 19 91 20 92 21 93 22 13 23 14 24
REMARK SMILES IDX 15 25 16 26 17 27 18 28 19 29 20 30 21 31 85 32 22 33 84 34
REMARK SMILES IDX 23 35 24 36 25 37 78 38 26 39 83 40 77 41 79 42 27 43 82 44
REMARK SMILES IDX 76 45 75 46 28 48 62 49 41 50 61 51 42 52 45 53 60 54 80 55
REMARK SMILES IDX 43 56 44 57 59 59 81 60 46 61 29 62 30 63 39 64 31 65 32 66
REMARK SMILES IDX 38 67 40 68 33 69 34 70 35 71 36 72 37 73 63 74 64 75 73 76
REMARK SMILES IDX 65 77 66 78 72 79 74 80 67 81 68 82 69 83 70 84 71 85 47 86
REMARK SMILES IDX 48 87 57 88 49 89 50 90 56 91 58 92 51 93 52 94 53 95 54 96
REMARK SMILES IDX 55 97
REMARK H PARENT 4 10 79 47 45 58
REMARK Flexibility Score: inf
ROOT
ATOM      1  C   UNL A   1      46.183  18.951  38.224  1.00  0.00     0.188 C 
ENDROOT
BRANCH   1   2
ATOM      2  O   UNL A   1      45.484  18.267  39.261  1.00  0.00    -0.376 OA
BRANCH   2   3
ATOM      3  C   UNL A   1      45.650  16.861  39.393  1.00  0.00     0.202 C 
BRANCH   3   4
ATOM      4  C   UNL A   1      44.970  16.212  40.598  1.00  0.00     0.261 C 
BRANCH   4   5
ATOM      5  O   UNL A   1      43.545  16.423  40.580  1.00  0.00    -0.459 OA
BRANCH   5   6
ATOM      6  C   UNL A   1      42.792  15.306  40.623  1.00  0.00     0.361 C 
ATOM      7  O   UNL A   1      42.594  14.592  39.640  1.00  0.00    -0.245 OA
BRANCH   6   8
ATOM      8  C   UNL A   1      42.224  14.910  41.985  1.00  0.00     0.387 C 
BRANCH   8   9
ATOM      9  N   UNL A   1      43.077  14.453  43.166  1.00  0.00    -0.313 N 
ATOM     10  H   UNL A   1      43.876  13.873  42.912  1.00  0.00     0.349 HD
BRANCH   9  11
ATOM     11  C   UNL A   1      43.639  15.671  43.825  1.00  0.00     0.354 C 
BRANCH  11  12
ATOM     12  C   UNL A   1      45.149  15.673  44.004  1.00  0.00    -0.047 C 
ATOM     13  C   UNL A   1      46.443  15.674  44.158  1.00  0.00     0.010 C 
ENDBRANCH  11  12
ENDBRANCH   9  11
BRANCH   9  14
ATOM     14  C   UNL A   1      42.153  13.620  44.056  1.00  0.00     0.190 C 
ATOM     15  C   UNL A   1      41.355  12.511  43.304  1.00  0.00     0.093 C 
ATOM     16  C   UNL A   1      42.695  12.858  45.300  1.00  0.00     0.097 C 
ATOM     17  C   UNL A   1      42.195  11.265  43.054  1.00  0.00     0.166 C 
ATOM     18  C   UNL A   1      43.510  11.590  45.043  1.00  0.00     0.126 C 
ATOM     19  O   UNL A   1      42.665  10.707  44.280  1.00  0.00    -0.377 OA
BRANCH  18  20
ATOM     20  C   UNL A   1      44.923  11.632  44.407  1.00  0.00     0.012 C 
ATOM     21  C   UNL A   1      46.038  12.326  45.183  1.00  0.00     0.010 C 
ATOM     22  C   UNL A   1      45.400  10.191  44.152  1.00  0.00     0.010 C 
ENDBRANCH  18  20
ENDBRANCH   9  14
ENDBRANCH   8   9
ENDBRANCH   6   8
ENDBRANCH   5   6
ENDBRANCH   4   5
ENDBRANCH   3   4
ENDBRANCH   2   3
ENDBRANCH   1   2
BRANCH   1  23
ATOM     23  C   UNL A   1      45.652  18.868  36.787  1.00  0.00     0.188 C 
BRANCH  23  24
ATOM     24  O   UNL A   1      46.300  19.714  35.851  1.00  0.00    -0.376 OA
BRANCH  24  25
ATOM     25  C   UNL A   1      45.422  20.266  34.877  1.00  0.00     0.202 C 
BRANCH  25  26
ATOM     26  C   UNL A   1      44.987  21.679  35.273  1.00  0.00     0.261 C 
BRANCH  26  27
ATOM     27  O   UNL A   1      45.802  22.711  34.684  1.00  0.00    -0.460 OA
BRANCH  27  28
ATOM     28  C   UNL A   1      46.176  23.710  35.510  1.00  0.00     0.338 C 
ATOM     29  O   UNL A   1      46.928  23.619  36.476  1.00  0.00    -0.246 OA
BRANCH  28  30
ATOM     30  C   UNL A   1      45.645  24.981  34.990  1.00  0.00     0.060 A 
ATOM     31  C   UNL A   1      44.375  25.008  34.411  1.00  0.00     0.016 A 
ATOM     32  C   UNL A   1      46.429  26.130  35.002  1.00  0.00     0.016 A 
ATOM     33  C   UNL A   1      43.894  26.152  33.786  1.00  0.00     0.010 A 
ATOM     34  C   UNL A   1      45.937  27.292  34.398  1.00  0.00     0.010 A 
ATOM     35  C   UNL A   1      44.680  27.301  33.762  1.00  0.00    -0.014 A 
BRANCH  35  36
ATOM     36  C   UNL A   1      44.250  28.479  32.974  1.00  0.00     0.031 A 
ATOM     37  C   UNL A   1      44.652  28.567  31.531  1.00  0.00     0.074 A 
ATOM     38  C   UNL A   1      43.511  29.453  33.534  1.00  0.00     0.049 A 
ATOM     39  N   UNL A   1      44.605  29.589  30.720  1.00  0.00    -0.248 NA
ATOM     40  C   UNL A   1      45.186  27.336  30.925  1.00  0.00     0.031 C 
ATOM     41  C   UNL A   1      42.971  29.436  34.894  1.00  0.00     0.029 A 
ATOM     42  N   UNL A   1      43.105  30.662  33.027  1.00  0.00    -0.354 N 
ATOM     43  C   UNL A   1      45.148  29.144  29.522  1.00  0.00     0.074 A 
ATOM     44  C   UNL A   1      45.514  27.755  29.712  1.00  0.00     0.031 C 
ATOM     45  C   UNL A   1      42.327  30.593  35.122  1.00  0.00     0.029 A 
ATOM     46  C   UNL A   1      42.467  31.455  33.951  1.00  0.00     0.049 A 
ATOM     47  H   UNL A   1      43.255  30.934  32.093  1.00  0.00     0.167 HD
ATOM     48  C   UNL A   1      45.334  29.836  28.375  1.00  0.00     0.037 A 
ATOM     49  C   UNL A   1      42.094  32.748  33.880  1.00  0.00     0.037 A 
ATOM     50  C   UNL A   1      44.938  31.208  28.194  1.00  0.00     0.049 A 
ATOM     51  C   UNL A   1      42.376  33.523  32.621  1.00  0.00     0.074 A 
ATOM     52  C   UNL A   1      45.079  32.006  27.072  1.00  0.00     0.029 A 
ATOM     53  N   UNL A   1      44.313  31.985  29.160  1.00  0.00    -0.354 N 
ATOM     54  N   UNL A   1      42.946  33.117  31.510  1.00  0.00    -0.248 NA
ATOM     55  C   UNL A   1      41.978  34.938  32.609  1.00  0.00     0.031 C 
ATOM     56  C   UNL A   1      44.574  33.276  27.373  1.00  0.00     0.029 A 
ATOM     57  C   UNL A   1      44.078  33.256  28.667  1.00  0.00     0.049 A 
ATOM     58  H   UNL A   1      44.074  31.675  30.063  1.00  0.00     0.167 HD
ATOM     59  C   UNL A   1      42.955  34.219  30.662  1.00  0.00     0.074 A 
ATOM     60  C   UNL A   1      42.326  35.307  31.383  1.00  0.00     0.031 C 
ATOM     61  C   UNL A   1      43.440  34.322  29.399  1.00  0.00     0.037 A 
BRANCH  48  62
ATOM     62  C   UNL A   1      46.038  29.137  27.248  1.00  0.00     0.058 A 
ATOM     63  C   UNL A   1      47.438  29.059  27.179  1.00  0.00     0.135 A 
ATOM     64  C   UNL A   1      45.295  28.520  26.229  1.00  0.00     0.135 A 
ATOM     65  F   UNL A   1      48.195  29.650  28.116  1.00  0.00    -0.206 F 
ATOM     66  C   UNL A   1      48.076  28.413  26.124  1.00  0.00     0.059 A 
ATOM     67  C   UNL A   1      45.912  27.849  25.178  1.00  0.00     0.059 A 
ATOM     68  F   UNL A   1      43.953  28.571  26.245  1.00  0.00    -0.206 F 
ATOM     69  C   UNL A   1      47.304  27.813  25.127  1.00  0.00     0.060 A 
BRANCH  69  70
ATOM     70  S   UNL A   1      48.144  26.977  23.764  1.00  0.00     0.124 S 
ATOM     71  O   UNL A   1      47.813  25.581  24.032  1.00  0.00    -0.237 OA
ATOM     72  O   UNL A   1      47.503  27.567  22.593  1.00  0.00    -0.237 OA
ATOM     73  O   UNL A   1      49.545  27.338  23.956  1.00  0.00    -0.744 OA
ENDBRANCH  69  70
ENDBRANCH  48  62
BRANCH  49  74
ATOM     74  C   UNL A   1      41.465  33.404  35.056  1.00  0.00     0.058 A 
ATOM     75  C   UNL A   1      40.086  33.303  35.288  1.00  0.00     0.135 A 
ATOM     76  C   UNL A   1      42.232  34.139  35.974  1.00  0.00     0.135 A 
ATOM     77  F   UNL A   1      39.310  32.621  34.432  1.00  0.00    -0.206 F 
ATOM     78  C   UNL A   1      39.487  33.914  36.384  1.00  0.00     0.059 A 
ATOM     79  C   UNL A   1      41.658  34.738  37.092  1.00  0.00     0.059 A 
ATOM     80  F   UNL A   1      43.557  34.260  35.801  1.00  0.00    -0.206 F 
ATOM     81  C   UNL A   1      40.282  34.627  37.283  1.00  0.00     0.060 A 
BRANCH  81  82
ATOM     82  S   UNL A   1      39.503  35.370  38.733  1.00  0.00     0.124 S 
ATOM     83  O   UNL A   1      40.547  35.211  39.739  1.00  0.00    -0.237 OA
ATOM     84  O   UNL A   1      39.253  36.736  38.283  1.00  0.00    -0.237 OA
ATOM     85  O   UNL A   1      38.308  34.553  38.927  1.00  0.00    -0.744 OA
ENDBRANCH  81  82
ENDBRANCH  49  74
BRANCH  61  86
ATOM     86  C   UNL A   1      43.275  35.643  28.702  1.00  0.00     0.058 A 
ATOM     87  C   UNL A   1      42.057  36.024  28.122  1.00  0.00     0.135 A 
ATOM     88  C   UNL A   1      44.338  36.561  28.664  1.00  0.00     0.135 A 
ATOM     89  F   UNL A   1      41.013  35.180  28.126  1.00  0.00    -0.206 F 
ATOM     90  C   UNL A   1      41.901  37.264  27.510  1.00  0.00     0.059 A 
ATOM     91  C   UNL A   1      44.197  37.815  28.079  1.00  0.00     0.059 A 
ATOM     92  F   UNL A   1      45.521  36.248  29.215  1.00  0.00    -0.206 F 
ATOM     93  C   UNL A   1      42.977  38.153  27.495  1.00  0.00     0.060 A 
BRANCH  93  94
ATOM     94  S   UNL A   1      42.755  39.773  26.729  1.00  0.00     0.124 S 
ATOM     95  O   UNL A   1      41.484  39.598  26.035  1.00  0.00    -0.237 OA
ATOM     96  O   UNL A   1      42.730  40.666  27.884  1.00  0.00    -0.237 OA
ATOM     97  O   UNL A   1      43.928  39.906  25.870  1.00  0.00    -0.744 OA
ENDBRANCH  93  94
ENDBRANCH  61  86
ENDBRANCH  35  36
ENDBRANCH  28  30
ENDBRANCH  27  28
ENDBRANCH  26  27
ENDBRANCH  25  26
ENDBRANCH  24  25
ENDBRANCH  23  24
ENDBRANCH   1  23
TORSDOF 25
ENDMDL
MODEL 3
REMARK VINA RESULT:      -7.7      6.451     13.362
REMARK SMILES C#CC[N@H+](CC(=O)OCCOCCOCCOC(=O)c1ccc(-c2c3nc(c(-c4c(F)cc(S(=O)(=O)[O-])cc4F)c4ccc([nH]4)c(-c4c(F)cc(S(=O)(=O)[O-])cc4F)c4nc(c(-c5c(F)cc(S(=O)(=O)[O-])cc5F)c5ccc2[nH]5)C=C4)C=C3)cc1)[C@H]1CCO[C@@H](C(C)C)C1
REMARK SMILES IDX 12 1 11 2 10 3 9 4 8 5 6 6 7 7 5 8 4 9 3 11 2 12 1 13 86 14
REMARK SMILES IDX 87 15 94 16 88 17 90 18 89 19 91 20 92 21 93 22 13 23 14 24
REMARK SMILES IDX 15 25 16 26 17 27 18 28 19 29 20 30 21 31 85 32 22 33 84 34
REMARK SMILES IDX 23 35 24 36 25 37 78 38 26 39 83 40 77 41 79 42 27 43 82 44
REMARK SMILES IDX 76 45 75 46 28 48 62 49 41 50 61 51 42 52 45 53 60 54 80 55
REMARK SMILES IDX 43 56 44 57 59 59 81 60 46 61 29 62 30 63 39 64 31 65 32 66
REMARK SMILES IDX 38 67 40 68 33 69 34 70 35 71 36 72 37 73 63 74 64 75 73 76
REMARK SMILES IDX 65 77 66 78 72 79 74 80 67 81 68 82 69 83 70 84 71 85 47 86
REMARK SMILES IDX 48 87 57 88 49 89 50 90 56 91 58 92 51 93 52 94 53 95 54 96
REMARK SMILES IDX 55 97
REMARK H PARENT 4 10 79 47 45 58
REMARK Flexibility Score: inf
ROOT
ATOM      1  C   UNL A   1      44.078  40.498  26.028  1.00  0.00     0.188 C 
ENDROOT
BRANCH   1   2
ATOM      2  O   UNL A   1      43.835  41.807  26.538  1.00  0.00    -0.376 OA
BRANCH   2   3
ATOM      3  C   UNL A   1      43.860  42.910  25.641  1.00  0.00     0.202 C 
BRANCH   3   4
ATOM      4  C   UNL A   1      45.231  43.526  25.369  1.00  0.00     0.261 C 
BRANCH   4   5
ATOM      5  O   UNL A   1      45.528  43.563  23.960  1.00  0.00    -0.459 OA
BRANCH   5   6
ATOM      6  C   UNL A   1      45.417  44.772  23.374  1.00  0.00     0.361 C 
ATOM      7  O   UNL A   1      45.001  45.768  23.963  1.00  0.00    -0.245 OA
BRANCH   6   8
ATOM      8  C   UNL A   1      45.896  44.882  21.927  1.00  0.00     0.387 C 
BRANCH   8   9
ATOM      9  N   UNL A   1      45.006  45.310  20.763  1.00  0.00    -0.313 N 
ATOM     10  H   UNL A   1      44.062  45.591  21.031  1.00  0.00     0.349 HD
BRANCH   9  11
ATOM     11  C   UNL A   1      45.630  46.509  20.125  1.00  0.00     0.354 C 
BRANCH  11  12
ATOM     12  C   UNL A   1      47.145  46.466  20.008  1.00  0.00    -0.047 C 
ATOM     13  C   UNL A   1      48.444  46.429  19.907  1.00  0.00     0.010 C 
ENDBRANCH  11  12
ENDBRANCH   9  11
BRANCH   9  14
ATOM     14  C   UNL A   1      44.893  44.091  19.846  1.00  0.00     0.190 C 
ATOM     15  C   UNL A   1      43.645  43.194  20.112  1.00  0.00     0.093 C 
ATOM     16  C   UNL A   1      44.877  44.239  18.297  1.00  0.00     0.097 C 
ATOM     17  C   UNL A   1      42.382  43.759  19.474  1.00  0.00     0.166 C 
ATOM     18  C   UNL A   1      43.594  44.775  17.660  1.00  0.00     0.126 C 
ATOM     19  O   UNL A   1      42.533  43.887  18.060  1.00  0.00    -0.377 OA
BRANCH  18  20
ATOM     20  C   UNL A   1      43.134  46.245  17.842  1.00  0.00     0.012 C 
ATOM     21  C   UNL A   1      43.871  47.328  17.060  1.00  0.00     0.010 C 
ATOM     22  C   UNL A   1      41.650  46.356  17.451  1.00  0.00     0.010 C 
ENDBRANCH  18  20
ENDBRANCH   9  14
ENDBRANCH   8   9
ENDBRANCH   6   8
ENDBRANCH   5   6
ENDBRANCH   4   5
ENDBRANCH   3   4
ENDBRANCH   2   3
ENDBRANCH   1   2
BRANCH   1  23
ATOM     23  C   UNL A   1      45.225  39.668  26.620  1.00  0.00     0.188 C 
BRANCH  23  24
ATOM     24  O   UNL A   1      46.530  40.108  26.281  1.00  0.00    -0.376 OA
BRANCH  24  25
ATOM     25  C   UNL A   1      47.133  39.354  25.234  1.00  0.00     0.202 C 
BRANCH  25  26
ATOM     26  C   UNL A   1      47.816  38.101  25.788  1.00  0.00     0.261 C 
BRANCH  26  27
ATOM     27  O   UNL A   1      46.946  37.294  26.607  1.00  0.00    -0.460 OA
BRANCH  27  28
ATOM     28  C   UNL A   1      47.483  36.822  27.750  1.00  0.00     0.338 C 
ATOM     29  O   UNL A   1      47.943  37.488  28.673  1.00  0.00    -0.246 OA
BRANCH  28  30
ATOM     30  C   UNL A   1      47.308  35.361  27.791  1.00  0.00     0.060 A 
ATOM     31  C   UNL A   1      46.905  34.686  26.636  1.00  0.00     0.016 A 
ATOM     32  C   UNL A   1      47.463  34.665  28.985  1.00  0.00     0.016 A 
ATOM     33  C   UNL A   1      46.595  33.332  26.666  1.00  0.00     0.010 A 
ATOM     34  C   UNL A   1      47.178  33.296  29.013  1.00  0.00     0.010 A 
ATOM     35  C   UNL A   1      46.715  32.628  27.861  1.00  0.00    -0.014 A 
BRANCH  35  36
ATOM     36  C   UNL A   1      46.248  31.226  27.948  1.00  0.00     0.031 A 
ATOM     37  C   UNL A   1      47.228  30.121  27.686  1.00  0.00     0.074 A 
ATOM     38  C   UNL A   1      44.970  30.942  28.260  1.00  0.00     0.049 A 
ATOM     39  N   UNL A   1      47.006  28.853  27.469  1.00  0.00    -0.248 NA
ATOM     40  C   UNL A   1      48.650  30.502  27.657  1.00  0.00     0.031 C 
ATOM     41  C   UNL A   1      43.949  31.919  28.636  1.00  0.00     0.029 A 
ATOM     42  N   UNL A   1      44.310  29.739  28.287  1.00  0.00    -0.354 N 
ATOM     43  C   UNL A   1      48.253  28.289  27.228  1.00  0.00     0.074 A 
ATOM     44  C   UNL A   1      49.228  29.355  27.331  1.00  0.00     0.031 C 
ATOM     45  C   UNL A   1      42.783  31.279  28.830  1.00  0.00     0.029 A 
ATOM     46  C   UNL A   1      42.962  29.861  28.528  1.00  0.00     0.049 A 
ATOM     47  H   UNL A   1      44.758  28.873  28.149  1.00  0.00     0.167 HD
ATOM     48  C   UNL A   1      48.551  27.002  26.937  1.00  0.00     0.037 A 
ATOM     49  C   UNL A   1      41.978  28.945  28.452  1.00  0.00     0.037 A 
ATOM     50  C   UNL A   1      47.572  25.949  26.867  1.00  0.00     0.049 A 
ATOM     51  C   UNL A   1      42.319  27.533  28.054  1.00  0.00     0.074 A 
ATOM     52  C   UNL A   1      47.766  24.609  26.580  1.00  0.00     0.029 A 
ATOM     53  N   UNL A   1      46.213  26.116  27.097  1.00  0.00    -0.354 N 
ATOM     54  N   UNL A   1      43.490  27.016  27.766  1.00  0.00    -0.248 NA
ATOM     55  C   UNL A   1      41.202  26.583  27.956  1.00  0.00     0.031 C 
ATOM     56  C   UNL A   1      46.519  23.974  26.600  1.00  0.00     0.029 A 
ATOM     57  C   UNL A   1      45.555  24.909  26.942  1.00  0.00     0.049 A 
ATOM     58  H   UNL A   1      45.783  26.968  27.335  1.00  0.00     0.167 HD
ATOM     59  C   UNL A   1      43.254  25.678  27.474  1.00  0.00     0.074 A 
ATOM     60  C   UNL A   1      41.830  25.462  27.628  1.00  0.00     0.031 C 
ATOM     61  C   UNL A   1      44.136  24.713  27.110  1.00  0.00     0.037 A 
BRANCH  48  62
ATOM     62  C   UNL A   1      49.982  26.675  26.622  1.00  0.00     0.058 A 
ATOM     63  C   UNL A   1      50.874  26.214  27.602  1.00  0.00     0.135 A 
ATOM     64  C   UNL A   1      50.462  26.812  25.309  1.00  0.00     0.135 A 
ATOM     65  F   UNL A   1      50.472  26.085  28.876  1.00  0.00    -0.206 F 
ATOM     66  C   UNL A   1      52.200  25.922  27.295  1.00  0.00     0.059 A 
ATOM     67  C   UNL A   1      51.777  26.503  24.976  1.00  0.00     0.059 A 
ATOM     68  F   UNL A   1      49.651  27.256  24.336  1.00  0.00    -0.206 F 
ATOM     69  C   UNL A   1      52.643  26.072  25.980  1.00  0.00     0.060 A 
BRANCH  69  70
ATOM     70  S   UNL A   1      54.365  25.689  25.594  1.00  0.00     0.124 S 
ATOM     71  O   UNL A   1      54.242  25.115  24.258  1.00  0.00    -0.237 OA
ATOM     72  O   UNL A   1      55.000  27.002  25.664  1.00  0.00    -0.237 OA
ATOM     73  O   UNL A   1      54.749  24.754  26.646  1.00  0.00    -0.744 OA
ENDBRANCH  69  70
ENDBRANCH  48  62
BRANCH  49  74
ATOM     74  C   UNL A   1      40.569  29.347  28.705  1.00  0.00     0.058 A 
ATOM     75  C   UNL A   1      39.652  29.465  27.651  1.00  0.00     0.135 A 
ATOM     76  C   UNL A   1      40.111  29.613  30.005  1.00  0.00     0.135 A 
ATOM     77  F   UNL A   1      40.046  29.233  26.390  1.00  0.00    -0.206 F 
ATOM     78  C   UNL A   1      38.332  29.842  27.875  1.00  0.00     0.059 A 
ATOM     79  C   UNL A   1      38.789  29.967  30.257  1.00  0.00     0.059 A 
ATOM     80  F   UNL A   1      40.947  29.506  31.049  1.00  0.00    -0.206 F 
ATOM     81  C   UNL A   1      37.909  30.088  29.183  1.00  0.00     0.060 A 
BRANCH  81  82
ATOM     82  S   UNL A   1      36.179  30.522  29.469  1.00  0.00     0.124 S 
ATOM     83  O   UNL A   1      36.299  31.890  29.960  1.00  0.00    -0.237 OA
ATOM     84  O   UNL A   1      35.598  30.369  28.139  1.00  0.00    -0.237 OA
ATOM     85  O   UNL A   1      35.744  29.534  30.452  1.00  0.00    -0.744 OA
ENDBRANCH  81  82
ENDBRANCH  49  74
BRANCH  61  86
ATOM     86  C   UNL A   1      43.594  23.329  26.893  1.00  0.00     0.058 A 
ATOM     87  C   UNL A   1      43.561  22.740  25.621  1.00  0.00     0.135 A 
ATOM     88  C   UNL A   1      43.152  22.562  27.984  1.00  0.00     0.135 A 
ATOM     89  F   UNL A   1      43.966  23.433  24.544  1.00  0.00    -0.206 F 
ATOM     90  C   UNL A   1      43.090  21.444  25.433  1.00  0.00     0.059 A 
ATOM     91  C   UNL A   1      42.700  21.256  27.823  1.00  0.00     0.059 A 
ATOM     92  F   UNL A   1      43.174  23.076  29.224  1.00  0.00    -0.206 F 
ATOM     93  C   UNL A   1      42.663  20.710  26.541  1.00  0.00     0.060 A 
BRANCH  93  94
ATOM     94  S   UNL A   1      42.087  19.017  26.292  1.00  0.00     0.124 S 
ATOM     95  O   UNL A   1      42.393  18.410  27.581  1.00  0.00    -0.237 OA
ATOM     96  O   UNL A   1      40.668  19.208  26.001  1.00  0.00    -0.237 OA
ATOM     97  O   UNL A   1      42.891  18.547  25.167  1.00  0.00    -0.744 OA
ENDBRANCH  93  94
ENDBRANCH  61  86
ENDBRANCH  35  36
ENDBRANCH  28  30
ENDBRANCH  27  28
ENDBRANCH  26  27
ENDBRANCH  25  26
ENDBRANCH  24  25
ENDBRANCH  23  24
ENDBRANCH   1  23
TORSDOF 25
ENDMDL
