MODEL 1
REMARK VINA RESULT:     -10.2      0.000      0.000
REMARK SMILES CC[NH2+][C@]1(C(=O)OCCOCCOCCOC(=O)c2ccc(-c3c4nc(c(-c5c(F)cc(S(=O)(=O)[O-])cc5F)c5ccc([nH]5)c(-c5c(F)cc(S(=O)(=O)[O-])cc5F)c5nc(c(-c6c(F)cc(S(=O)(=O)[O-])cc6F)c6ccc3[nH]6)C=C5)C=C4)cc2)CCC[C@@H]1CCSc1ccc(C)cc1
REMARK SMILES IDX 11 1 10 2 9 3 8 4 7 5 5 6 6 7 4 8 85 9 88 10 86 11 87 12
REMARK SMILES IDX 3 13 2 16 1 17 89 18 90 19 91 20 92 21 93 22 98 23 94 24
REMARK SMILES IDX 97 25 95 26 96 27 12 28 13 29 14 30 15 31 16 32 17 33 18 34
REMARK SMILES IDX 19 35 20 36 84 37 21 38 83 39 22 40 23 41 24 42 77 43 25 44
REMARK SMILES IDX 82 45 76 46 78 47 26 48 81 49 75 50 74 51 27 53 61 54 40 55
REMARK SMILES IDX 60 56 41 57 44 58 59 59 79 60 42 61 43 62 58 64 80 65 45 66
REMARK SMILES IDX 28 67 29 68 38 69 30 70 31 71 37 72 39 73 32 74 33 75 34 76
REMARK SMILES IDX 35 77 36 78 62 79 63 80 72 81 64 82 65 83 71 84 73 85 66 86
REMARK SMILES IDX 67 87 68 88 69 89 70 90 46 91 47 92 56 93 48 94 49 95 55 96
REMARK SMILES IDX 57 97 50 98 51 99 52 100 53 101 54 102
REMARK H PARENT 3 14 3 15 78 52 44 63
REMARK Flexibility Score: inf
ROOT
ATOM      1  C   UNL A   1      34.478  33.885  27.995  1.00  0.00     0.188 C 
ENDROOT
BRANCH   1   2
ATOM      2  O   UNL A   1      34.657  32.613  27.389  1.00  0.00    -0.376 OA
BRANCH   2   3
ATOM      3  C   UNL A   1      33.822  31.608  27.935  1.00  0.00     0.202 C 
BRANCH   3   4
ATOM      4  C   UNL A   1      34.045  30.263  27.277  1.00  0.00     0.261 C 
BRANCH   4   5
ATOM      5  O   UNL A   1      33.526  29.948  25.959  1.00  0.00    -0.459 OA
BRANCH   5   6
ATOM      6  C   UNL A   1      32.275  29.853  25.427  1.00  0.00     0.368 C 
ATOM      7  O   UNL A   1      31.387  30.668  25.636  1.00  0.00    -0.245 OA
BRANCH   6   8
ATOM      8  C   UNL A   1      32.220  28.685  24.340  1.00  0.00     0.197 C 
ATOM      9  C   UNL A   1      33.284  28.964  23.270  1.00  0.00     0.081 C 
ATOM     10  C   UNL A   1      32.728  27.445  25.037  1.00  0.00     0.063 C 
ATOM     11  C   UNL A   1      33.651  27.589  22.737  1.00  0.00     0.008 C 
ATOM     12  C   UNL A   1      33.414  26.615  23.915  1.00  0.00     0.011 C 
BRANCH   8  13
ATOM     13  N   UNL A   1      30.909  28.413  23.674  1.00  0.00    -0.332 N 
ATOM     14  H   UNL A   1      31.050  27.573  23.113  1.00  0.00     0.347 HD
ATOM     15  H   UNL A   1      30.277  28.396  24.473  1.00  0.00     0.347 HD
BRANCH  13  16
ATOM     16  C   UNL A   1      30.238  29.378  22.794  1.00  0.00     0.257 C 
ATOM     17  C   UNL A   1      28.733  29.144  22.657  1.00  0.00     0.071 C 
ENDBRANCH  13  16
ENDBRANCH   8  13
BRANCH  10  18
ATOM     18  C   UNL A   1      31.675  26.830  26.010  1.00  0.00     0.022 C 
BRANCH  18  19
ATOM     19  C   UNL A   1      30.907  25.401  25.872  1.00  0.00     0.075 C 
BRANCH  19  20
ATOM     20  S   UNL A   1      30.722  23.481  26.457  1.00  0.00    -0.126 SA
BRANCH  20  21
ATOM     21  C   UNL A   1      32.137  22.379  26.240  1.00  0.00     0.007 A 
ATOM     22  C   UNL A   1      33.165  22.299  27.184  1.00  0.00     0.015 A 
ATOM     23  C   UNL A   1      32.217  21.452  25.193  1.00  0.00     0.015 A 
ATOM     24  C   UNL A   1      34.401  21.705  26.867  1.00  0.00     0.004 A 
ATOM     25  C   UNL A   1      33.432  20.808  24.886  1.00  0.00     0.004 A 
ATOM     26  C   UNL A   1      34.575  21.068  25.643  1.00  0.00    -0.051 A 
ATOM     27  C   UNL A   1      35.945  20.736  25.121  1.00  0.00     0.044 C 
ENDBRANCH  20  21
ENDBRANCH  19  20
ENDBRANCH  18  19
ENDBRANCH  10  18
ENDBRANCH   6   8
ENDBRANCH   5   6
ENDBRANCH   4   5
ENDBRANCH   3   4
ENDBRANCH   2   3
ENDBRANCH   1   2
BRANCH   1  28
ATOM     28  C   UNL A   1      33.004  34.178  28.286  1.00  0.00     0.188 C 
BRANCH  28  29
ATOM     29  O   UNL A   1      32.631  34.671  29.566  1.00  0.00    -0.376 OA
BRANCH  29  30
ATOM     30  C   UNL A   1      33.510  35.607  30.172  1.00  0.00     0.202 C 
BRANCH  30  31
ATOM     31  C   UNL A   1      33.900  35.335  31.634  1.00  0.00     0.261 C 
BRANCH  31  32
ATOM     32  O   UNL A   1      35.072  34.505  31.774  1.00  0.00    -0.460 OA
BRANCH  32  33
ATOM     33  C   UNL A   1      34.851  33.196  32.064  1.00  0.00     0.338 C 
ATOM     34  O   UNL A   1      33.798  32.704  32.443  1.00  0.00    -0.246 OA
BRANCH  33  35
ATOM     35  C   UNL A   1      36.007  32.373  31.616  1.00  0.00     0.060 A 
ATOM     36  C   UNL A   1      36.608  31.511  32.550  1.00  0.00     0.016 A 
ATOM     37  C   UNL A   1      36.505  32.442  30.315  1.00  0.00     0.016 A 
ATOM     38  C   UNL A   1      37.721  30.743  32.200  1.00  0.00     0.010 A 
ATOM     39  C   UNL A   1      37.654  31.711  29.980  1.00  0.00     0.010 A 
ATOM     40  C   UNL A   1      38.289  30.889  30.930  1.00  0.00    -0.014 A 
BRANCH  40  41
ATOM     41  C   UNL A   1      39.684  30.432  30.686  1.00  0.00     0.031 A 
ATOM     42  C   UNL A   1      40.790  31.419  30.957  1.00  0.00     0.074 A 
ATOM     43  C   UNL A   1      39.982  29.202  30.232  1.00  0.00     0.049 A 
ATOM     44  N   UNL A   1      42.064  31.342  30.673  1.00  0.00    -0.248 NA
ATOM     45  C   UNL A   1      40.402  32.664  31.643  1.00  0.00     0.031 C 
ATOM     46  C   UNL A   1      39.026  28.120  30.013  1.00  0.00     0.029 A 
ATOM     47  N   UNL A   1      41.191  28.664  29.857  1.00  0.00    -0.354 N 
ATOM     48  C   UNL A   1      42.623  32.532  31.124  1.00  0.00     0.074 A 
ATOM     49  C   UNL A   1      41.553  33.314  31.702  1.00  0.00     0.031 C 
ATOM     50  C   UNL A   1      39.683  27.051  29.522  1.00  0.00     0.029 A 
ATOM     51  C   UNL A   1      41.097  27.390  29.346  1.00  0.00     0.049 A 
ATOM     52  H   UNL A   1      42.045  29.146  29.948  1.00  0.00     0.167 HD
ATOM     53  C   UNL A   1      43.908  32.947  31.051  1.00  0.00     0.037 A 
ATOM     54  C   UNL A   1      42.035  26.611  28.768  1.00  0.00     0.037 A 
ATOM     55  C   UNL A   1      44.970  32.185  30.455  1.00  0.00     0.049 A 
ATOM     56  C   UNL A   1      43.445  27.135  28.600  1.00  0.00     0.074 A 
ATOM     57  C   UNL A   1      46.297  32.540  30.294  1.00  0.00     0.029 A 
ATOM     58  N   UNL A   1      44.824  30.916  29.917  1.00  0.00    -0.354 N 
ATOM     59  N   UNL A   1      43.955  28.277  28.997  1.00  0.00    -0.248 NA
ATOM     60  C   UNL A   1      44.400  26.272  27.887  1.00  0.00     0.031 C 
ATOM     61  C   UNL A   1      46.946  31.501  29.621  1.00  0.00     0.029 A 
ATOM     62  C   UNL A   1      46.034  30.479  29.408  1.00  0.00     0.049 A 
ATOM     63  H   UNL A   1      43.984  30.402  29.900  1.00  0.00     0.167 HD
ATOM     64  C   UNL A   1      45.293  28.255  28.607  1.00  0.00     0.074 A 
ATOM     65  C   UNL A   1      45.517  26.987  27.949  1.00  0.00     0.031 C 
ATOM     66  C   UNL A   1      46.249  29.201  28.778  1.00  0.00     0.037 A 
BRANCH  53  67
ATOM     67  C   UNL A   1      44.219  34.315  31.584  1.00  0.00     0.058 A 
ATOM     68  C   UNL A   1      44.265  35.440  30.748  1.00  0.00     0.135 A 
ATOM     69  C   UNL A   1      44.471  34.501  32.953  1.00  0.00     0.135 A 
ATOM     70  F   UNL A   1      44.058  35.311  29.427  1.00  0.00    -0.206 F 
ATOM     71  C   UNL A   1      44.573  36.702  31.246  1.00  0.00     0.059 A 
ATOM     72  C   UNL A   1      44.756  35.757  33.478  1.00  0.00     0.059 A 
ATOM     73  F   UNL A   1      44.449  33.454  33.792  1.00  0.00    -0.206 F 
ATOM     74  C   UNL A   1      44.820  36.849  32.613  1.00  0.00     0.060 A 
BRANCH  74  75
ATOM     75  S   UNL A   1      45.223  38.490  33.246  1.00  0.00     0.124 S 
ATOM     76  O   UNL A   1      46.541  38.712  32.659  1.00  0.00    -0.237 OA
ATOM     77  O   UNL A   1      44.142  39.308  32.704  1.00  0.00    -0.237 OA
ATOM     78  O   UNL A   1      45.203  38.310  34.695  1.00  0.00    -0.744 OA
ENDBRANCH  74  75
ENDBRANCH  53  67
BRANCH  54  79
ATOM     79  C   UNL A   1      41.682  25.258  28.252  1.00  0.00     0.058 A 
ATOM     80  C   UNL A   1      42.158  24.097  28.882  1.00  0.00     0.135 A 
ATOM     81  C   UNL A   1      40.902  25.097  27.097  1.00  0.00     0.135 A 
ATOM     82  F   UNL A   1      42.926  24.198  29.978  1.00  0.00    -0.206 F 
ATOM     83  C   UNL A   1      41.891  22.828  28.376  1.00  0.00     0.059 A 
ATOM     84  C   UNL A   1      40.598  23.838  26.586  1.00  0.00     0.059 A 
ATOM     85  F   UNL A   1      40.420  26.173  26.454  1.00  0.00    -0.206 F 
ATOM     86  C   UNL A   1      41.110  22.710  27.225  1.00  0.00     0.060 A 
BRANCH  86  87
ATOM     87  S   UNL A   1      40.744  21.058  26.590  1.00  0.00     0.124 S 
ATOM     88  O   UNL A   1      41.836  20.859  25.646  1.00  0.00    -0.237 OA
ATOM     89  O   UNL A   1      40.788  20.245  27.801  1.00  0.00    -0.237 OA
ATOM     90  O   UNL A   1      39.418  21.216  25.998  1.00  0.00    -0.744 OA
ENDBRANCH  86  87
ENDBRANCH  54  79
BRANCH  66  91
ATOM     91  C   UNL A   1      47.643  28.900  28.298  1.00  0.00     0.058 A 
ATOM     92  C   UNL A   1      48.540  28.140  29.063  1.00  0.00     0.135 A 
ATOM     93  C   UNL A   1      48.043  29.284  27.007  1.00  0.00     0.135 A 
ATOM     94  F   UNL A   1      48.208  27.751  30.304  1.00  0.00    -0.206 F 
ATOM     95  C   UNL A   1      49.788  27.774  28.566  1.00  0.00     0.059 A 
ATOM     96  C   UNL A   1      49.277  28.910  26.482  1.00  0.00     0.059 A 
ATOM     97  F   UNL A   1      47.217  30.002  26.229  1.00  0.00    -0.206 F 
ATOM     98  C   UNL A   1      50.144  28.156  27.271  1.00  0.00     0.060 A 
BRANCH  98  99
ATOM     99  S   UNL A   1      51.735  27.610  26.612  1.00  0.00     0.124 S 
ATOM    100  O   UNL A   1      51.673  26.171  26.845  1.00  0.00    -0.237 OA
ATOM    101  O   UNL A   1      51.657  28.032  25.217  1.00  0.00    -0.237 OA
ATOM    102  O   UNL A   1      52.707  28.337  27.426  1.00  0.00    -0.744 OA
ENDBRANCH  98  99
ENDBRANCH  66  91
ENDBRANCH  40  41
ENDBRANCH  33  35
ENDBRANCH  32  33
ENDBRANCH  31  32
ENDBRANCH  30  31
ENDBRANCH  29  30
ENDBRANCH  28  29
ENDBRANCH   1  28
TORSDOF 26
ENDMDL
MODEL 2
REMARK VINA RESULT:     -10.0      2.532      8.570
REMARK SMILES CC[NH2+][C@]1(C(=O)OCCOCCOCCOC(=O)c2ccc(-c3c4nc(c(-c5c(F)cc(S(=O)(=O)[O-])cc5F)c5ccc([nH]5)c(-c5c(F)cc(S(=O)(=O)[O-])cc5F)c5nc(c(-c6c(F)cc(S(=O)(=O)[O-])cc6F)c6ccc3[nH]6)C=C5)C=C4)cc2)CCC[C@@H]1CCSc1ccc(C)cc1
REMARK SMILES IDX 11 1 10 2 9 3 8 4 7 5 5 6 6 7 4 8 85 9 88 10 86 11 87 12
REMARK SMILES IDX 3 13 2 16 1 17 89 18 90 19 91 20 92 21 93 22 98 23 94 24
REMARK SMILES IDX 97 25 95 26 96 27 12 28 13 29 14 30 15 31 16 32 17 33 18 34
REMARK SMILES IDX 19 35 20 36 84 37 21 38 83 39 22 40 23 41 24 42 77 43 25 44
REMARK SMILES IDX 82 45 76 46 78 47 26 48 81 49 75 50 74 51 27 53 61 54 40 55
REMARK SMILES IDX 60 56 41 57 44 58 59 59 79 60 42 61 43 62 58 64 80 65 45 66
REMARK SMILES IDX 28 67 29 68 38 69 30 70 31 71 37 72 39 73 32 74 33 75 34 76
REMARK SMILES IDX 35 77 36 78 62 79 63 80 72 81 64 82 65 83 71 84 73 85 66 86
REMARK SMILES IDX 67 87 68 88 69 89 70 90 46 91 47 92 56 93 48 94 49 95 55 96
REMARK SMILES IDX 57 97 50 98 51 99 52 100 53 101 54 102
REMARK H PARENT 3 14 3 15 78 52 44 63
REMARK Flexibility Score: inf
ROOT
ATOM      1  C   UNL A   1      35.116  31.179  27.979  1.00  0.00     0.188 C 
ENDROOT
BRANCH   1   2
ATOM      2  O   UNL A   1      34.382  30.278  27.163  1.00  0.00    -0.376 OA
BRANCH   2   3
ATOM      3  C   UNL A   1      32.979  30.436  27.272  1.00  0.00     0.202 C 
BRANCH   3   4
ATOM      4  C   UNL A   1      32.236  29.151  26.976  1.00  0.00     0.261 C 
BRANCH   4   5
ATOM      5  O   UNL A   1      32.286  28.507  25.676  1.00  0.00    -0.459 OA
BRANCH   5   6
ATOM      6  C   UNL A   1      31.439  28.448  24.610  1.00  0.00     0.368 C 
ATOM      7  O   UNL A   1      30.735  29.382  24.253  1.00  0.00    -0.245 OA
BRANCH   6   8
ATOM      8  C   UNL A   1      31.671  27.098  23.790  1.00  0.00     0.197 C 
ATOM      9  C   UNL A   1      31.499  27.400  22.295  1.00  0.00     0.081 C 
ATOM     10  C   UNL A   1      33.140  26.777  23.925  1.00  0.00     0.063 C 
ATOM     11  C   UNL A   1      32.373  26.369  21.600  1.00  0.00     0.008 C 
ATOM     12  C   UNL A   1      33.510  26.053  22.599  1.00  0.00     0.011 C 
BRANCH   8  13
ATOM     13  N   UNL A   1      30.839  25.910  24.152  1.00  0.00    -0.332 N 
ATOM     14  H   UNL A   1      30.426  25.581  23.280  1.00  0.00     0.347 HD
ATOM     15  H   UNL A   1      31.517  25.332  24.648  1.00  0.00     0.347 HD
BRANCH  13  16
ATOM     16  C   UNL A   1      29.739  25.963  25.124  1.00  0.00     0.257 C 
ATOM     17  C   UNL A   1      30.006  25.168  26.401  1.00  0.00     0.071 C 
ENDBRANCH  13  16
ENDBRANCH   8  13
BRANCH  10  18
ATOM     18  C   UNL A   1      33.501  26.196  25.327  1.00  0.00     0.022 C 
BRANCH  18  19
ATOM     19  C   UNL A   1      33.577  24.629  25.765  1.00  0.00     0.075 C 
BRANCH  19  20
ATOM     20  S   UNL A   1      34.686  22.971  26.050  1.00  0.00    -0.126 SA
BRANCH  20  21
ATOM     21  C   UNL A   1      34.159  21.439  25.250  1.00  0.00     0.007 A 
ATOM     22  C   UNL A   1      32.872  21.282  24.729  1.00  0.00     0.015 A 
ATOM     23  C   UNL A   1      35.041  20.383  24.989  1.00  0.00     0.015 A 
ATOM     24  C   UNL A   1      32.365  20.007  24.413  1.00  0.00     0.004 A 
ATOM     25  C   UNL A   1      34.560  19.109  24.625  1.00  0.00     0.004 A 
ATOM     26  C   UNL A   1      33.189  18.889  24.494  1.00  0.00    -0.051 A 
ATOM     27  C   UNL A   1      32.620  17.498  24.511  1.00  0.00     0.044 C 
ENDBRANCH  20  21
ENDBRANCH  19  20
ENDBRANCH  18  19
ENDBRANCH  10  18
ENDBRANCH   6   8
ENDBRANCH   5   6
ENDBRANCH   4   5
ENDBRANCH   3   4
ENDBRANCH   2   3
ENDBRANCH   1   2
BRANCH   1  28
ATOM     28  C   UNL A   1      34.427  32.541  28.091  1.00  0.00     0.188 C 
BRANCH  28  29
ATOM     29  O   UNL A   1      34.158  33.083  29.377  1.00  0.00    -0.376 OA
BRANCH  29  30
ATOM     30  C   UNL A   1      35.183  33.867  29.968  1.00  0.00     0.202 C 
BRANCH  30  31
ATOM     31  C   UNL A   1      35.903  33.253  31.180  1.00  0.00     0.261 C 
BRANCH  31  32
ATOM     32  O   UNL A   1      37.170  32.645  30.851  1.00  0.00    -0.460 OA
BRANCH  32  33
ATOM     33  C   UNL A   1      37.454  31.472  31.475  1.00  0.00     0.338 C 
ATOM     34  O   UNL A   1      36.785  30.930  32.343  1.00  0.00    -0.246 OA
BRANCH  33  35
ATOM     35  C   UNL A   1      38.577  30.785  30.782  1.00  0.00     0.060 A 
ATOM     36  C   UNL A   1      39.652  30.319  31.560  1.00  0.00     0.016 A 
ATOM     37  C   UNL A   1      38.594  30.603  29.399  1.00  0.00     0.016 A 
ATOM     38  C   UNL A   1      40.753  29.702  30.963  1.00  0.00     0.010 A 
ATOM     39  C   UNL A   1      39.723  30.032  28.794  1.00  0.00     0.010 A 
ATOM     40  C   UNL A   1      40.823  29.615  29.569  1.00  0.00    -0.014 A 
BRANCH  40  41
ATOM     41  C   UNL A   1      42.133  29.372  28.907  1.00  0.00     0.031 A 
ATOM     42  C   UNL A   1      42.406  27.977  28.408  1.00  0.00     0.074 A 
ATOM     43  C   UNL A   1      43.065  30.331  28.755  1.00  0.00     0.049 A 
ATOM     44  N   UNL A   1      43.516  27.456  27.954  1.00  0.00    -0.248 NA
ATOM     45  C   UNL A   1      41.267  27.042  28.426  1.00  0.00     0.031 C 
ATOM     46  C   UNL A   1      42.903  31.739  29.107  1.00  0.00     0.029 A 
ATOM     47  N   UNL A   1      44.349  30.249  28.270  1.00  0.00    -0.354 N 
ATOM     48  C   UNL A   1      43.214  26.132  27.654  1.00  0.00     0.074 A 
ATOM     49  C   UNL A   1      41.820  25.928  27.974  1.00  0.00     0.031 C 
ATOM     50  C   UNL A   1      44.055  32.387  28.845  1.00  0.00     0.029 A 
ATOM     51  C   UNL A   1      45.049  31.431  28.354  1.00  0.00     0.049 A 
ATOM     52  H   UNL A   1      44.732  29.422  27.897  1.00  0.00     0.167 HD
ATOM     53  C   UNL A   1      44.028  25.166  27.169  1.00  0.00     0.037 A 
ATOM     54  C   UNL A   1      46.349  31.694  28.102  1.00  0.00     0.037 A 
ATOM     55  C   UNL A   1      45.420  25.357  26.872  1.00  0.00     0.049 A 
ATOM     56  C   UNL A   1      47.268  30.575  27.661  1.00  0.00     0.074 A 
ATOM     57  C   UNL A   1      46.338  24.426  26.419  1.00  0.00     0.029 A 
ATOM     58  N   UNL A   1      46.097  26.559  27.005  1.00  0.00    -0.354 N 
ATOM     59  N   UNL A   1      46.982  29.318  27.416  1.00  0.00    -0.248 NA
ATOM     60  C   UNL A   1      48.691  30.908  27.484  1.00  0.00     0.031 C 
ATOM     61  C   UNL A   1      47.582  25.056  26.317  1.00  0.00     0.029 A 
ATOM     62  C   UNL A   1      47.426  26.391  26.658  1.00  0.00     0.049 A 
ATOM     63  H   UNL A   1      45.693  27.406  27.303  1.00  0.00     0.167 HD
ATOM     64  C   UNL A   1      48.181  28.721  27.029  1.00  0.00     0.074 A 
ATOM     65  C   UNL A   1      49.194  29.753  27.067  1.00  0.00     0.031 C 
ATOM     66  C   UNL A   1      48.420  27.434  26.676  1.00  0.00     0.037 A 
BRANCH  53  67
ATOM     67  C   UNL A   1      43.436  23.800  26.984  1.00  0.00     0.058 A 
ATOM     68  C   UNL A   1      43.220  22.936  28.067  1.00  0.00     0.135 A 
ATOM     69  C   UNL A   1      43.078  23.351  25.702  1.00  0.00     0.135 A 
ATOM     70  F   UNL A   1      43.571  23.307  29.309  1.00  0.00    -0.206 F 
ATOM     71  C   UNL A   1      42.688  21.664  27.885  1.00  0.00     0.059 A 
ATOM     72  C   UNL A   1      42.522  22.093  25.499  1.00  0.00     0.059 A 
ATOM     73  F   UNL A   1      43.274  24.137  24.632  1.00  0.00    -0.206 F 
ATOM     74  C   UNL A   1      42.345  21.250  26.596  1.00  0.00     0.060 A 
BRANCH  74  75
ATOM     75  S   UNL A   1      41.662  19.595  26.373  1.00  0.00     0.124 S 
ATOM     76  O   UNL A   1      42.006  18.965  27.644  1.00  0.00    -0.237 OA
ATOM     77  O   UNL A   1      40.243  19.868  26.165  1.00  0.00    -0.237 OA
ATOM     78  O   UNL A   1      42.377  19.086  25.206  1.00  0.00    -0.744 OA
ENDBRANCH  74  75
ENDBRANCH  53  67
BRANCH  54  79
ATOM     79  C   UNL A   1      46.895  33.067  28.300  1.00  0.00     0.058 A 
ATOM     80  C   UNL A   1      46.884  34.006  27.256  1.00  0.00     0.135 A 
ATOM     81  C   UNL A   1      47.477  33.453  29.517  1.00  0.00     0.135 A 
ATOM     82  F   UNL A   1      46.358  33.678  26.066  1.00  0.00    -0.206 F 
ATOM     83  C   UNL A   1      47.448  35.270  27.404  1.00  0.00     0.059 A 
ATOM     84  C   UNL A   1      48.024  34.721  29.698  1.00  0.00     0.059 A 
ATOM     85  F   UNL A   1      47.514  32.595  30.548  1.00  0.00    -0.206 F 
ATOM     86  C   UNL A   1      48.018  35.617  28.631  1.00  0.00     0.060 A 
BRANCH  86  87
ATOM     87  S   UNL A   1      48.722  37.270  28.825  1.00  0.00     0.124 S 
ATOM     88  O   UNL A   1      48.537  37.825  27.490  1.00  0.00    -0.237 OA
ATOM     89  O   UNL A   1      47.885  37.840  29.876  1.00  0.00    -0.237 OA
ATOM     90  O   UNL A   1      50.104  36.999  29.211  1.00  0.00    -0.744 OA
ENDBRANCH  86  87
ENDBRANCH  54  79
BRANCH  66  91
ATOM     91  C   UNL A   1      49.814  27.060  26.251  1.00  0.00     0.058 A 
ATOM     92  C   UNL A   1      50.752  26.550  27.160  1.00  0.00     0.135 A 
ATOM     93  C   UNL A   1      50.176  27.110  24.894  1.00  0.00     0.135 A 
ATOM     94  F   UNL A   1      50.458  26.484  28.468  1.00  0.00    -0.206 F 
ATOM     95  C   UNL A   1      52.002  26.104  26.740  1.00  0.00     0.059 A 
ATOM     96  C   UNL A   1      51.411  26.649  24.449  1.00  0.00     0.059 A 
ATOM     97  F   UNL A   1      49.310  27.578  23.980  1.00  0.00    -0.206 F 
ATOM     98  C   UNL A   1      52.319  26.149  25.381  1.00  0.00     0.060 A 
BRANCH  98  99
ATOM     99  S   UNL A   1      53.916  25.499  24.841  1.00  0.00     0.124 S 
ATOM    100  O   UNL A   1      53.634  24.070  24.742  1.00  0.00    -0.237 OA
ATOM    101  O   UNL A   1      54.125  26.194  23.574  1.00  0.00    -0.237 OA
ATOM    102  O   UNL A   1      54.823  25.886  25.918  1.00  0.00    -0.744 OA
ENDBRANCH  98  99
ENDBRANCH  66  91
ENDBRANCH  40  41
ENDBRANCH  33  35
ENDBRANCH  32  33
ENDBRANCH  31  32
ENDBRANCH  30  31
ENDBRANCH  29  30
ENDBRANCH  28  29
ENDBRANCH   1  28
TORSDOF 26
ENDMDL
MODEL 3
REMARK VINA RESULT:      -9.7      2.182      3.231
REMARK SMILES CC[NH2+][C@]1(C(=O)OCCOCCOCCOC(=O)c2ccc(-c3c4nc(c(-c5c(F)cc(S(=O)(=O)[O-])cc5F)c5ccc([nH]5)c(-c5c(F)cc(S(=O)(=O)[O-])cc5F)c5nc(c(-c6c(F)cc(S(=O)(=O)[O-])cc6F)c6ccc3[nH]6)C=C5)C=C4)cc2)CCC[C@@H]1CCSc1ccc(C)cc1
REMARK SMILES IDX 11 1 10 2 9 3 8 4 7 5 5 6 6 7 4 8 85 9 88 10 86 11 87 12
REMARK SMILES IDX 3 13 2 16 1 17 89 18 90 19 91 20 92 21 93 22 98 23 94 24
REMARK SMILES IDX 97 25 95 26 96 27 12 28 13 29 14 30 15 31 16 32 17 33 18 34
REMARK SMILES IDX 19 35 20 36 84 37 21 38 83 39 22 40 23 41 24 42 77 43 25 44
REMARK SMILES IDX 82 45 76 46 78 47 26 48 81 49 75 50 74 51 27 53 61 54 40 55
REMARK SMILES IDX 60 56 41 57 44 58 59 59 79 60 42 61 43 62 58 64 80 65 45 66
REMARK SMILES IDX 28 67 29 68 38 69 30 70 31 71 37 72 39 73 32 74 33 75 34 76
REMARK SMILES IDX 35 77 36 78 62 79 63 80 72 81 64 82 65 83 71 84 73 85 66 86
REMARK SMILES IDX 67 87 68 88 69 89 70 90 46 91 47 92 56 93 48 94 49 95 55 96
REMARK SMILES IDX 57 97 50 98 51 99 52 100 53 101 54 102
REMARK H PARENT 3 14 3 15 78 52 44 63
REMARK Flexibility Score: inf
ROOT
ATOM      1  C   UNL A   1      34.462  31.525  27.999  1.00  0.00     0.188 C 
ENDROOT
BRANCH   1   2
ATOM      2  O   UNL A   1      33.774  30.351  27.595  1.00  0.00    -0.376 OA
BRANCH   2   3
ATOM      3  C   UNL A   1      32.511  30.612  27.009  1.00  0.00     0.202 C 
BRANCH   3   4
ATOM      4  C   UNL A   1      31.866  29.358  26.462  1.00  0.00     0.261 C 
BRANCH   4   5
ATOM      5  O   UNL A   1      32.079  28.907  25.099  1.00  0.00    -0.459 OA
BRANCH   5   6
ATOM      6  C   UNL A   1      31.255  28.564  24.070  1.00  0.00     0.368 C 
ATOM      7  O   UNL A   1      30.427  29.323  23.584  1.00  0.00    -0.245 OA
BRANCH   6   8
ATOM      8  C   UNL A   1      31.681  27.149  23.463  1.00  0.00     0.197 C 
ATOM      9  C   UNL A   1      31.154  27.057  22.025  1.00  0.00     0.081 C 
ATOM     10  C   UNL A   1      33.180  27.206  23.293  1.00  0.00     0.063 C 
ATOM     11  C   UNL A   1      32.124  26.118  21.329  1.00  0.00     0.008 C 
ATOM     12  C   UNL A   1      33.472  26.300  22.063  1.00  0.00     0.011 C 
BRANCH   8  13
ATOM     13  N   UNL A   1      31.283  25.920  24.215  1.00  0.00    -0.332 N 
ATOM     14  H   UNL A   1      32.087  25.294  24.172  1.00  0.00     0.347 HD
ATOM     15  H   UNL A   1      30.987  26.316  25.106  1.00  0.00     0.347 HD
BRANCH  13  16
ATOM     16  C   UNL A   1      30.117  25.101  23.860  1.00  0.00     0.257 C 
ATOM     17  C   UNL A   1      30.464  23.656  23.503  1.00  0.00     0.071 C 
ENDBRANCH  13  16
ENDBRANCH   8  13
BRANCH  10  18
ATOM     18  C   UNL A   1      33.943  27.054  24.646  1.00  0.00     0.022 C 
BRANCH  18  19
ATOM     19  C   UNL A   1      34.428  25.677  25.367  1.00  0.00     0.075 C 
BRANCH  19  20
ATOM     20  S   UNL A   1      35.614  24.048  25.348  1.00  0.00    -0.126 SA
BRANCH  20  21
ATOM     21  C   UNL A   1      34.896  22.471  24.838  1.00  0.00     0.007 A 
ATOM     22  C   UNL A   1      33.800  22.402  23.973  1.00  0.00     0.015 A 
ATOM     23  C   UNL A   1      35.472  21.237  25.168  1.00  0.00     0.015 A 
ATOM     24  C   UNL A   1      33.048  21.219  23.841  1.00  0.00     0.004 A 
ATOM     25  C   UNL A   1      34.757  20.035  25.002  1.00  0.00     0.004 A 
ATOM     26  C   UNL A   1      33.465  20.054  24.478  1.00  0.00    -0.051 A 
ATOM     27  C   UNL A   1      32.536  18.886  24.658  1.00  0.00     0.044 C 
ENDBRANCH  20  21
ENDBRANCH  19  20
ENDBRANCH  18  19
ENDBRANCH  10  18
ENDBRANCH   6   8
ENDBRANCH   5   6
ENDBRANCH   4   5
ENDBRANCH   3   4
ENDBRANCH   2   3
ENDBRANCH   1   2
BRANCH   1  28
ATOM     28  C   UNL A   1      33.596  32.778  27.845  1.00  0.00     0.188 C 
BRANCH  28  29
ATOM     29  O   UNL A   1      33.389  33.625  28.967  1.00  0.00    -0.376 OA
BRANCH  29  30
ATOM     30  C   UNL A   1      34.484  34.436  29.367  1.00  0.00     0.202 C 
BRANCH  30  31
ATOM     31  C   UNL A   1      35.293  33.947  30.579  1.00  0.00     0.261 C 
BRANCH  31  32
ATOM     32  O   UNL A   1      36.367  33.048  30.231  1.00  0.00    -0.460 OA
BRANCH  32  33
ATOM     33  C   UNL A   1      36.512  31.950  31.018  1.00  0.00     0.338 C 
ATOM     34  O   UNL A   1      35.742  31.576  31.892  1.00  0.00    -0.246 OA
BRANCH  33  35
ATOM     35  C   UNL A   1      37.620  31.099  30.507  1.00  0.00     0.060 A 
ATOM     36  C   UNL A   1      38.438  30.443  31.444  1.00  0.00     0.016 A 
ATOM     37  C   UNL A   1      37.870  30.946  29.143  1.00  0.00     0.016 A 
ATOM     38  C   UNL A   1      39.518  29.662  31.028  1.00  0.00     0.010 A 
ATOM     39  C   UNL A   1      38.986  30.207  28.727  1.00  0.00     0.010 A 
ATOM     40  C   UNL A   1      39.837  29.594  29.667  1.00  0.00    -0.014 A 
BRANCH  40  41
ATOM     41  C   UNL A   1      41.192  29.148  29.246  1.00  0.00     0.031 A 
ATOM     42  C   UNL A   1      42.277  30.193  29.195  1.00  0.00     0.074 A 
ATOM     43  C   UNL A   1      41.472  27.877  28.906  1.00  0.00     0.049 A 
ATOM     44  N   UNL A   1      43.487  30.116  28.706  1.00  0.00    -0.248 NA
ATOM     45  C   UNL A   1      41.946  31.508  29.773  1.00  0.00     0.031 C 
ATOM     46  C   UNL A   1      40.549  26.749  28.995  1.00  0.00     0.029 A 
ATOM     47  N   UNL A   1      42.627  27.329  28.400  1.00  0.00    -0.354 N 
ATOM     48  C   UNL A   1      44.052  31.371  28.899  1.00  0.00     0.074 A 
ATOM     49  C   UNL A   1      43.056  32.192  29.550  1.00  0.00     0.031 C 
ATOM     50  C   UNL A   1      41.168  25.644  28.536  1.00  0.00     0.029 A 
ATOM     51  C   UNL A   1      42.513  25.996  28.078  1.00  0.00     0.049 A 
ATOM     52  H   UNL A   1      43.459  27.843  28.280  1.00  0.00     0.167 HD
ATOM     53  C   UNL A   1      45.284  31.809  28.553  1.00  0.00     0.037 A 
ATOM     54  C   UNL A   1      43.380  25.174  27.450  1.00  0.00     0.037 A 
ATOM     55  C   UNL A   1      46.269  31.004  27.885  1.00  0.00     0.049 A 
ATOM     56  C   UNL A   1      44.712  25.711  26.976  1.00  0.00     0.074 A 
ATOM     57  C   UNL A   1      47.530  31.373  27.452  1.00  0.00     0.029 A 
ATOM     58  N   UNL A   1      46.099  29.672  27.545  1.00  0.00    -0.354 N 
ATOM     59  N   UNL A   1      45.223  26.910  27.130  1.00  0.00    -0.248 NA
ATOM     60  C   UNL A   1      45.578  24.788  26.223  1.00  0.00     0.031 C 
ATOM     61  C   UNL A   1      48.109  30.272  26.814  1.00  0.00     0.029 A 
ATOM     62  C   UNL A   1      47.227  29.205  26.894  1.00  0.00     0.049 A 
ATOM     63  H   UNL A   1      45.295  29.136  27.738  1.00  0.00     0.167 HD
ATOM     64  C   UNL A   1      46.477  26.874  26.521  1.00  0.00     0.074 A 
ATOM     65  C   UNL A   1      46.651  25.536  26.000  1.00  0.00     0.031 C 
ATOM     66  C   UNL A   1      47.398  27.861  26.403  1.00  0.00     0.037 A 
BRANCH  53  67
ATOM     67  C   UNL A   1      45.610  33.244  28.847  1.00  0.00     0.058 A 
ATOM     68  C   UNL A   1      46.243  33.628  30.039  1.00  0.00     0.135 A 
ATOM     69  C   UNL A   1      45.285  34.248  27.921  1.00  0.00     0.135 A 
ATOM     70  F   UNL A   1      46.549  32.709  30.968  1.00  0.00    -0.206 F 
ATOM     71  C   UNL A   1      46.525  34.962  30.312  1.00  0.00     0.059 A 
ATOM     72  C   UNL A   1      45.580  35.585  28.162  1.00  0.00     0.059 A 
ATOM     73  F   UNL A   1      44.669  33.933  26.771  1.00  0.00    -0.206 F 
ATOM     74  C   UNL A   1      46.186  35.934  29.368  1.00  0.00     0.060 A 
BRANCH  74  75
ATOM     75  S   UNL A   1      46.552  37.662  29.739  1.00  0.00     0.124 S 
ATOM     76  O   UNL A   1      47.695  37.530  30.637  1.00  0.00    -0.237 OA
ATOM     77  O   UNL A   1      46.844  38.210  28.418  1.00  0.00    -0.237 OA
ATOM     78  O   UNL A   1      45.321  38.145  30.357  1.00  0.00    -0.744 OA
ENDBRANCH  74  75
ENDBRANCH  53  67
BRANCH  54  79
ATOM     79  C   UNL A   1      43.014  23.755  27.178  1.00  0.00     0.058 A 
ATOM     80  C   UNL A   1      42.698  23.327  25.879  1.00  0.00     0.135 A 
ATOM     81  C   UNL A   1      42.928  22.811  28.213  1.00  0.00     0.135 A 
ATOM     82  F   UNL A   1      42.744  24.195  24.857  1.00  0.00    -0.206 F 
ATOM     83  C   UNL A   1      42.292  22.021  25.618  1.00  0.00     0.059 A 
ATOM     84  C   UNL A   1      42.550  21.492  27.973  1.00  0.00     0.059 A 
ATOM     85  F   UNL A   1      43.219  23.167  29.474  1.00  0.00    -0.206 F 
ATOM     86  C   UNL A   1      42.220  21.111  26.674  1.00  0.00     0.060 A 
BRANCH  86  87
ATOM     87  S   UNL A   1      41.720  19.410  26.324  1.00  0.00     0.124 S 
ATOM     88  O   UNL A   1      40.267  19.524  26.338  1.00  0.00    -0.237 OA
ATOM     89  O   UNL A   1      42.329  19.172  25.019  1.00  0.00    -0.237 OA
ATOM     90  O   UNL A   1      42.306  18.657  27.429  1.00  0.00    -0.744 OA
ENDBRANCH  86  87
ENDBRANCH  54  79
BRANCH  66  91
ATOM     91  C   UNL A   1      48.705  27.538  25.731  1.00  0.00     0.058 A 
ATOM     92  C   UNL A   1      48.848  27.576  24.336  1.00  0.00     0.135 A 
ATOM     93  C   UNL A   1      49.855  27.297  26.501  1.00  0.00     0.135 A 
ATOM     94  F   UNL A   1      47.780  27.800  23.553  1.00  0.00    -0.206 F 
ATOM     95  C   UNL A   1      50.085  27.384  23.728  1.00  0.00     0.059 A 
ATOM     96  C   UNL A   1      51.105  27.123  25.916  1.00  0.00     0.059 A 
ATOM     97  F   UNL A   1      49.775  27.262  27.842  1.00  0.00    -0.206 F 
ATOM     98  C   UNL A   1      51.210  27.166  24.526  1.00  0.00     0.060 A 
BRANCH  98  99
ATOM     99  S   UNL A   1      52.821  26.992  23.728  1.00  0.00     0.124 S 
ATOM    100  O   UNL A   1      53.363  25.821  24.409  1.00  0.00    -0.237 OA
ATOM    101  O   UNL A   1      52.457  26.799  22.327  1.00  0.00    -0.237 OA
ATOM    102  O   UNL A   1      53.487  28.257  24.026  1.00  0.00    -0.744 OA
ENDBRANCH  98  99
ENDBRANCH  66  91
ENDBRANCH  40  41
ENDBRANCH  33  35
ENDBRANCH  32  33
ENDBRANCH  31  32
ENDBRANCH  30  31
ENDBRANCH  29  30
ENDBRANCH  28  29
ENDBRANCH   1  28
TORSDOF 26
ENDMDL
