MODEL 1
REMARK VINA RESULT:     -10.0      0.000      0.000
REMARK SMILES O=C(OCCOCCOCCOC(=O)[C@@H](Cc1ccccc1)Nc1ccc(Cl)c(Br)c1)c1ccc(-c2c3nc(c(-c4c(F)cc(S(=O)(=O)[O-])cc4F)c4ccc([nH]4)c(-c4c(F)cc(S(=O)(=O)[O-])cc4F)c4nc(c(-c5c(F)cc(S(=O)(=O)[O-])cc5F)c5ccc2[nH]5)C=C4)C=C3)cc1
REMARK SMILES IDX 7 1 6 2 5 3 4 4 3 5 2 6 1 7 32 8 33 9 97 10 34 11 96 12
REMARK SMILES IDX 35 13 36 14 37 15 90 16 38 17 95 18 89 19 91 20 39 21 94 22
REMARK SMILES IDX 88 23 87 24 40 26 74 27 53 28 73 29 54 30 57 31 72 32 92 33
REMARK SMILES IDX 55 34 56 35 71 37 93 38 58 39 41 40 42 41 51 42 43 43 44 44
REMARK SMILES IDX 50 45 52 46 45 47 46 48 47 49 48 50 49 51 75 52 76 53 85 54
REMARK SMILES IDX 77 55 78 56 84 57 86 58 79 59 80 60 81 61 82 62 83 63 59 64
REMARK SMILES IDX 60 65 69 66 61 67 62 68 68 69 70 70 63 71 64 72 65 73 66 74
REMARK SMILES IDX 67 75 8 76 9 77 10 78 11 79 12 80 13 81 14 82 15 83 16 84
REMARK SMILES IDX 17 85 18 86 22 87 19 88 21 89 20 90 23 91 24 93 25 94 31 95
REMARK SMILES IDX 26 96 29 97 27 98 30 99 28 100
REMARK H PARENT 91 25 57 36 23 92
REMARK Flexibility Score: inf
ROOT
ATOM      1  C   UNL A   1      34.830  23.814  23.156  1.00  0.00     0.188 C 
ENDROOT
BRANCH   1   2
ATOM      2  O   UNL A   1      36.079  23.179  22.836  1.00  0.00    -0.376 OA
BRANCH   2   3
ATOM      3  C   UNL A   1      36.550  22.299  23.861  1.00  0.00     0.202 C 
BRANCH   3   4
ATOM      4  C   UNL A   1      36.683  22.917  25.261  1.00  0.00     0.261 C 
BRANCH   4   5
ATOM      5  O   UNL A   1      37.571  22.188  26.121  1.00  0.00    -0.460 OA
BRANCH   5   6
ATOM      6  C   UNL A   1      38.913  22.314  26.271  1.00  0.00     0.338 C 
ATOM      7  O   UNL A   1      39.609  21.349  25.954  1.00  0.00    -0.246 OA
BRANCH   6   8
ATOM      8  C   UNL A   1      39.611  23.524  26.829  1.00  0.00     0.060 A 
ATOM      9  C   UNL A   1      40.421  23.555  27.962  1.00  0.00     0.016 A 
ATOM     10  C   UNL A   1      39.471  24.729  26.106  1.00  0.00     0.016 A 
ATOM     11  C   UNL A   1      41.035  24.733  28.386  1.00  0.00     0.010 A 
ATOM     12  C   UNL A   1      40.099  25.915  26.514  1.00  0.00     0.010 A 
ATOM     13  C   UNL A   1      40.878  25.920  27.668  1.00  0.00    -0.014 A 
BRANCH  13  14
ATOM     14  C   UNL A   1      41.505  27.137  28.224  1.00  0.00     0.031 A 
ATOM     15  C   UNL A   1      42.944  27.399  27.919  1.00  0.00     0.074 A 
ATOM     16  C   UNL A   1      40.744  28.060  28.839  1.00  0.00     0.049 A 
ATOM     17  N   UNL A   1      43.670  28.438  28.225  1.00  0.00    -0.248 NA
ATOM     18  C   UNL A   1      43.664  26.353  27.172  1.00  0.00     0.031 C 
ATOM     19  C   UNL A   1      39.324  27.895  29.124  1.00  0.00     0.029 A 
ATOM     20  N   UNL A   1      41.021  29.330  29.273  1.00  0.00    -0.354 N 
ATOM     21  C   UNL A   1      44.947  28.142  27.775  1.00  0.00     0.074 A 
ATOM     22  C   UNL A   1      44.884  26.864  27.104  1.00  0.00     0.031 C 
ATOM     23  C   UNL A   1      38.822  29.060  29.563  1.00  0.00     0.029 A 
ATOM     24  C   UNL A   1      39.908  30.023  29.700  1.00  0.00     0.049 A 
ATOM     25  H   UNL A   1      41.928  29.711  29.279  1.00  0.00     0.167 HD
ATOM     26  C   UNL A   1      46.078  28.853  27.979  1.00  0.00     0.037 A 
ATOM     27  C   UNL A   1      39.796  31.282  30.171  1.00  0.00     0.037 A 
ATOM     28  C   UNL A   1      46.110  30.106  28.681  1.00  0.00     0.049 A 
ATOM     29  C   UNL A   1      41.074  32.062  30.365  1.00  0.00     0.074 A 
ATOM     30  C   UNL A   1      47.207  30.873  29.022  1.00  0.00     0.029 A 
ATOM     31  N   UNL A   1      44.988  30.766  29.164  1.00  0.00    -0.354 N 
ATOM     32  N   UNL A   1      42.293  31.755  29.983  1.00  0.00    -0.248 NA
ATOM     33  C   UNL A   1      40.981  33.318  31.123  1.00  0.00     0.031 C 
ATOM     34  C   UNL A   1      46.752  31.970  29.761  1.00  0.00     0.029 A 
ATOM     35  C   UNL A   1      45.367  31.914  29.834  1.00  0.00     0.049 A 
ATOM     36  H   UNL A   1      44.059  30.461  29.047  1.00  0.00     0.167 HD
ATOM     37  C   UNL A   1      43.115  32.747  30.499  1.00  0.00     0.074 A 
ATOM     38  C   UNL A   1      42.249  33.708  31.153  1.00  0.00     0.031 C 
ATOM     39  C   UNL A   1      44.468  32.839  30.479  1.00  0.00     0.037 A 
BRANCH  26  40
ATOM     40  C   UNL A   1      47.370  28.212  27.572  1.00  0.00     0.058 A 
ATOM     41  C   UNL A   1      47.880  28.296  26.269  1.00  0.00     0.135 A 
ATOM     42  C   UNL A   1      48.106  27.487  28.523  1.00  0.00     0.135 A 
ATOM     43  F   UNL A   1      47.193  28.943  25.314  1.00  0.00    -0.206 F 
ATOM     44  C   UNL A   1      49.077  27.677  25.921  1.00  0.00     0.059 A 
ATOM     45  C   UNL A   1      49.312  26.876  28.203  1.00  0.00     0.059 A 
ATOM     46  F   UNL A   1      47.645  27.356  29.778  1.00  0.00    -0.206 F 
ATOM     47  C   UNL A   1      49.786  26.971  26.896  1.00  0.00     0.060 A 
BRANCH  47  48
ATOM     48  S   UNL A   1      51.342  26.180  26.435  1.00  0.00     0.124 S 
ATOM     49  O   UNL A   1      51.226  24.892  27.111  1.00  0.00    -0.237 OA
ATOM     50  O   UNL A   1      51.251  26.143  24.978  1.00  0.00    -0.237 OA
ATOM     51  O   UNL A   1      52.355  27.082  26.973  1.00  0.00    -0.744 OA
ENDBRANCH  47  48
ENDBRANCH  26  40
BRANCH  27  52
ATOM     52  C   UNL A   1      38.477  31.853  30.582  1.00  0.00     0.058 A 
ATOM     53  C   UNL A   1      37.694  32.597  29.684  1.00  0.00     0.135 A 
ATOM     54  C   UNL A   1      37.987  31.710  31.892  1.00  0.00     0.135 A 
ATOM     55  F   UNL A   1      38.111  32.782  28.422  1.00  0.00    -0.206 F 
ATOM     56  C   UNL A   1      36.497  33.197  30.074  1.00  0.00     0.059 A 
ATOM     57  C   UNL A   1      36.774  32.263  32.294  1.00  0.00     0.059 A 
ATOM     58  F   UNL A   1      38.690  31.021  32.804  1.00  0.00    -0.206 F 
ATOM     59  C   UNL A   1      36.046  33.025  31.383  1.00  0.00     0.060 A 
BRANCH  59  60
ATOM     60  S   UNL A   1      34.495  33.801  31.885  1.00  0.00     0.124 S 
ATOM     61  O   UNL A   1      33.851  32.717  32.618  1.00  0.00    -0.237 OA
ATOM     62  O   UNL A   1      34.957  34.928  32.690  1.00  0.00    -0.237 OA
ATOM     63  O   UNL A   1      33.875  34.163  30.616  1.00  0.00    -0.744 OA
ENDBRANCH  59  60
ENDBRANCH  27  52
BRANCH  39  64
ATOM     64  C   UNL A   1      45.091  33.984  31.223  1.00  0.00     0.058 A 
ATOM     65  C   UNL A   1      45.285  35.227  30.599  1.00  0.00     0.135 A 
ATOM     66  C   UNL A   1      45.392  33.874  32.589  1.00  0.00     0.135 A 
ATOM     67  F   UNL A   1      45.015  35.376  29.293  1.00  0.00    -0.206 F 
ATOM     68  C   UNL A   1      45.757  36.324  31.307  1.00  0.00     0.059 A 
ATOM     69  C   UNL A   1      45.843  34.966  33.321  1.00  0.00     0.059 A 
ATOM     70  F   UNL A   1      45.210  32.708  33.229  1.00  0.00    -0.206 F 
ATOM     71  C   UNL A   1      46.024  36.187  32.670  1.00  0.00     0.060 A 
BRANCH  71  72
ATOM     72  S   UNL A   1      46.561  37.641  33.594  1.00  0.00     0.124 S 
ATOM     73  O   UNL A   1      45.589  38.639  33.160  1.00  0.00    -0.237 OA
ATOM     74  O   UNL A   1      46.440  37.196  34.978  1.00  0.00    -0.237 OA
ATOM     75  O   UNL A   1      47.929  37.853  33.129  1.00  0.00    -0.744 OA
ENDBRANCH  71  72
ENDBRANCH  39  64
ENDBRANCH  13  14
ENDBRANCH   6   8
ENDBRANCH   5   6
ENDBRANCH   4   5
ENDBRANCH   3   4
ENDBRANCH   2   3
ENDBRANCH   1   2
BRANCH   1  76
ATOM     76  C   UNL A   1      33.636  22.997  22.650  1.00  0.00     0.188 C 
BRANCH  76  77
ATOM     77  O   UNL A   1      32.605  22.761  23.618  1.00  0.00    -0.376 OA
BRANCH  77  78
ATOM     78  C   UNL A   1      32.833  21.732  24.576  1.00  0.00     0.202 C 
BRANCH  78  79
ATOM     79  C   UNL A   1      32.012  21.830  25.862  1.00  0.00     0.261 C 
BRANCH  79  80
ATOM     80  O   UNL A   1      30.726  22.407  25.615  1.00  0.00    -0.462 OA
BRANCH  80  81
ATOM     81  C   UNL A   1      30.309  23.354  26.497  1.00  0.00     0.328 C 
ATOM     82  O   UNL A   1      29.737  23.104  27.557  1.00  0.00    -0.250 OA
BRANCH  81  83
ATOM     83  C   UNL A   1      30.699  24.777  26.060  1.00  0.00     0.194 C 
BRANCH  83  84
ATOM     84  C   UNL A   1      32.091  25.227  26.528  1.00  0.00     0.072 C 
BRANCH  84  85
ATOM     85  C   UNL A   1      32.403  26.707  26.555  1.00  0.00    -0.045 A 
ATOM     86  C   UNL A   1      31.546  27.618  27.186  1.00  0.00     0.004 A 
ATOM     87  C   UNL A   1      33.610  27.183  26.023  1.00  0.00     0.004 A 
ATOM     88  C   UNL A   1      31.890  28.967  27.285  1.00  0.00     0.000 A 
ATOM     89  C   UNL A   1      33.963  28.528  26.138  1.00  0.00     0.000 A 
ATOM     90  C   UNL A   1      33.101  29.420  26.769  1.00  0.00     0.000 A 
ENDBRANCH  84  85
ENDBRANCH  83  84
BRANCH  83  91
ATOM     91  N   UNL A   1      30.561  24.901  24.598  1.00  0.00    -0.372 N 
ATOM     92  H   UNL A   1      30.661  24.089  24.051  1.00  0.00     0.161 HD
BRANCH  91  93
ATOM     93  C   UNL A   1      30.298  26.096  23.957  1.00  0.00     0.036 A 
ATOM     94  C   UNL A   1      31.334  26.726  23.260  1.00  0.00     0.027 A 
ATOM     95  C   UNL A   1      29.036  26.698  23.945  1.00  0.00     0.043 A 
ATOM     96  C   UNL A   1      31.122  27.911  22.551  1.00  0.00     0.024 A 
ATOM     97  C   UNL A   1      28.817  27.897  23.246  1.00  0.00     0.038 A 
ATOM     98  C   UNL A   1      29.858  28.496  22.532  1.00  0.00     0.055 A 
ATOM     99  Br  UNL A   1      27.069  28.643  23.323  1.00  0.00    -0.049 Br
ATOM    100  Cl  UNL A   1      29.640  29.915  21.571  1.00  0.00    -0.083 Cl
ENDBRANCH  91  93
ENDBRANCH  83  91
ENDBRANCH  81  83
ENDBRANCH  80  81
ENDBRANCH  79  80
ENDBRANCH  78  79
ENDBRANCH  77  78
ENDBRANCH  76  77
ENDBRANCH   1  76
TORSDOF 24
ENDMDL
MODEL 2
REMARK VINA RESULT:      -9.9      3.464      7.801
REMARK SMILES O=C(OCCOCCOCCOC(=O)[C@@H](Cc1ccccc1)Nc1ccc(Cl)c(Br)c1)c1ccc(-c2c3nc(c(-c4c(F)cc(S(=O)(=O)[O-])cc4F)c4ccc([nH]4)c(-c4c(F)cc(S(=O)(=O)[O-])cc4F)c4nc(c(-c5c(F)cc(S(=O)(=O)[O-])cc5F)c5ccc2[nH]5)C=C4)C=C3)cc1
REMARK SMILES IDX 7 1 6 2 5 3 4 4 3 5 2 6 1 7 32 8 33 9 97 10 34 11 96 12
REMARK SMILES IDX 35 13 36 14 37 15 90 16 38 17 95 18 89 19 91 20 39 21 94 22
REMARK SMILES IDX 88 23 87 24 40 26 74 27 53 28 73 29 54 30 57 31 72 32 92 33
REMARK SMILES IDX 55 34 56 35 71 37 93 38 58 39 41 40 42 41 51 42 43 43 44 44
REMARK SMILES IDX 50 45 52 46 45 47 46 48 47 49 48 50 49 51 75 52 76 53 85 54
REMARK SMILES IDX 77 55 78 56 84 57 86 58 79 59 80 60 81 61 82 62 83 63 59 64
REMARK SMILES IDX 60 65 69 66 61 67 62 68 68 69 70 70 63 71 64 72 65 73 66 74
REMARK SMILES IDX 67 75 8 76 9 77 10 78 11 79 12 80 13 81 14 82 15 83 16 84
REMARK SMILES IDX 17 85 18 86 22 87 19 88 21 89 20 90 23 91 24 93 25 94 31 95
REMARK SMILES IDX 26 96 29 97 27 98 30 99 28 100
REMARK H PARENT 91 25 57 36 23 92
REMARK Flexibility Score: inf
ROOT
ATOM      1  C   UNL A   1      33.123  26.933  24.725  1.00  0.00     0.188 C 
ENDROOT
BRANCH   1   2
ATOM      2  O   UNL A   1      33.943  28.064  24.389  1.00  0.00    -0.376 OA
BRANCH   2   3
ATOM      3  C   UNL A   1      33.665  29.224  25.178  1.00  0.00     0.202 C 
BRANCH   3   4
ATOM      4  C   UNL A   1      32.877  28.976  26.473  1.00  0.00     0.261 C 
BRANCH   4   5
ATOM      5  O   UNL A   1      33.691  29.031  27.653  1.00  0.00    -0.460 OA
BRANCH   5   6
ATOM      6  C   UNL A   1      34.616  29.955  28.013  1.00  0.00     0.338 C 
ATOM      7  O   UNL A   1      34.248  31.129  28.066  1.00  0.00    -0.246 OA
BRANCH   6   8
ATOM      8  C   UNL A   1      36.060  29.662  28.315  1.00  0.00     0.060 A 
ATOM      9  C   UNL A   1      36.573  29.240  29.540  1.00  0.00     0.016 A 
ATOM     10  C   UNL A   1      36.971  29.779  27.243  1.00  0.00     0.016 A 
ATOM     11  C   UNL A   1      37.932  28.981  29.709  1.00  0.00     0.010 A 
ATOM     12  C   UNL A   1      38.338  29.504  27.399  1.00  0.00     0.010 A 
ATOM     13  C   UNL A   1      38.824  29.112  28.644  1.00  0.00    -0.014 A 
BRANCH  13  14
ATOM     14  C   UNL A   1      40.257  28.887  28.925  1.00  0.00     0.031 A 
ATOM     15  C   UNL A   1      40.896  27.639  28.408  1.00  0.00     0.074 A 
ATOM     16  C   UNL A   1      40.991  29.867  29.482  1.00  0.00     0.049 A 
ATOM     17  N   UNL A   1      42.147  27.277  28.460  1.00  0.00    -0.248 NA
ATOM     18  C   UNL A   1      40.009  26.666  27.747  1.00  0.00     0.031 C 
ATOM     19  C   UNL A   1      40.445  31.130  29.962  1.00  0.00     0.029 A 
ATOM     20  N   UNL A   1      42.341  29.995  29.679  1.00  0.00    -0.354 N 
ATOM     21  C   UNL A   1      42.189  26.008  27.906  1.00  0.00     0.074 A 
ATOM     22  C   UNL A   1      40.855  25.690  27.451  1.00  0.00     0.031 C 
ATOM     23  C   UNL A   1      41.453  31.957  30.277  1.00  0.00     0.029 A 
ATOM     24  C   UNL A   1      42.717  31.244  30.130  1.00  0.00     0.049 A 
ATOM     25  H   UNL A   1      42.982  29.267  29.515  1.00  0.00     0.167 HD
ATOM     26  C   UNL A   1      43.244  25.164  27.858  1.00  0.00     0.037 A 
ATOM     27  C   UNL A   1      43.941  31.733  30.414  1.00  0.00     0.037 A 
ATOM     28  C   UNL A   1      44.550  25.501  28.351  1.00  0.00     0.049 A 
ATOM     29  C   UNL A   1      45.104  30.775  30.328  1.00  0.00     0.074 A 
ATOM     30  C   UNL A   1      45.672  24.698  28.433  1.00  0.00     0.029 A 
ATOM     31  N   UNL A   1      44.902  26.742  28.863  1.00  0.00    -0.354 N 
ATOM     32  N   UNL A   1      45.129  29.551  29.848  1.00  0.00    -0.248 NA
ATOM     33  C   UNL A   1      46.385  31.225  30.890  1.00  0.00     0.031 C 
ATOM     34  C   UNL A   1      46.687  25.439  29.047  1.00  0.00     0.029 A 
ATOM     35  C   UNL A   1      46.214  26.719  29.298  1.00  0.00     0.049 A 
ATOM     36  H   UNL A   1      44.305  27.524  28.910  1.00  0.00     0.167 HD
ATOM     37  C   UNL A   1      46.407  29.070  30.102  1.00  0.00     0.074 A 
ATOM     38  C   UNL A   1      47.151  30.158  30.703  1.00  0.00     0.031 C 
ATOM     39  C   UNL A   1      46.913  27.827  29.901  1.00  0.00     0.037 A 
BRANCH  26  40
ATOM     40  C   UNL A   1      42.977  23.764  27.397  1.00  0.00     0.058 A 
ATOM     41  C   UNL A   1      42.979  23.398  26.044  1.00  0.00     0.135 A 
ATOM     42  C   UNL A   1      42.702  22.768  28.349  1.00  0.00     0.135 A 
ATOM     43  F   UNL A   1      43.196  24.321  25.093  1.00  0.00    -0.206 F 
ATOM     44  C   UNL A   1      42.714  22.091  25.649  1.00  0.00     0.059 A 
ATOM     45  C   UNL A   1      42.452  21.452  27.979  1.00  0.00     0.059 A 
ATOM     46  F   UNL A   1      42.662  23.075  29.655  1.00  0.00    -0.206 F 
ATOM     47  C   UNL A   1      42.453  21.124  26.624  1.00  0.00     0.060 A 
BRANCH  47  48
ATOM     48  S   UNL A   1      42.119  19.430  26.100  1.00  0.00     0.124 S 
ATOM     49  O   UNL A   1      42.997  19.305  24.941  1.00  0.00    -0.237 OA
ATOM     50  O   UNL A   1      42.508  18.659  27.277  1.00  0.00    -0.237 OA
ATOM     51  O   UNL A   1      40.689  19.440  25.806  1.00  0.00    -0.744 OA
ENDBRANCH  47  48
ENDBRANCH  26  40
BRANCH  27  52
ATOM     52  C   UNL A   1      44.135  33.135  30.893  1.00  0.00     0.058 A 
ATOM     53  C   UNL A   1      44.535  34.156  30.015  1.00  0.00     0.135 A 
ATOM     54  C   UNL A   1      43.972  33.482  32.246  1.00  0.00     0.135 A 
ATOM     55  F   UNL A   1      44.721  33.889  28.714  1.00  0.00    -0.206 F 
ATOM     56  C   UNL A   1      44.791  35.453  30.461  1.00  0.00     0.059 A 
ATOM     57  C   UNL A   1      44.179  34.780  32.708  1.00  0.00     0.059 A 
ATOM     58  F   UNL A   1      43.602  32.554  33.141  1.00  0.00    -0.206 F 
ATOM     59  C   UNL A   1      44.611  35.754  31.812  1.00  0.00     0.060 A 
BRANCH  59  60
ATOM     60  S   UNL A   1      44.940  37.433  32.387  1.00  0.00     0.124 S 
ATOM     61  O   UNL A   1      43.762  37.698  33.204  1.00  0.00    -0.237 OA
ATOM     62  O   UNL A   1      46.197  37.273  33.113  1.00  0.00    -0.237 OA
ATOM     63  O   UNL A   1      45.037  38.199  31.149  1.00  0.00    -0.744 OA
ENDBRANCH  59  60
ENDBRANCH  27  52
BRANCH  39  64
ATOM     64  C   UNL A   1      48.312  27.569  30.378  1.00  0.00     0.058 A 
ATOM     65  C   UNL A   1      48.553  27.080  31.672  1.00  0.00     0.135 A 
ATOM     66  C   UNL A   1      49.403  27.704  29.507  1.00  0.00     0.135 A 
ATOM     67  F   UNL A   1      47.538  26.940  32.541  1.00  0.00    -0.206 F 
ATOM     68  C   UNL A   1      49.831  26.734  32.087  1.00  0.00     0.059 A 
ATOM     69  C   UNL A   1      50.688  27.340  29.895  1.00  0.00     0.059 A 
ATOM     70  F   UNL A   1      49.219  28.156  28.257  1.00  0.00    -0.206 F 
ATOM     71  C   UNL A   1      50.892  26.858  31.188  1.00  0.00     0.060 A 
BRANCH  71  72
ATOM     72  S   UNL A   1      52.535  26.328  31.714  1.00  0.00     0.124 S 
ATOM     73  O   UNL A   1      52.339  24.893  31.888  1.00  0.00    -0.237 OA
ATOM     74  O   UNL A   1      53.369  26.723  30.584  1.00  0.00    -0.237 OA
ATOM     75  O   UNL A   1      52.758  27.086  32.943  1.00  0.00    -0.744 OA
ENDBRANCH  71  72
ENDBRANCH  39  64
ENDBRANCH  13  14
ENDBRANCH   6   8
ENDBRANCH   5   6
ENDBRANCH   4   5
ENDBRANCH   3   4
ENDBRANCH   2   3
ENDBRANCH   1   2
BRANCH   1  76
ATOM     76  C   UNL A   1      32.036  26.692  23.672  1.00  0.00     0.188 C 
BRANCH  76  77
ATOM     77  O   UNL A   1      32.066  25.401  23.050  1.00  0.00    -0.376 OA
BRANCH  77  78
ATOM     78  C   UNL A   1      30.887  24.605  23.141  1.00  0.00     0.202 C 
BRANCH  78  79
ATOM     79  C   UNL A   1      30.201  24.592  24.507  1.00  0.00     0.261 C 
BRANCH  79  80
ATOM     80  O   UNL A   1      31.066  24.069  25.520  1.00  0.00    -0.462 OA
BRANCH  80  81
ATOM     81  C   UNL A   1      31.063  22.718  25.679  1.00  0.00     0.328 C 
ATOM     82  O   UNL A   1      30.113  22.080  26.129  1.00  0.00    -0.250 OA
BRANCH  81  83
ATOM     83  C   UNL A   1      32.356  22.063  25.161  1.00  0.00     0.194 C 
BRANCH  83  84
ATOM     84  C   UNL A   1      32.163  21.159  23.935  1.00  0.00     0.072 C 
BRANCH  84  85
ATOM     85  C   UNL A   1      32.522  19.694  24.051  1.00  0.00    -0.045 A 
ATOM     86  C   UNL A   1      32.737  19.096  25.299  1.00  0.00     0.004 A 
ATOM     87  C   UNL A   1      32.559  18.884  22.907  1.00  0.00     0.004 A 
ATOM     88  C   UNL A   1      32.977  17.725  25.399  1.00  0.00     0.000 A 
ATOM     89  C   UNL A   1      32.780  17.510  23.008  1.00  0.00     0.000 A 
ATOM     90  C   UNL A   1      32.990  16.931  24.256  1.00  0.00     0.000 A 
ENDBRANCH  84  85
ENDBRANCH  83  84
BRANCH  83  91
ATOM     91  N   UNL A   1      33.369  23.102  24.905  1.00  0.00    -0.372 N 
ATOM     92  H   UNL A   1      33.068  23.969  24.549  1.00  0.00     0.161 HD
BRANCH  91  93
ATOM     93  C   UNL A   1      34.719  22.922  25.138  1.00  0.00     0.036 A 
ATOM     94  C   UNL A   1      35.462  23.997  25.638  1.00  0.00     0.027 A 
ATOM     95  C   UNL A   1      35.379  21.708  24.926  1.00  0.00     0.043 A 
ATOM     96  C   UNL A   1      36.821  23.866  25.940  1.00  0.00     0.024 A 
ATOM     97  C   UNL A   1      36.748  21.572  25.213  1.00  0.00     0.038 A 
ATOM     98  C   UNL A   1      37.466  22.649  25.739  1.00  0.00     0.055 A 
ATOM     99  Br  UNL A   1      37.549  19.885  24.858  1.00  0.00    -0.049 Br
ATOM    100  Cl  UNL A   1      39.125  22.528  26.208  1.00  0.00    -0.083 Cl
ENDBRANCH  91  93
ENDBRANCH  83  91
ENDBRANCH  81  83
ENDBRANCH  80  81
ENDBRANCH  79  80
ENDBRANCH  78  79
ENDBRANCH  77  78
ENDBRANCH  76  77
ENDBRANCH   1  76
TORSDOF 24
ENDMDL
MODEL 3
REMARK VINA RESULT:      -9.9      3.662      9.704
REMARK SMILES O=C(OCCOCCOCCOC(=O)[C@@H](Cc1ccccc1)Nc1ccc(Cl)c(Br)c1)c1ccc(-c2c3nc(c(-c4c(F)cc(S(=O)(=O)[O-])cc4F)c4ccc([nH]4)c(-c4c(F)cc(S(=O)(=O)[O-])cc4F)c4nc(c(-c5c(F)cc(S(=O)(=O)[O-])cc5F)c5ccc2[nH]5)C=C4)C=C3)cc1
REMARK SMILES IDX 7 1 6 2 5 3 4 4 3 5 2 6 1 7 32 8 33 9 97 10 34 11 96 12
REMARK SMILES IDX 35 13 36 14 37 15 90 16 38 17 95 18 89 19 91 20 39 21 94 22
REMARK SMILES IDX 88 23 87 24 40 26 74 27 53 28 73 29 54 30 57 31 72 32 92 33
REMARK SMILES IDX 55 34 56 35 71 37 93 38 58 39 41 40 42 41 51 42 43 43 44 44
REMARK SMILES IDX 50 45 52 46 45 47 46 48 47 49 48 50 49 51 75 52 76 53 85 54
REMARK SMILES IDX 77 55 78 56 84 57 86 58 79 59 80 60 81 61 82 62 83 63 59 64
REMARK SMILES IDX 60 65 69 66 61 67 62 68 68 69 70 70 63 71 64 72 65 73 66 74
REMARK SMILES IDX 67 75 8 76 9 77 10 78 11 79 12 80 13 81 14 82 15 83 16 84
REMARK SMILES IDX 17 85 18 86 22 87 19 88 21 89 20 90 23 91 24 93 25 94 31 95
REMARK SMILES IDX 26 96 29 97 27 98 30 99 28 100
REMARK H PARENT 91 25 57 36 23 92
REMARK Flexibility Score: inf
ROOT
ATOM      1  C   UNL A   1      33.091  28.122  25.086  1.00  0.00     0.188 C 
ENDROOT
BRANCH   1   2
ATOM      2  O   UNL A   1      33.905  29.297  25.231  1.00  0.00    -0.376 OA
BRANCH   2   3
ATOM      3  C   UNL A   1      33.434  30.195  26.240  1.00  0.00     0.202 C 
BRANCH   3   4
ATOM      4  C   UNL A   1      33.558  29.696  27.688  1.00  0.00     0.261 C 
BRANCH   4   5
ATOM      5  O   UNL A   1      34.871  29.219  28.013  1.00  0.00    -0.460 OA
BRANCH   5   6
ATOM      6  C   UNL A   1      35.917  29.891  28.553  1.00  0.00     0.338 C 
ATOM      7  O   UNL A   1      35.656  30.851  29.278  1.00  0.00    -0.246 OA
BRANCH   6   8
ATOM      8  C   UNL A   1      37.367  29.578  28.306  1.00  0.00     0.060 A 
ATOM      9  C   UNL A   1      38.043  29.718  27.095  1.00  0.00     0.016 A 
ATOM     10  C   UNL A   1      38.124  29.149  29.418  1.00  0.00     0.016 A 
ATOM     11  C   UNL A   1      39.398  29.412  26.978  1.00  0.00     0.010 A 
ATOM     12  C   UNL A   1      39.492  28.856  29.314  1.00  0.00     0.010 A 
ATOM     13  C   UNL A   1      40.131  28.978  28.083  1.00  0.00    -0.014 A 
BRANCH  13  14
ATOM     14  C   UNL A   1      41.544  28.607  27.858  1.00  0.00     0.031 A 
ATOM     15  C   UNL A   1      42.605  29.593  28.225  1.00  0.00     0.074 A 
ATOM     16  C   UNL A   1      41.856  27.350  27.494  1.00  0.00     0.049 A 
ATOM     17  N   UNL A   1      43.901  29.451  28.195  1.00  0.00    -0.248 NA
ATOM     18  C   UNL A   1      42.149  30.916  28.684  1.00  0.00     0.031 C 
ATOM     19  C   UNL A   1      40.875  26.322  27.171  1.00  0.00     0.029 A 
ATOM     20  N   UNL A   1      43.058  26.700  27.399  1.00  0.00    -0.354 N 
ATOM     21  C   UNL A   1      44.417  30.684  28.560  1.00  0.00     0.074 A 
ATOM     22  C   UNL A   1      43.300  31.542  28.884  1.00  0.00     0.031 C 
ATOM     23  C   UNL A   1      41.498  25.141  27.041  1.00  0.00     0.029 A 
ATOM     24  C   UNL A   1      42.937  25.347  27.157  1.00  0.00     0.049 A 
ATOM     25  H   UNL A   1      43.926  27.155  27.493  1.00  0.00     0.167 HD
ATOM     26  C   UNL A   1      45.712  31.072  28.548  1.00  0.00     0.037 A 
ATOM     27  C   UNL A   1      43.888  24.400  27.022  1.00  0.00     0.037 A 
ATOM     28  C   UNL A   1      46.796  30.201  28.188  1.00  0.00     0.049 A 
ATOM     29  C   UNL A   1      45.326  24.859  27.036  1.00  0.00     0.074 A 
ATOM     30  C   UNL A   1      48.137  30.506  28.057  1.00  0.00     0.029 A 
ATOM     31  N   UNL A   1      46.655  28.854  27.884  1.00  0.00    -0.354 N 
ATOM     32  N   UNL A   1      45.809  26.044  27.333  1.00  0.00    -0.248 NA
ATOM     33  C   UNL A   1      46.343  23.882  26.622  1.00  0.00     0.031 C 
ATOM     34  C   UNL A   1      48.799  29.355  27.619  1.00  0.00     0.029 A 
ATOM     35  C   UNL A   1      47.879  28.319  27.529  1.00  0.00     0.049 A 
ATOM     36  H   UNL A   1      45.808  28.353  27.916  1.00  0.00     0.167 HD
ATOM     37  C   UNL A   1      47.174  25.970  27.089  1.00  0.00     0.074 A 
ATOM     38  C   UNL A   1      47.454  24.603  26.697  1.00  0.00     0.031 C 
ATOM     39  C   UNL A   1      48.110  26.951  27.137  1.00  0.00     0.037 A 
BRANCH  26  40
ATOM     40  C   UNL A   1      45.990  32.525  28.784  1.00  0.00     0.058 A 
ATOM     41  C   UNL A   1      46.242  33.051  30.058  1.00  0.00     0.135 A 
ATOM     42  C   UNL A   1      45.995  33.409  27.692  1.00  0.00     0.135 A 
ATOM     43  F   UNL A   1      46.208  32.255  31.139  1.00  0.00    -0.206 F 
ATOM     44  C   UNL A   1      46.484  34.409  30.244  1.00  0.00     0.059 A 
ATOM     45  C   UNL A   1      46.252  34.765  27.851  1.00  0.00     0.059 A 
ATOM     46  F   UNL A   1      45.733  32.957  26.456  1.00  0.00    -0.206 F 
ATOM     47  C   UNL A   1      46.489  35.258  29.133  1.00  0.00     0.060 A 
BRANCH  47  48
ATOM     48  S   UNL A   1      46.813  37.015  29.386  1.00  0.00     0.124 S 
ATOM     49  O   UNL A   1      47.369  37.018  30.736  1.00  0.00    -0.237 OA
ATOM     50  O   UNL A   1      47.755  37.314  28.312  1.00  0.00    -0.237 OA
ATOM     51  O   UNL A   1      45.496  37.628  29.249  1.00  0.00    -0.744 OA
ENDBRANCH  47  48
ENDBRANCH  26  40
BRANCH  27  52
ATOM     52  C   UNL A   1      43.540  22.970  26.764  1.00  0.00     0.058 A 
ATOM     53  C   UNL A   1      43.078  22.135  27.795  1.00  0.00     0.135 A 
ATOM     54  C   UNL A   1      43.704  22.387  25.495  1.00  0.00     0.135 A 
ATOM     55  F   UNL A   1      42.912  22.626  29.033  1.00  0.00    -0.206 F 
ATOM     56  C   UNL A   1      42.819  20.781  27.586  1.00  0.00     0.059 A 
ATOM     57  C   UNL A   1      43.411  21.047  25.250  1.00  0.00     0.059 A 
ATOM     58  F   UNL A   1      44.153  23.124  24.467  1.00  0.00    -0.206 F 
ATOM     59  C   UNL A   1      42.991  20.246  26.309  1.00  0.00     0.060 A 
BRANCH  59  60
ATOM     60  S   UNL A   1      42.654  18.493  26.040  1.00  0.00     0.124 S 
ATOM     61  O   UNL A   1      42.990  17.928  27.341  1.00  0.00    -0.237 OA
ATOM     62  O   UNL A   1      41.235  18.499  25.695  1.00  0.00    -0.237 OA
ATOM     63  O   UNL A   1      43.553  18.142  24.946  1.00  0.00    -0.744 OA
ENDBRANCH  59  60
ENDBRANCH  27  52
BRANCH  39  64
ATOM     64  C   UNL A   1      49.504  26.592  26.711  1.00  0.00     0.058 A 
ATOM     65  C   UNL A   1      50.398  25.988  27.609  1.00  0.00     0.135 A 
ATOM     66  C   UNL A   1      49.910  26.751  25.378  1.00  0.00     0.135 A 
ATOM     67  F   UNL A   1      50.053  25.821  28.896  1.00  0.00    -0.206 F 
ATOM     68  C   UNL A   1      51.650  25.552  27.198  1.00  0.00     0.059 A 
ATOM     69  C   UNL A   1      51.150  26.299  24.940  1.00  0.00     0.059 A 
ATOM     70  F   UNL A   1      49.083  27.313  24.481  1.00  0.00    -0.206 F 
ATOM     71  C   UNL A   1      52.014  25.703  25.859  1.00  0.00     0.060 A 
BRANCH  71  72
ATOM     72  S   UNL A   1      53.612  25.060  25.322  1.00  0.00     0.124 S 
ATOM     73  O   UNL A   1      53.386  23.620  25.387  1.00  0.00    -0.237 OA
ATOM     74  O   UNL A   1      53.743  25.622  23.982  1.00  0.00    -0.237 OA
ATOM     75  O   UNL A   1      54.543  25.595  26.312  1.00  0.00    -0.744 OA
ENDBRANCH  71  72
ENDBRANCH  39  64
ENDBRANCH  13  14
ENDBRANCH   6   8
ENDBRANCH   5   6
ENDBRANCH   4   5
ENDBRANCH   3   4
ENDBRANCH   2   3
ENDBRANCH   1   2
BRANCH   1  76
ATOM     76  C   UNL A   1      31.861  28.391  24.213  1.00  0.00     0.188 C 
BRANCH  76  77
ATOM     77  O   UNL A   1      31.976  27.964  22.850  1.00  0.00    -0.376 OA
BRANCH  77  78
ATOM     78  C   UNL A   1      31.289  26.772  22.478  1.00  0.00     0.202 C 
BRANCH  78  79
ATOM     79  C   UNL A   1      30.993  25.796  23.617  1.00  0.00     0.261 C 
BRANCH  79  80
ATOM     80  O   UNL A   1      32.057  24.854  23.785  1.00  0.00    -0.462 OA
BRANCH  80  81
ATOM     81  C   UNL A   1      32.173  24.285  25.015  1.00  0.00     0.328 C 
ATOM     82  O   UNL A   1      31.782  24.811  26.056  1.00  0.00    -0.250 OA
BRANCH  81  83
ATOM     83  C   UNL A   1      32.780  22.872  24.954  1.00  0.00     0.194 C 
BRANCH  83  84
ATOM     84  C   UNL A   1      31.794  21.774  24.531  1.00  0.00     0.072 C 
BRANCH  84  85
ATOM     85  C   UNL A   1      32.319  20.372  24.316  1.00  0.00    -0.045 A 
ATOM     86  C   UNL A   1      32.864  19.630  25.372  1.00  0.00     0.004 A 
ATOM     87  C   UNL A   1      32.188  19.754  23.064  1.00  0.00     0.004 A 
ATOM     88  C   UNL A   1      33.260  18.306  25.182  1.00  0.00     0.000 A 
ATOM     89  C   UNL A   1      32.567  18.423  22.878  1.00  0.00     0.000 A 
ATOM     90  C   UNL A   1      33.104  17.700  23.939  1.00  0.00     0.000 A 
ENDBRANCH  84  85
ENDBRANCH  83  84
BRANCH  83  91
ATOM     91  N   UNL A   1      33.972  22.883  24.088  1.00  0.00    -0.372 N 
ATOM     92  H   UNL A   1      33.846  23.039  23.124  1.00  0.00     0.161 HD
BRANCH  91  93
ATOM     93  C   UNL A   1      35.256  22.686  24.558  1.00  0.00     0.036 A 
ATOM     94  C   UNL A   1      35.949  23.775  25.096  1.00  0.00     0.027 A 
ATOM     95  C   UNL A   1      35.893  21.441  24.549  1.00  0.00     0.043 A 
ATOM     96  C   UNL A   1      37.232  23.632  25.631  1.00  0.00     0.024 A 
ATOM     97  C   UNL A   1      37.188  21.290  25.072  1.00  0.00     0.038 A 
ATOM     98  C   UNL A   1      37.852  22.385  25.631  1.00  0.00     0.055 A 
ATOM     99  Br  UNL A   1      37.968  19.559  24.980  1.00  0.00    -0.049 Br
ATOM    100  Cl  UNL A   1      39.404  22.256  26.380  1.00  0.00    -0.083 Cl
ENDBRANCH  91  93
ENDBRANCH  83  91
ENDBRANCH  81  83
ENDBRANCH  80  81
ENDBRANCH  79  80
ENDBRANCH  78  79
ENDBRANCH  77  78
ENDBRANCH  76  77
ENDBRANCH   1  76
TORSDOF 24
ENDMDL
