MODEL 1
REMARK VINA RESULT:     -11.6      0.000      0.000
REMARK SMILES Cc1ccc(C)c(-n2nc(C)c(/C=C(/C#N)C(=O)OCCOCCOCCOC(=O)c3ccc(-c4c5nc(c(-c6c(F)cc(S(=O)(=O)[O-])cc6F)c6ccc([nH]6)c(-c6c(F)cc(S(=O)(=O)[O-])cc6F)c6nc(c(-c7c(F)cc(S(=O)(=O)[O-])cc7F)c7ccc4[nH]7)C=C6)C=C5)cc3)c2Cl)c1
REMARK SMILES IDX 24 1 23 2 22 3 21 4 20 5 19 6 17 7 18 8 14 9 13 10 12 11
REMARK SMILES IDX 8 12 9 13 97 14 10 15 98 16 11 17 7 18 1 19 2 20 3 21 99 22
REMARK SMILES IDX 4 23 5 24 6 25 15 26 16 27 25 28 26 29 27 30 28 31 29 32
REMARK SMILES IDX 30 33 31 34 32 35 96 36 33 37 95 38 34 39 35 40 36 41 89 42
REMARK SMILES IDX 37 43 94 44 88 45 90 46 38 47 93 48 87 49 86 50 39 52 73 53
REMARK SMILES IDX 52 54 72 55 53 56 56 57 71 58 91 59 54 60 55 61 70 63 92 64
REMARK SMILES IDX 57 65 40 66 41 67 50 68 42 69 43 70 49 71 51 72 44 73 45 74
REMARK SMILES IDX 46 75 47 76 48 77 74 78 75 79 84 80 76 81 77 82 83 83 85 84
REMARK SMILES IDX 78 85 79 86 80 87 81 88 82 89 58 90 59 91 68 92 60 93 61 94
REMARK SMILES IDX 67 95 69 96 62 97 63 98 64 99 65 100 66 101
REMARK H PARENT 90 51 56 62
REMARK Flexibility Score: inf
ROOT
ATOM      1  C   UNL A   1      40.198  20.353  26.242  1.00  0.00     0.188 C 
ENDROOT
BRANCH   1   2
ATOM      2  C   UNL A   1      39.424  21.673  26.196  1.00  0.00     0.188 C 
BRANCH   2   3
ATOM      3  O   UNL A   1      38.282  21.710  25.341  1.00  0.00    -0.376 OA
BRANCH   3   4
ATOM      4  C   UNL A   1      37.290  22.716  25.578  1.00  0.00     0.202 C 
BRANCH   4   5
ATOM      5  C   UNL A   1      35.953  22.289  26.215  1.00  0.00     0.261 C 
BRANCH   5   6
ATOM      6  O   UNL A   1      35.339  21.154  25.554  1.00  0.00    -0.459 OA
BRANCH   6   7
ATOM      7  C   UNL A   1      34.050  20.876  25.890  1.00  0.00     0.348 C 
ATOM      8  O   UNL A   1      33.538  21.038  26.985  1.00  0.00    -0.245 OA
BRANCH   7   9
ATOM      9  C   UNL A   1      33.296  20.321  24.737  1.00  0.00     0.138 C 
ATOM     10  C   UNL A   1      32.843  21.227  23.833  1.00  0.00     0.040 C 
BRANCH  10  11
ATOM     11  C   UNL A   1      33.122  22.649  23.578  1.00  0.00     0.037 A 
ATOM     12  N   UNL A   1      32.679  24.857  23.495  1.00  0.00    -0.221 N 
ATOM     13  N   UNL A   1      33.760  24.691  22.731  1.00  0.00    -0.171 NA
ATOM     14  C   UNL A   1      32.273  23.656  24.030  1.00  0.00     0.140 A 
ATOM     15  C   UNL A   1      34.174  23.445  22.989  1.00  0.00     0.069 A 
ATOM     16  Cl  UNL A   1      30.878  23.608  25.021  1.00  0.00    -0.061 Cl
ATOM     17  C   UNL A   1      35.600  23.261  22.629  1.00  0.00     0.069 C 
BRANCH  12  18
ATOM     18  C   UNL A   1      32.266  26.187  23.739  1.00  0.00     0.069 A 
ATOM     19  C   UNL A   1      29.358  28.398  22.649  1.00  0.00     0.044 C 
ATOM     20  C   UNL A   1      30.584  27.898  23.355  1.00  0.00    -0.049 A 
ATOM     21  C   UNL A   1      31.128  28.641  24.408  1.00  0.00     0.004 A 
ATOM     22  C   UNL A   1      31.176  26.678  23.002  1.00  0.00     0.032 A 
ATOM     23  C   UNL A   1      32.207  28.146  25.144  1.00  0.00     0.006 A 
ATOM     24  C   UNL A   1      32.770  26.897  24.847  1.00  0.00    -0.025 A 
ATOM     25  C   UNL A   1      33.885  26.403  25.729  1.00  0.00     0.047 C 
ENDBRANCH  12  18
ENDBRANCH  10  11
BRANCH   9  26
ATOM     26  C   UNL A   1      32.645  18.965  24.963  1.00  0.00     0.107 C 
ATOM     27  N   UNL A   1      32.105  17.841  25.149  1.00  0.00    -0.192 NA
ENDBRANCH   9  26
ENDBRANCH   7   9
ENDBRANCH   6   7
ENDBRANCH   5   6
ENDBRANCH   4   5
ENDBRANCH   3   4
ENDBRANCH   2   3
ENDBRANCH   1   2
BRANCH   1  28
ATOM     28  O   UNL A   1      40.883  20.190  27.472  1.00  0.00    -0.376 OA
BRANCH  28  29
ATOM     29  C   UNL A   1      42.291  20.048  27.355  1.00  0.00     0.202 C 
BRANCH  29  30
ATOM     30  C   UNL A   1      42.765  19.596  25.969  1.00  0.00     0.261 C 
BRANCH  30  31
ATOM     31  O   UNL A   1      44.119  19.824  25.489  1.00  0.00    -0.460 OA
BRANCH  31  32
ATOM     32  C   UNL A   1      44.475  20.702  24.519  1.00  0.00     0.338 C 
ATOM     33  O   UNL A   1      44.776  20.369  23.399  1.00  0.00    -0.246 OA
BRANCH  32  34
ATOM     34  C   UNL A   1      44.431  22.118  24.940  1.00  0.00     0.060 A 
ATOM     35  C   UNL A   1      44.984  22.369  26.176  1.00  0.00     0.016 A 
ATOM     36  C   UNL A   1      43.727  23.123  24.256  1.00  0.00     0.016 A 
ATOM     37  C   UNL A   1      44.646  23.552  26.794  1.00  0.00     0.010 A 
ATOM     38  C   UNL A   1      43.376  24.314  24.920  1.00  0.00     0.010 A 
ATOM     39  C   UNL A   1      43.766  24.491  26.241  1.00  0.00    -0.014 A 
BRANCH  39  40
ATOM     40  C   UNL A   1      43.549  25.679  27.100  1.00  0.00     0.031 A 
ATOM     41  C   UNL A   1      44.797  26.488  27.239  1.00  0.00     0.074 A 
ATOM     42  C   UNL A   1      42.453  25.971  27.844  1.00  0.00     0.049 A 
ATOM     43  N   UNL A   1      45.351  26.867  28.347  1.00  0.00    -0.248 NA
ATOM     44  C   UNL A   1      45.638  26.684  26.038  1.00  0.00     0.031 C 
ATOM     45  C   UNL A   1      41.212  25.201  27.884  1.00  0.00     0.029 A 
ATOM     46  N   UNL A   1      42.184  27.026  28.705  1.00  0.00    -0.354 N 
ATOM     47  C   UNL A   1      46.486  27.567  27.955  1.00  0.00     0.074 A 
ATOM     48  C   UNL A   1      46.709  27.281  26.559  1.00  0.00     0.031 C 
ATOM     49  C   UNL A   1      40.269  25.915  28.530  1.00  0.00     0.029 A 
ATOM     50  C   UNL A   1      40.819  27.191  28.961  1.00  0.00     0.049 A 
ATOM     51  H   UNL A   1      42.883  27.598  29.096  1.00  0.00     0.167 HD
ATOM     52  C   UNL A   1      46.814  28.704  28.614  1.00  0.00     0.037 A 
ATOM     53  C   UNL A   1      40.146  28.301  29.382  1.00  0.00     0.037 A 
ATOM     54  C   UNL A   1      46.550  28.639  30.020  1.00  0.00     0.049 A 
ATOM     55  C   UNL A   1      41.071  29.174  30.144  1.00  0.00     0.074 A 
ATOM     56  C   UNL A   1      47.131  28.074  31.132  1.00  0.00     0.029 A 
ATOM     57  N   UNL A   1      45.292  29.020  30.375  1.00  0.00    -0.354 N 
ATOM     58  N   UNL A   1      41.440  28.948  31.374  1.00  0.00    -0.248 NA
ATOM     59  C   UNL A   1      41.816  30.222  29.448  1.00  0.00     0.031 C 
ATOM     60  C   UNL A   1      46.167  28.142  32.180  1.00  0.00     0.029 A 
ATOM     61  C   UNL A   1      45.019  28.753  31.686  1.00  0.00     0.049 A 
ATOM     62  H   UNL A   1      44.651  29.442  29.757  1.00  0.00     0.167 HD
ATOM     63  C   UNL A   1      42.697  29.512  31.460  1.00  0.00     0.074 A 
ATOM     64  C   UNL A   1      42.810  30.406  30.317  1.00  0.00     0.031 C 
ATOM     65  C   UNL A   1      43.675  28.909  32.190  1.00  0.00     0.037 A 
BRANCH  52  66
ATOM     66  C   UNL A   1      46.704  30.004  27.847  1.00  0.00     0.058 A 
ATOM     67  C   UNL A   1      47.731  30.954  27.884  1.00  0.00     0.135 A 
ATOM     68  C   UNL A   1      45.488  30.434  27.257  1.00  0.00     0.135 A 
ATOM     69  F   UNL A   1      48.881  30.683  28.521  1.00  0.00    -0.206 F 
ATOM     70  C   UNL A   1      47.579  32.222  27.317  1.00  0.00     0.059 A 
ATOM     71  C   UNL A   1      45.339  31.650  26.618  1.00  0.00     0.059 A 
ATOM     72  F   UNL A   1      44.356  29.728  27.366  1.00  0.00    -0.206 F 
ATOM     73  C   UNL A   1      46.387  32.549  26.666  1.00  0.00     0.060 A 
BRANCH  73  74
ATOM     74  S   UNL A   1      46.179  34.166  25.904  1.00  0.00     0.124 S 
ATOM     75  O   UNL A   1      45.789  34.977  27.050  1.00  0.00    -0.237 OA
ATOM     76  O   UNL A   1      47.508  34.417  25.358  1.00  0.00    -0.237 OA
ATOM     77  O   UNL A   1      45.136  33.932  24.909  1.00  0.00    -0.744 OA
ENDBRANCH  73  74
ENDBRANCH  52  66
BRANCH  53  78
ATOM     78  C   UNL A   1      38.767  28.773  29.003  1.00  0.00     0.058 A 
ATOM     79  C   UNL A   1      37.744  28.912  29.971  1.00  0.00     0.135 A 
ATOM     80  C   UNL A   1      38.484  29.363  27.755  1.00  0.00     0.135 A 
ATOM     81  F   UNL A   1      37.887  28.382  31.196  1.00  0.00    -0.206 F 
ATOM     82  C   UNL A   1      36.582  29.667  29.744  1.00  0.00     0.059 A 
ATOM     83  C   UNL A   1      37.327  30.094  27.499  1.00  0.00     0.059 A 
ATOM     84  F   UNL A   1      39.360  29.343  26.744  1.00  0.00    -0.206 F 
ATOM     85  C   UNL A   1      36.401  30.285  28.511  1.00  0.00     0.060 A 
BRANCH  85  86
ATOM     86  S   UNL A   1      35.058  31.471  28.269  1.00  0.00     0.124 S 
ATOM     87  O   UNL A   1      34.666  31.773  29.640  1.00  0.00    -0.237 OA
ATOM     88  O   UNL A   1      35.721  32.547  27.540  1.00  0.00    -0.237 OA
ATOM     89  O   UNL A   1      34.078  30.714  27.492  1.00  0.00    -0.744 OA
ENDBRANCH  85  86
ENDBRANCH  53  78
BRANCH  65  90
ATOM     90  C   UNL A   1      43.310  28.324  33.513  1.00  0.00     0.058 A 
ATOM     91  C   UNL A   1      43.055  29.043  34.689  1.00  0.00     0.135 A 
ATOM     92  C   UNL A   1      43.180  26.923  33.566  1.00  0.00     0.135 A 
ATOM     93  F   UNL A   1      43.082  30.385  34.701  1.00  0.00    -0.206 F 
ATOM     94  C   UNL A   1      42.722  28.389  35.876  1.00  0.00     0.059 A 
ATOM     95  C   UNL A   1      42.815  26.256  34.727  1.00  0.00     0.059 A 
ATOM     96  F   UNL A   1      43.385  26.183  32.463  1.00  0.00    -0.206 F 
ATOM     97  C   UNL A   1      42.603  26.997  35.885  1.00  0.00     0.060 A 
BRANCH  97  98
ATOM     98  S   UNL A   1      42.120  26.159  37.408  1.00  0.00     0.124 S 
ATOM     99  O   UNL A   1      42.217  24.754  37.028  1.00  0.00    -0.237 OA
ATOM    100  O   UNL A   1      43.121  26.632  38.358  1.00  0.00    -0.237 OA
ATOM    101  O   UNL A   1      40.764  26.646  37.652  1.00  0.00    -0.744 OA
ENDBRANCH  97  98
ENDBRANCH  65  90
ENDBRANCH  39  40
ENDBRANCH  32  34
ENDBRANCH  31  32
ENDBRANCH  30  31
ENDBRANCH  29  30
ENDBRANCH  28  29
ENDBRANCH   1  28
TORSDOF 23
ENDMDL
MODEL 2
REMARK VINA RESULT:     -10.6      1.371      3.645
REMARK SMILES Cc1ccc(C)c(-n2nc(C)c(/C=C(/C#N)C(=O)OCCOCCOCCOC(=O)c3ccc(-c4c5nc(c(-c6c(F)cc(S(=O)(=O)[O-])cc6F)c6ccc([nH]6)c(-c6c(F)cc(S(=O)(=O)[O-])cc6F)c6nc(c(-c7c(F)cc(S(=O)(=O)[O-])cc7F)c7ccc4[nH]7)C=C6)C=C5)cc3)c2Cl)c1
REMARK SMILES IDX 24 1 23 2 22 3 21 4 20 5 19 6 17 7 18 8 14 9 13 10 12 11
REMARK SMILES IDX 8 12 9 13 97 14 10 15 98 16 11 17 7 18 1 19 2 20 3 21 99 22
REMARK SMILES IDX 4 23 5 24 6 25 15 26 16 27 25 28 26 29 27 30 28 31 29 32
REMARK SMILES IDX 30 33 31 34 32 35 96 36 33 37 95 38 34 39 35 40 36 41 89 42
REMARK SMILES IDX 37 43 94 44 88 45 90 46 38 47 93 48 87 49 86 50 39 52 73 53
REMARK SMILES IDX 52 54 72 55 53 56 56 57 71 58 91 59 54 60 55 61 70 63 92 64
REMARK SMILES IDX 57 65 40 66 41 67 50 68 42 69 43 70 49 71 51 72 44 73 45 74
REMARK SMILES IDX 46 75 47 76 48 77 74 78 75 79 84 80 76 81 77 82 83 83 85 84
REMARK SMILES IDX 78 85 79 86 80 87 81 88 82 89 58 90 59 91 68 92 60 93 61 94
REMARK SMILES IDX 67 95 69 96 62 97 63 98 64 99 65 100 66 101
REMARK H PARENT 90 51 56 62
REMARK Flexibility Score: inf
ROOT
ATOM      1  C   UNL A   1      40.060  20.342  26.390  1.00  0.00     0.188 C 
ENDROOT
BRANCH   1   2
ATOM      2  C   UNL A   1      39.638  21.798  26.169  1.00  0.00     0.188 C 
BRANCH   2   3
ATOM      3  O   UNL A   1      38.252  22.089  26.339  1.00  0.00    -0.376 OA
BRANCH   3   4
ATOM      4  C   UNL A   1      37.538  22.654  25.233  1.00  0.00     0.202 C 
BRANCH   4   5
ATOM      5  C   UNL A   1      36.849  24.019  25.428  1.00  0.00     0.261 C 
BRANCH   5   6
ATOM      6  O   UNL A   1      35.458  23.909  25.820  1.00  0.00    -0.459 OA
BRANCH   6   7
ATOM      7  C   UNL A   1      34.537  24.400  24.946  1.00  0.00     0.348 C 
ATOM      8  O   UNL A   1      34.752  24.777  23.807  1.00  0.00    -0.245 OA
BRANCH   7   9
ATOM      9  C   UNL A   1      33.182  24.439  25.552  1.00  0.00     0.138 C 
ATOM     10  C   UNL A   1      32.392  23.360  25.310  1.00  0.00     0.040 C 
BRANCH  10  11
ATOM     11  C   UNL A   1      32.635  22.011  24.776  1.00  0.00     0.037 A 
ATOM     12  N   UNL A   1      33.461  19.914  24.765  1.00  0.00    -0.221 N 
ATOM     13  N   UNL A   1      33.115  20.159  23.499  1.00  0.00    -0.171 NA
ATOM     14  C   UNL A   1      33.178  20.998  25.563  1.00  0.00     0.140 A 
ATOM     15  C   UNL A   1      32.391  21.284  23.552  1.00  0.00     0.069 A 
ATOM     16  Cl  UNL A   1      33.568  20.938  27.229  1.00  0.00    -0.061 Cl
ATOM     17  C   UNL A   1      31.527  21.431  22.357  1.00  0.00     0.069 C 
BRANCH  12  18
ATOM     18  C   UNL A   1      33.878  18.599  25.070  1.00  0.00     0.069 A 
ATOM     19  C   UNL A   1      32.180  15.209  25.476  1.00  0.00     0.044 C 
ATOM     20  C   UNL A   1      33.231  16.274  25.358  1.00  0.00    -0.049 A 
ATOM     21  C   UNL A   1      34.580  15.911  25.291  1.00  0.00     0.004 A 
ATOM     22  C   UNL A   1      32.882  17.629  25.275  1.00  0.00     0.032 A 
ATOM     23  C   UNL A   1      35.566  16.877  25.079  1.00  0.00     0.006 A 
ATOM     24  C   UNL A   1      35.230  18.230  24.928  1.00  0.00    -0.025 A 
ATOM     25  C   UNL A   1      36.343  19.200  24.634  1.00  0.00     0.047 C 
ENDBRANCH  12  18
ENDBRANCH  10  11
BRANCH   9  26
ATOM     26  C   UNL A   1      32.635  25.824  25.863  1.00  0.00     0.107 C 
ATOM     27  N   UNL A   1      32.182  26.972  26.120  1.00  0.00    -0.192 NA
ENDBRANCH   9  26
ENDBRANCH   7   9
ENDBRANCH   6   7
ENDBRANCH   5   6
ENDBRANCH   4   5
ENDBRANCH   3   4
ENDBRANCH   2   3
ENDBRANCH   1   2
BRANCH   1  28
ATOM     28  O   UNL A   1      40.879  20.202  27.538  1.00  0.00    -0.376 OA
BRANCH  28  29
ATOM     29  C   UNL A   1      42.251  19.959  27.266  1.00  0.00     0.202 C 
BRANCH  29  30
ATOM     30  C   UNL A   1      42.648  20.168  25.800  1.00  0.00     0.261 C 
BRANCH  30  31
ATOM     31  O   UNL A   1      43.967  19.831  25.288  1.00  0.00    -0.460 OA
BRANCH  31  32
ATOM     32  C   UNL A   1      44.777  20.663  24.587  1.00  0.00     0.338 C 
ATOM     33  O   UNL A   1      45.505  20.290  23.700  1.00  0.00    -0.246 OA
BRANCH  32  34
ATOM     34  C   UNL A   1      44.671  22.083  24.981  1.00  0.00     0.060 A 
ATOM     35  C   UNL A   1      45.288  22.399  26.170  1.00  0.00     0.016 A 
ATOM     36  C   UNL A   1      43.859  23.024  24.326  1.00  0.00     0.016 A 
ATOM     37  C   UNL A   1      44.917  23.574  26.785  1.00  0.00     0.010 A 
ATOM     38  C   UNL A   1      43.478  24.207  24.987  1.00  0.00     0.010 A 
ATOM     39  C   UNL A   1      43.943  24.442  26.275  1.00  0.00    -0.014 A 
BRANCH  39  40
ATOM     40  C   UNL A   1      43.708  25.636  27.122  1.00  0.00     0.031 A 
ATOM     41  C   UNL A   1      44.945  26.460  27.259  1.00  0.00     0.074 A 
ATOM     42  C   UNL A   1      42.605  25.920  27.859  1.00  0.00     0.049 A 
ATOM     43  N   UNL A   1      45.490  26.856  28.365  1.00  0.00    -0.248 NA
ATOM     44  C   UNL A   1      45.790  26.655  26.060  1.00  0.00     0.031 C 
ATOM     45  C   UNL A   1      41.374  25.136  27.900  1.00  0.00     0.029 A 
ATOM     46  N   UNL A   1      42.320  26.980  28.708  1.00  0.00    -0.354 N 
ATOM     47  C   UNL A   1      46.619  27.566  27.972  1.00  0.00     0.074 A 
ATOM     48  C   UNL A   1      46.851  27.269  26.579  1.00  0.00     0.031 C 
ATOM     49  C   UNL A   1      40.419  25.845  28.536  1.00  0.00     0.029 A 
ATOM     50  C   UNL A   1      40.952  27.131  28.956  1.00  0.00     0.049 A 
ATOM     51  H   UNL A   1      43.010  27.564  29.097  1.00  0.00     0.167 HD
ATOM     52  C   UNL A   1      46.930  28.713  28.621  1.00  0.00     0.037 A 
ATOM     53  C   UNL A   1      40.264  28.237  29.364  1.00  0.00     0.037 A 
ATOM     54  C   UNL A   1      46.661  28.658  30.026  1.00  0.00     0.049 A 
ATOM     55  C   UNL A   1      41.175  29.128  30.122  1.00  0.00     0.074 A 
ATOM     56  C   UNL A   1      47.244  28.111  31.146  1.00  0.00     0.029 A 
ATOM     57  N   UNL A   1      45.396  29.027  30.372  1.00  0.00    -0.354 N 
ATOM     58  N   UNL A   1      41.541  28.918  31.356  1.00  0.00    -0.248 NA
ATOM     59  C   UNL A   1      41.911  30.178  29.420  1.00  0.00     0.031 C 
ATOM     60  C   UNL A   1      46.274  28.176  32.189  1.00  0.00     0.029 A 
ATOM     61  C   UNL A   1      45.121  28.769  31.685  1.00  0.00     0.049 A 
ATOM     62  H   UNL A   1      44.754  29.435  29.748  1.00  0.00     0.167 HD
ATOM     63  C   UNL A   1      42.791  29.498  31.442  1.00  0.00     0.074 A 
ATOM     64  C   UNL A   1      42.898  30.383  30.291  1.00  0.00     0.031 C 
ATOM     65  C   UNL A   1      43.773  28.914  32.182  1.00  0.00     0.037 A 
BRANCH  52  66
ATOM     66  C   UNL A   1      46.808  30.004  27.841  1.00  0.00     0.058 A 
ATOM     67  C   UNL A   1      47.833  30.958  27.858  1.00  0.00     0.135 A 
ATOM     68  C   UNL A   1      45.585  30.424  27.260  1.00  0.00     0.135 A 
ATOM     69  F   UNL A   1      48.990  30.697  28.485  1.00  0.00    -0.206 F 
ATOM     70  C   UNL A   1      47.670  32.220  27.279  1.00  0.00     0.059 A 
ATOM     71  C   UNL A   1      45.425  31.633  26.609  1.00  0.00     0.059 A 
ATOM     72  F   UNL A   1      44.456  29.716  27.389  1.00  0.00    -0.206 F 
ATOM     73  C   UNL A   1      46.470  32.535  26.637  1.00  0.00     0.060 A 
BRANCH  73  74
ATOM     74  S   UNL A   1      46.250  34.143  25.860  1.00  0.00     0.124 S 
ATOM     75  O   UNL A   1      47.608  34.443  25.426  1.00  0.00    -0.237 OA
ATOM     76  O   UNL A   1      45.287  33.842  24.807  1.00  0.00    -0.237 OA
ATOM     77  O   UNL A   1      45.735  34.970  26.949  1.00  0.00    -0.744 OA
ENDBRANCH  73  74
ENDBRANCH  52  66
BRANCH  53  78
ATOM     78  C   UNL A   1      38.881  28.689  28.975  1.00  0.00     0.058 A 
ATOM     79  C   UNL A   1      37.838  28.774  29.928  1.00  0.00     0.135 A 
ATOM     80  C   UNL A   1      38.607  29.311  27.740  1.00  0.00     0.135 A 
ATOM     81  F   UNL A   1      37.972  28.210  31.138  1.00  0.00    -0.206 F 
ATOM     82  C   UNL A   1      36.663  29.509  29.704  1.00  0.00     0.059 A 
ATOM     83  C   UNL A   1      37.437  30.023  27.486  1.00  0.00     0.059 A 
ATOM     84  F   UNL A   1      39.500  29.343  26.746  1.00  0.00    -0.206 F 
ATOM     85  C   UNL A   1      36.489  30.161  28.486  1.00  0.00     0.060 A 
BRANCH  85  86
ATOM     86  S   UNL A   1      35.124  31.323  28.256  1.00  0.00     0.124 S 
ATOM     87  O   UNL A   1      35.751  32.383  27.476  1.00  0.00    -0.237 OA
ATOM     88  O   UNL A   1      34.137  30.509  27.554  1.00  0.00    -0.237 OA
ATOM     89  O   UNL A   1      34.760  31.688  29.625  1.00  0.00    -0.744 OA
ENDBRANCH  85  86
ENDBRANCH  53  78
BRANCH  65  90
ATOM     90  C   UNL A   1      43.409  28.336  33.508  1.00  0.00     0.058 A 
ATOM     91  C   UNL A   1      43.136  29.064  34.675  1.00  0.00     0.135 A 
ATOM     92  C   UNL A   1      43.300  26.934  33.575  1.00  0.00     0.135 A 
ATOM     93  F   UNL A   1      43.142  30.406  34.674  1.00  0.00    -0.206 F 
ATOM     94  C   UNL A   1      42.806  28.417  35.867  1.00  0.00     0.059 A 
ATOM     95  C   UNL A   1      42.939  26.274  34.741  1.00  0.00     0.059 A 
ATOM     96  F   UNL A   1      43.524  26.187  32.481  1.00  0.00    -0.206 F 
ATOM     97  C   UNL A   1      42.708  27.023  35.890  1.00  0.00     0.060 A 
BRANCH  97  98
ATOM     98  S   UNL A   1      42.229  26.193  37.419  1.00  0.00     0.124 S 
ATOM     99  O   UNL A   1      40.873  26.690  37.625  1.00  0.00    -0.237 OA
ATOM    100  O   UNL A   1      42.344  24.784  37.060  1.00  0.00    -0.237 OA
ATOM    101  O   UNL A   1      43.218  26.662  38.388  1.00  0.00    -0.744 OA
ENDBRANCH  97  98
ENDBRANCH  65  90
ENDBRANCH  39  40
ENDBRANCH  32  34
ENDBRANCH  31  32
ENDBRANCH  30  31
ENDBRANCH  29  30
ENDBRANCH  28  29
ENDBRANCH   1  28
TORSDOF 23
ENDMDL
MODEL 3
REMARK VINA RESULT:      -9.4      1.555      2.291
REMARK SMILES Cc1ccc(C)c(-n2nc(C)c(/C=C(/C#N)C(=O)OCCOCCOCCOC(=O)c3ccc(-c4c5nc(c(-c6c(F)cc(S(=O)(=O)[O-])cc6F)c6ccc([nH]6)c(-c6c(F)cc(S(=O)(=O)[O-])cc6F)c6nc(c(-c7c(F)cc(S(=O)(=O)[O-])cc7F)c7ccc4[nH]7)C=C6)C=C5)cc3)c2Cl)c1
REMARK SMILES IDX 24 1 23 2 22 3 21 4 20 5 19 6 17 7 18 8 14 9 13 10 12 11
REMARK SMILES IDX 8 12 9 13 97 14 10 15 98 16 11 17 7 18 1 19 2 20 3 21 99 22
REMARK SMILES IDX 4 23 5 24 6 25 15 26 16 27 25 28 26 29 27 30 28 31 29 32
REMARK SMILES IDX 30 33 31 34 32 35 96 36 33 37 95 38 34 39 35 40 36 41 89 42
REMARK SMILES IDX 37 43 94 44 88 45 90 46 38 47 93 48 87 49 86 50 39 52 73 53
REMARK SMILES IDX 52 54 72 55 53 56 56 57 71 58 91 59 54 60 55 61 70 63 92 64
REMARK SMILES IDX 57 65 40 66 41 67 50 68 42 69 43 70 49 71 51 72 44 73 45 74
REMARK SMILES IDX 46 75 47 76 48 77 74 78 75 79 84 80 76 81 77 82 83 83 85 84
REMARK SMILES IDX 78 85 79 86 80 87 81 88 82 89 58 90 59 91 68 92 60 93 61 94
REMARK SMILES IDX 67 95 69 96 62 97 63 98 64 99 65 100 66 101
REMARK H PARENT 90 51 56 62
REMARK Flexibility Score: inf
ROOT
ATOM      1  C   UNL A   1      40.087  19.979  26.107  1.00  0.00     0.188 C 
ENDROOT
BRANCH   1   2
ATOM      2  C   UNL A   1      39.144  21.184  26.153  1.00  0.00     0.188 C 
BRANCH   2   3
ATOM      3  O   UNL A   1      37.997  21.124  25.307  1.00  0.00    -0.376 OA
BRANCH   3   4
ATOM      4  C   UNL A   1      37.512  22.346  24.737  1.00  0.00     0.202 C 
BRANCH   4   5
ATOM      5  C   UNL A   1      35.990  22.593  24.723  1.00  0.00     0.261 C 
BRANCH   5   6
ATOM      6  O   UNL A   1      35.213  21.381  24.562  1.00  0.00    -0.459 OA
BRANCH   6   7
ATOM      7  C   UNL A   1      34.213  21.172  25.462  1.00  0.00     0.348 C 
ATOM      8  O   UNL A   1      34.224  21.489  26.639  1.00  0.00    -0.245 OA
BRANCH   7   9
ATOM      9  C   UNL A   1      33.058  20.478  24.838  1.00  0.00     0.138 C 
ATOM     10  C   UNL A   1      32.163  21.273  24.198  1.00  0.00     0.040 C 
BRANCH  10  11
ATOM     11  C   UNL A   1      32.174  22.674  23.749  1.00  0.00     0.037 A 
ATOM     12  N   UNL A   1      31.695  24.875  23.842  1.00  0.00    -0.221 N 
ATOM     13  N   UNL A   1      32.078  24.655  22.582  1.00  0.00    -0.171 NA
ATOM     14  C   UNL A   1      31.749  23.712  24.575  1.00  0.00     0.140 A 
ATOM     15  C   UNL A   1      32.608  23.426  22.594  1.00  0.00     0.069 A 
ATOM     16  Cl  UNL A   1      31.268  23.733  26.217  1.00  0.00    -0.061 Cl
ATOM     17  C   UNL A   1      33.513  23.213  21.440  1.00  0.00     0.069 C 
BRANCH  12  18
ATOM     18  C   UNL A   1      31.474  26.219  24.217  1.00  0.00     0.069 A 
ATOM     19  C   UNL A   1      33.645  29.304  24.768  1.00  0.00     0.044 C 
ATOM     20  C   UNL A   1      32.451  28.409  24.610  1.00  0.00    -0.049 A 
ATOM     21  C   UNL A   1      31.168  28.965  24.578  1.00  0.00     0.004 A 
ATOM     22  C   UNL A   1      32.600  27.024  24.457  1.00  0.00     0.032 A 
ATOM     23  C   UNL A   1      30.052  28.163  24.331  1.00  0.00     0.006 A 
ATOM     24  C   UNL A   1      30.188  26.786  24.110  1.00  0.00    -0.025 A 
ATOM     25  C   UNL A   1      28.945  26.002  23.782  1.00  0.00     0.047 C 
ENDBRANCH  12  18
ENDBRANCH  10  11
BRANCH   9  26
ATOM     26  C   UNL A   1      32.700  19.123  25.431  1.00  0.00     0.107 C 
ATOM     27  N   UNL A   1      32.404  18.001  25.923  1.00  0.00    -0.192 NA
ENDBRANCH   9  26
ENDBRANCH   7   9
ENDBRANCH   6   7
ENDBRANCH   5   6
ENDBRANCH   4   5
ENDBRANCH   3   4
ENDBRANCH   2   3
ENDBRANCH   1   2
BRANCH   1  28
ATOM     28  O   UNL A   1      40.884  19.892  27.276  1.00  0.00    -0.376 OA
BRANCH  28  29
ATOM     29  C   UNL A   1      42.283  19.983  27.051  1.00  0.00     0.202 C 
BRANCH  29  30
ATOM     30  C   UNL A   1      42.664  20.462  25.645  1.00  0.00     0.261 C 
BRANCH  30  31
ATOM     31  O   UNL A   1      43.680  19.803  24.840  1.00  0.00    -0.460 OA
BRANCH  31  32
ATOM     32  C   UNL A   1      44.816  20.379  24.375  1.00  0.00     0.338 C 
ATOM     33  O   UNL A   1      45.571  19.836  23.607  1.00  0.00    -0.246 OA
BRANCH  32  34
ATOM     34  C   UNL A   1      45.038  21.755  24.865  1.00  0.00     0.060 A 
ATOM     35  C   UNL A   1      45.638  21.836  26.102  1.00  0.00     0.016 A 
ATOM     36  C   UNL A   1      44.528  22.907  24.243  1.00  0.00     0.016 A 
ATOM     37  C   UNL A   1      45.531  23.028  26.783  1.00  0.00     0.010 A 
ATOM     38  C   UNL A   1      44.410  24.107  24.970  1.00  0.00     0.010 A 
ATOM     39  C   UNL A   1      44.836  24.141  26.291  1.00  0.00    -0.014 A 
BRANCH  39  40
ATOM     40  C   UNL A   1      44.850  25.304  27.211  1.00  0.00     0.031 A 
ATOM     41  C   UNL A   1      46.231  25.842  27.390  1.00  0.00     0.074 A 
ATOM     42  C   UNL A   1      43.826  25.767  27.971  1.00  0.00     0.049 A 
ATOM     43  N   UNL A   1      46.839  26.048  28.515  1.00  0.00    -0.248 NA
ATOM     44  C   UNL A   1      47.105  25.929  26.199  1.00  0.00     0.031 C 
ATOM     45  C   UNL A   1      42.457  25.257  27.972  1.00  0.00     0.029 A 
ATOM     46  N   UNL A   1      43.763  26.810  28.885  1.00  0.00    -0.354 N 
ATOM     47  C   UNL A   1      48.094  26.528  28.158  1.00  0.00     0.074 A 
ATOM     48  C   UNL A   1      48.268  26.275  26.749  1.00  0.00     0.031 C 
ATOM     49  C   UNL A   1      41.668  26.109  28.656  1.00  0.00     0.029 A 
ATOM     50  C   UNL A   1      42.455  27.228  29.150  1.00  0.00     0.049 A 
ATOM     51  H   UNL A   1      44.557  27.212  29.304  1.00  0.00     0.167 HD
ATOM     52  C   UNL A   1      48.633  27.544  28.874  1.00  0.00     0.037 A 
ATOM     53  C   UNL A   1      42.010  28.426  29.629  1.00  0.00     0.037 A 
ATOM     54  C   UNL A   1      48.349  27.461  30.275  1.00  0.00     0.049 A 
ATOM     55  C   UNL A   1      43.082  29.060  30.434  1.00  0.00     0.074 A 
ATOM     56  C   UNL A   1      48.798  26.737  31.356  1.00  0.00     0.029 A 
ATOM     57  N   UNL A   1      47.188  28.064  30.651  1.00  0.00    -0.354 N 
ATOM     58  N   UNL A   1      43.388  28.703  31.650  1.00  0.00    -0.248 NA
ATOM     59  C   UNL A   1      44.025  29.973  29.792  1.00  0.00     0.031 C 
ATOM     60  C   UNL A   1      47.857  26.940  32.407  1.00  0.00     0.029 A 
ATOM     61  C   UNL A   1      46.856  27.790  31.947  1.00  0.00     0.049 A 
ATOM     62  H   UNL A   1      46.649  28.635  30.056  1.00  0.00     0.167 HD
ATOM     63  C   UNL A   1      44.731  29.003  31.763  1.00  0.00     0.074 A 
ATOM     64  C   UNL A   1      45.028  29.914  30.668  1.00  0.00     0.031 C 
ATOM     65  C   UNL A   1      45.564  28.182  32.460  1.00  0.00     0.037 A 
BRANCH  52  66
ATOM     66  C   UNL A   1      48.788  28.877  28.175  1.00  0.00     0.058 A 
ATOM     67  C   UNL A   1      49.998  29.581  28.222  1.00  0.00     0.135 A 
ATOM     68  C   UNL A   1      47.681  29.590  27.650  1.00  0.00     0.135 A 
ATOM     69  F   UNL A   1      51.076  29.034  28.804  1.00  0.00    -0.206 F 
ATOM     70  C   UNL A   1      50.110  30.881  27.722  1.00  0.00     0.059 A 
ATOM     71  C   UNL A   1      47.783  30.843  27.077  1.00  0.00     0.059 A 
ATOM     72  F   UNL A   1      46.425  29.139  27.766  1.00  0.00    -0.206 F 
ATOM     73  C   UNL A   1      49.001  31.492  27.131  1.00  0.00     0.060 A 
BRANCH  73  74
ATOM     74  S   UNL A   1      49.130  33.154  26.456  1.00  0.00     0.124 S 
ATOM     75  O   UNL A   1      47.794  33.348  25.907  1.00  0.00    -0.237 OA
ATOM     76  O   UNL A   1      49.459  33.938  27.641  1.00  0.00    -0.237 OA
ATOM     77  O   UNL A   1      50.206  33.033  25.477  1.00  0.00    -0.744 OA
ENDBRANCH  73  74
ENDBRANCH  52  66
BRANCH  53  78
ATOM     78  C   UNL A   1      40.755  29.179  29.277  1.00  0.00     0.058 A 
ATOM     79  C   UNL A   1      40.262  29.211  27.951  1.00  0.00     0.135 A 
ATOM     80  C   UNL A   1      39.855  29.652  30.254  1.00  0.00     0.135 A 
ATOM     81  F   UNL A   1      41.027  28.799  26.929  1.00  0.00    -0.206 F 
ATOM     82  C   UNL A   1      38.944  29.584  27.640  1.00  0.00     0.059 A 
ATOM     83  C   UNL A   1      38.553  30.052  29.965  1.00  0.00     0.059 A 
ATOM     84  F   UNL A   1      40.160  29.662  31.556  1.00  0.00    -0.206 F 
ATOM     85  C   UNL A   1      38.085  29.971  28.664  1.00  0.00     0.060 A 
BRANCH  85  86
ATOM     86  S   UNL A   1      36.322  30.204  28.342  1.00  0.00     0.124 S 
ATOM     87  O   UNL A   1      35.723  29.795  29.607  1.00  0.00    -0.237 OA
ATOM     88  O   UNL A   1      36.248  31.627  28.029  1.00  0.00    -0.237 OA
ATOM     89  O   UNL A   1      36.066  29.311  27.213  1.00  0.00    -0.744 OA
ENDBRANCH  85  86
ENDBRANCH  53  78
BRANCH  65  90
ATOM     90  C   UNL A   1      45.080  27.614  33.751  1.00  0.00     0.058 A 
ATOM     91  C   UNL A   1      44.382  26.408  33.909  1.00  0.00     0.135 A 
ATOM     92  C   UNL A   1      45.386  28.345  34.915  1.00  0.00     0.135 A 
ATOM     93  F   UNL A   1      44.121  25.615  32.859  1.00  0.00    -0.206 F 
ATOM     94  C   UNL A   1      43.974  25.971  35.171  1.00  0.00     0.059 A 
ATOM     95  C   UNL A   1      45.021  27.910  36.181  1.00  0.00     0.059 A 
ATOM     96  F   UNL A   1      46.076  29.495  34.827  1.00  0.00    -0.206 F 
ATOM     97  C   UNL A   1      44.299  26.727  36.300  1.00  0.00     0.060 A 
BRANCH  97  98
ATOM     98  S   UNL A   1      43.817  26.133  37.933  1.00  0.00     0.124 S 
ATOM     99  O   UNL A   1      44.417  24.804  37.966  1.00  0.00    -0.237 OA
ATOM    100  O   UNL A   1      44.419  27.125  38.818  1.00  0.00    -0.237 OA
ATOM    101  O   UNL A   1      42.357  26.156  37.890  1.00  0.00    -0.744 OA
ENDBRANCH  97  98
ENDBRANCH  65  90
ENDBRANCH  39  40
ENDBRANCH  32  34
ENDBRANCH  31  32
ENDBRANCH  30  31
ENDBRANCH  29  30
ENDBRANCH  28  29
ENDBRANCH   1  28
TORSDOF 23
ENDMDL
