MODEL 1
REMARK VINA RESULT:      -9.7      0.000      0.000
REMARK SMILES COC(=O)c1sc(SCC(=O)OCCOCCOCCOC(=O)c2ccc(-c3c4nc(c(-c5c(F)cc(S(=O)(=O)[O-])cc5F)c5ccc([nH]5)c(-c5c(F)cc(S(=O)(=O)[O-])cc5F)c5nc(c(-c6c(F)cc(S(=O)(=O)[O-])cc6F)c6ccc3[nH]6)C=C5)C=C4)cc2)c(NC(=O)c2ccccc2)c1O
REMARK SMILES IDX 16 1 15 2 14 3 13 4 12 5 10 6 11 7 9 8 8 9 7 10 5 11 6 12
REMARK SMILES IDX 100 13 90 14 3 15 4 16 2 17 1 18 101 19 91 21 92 22 93 24
REMARK SMILES IDX 94 25 95 26 99 27 96 28 98 29 97 30 17 31 18 32 19 33 20 34
REMARK SMILES IDX 21 35 22 36 23 37 24 38 25 39 89 40 26 41 88 42 27 43 28 44
REMARK SMILES IDX 29 45 82 46 30 47 87 48 81 49 83 50 31 51 86 52 80 53 79 54
REMARK SMILES IDX 32 56 66 57 45 58 65 59 46 60 49 61 64 62 84 63 47 64 48 65
REMARK SMILES IDX 63 67 85 68 50 69 33 70 34 71 43 72 35 73 36 74 42 75 44 76
REMARK SMILES IDX 37 77 38 78 39 79 40 80 41 81 67 82 68 83 77 84 69 85 70 86
REMARK SMILES IDX 76 87 78 88 71 89 72 90 73 91 74 92 75 93 51 94 52 95 61 96
REMARK SMILES IDX 53 97 54 98 60 99 62 100 55 101 56 102 57 103 58 104 59 105
REMARK H PARENT 101 20 91 23 83 55 49 66
REMARK Flexibility Score: inf
ROOT
ATOM      1  C   UNL A   1      32.176  27.962  25.761  1.00  0.00     0.188 C 
ENDROOT
BRANCH   1   2
ATOM      2  O   UNL A   1      33.399  27.234  25.631  1.00  0.00    -0.376 OA
BRANCH   2   3
ATOM      3  C   UNL A   1      33.294  25.808  25.743  1.00  0.00     0.202 C 
BRANCH   3   4
ATOM      4  C   UNL A   1      34.606  25.053  25.497  1.00  0.00     0.261 C 
BRANCH   4   5
ATOM      5  O   UNL A   1      34.473  23.632  25.740  1.00  0.00    -0.463 OA
BRANCH   5   6
ATOM      6  C   UNL A   1      35.635  22.946  26.013  1.00  0.00     0.316 C 
ATOM      7  O   UNL A   1      35.665  21.782  26.398  1.00  0.00    -0.251 OA
BRANCH   6   8
ATOM      8  C   UNL A   1      36.955  23.997  26.081  1.00  0.00     0.198 C 
BRANCH   8   9
ATOM      9  S   UNL A   1      39.037  24.033  27.608  1.00  0.00    -0.101 SA
BRANCH   9  10
ATOM     10  C   UNL A   1      40.420  22.899  27.293  1.00  0.00     0.089 A 
ATOM     11  C   UNL A   1      41.856  21.106  26.322  1.00  0.00     0.157 A 
ATOM     12  S   UNL A   1      40.236  21.640  26.127  1.00  0.00    -0.116 S 
ATOM     13  C   UNL A   1      42.556  22.001  27.106  1.00  0.00     0.166 A 
ATOM     14  C   UNL A   1      41.714  22.920  27.794  1.00  0.00     0.109 A 
BRANCH  11  15
ATOM     15  C   UNL A   1      42.278  19.851  25.726  1.00  0.00     0.352 C 
ATOM     16  O   UNL A   1      41.660  18.796  25.754  1.00  0.00    -0.245 OA
BRANCH  15  17
ATOM     17  O   UNL A   1      43.525  20.016  25.188  1.00  0.00    -0.465 OA
ATOM     18  C   UNL A   1      44.201  18.831  24.741  1.00  0.00     0.282 C 
ENDBRANCH  15  17
ENDBRANCH  11  15
BRANCH  13  19
ATOM     19  O   UNL A   1      43.887  21.930  27.335  1.00  0.00    -0.504 OA
ATOM     20  H   UNL A   1      44.406  21.288  26.890  1.00  0.00     0.293 HD
ENDBRANCH  13  19
BRANCH  14  21
ATOM     21  N   UNL A   1      42.212  23.666  28.859  1.00  0.00    -0.317 N 
ATOM     22  C   UNL A   1      42.601  24.977  28.819  1.00  0.00     0.255 C 
ATOM     23  H   UNL A   1      42.294  23.205  29.724  1.00  0.00     0.170 HD
ATOM     24  O   UNL A   1      43.024  25.583  29.792  1.00  0.00    -0.269 OA
BRANCH  22  25
ATOM     25  C   UNL A   1      42.488  25.648  27.519  1.00  0.00     0.040 A 
ATOM     26  C   UNL A   1      41.125  26.807  27.329  1.00  0.00     0.014 A 
ATOM     27  C   UNL A   1      43.911  25.725  26.377  1.00  0.00     0.014 A 
ATOM     28  C   UNL A   1      41.218  28.110  26.089  1.00  0.00     0.001 A 
ATOM     29  C   UNL A   1      44.011  27.043  25.155  1.00  0.00     0.001 A 
ATOM     30  C   UNL A   1      42.645  28.211  25.002  1.00  0.00     0.000 A 
ENDBRANCH  22  25
ENDBRANCH  14  21
ENDBRANCH   9  10
ENDBRANCH   8   9
ENDBRANCH   6   8
ENDBRANCH   5   6
ENDBRANCH   4   5
ENDBRANCH   3   4
ENDBRANCH   2   3
ENDBRANCH   1   2
BRANCH   1  31
ATOM     31  C   UNL A   1      32.299  29.442  25.397  1.00  0.00     0.188 C 
BRANCH  31  32
ATOM     32  O   UNL A   1      31.967  30.279  26.504  1.00  0.00    -0.376 OA
BRANCH  32  33
ATOM     33  C   UNL A   1      33.057  30.961  27.122  1.00  0.00     0.202 C 
BRANCH  33  34
ATOM     34  C   UNL A   1      32.773  32.443  27.419  1.00  0.00     0.261 C 
BRANCH  34  35
ATOM     35  O   UNL A   1      33.928  33.163  27.879  1.00  0.00    -0.460 OA
BRANCH  35  36
ATOM     36  C   UNL A   1      33.679  33.949  28.946  1.00  0.00     0.338 C 
ATOM     37  O   UNL A   1      32.940  34.922  28.977  1.00  0.00    -0.246 OA
BRANCH  36  38
ATOM     38  C   UNL A   1      34.343  33.434  30.149  1.00  0.00     0.060 A 
ATOM     39  C   UNL A   1      34.634  34.385  31.128  1.00  0.00     0.016 A 
ATOM     40  C   UNL A   1      34.892  32.154  30.194  1.00  0.00     0.016 A 
ATOM     41  C   UNL A   1      35.693  34.171  31.987  1.00  0.00     0.010 A 
ATOM     42  C   UNL A   1      35.933  31.924  31.085  1.00  0.00     0.010 A 
ATOM     43  C   UNL A   1      36.430  32.995  31.847  1.00  0.00    -0.014 A 
BRANCH  43  44
ATOM     44  C   UNL A   1      37.840  33.058  32.258  1.00  0.00     0.031 A 
ATOM     45  C   UNL A   1      38.883  33.366  31.245  1.00  0.00     0.074 A 
ATOM     46  C   UNL A   1      38.186  32.853  33.550  1.00  0.00     0.049 A 
ATOM     47  N   UNL A   1      40.006  32.750  31.038  1.00  0.00    -0.248 NA
ATOM     48  C   UNL A   1      38.636  34.499  30.342  1.00  0.00     0.031 C 
ATOM     49  C   UNL A   1      37.275  32.703  34.692  1.00  0.00     0.029 A 
ATOM     50  N   UNL A   1      39.420  32.885  34.142  1.00  0.00    -0.354 N 
ATOM     51  C   UNL A   1      40.701  33.536  30.130  1.00  0.00     0.074 A 
ATOM     52  C   UNL A   1      39.783  34.550  29.665  1.00  0.00     0.031 C 
ATOM     53  C   UNL A   1      37.951  32.954  35.829  1.00  0.00     0.029 A 
ATOM     54  C   UNL A   1      39.351  33.150  35.502  1.00  0.00     0.049 A 
ATOM     55  H   UNL A   1      40.263  32.737  33.656  1.00  0.00     0.167 HD
ATOM     56  C   UNL A   1      42.046  33.466  29.944  1.00  0.00     0.037 A 
ATOM     57  C   UNL A   1      40.333  33.618  36.303  1.00  0.00     0.037 A 
ATOM     58  C   UNL A   1      42.657  32.261  30.414  1.00  0.00     0.049 A 
ATOM     59  C   UNL A   1      41.644  33.304  35.695  1.00  0.00     0.074 A 
ATOM     60  C   UNL A   1      42.569  30.923  30.092  1.00  0.00     0.029 A 
ATOM     61  N   UNL A   1      43.414  32.327  31.555  1.00  0.00    -0.354 N 
ATOM     62  N   UNL A   1      42.150  32.106  35.595  1.00  0.00    -0.248 NA
ATOM     63  C   UNL A   1      42.335  34.338  34.937  1.00  0.00     0.031 C 
ATOM     64  C   UNL A   1      42.977  30.208  31.254  1.00  0.00     0.029 A 
ATOM     65  C   UNL A   1      43.249  31.151  32.245  1.00  0.00     0.049 A 
ATOM     66  H   UNL A   1      43.979  33.084  31.832  1.00  0.00     0.167 HD
ATOM     67  C   UNL A   1      42.968  32.162  34.481  1.00  0.00     0.074 A 
ATOM     68  C   UNL A   1      43.171  33.579  34.228  1.00  0.00     0.031 C 
ATOM     69  C   UNL A   1      43.148  31.069  33.686  1.00  0.00     0.037 A 
BRANCH  56  70
ATOM     70  C   UNL A   1      42.836  34.691  29.594  1.00  0.00     0.058 A 
ATOM     71  C   UNL A   1      43.532  34.796  28.382  1.00  0.00     0.135 A 
ATOM     72  C   UNL A   1      43.083  35.695  30.557  1.00  0.00     0.135 A 
ATOM     73  F   UNL A   1      43.398  33.852  27.437  1.00  0.00    -0.206 F 
ATOM     74  C   UNL A   1      44.410  35.852  28.128  1.00  0.00     0.059 A 
ATOM     75  C   UNL A   1      43.921  36.774  30.313  1.00  0.00     0.059 A 
ATOM     76  F   UNL A   1      42.558  35.615  31.789  1.00  0.00    -0.206 F 
ATOM     77  C   UNL A   1      44.598  36.834  29.102  1.00  0.00     0.060 A 
BRANCH  77  78
ATOM     78  S   UNL A   1      45.740  38.198  28.807  1.00  0.00     0.124 S 
ATOM     79  O   UNL A   1      46.967  37.480  28.481  1.00  0.00    -0.237 OA
ATOM     80  O   UNL A   1      45.107  38.912  27.703  1.00  0.00    -0.237 OA
ATOM     81  O   UNL A   1      45.736  38.905  30.084  1.00  0.00    -0.744 OA
ENDBRANCH  77  78
ENDBRANCH  56  70
BRANCH  57  82
ATOM     82  C   UNL A   1      40.171  34.559  37.439  1.00  0.00     0.058 A 
ATOM     83  C   UNL A   1      40.427  34.157  38.760  1.00  0.00     0.135 A 
ATOM     84  C   UNL A   1      39.985  35.943  37.233  1.00  0.00     0.135 A 
ATOM     85  F   UNL A   1      40.665  32.867  39.038  1.00  0.00    -0.206 F 
ATOM     86  C   UNL A   1      40.506  35.073  39.812  1.00  0.00     0.059 A 
ATOM     87  C   UNL A   1      40.032  36.871  38.268  1.00  0.00     0.059 A 
ATOM     88  F   UNL A   1      39.834  36.450  36.000  1.00  0.00    -0.206 F 
ATOM     89  C   UNL A   1      40.313  36.430  39.553  1.00  0.00     0.060 A 
BRANCH  89  90
ATOM     90  S   UNL A   1      40.538  37.627  40.886  1.00  0.00     0.124 S 
ATOM     91  O   UNL A   1      41.695  37.080  41.588  1.00  0.00    -0.237 OA
ATOM     92  O   UNL A   1      40.765  38.865  40.149  1.00  0.00    -0.237 OA
ATOM     93  O   UNL A   1      39.276  37.562  41.618  1.00  0.00    -0.744 OA
ENDBRANCH  89  90
ENDBRANCH  57  82
BRANCH  69  94
ATOM     94  C   UNL A   1      42.875  29.719  34.287  1.00  0.00     0.058 A 
ATOM     95  C   UNL A   1      43.850  28.958  34.950  1.00  0.00     0.135 A 
ATOM     96  C   UNL A   1      41.556  29.239  34.303  1.00  0.00     0.135 A 
ATOM     97  F   UNL A   1      45.111  29.403  35.060  1.00  0.00    -0.206 F 
ATOM     98  C   UNL A   1      43.536  27.750  35.573  1.00  0.00     0.059 A 
ATOM     99  C   UNL A   1      41.215  28.048  34.942  1.00  0.00     0.059 A 
ATOM    100  F   UNL A   1      40.572  29.955  33.736  1.00  0.00    -0.206 F 
ATOM    101  C   UNL A   1      42.215  27.303  35.566  1.00  0.00     0.060 A 
BRANCH 101 102
ATOM    102  S   UNL A   1      41.785  25.801  36.475  1.00  0.00     0.124 S 
ATOM    103  O   UNL A   1      40.777  25.198  35.609  1.00  0.00    -0.237 OA
ATOM    104  O   UNL A   1      43.060  25.093  36.552  1.00  0.00    -0.237 OA
ATOM    105  O   UNL A   1      41.293  26.311  37.751  1.00  0.00    -0.744 OA
ENDBRANCH 101 102
ENDBRANCH  69  94
ENDBRANCH  43  44
ENDBRANCH  36  38
ENDBRANCH  35  36
ENDBRANCH  34  35
ENDBRANCH  33  34
ENDBRANCH  32  33
ENDBRANCH  31  32
ENDBRANCH   1  31
TORSDOF 27
ENDMDL
MODEL 2
REMARK VINA RESULT:      -8.9      3.549      8.603
REMARK SMILES COC(=O)c1sc(SCC(=O)OCCOCCOCCOC(=O)c2ccc(-c3c4nc(c(-c5c(F)cc(S(=O)(=O)[O-])cc5F)c5ccc([nH]5)c(-c5c(F)cc(S(=O)(=O)[O-])cc5F)c5nc(c(-c6c(F)cc(S(=O)(=O)[O-])cc6F)c6ccc3[nH]6)C=C5)C=C4)cc2)c(NC(=O)c2ccccc2)c1O
REMARK SMILES IDX 16 1 15 2 14 3 13 4 12 5 10 6 11 7 9 8 8 9 7 10 5 11 6 12
REMARK SMILES IDX 100 13 90 14 3 15 4 16 2 17 1 18 101 19 91 21 92 22 93 24
REMARK SMILES IDX 94 25 95 26 99 27 96 28 98 29 97 30 17 31 18 32 19 33 20 34
REMARK SMILES IDX 21 35 22 36 23 37 24 38 25 39 89 40 26 41 88 42 27 43 28 44
REMARK SMILES IDX 29 45 82 46 30 47 87 48 81 49 83 50 31 51 86 52 80 53 79 54
REMARK SMILES IDX 32 56 66 57 45 58 65 59 46 60 49 61 64 62 84 63 47 64 48 65
REMARK SMILES IDX 63 67 85 68 50 69 33 70 34 71 43 72 35 73 36 74 42 75 44 76
REMARK SMILES IDX 37 77 38 78 39 79 40 80 41 81 67 82 68 83 77 84 69 85 70 86
REMARK SMILES IDX 76 87 78 88 71 89 72 90 73 91 74 92 75 93 51 94 52 95 61 96
REMARK SMILES IDX 53 97 54 98 60 99 62 100 55 101 56 102 57 103 58 104 59 105
REMARK H PARENT 101 20 91 23 83 55 49 66
REMARK Flexibility Score: inf
ROOT
ATOM      1  C   UNL A   1      38.562  29.122  28.082  1.00  0.00     0.188 C 
ENDROOT
BRANCH   1   2
ATOM      2  O   UNL A   1      39.502  28.087  27.788  1.00  0.00    -0.376 OA
BRANCH   2   3
ATOM      3  C   UNL A   1      39.483  26.956  28.670  1.00  0.00     0.202 C 
BRANCH   3   4
ATOM      4  C   UNL A   1      39.694  25.605  27.975  1.00  0.00     0.261 C 
BRANCH   4   5
ATOM      5  O   UNL A   1      38.554  25.221  27.170  1.00  0.00    -0.463 OA
BRANCH   5   6
ATOM      6  C   UNL A   1      38.626  23.991  26.555  1.00  0.00     0.316 C 
ATOM      7  O   UNL A   1      39.641  23.301  26.527  1.00  0.00    -0.251 OA
BRANCH   6   8
ATOM      8  C   UNL A   1      37.277  23.724  25.576  1.00  0.00     0.198 C 
BRANCH   8   9
ATOM      9  S   UNL A   1      34.747  23.833  26.080  1.00  0.00    -0.101 SA
BRANCH   9  10
ATOM     10  C   UNL A   1      33.566  24.196  24.749  1.00  0.00     0.089 A 
ATOM     11  C   UNL A   1      32.574  24.893  22.569  1.00  0.00     0.157 A 
ATOM     12  S   UNL A   1      34.122  24.969  23.310  1.00  0.00    -0.116 S 
ATOM     13  C   UNL A   1      31.725  24.116  23.331  1.00  0.00     0.166 A 
ATOM     14  C   UNL A   1      32.223  23.862  24.641  1.00  0.00     0.109 A 
BRANCH  11  15
ATOM     15  C   UNL A   1      32.327  25.625  21.340  1.00  0.00     0.352 C 
ATOM     16  O   UNL A   1      31.566  26.574  21.207  1.00  0.00    -0.245 OA
BRANCH  15  17
ATOM     17  O   UNL A   1      33.027  25.032  20.325  1.00  0.00    -0.465 OA
ATOM     18  C   UNL A   1      32.623  25.351  18.985  1.00  0.00     0.282 C 
ENDBRANCH  15  17
ENDBRANCH  11  15
BRANCH  13  19
ATOM     19  O   UNL A   1      30.478  23.758  22.951  1.00  0.00    -0.504 OA
ATOM     20  H   UNL A   1      29.881  23.401  23.579  1.00  0.00     0.293 HD
ENDBRANCH  13  19
BRANCH  14  21
ATOM     21  N   UNL A   1      31.374  23.383  25.634  1.00  0.00    -0.317 N 
ATOM     22  C   UNL A   1      30.482  24.122  26.363  1.00  0.00     0.255 C 
ATOM     23  H   UNL A   1      31.419  22.421  25.832  1.00  0.00     0.170 HD
ATOM     24  O   UNL A   1      29.754  23.643  27.220  1.00  0.00    -0.269 OA
BRANCH  22  25
ATOM     25  C   UNL A   1      30.435  25.558  26.069  1.00  0.00     0.040 A 
ATOM     26  C   UNL A   1      31.782  26.557  26.722  1.00  0.00     0.014 A 
ATOM     27  C   UNL A   1      29.407  26.201  24.703  1.00  0.00     0.014 A 
ATOM     28  C   UNL A   1      32.184  28.136  25.955  1.00  0.00     0.001 A 
ATOM     29  C   UNL A   1      29.828  27.769  23.924  1.00  0.00     0.001 A 
ATOM     30  C   UNL A   1      31.200  28.740  24.578  1.00  0.00     0.000 A 
ENDBRANCH  22  25
ENDBRANCH  14  21
ENDBRANCH   9  10
ENDBRANCH   8   9
ENDBRANCH   6   8
ENDBRANCH   5   6
ENDBRANCH   4   5
ENDBRANCH   3   4
ENDBRANCH   2   3
ENDBRANCH   1   2
BRANCH   1  31
ATOM     31  C   UNL A   1      38.092  29.133  29.537  1.00  0.00     0.188 C 
BRANCH  31  32
ATOM     32  O   UNL A   1      36.672  29.227  29.626  1.00  0.00    -0.376 OA
BRANCH  32  33
ATOM     33  C   UNL A   1      36.129  30.546  29.609  1.00  0.00     0.202 C 
BRANCH  33  34
ATOM     34  C   UNL A   1      36.413  31.349  30.890  1.00  0.00     0.261 C 
BRANCH  34  35
ATOM     35  O   UNL A   1      35.253  31.532  31.716  1.00  0.00    -0.460 OA
BRANCH  35  36
ATOM     36  C   UNL A   1      34.905  32.825  31.876  1.00  0.00     0.338 C 
ATOM     37  O   UNL A   1      33.874  33.355  31.491  1.00  0.00    -0.246 OA
BRANCH  36  38
ATOM     38  C   UNL A   1      35.896  33.543  32.686  1.00  0.00     0.060 A 
ATOM     39  C   UNL A   1      36.664  34.485  32.000  1.00  0.00     0.016 A 
ATOM     40  C   UNL A   1      36.239  33.122  33.969  1.00  0.00     0.016 A 
ATOM     41  C   UNL A   1      37.928  34.792  32.460  1.00  0.00     0.010 A 
ATOM     42  C   UNL A   1      37.497  33.463  34.451  1.00  0.00     0.010 A 
ATOM     43  C   UNL A   1      38.387  34.151  33.610  1.00  0.00    -0.014 A 
BRANCH  43  44
ATOM     44  C   UNL A   1      39.842  33.970  33.716  1.00  0.00     0.031 A 
ATOM     45  C   UNL A   1      40.676  35.067  34.275  1.00  0.00     0.074 A 
ATOM     46  C   UNL A   1      40.419  32.810  33.326  1.00  0.00     0.049 A 
ATOM     47  N   UNL A   1      41.776  35.562  33.795  1.00  0.00    -0.248 NA
ATOM     48  C   UNL A   1      40.218  35.700  35.519  1.00  0.00     0.031 C 
ATOM     49  C   UNL A   1      39.730  31.580  32.912  1.00  0.00     0.029 A 
ATOM     50  N   UNL A   1      41.735  32.431  33.357  1.00  0.00    -0.354 N 
ATOM     51  C   UNL A   1      42.260  36.415  34.777  1.00  0.00     0.074 A 
ATOM     52  C   UNL A   1      41.225  36.534  35.776  1.00  0.00     0.031 C 
ATOM     53  C   UNL A   1      40.581  30.543  33.022  1.00  0.00     0.029 A 
ATOM     54  C   UNL A   1      41.890  31.053  33.382  1.00  0.00     0.049 A 
ATOM     55  H   UNL A   1      42.486  33.066  33.361  1.00  0.00     0.167 HD
ATOM     56  C   UNL A   1      43.554  36.827  34.848  1.00  0.00     0.037 A 
ATOM     57  C   UNL A   1      42.972  30.351  33.787  1.00  0.00     0.037 A 
ATOM     58  C   UNL A   1      44.298  36.687  33.634  1.00  0.00     0.049 A 
ATOM     59  C   UNL A   1      44.171  31.211  33.686  1.00  0.00     0.074 A 
ATOM     60  C   UNL A   1      44.223  37.226  32.366  1.00  0.00     0.029 A 
ATOM     61  N   UNL A   1      45.239  35.692  33.567  1.00  0.00    -0.354 N 
ATOM     62  N   UNL A   1      44.712  31.606  32.567  1.00  0.00    -0.248 NA
ATOM     63  C   UNL A   1      44.665  31.873  34.886  1.00  0.00     0.031 C 
ATOM     64  C   UNL A   1      44.864  36.294  31.501  1.00  0.00     0.029 A 
ATOM     65  C   UNL A   1      45.256  35.207  32.282  1.00  0.00     0.049 A 
ATOM     66  H   UNL A   1      45.804  35.379  34.311  1.00  0.00     0.167 HD
ATOM     67  C   UNL A   1      45.319  32.810  32.876  1.00  0.00     0.074 A 
ATOM     68  C   UNL A   1      45.402  32.834  34.327  1.00  0.00     0.031 C 
ATOM     69  C   UNL A   1      45.413  33.807  31.951  1.00  0.00     0.037 A 
BRANCH  56  70
ATOM     70  C   UNL A   1      44.207  37.075  36.174  1.00  0.00     0.058 A 
ATOM     71  C   UNL A   1      44.420  36.039  37.094  1.00  0.00     0.135 A 
ATOM     72  C   UNL A   1      44.440  38.390  36.634  1.00  0.00     0.135 A 
ATOM     73  F   UNL A   1      44.166  34.765  36.755  1.00  0.00    -0.206 F 
ATOM     74  C   UNL A   1      44.861  36.291  38.395  1.00  0.00     0.059 A 
ATOM     75  C   UNL A   1      44.916  38.662  37.909  1.00  0.00     0.059 A 
ATOM     76  F   UNL A   1      44.149  39.452  35.867  1.00  0.00    -0.206 F 
ATOM     77  C   UNL A   1      45.104  37.607  38.791  1.00  0.00     0.060 A 
BRANCH  77  78
ATOM     78  S   UNL A   1      45.657  37.961  40.470  1.00  0.00     0.124 S 
ATOM     79  O   UNL A   1      44.864  39.142  40.791  1.00  0.00    -0.237 OA
ATOM     80  O   UNL A   1      45.303  36.741  41.189  1.00  0.00    -0.237 OA
ATOM     81  O   UNL A   1      47.090  38.184  40.299  1.00  0.00    -0.744 OA
ENDBRANCH  77  78
ENDBRANCH  56  70
BRANCH  57  82
ATOM     82  C   UNL A   1      42.963  29.054  34.506  1.00  0.00     0.058 A 
ATOM     83  C   UNL A   1      42.449  28.946  35.807  1.00  0.00     0.135 A 
ATOM     84  C   UNL A   1      43.248  27.839  33.844  1.00  0.00     0.135 A 
ATOM     85  F   UNL A   1      42.104  30.047  36.490  1.00  0.00    -0.206 F 
ATOM     86  C   UNL A   1      42.219  27.708  36.413  1.00  0.00     0.059 A 
ATOM     87  C   UNL A   1      43.053  26.596  34.436  1.00  0.00     0.059 A 
ATOM     88  F   UNL A   1      43.648  27.820  32.564  1.00  0.00    -0.206 F 
ATOM     89  C   UNL A   1      42.518  26.538  35.715  1.00  0.00     0.060 A 
BRANCH  89  90
ATOM     90  S   UNL A   1      42.105  24.939  36.446  1.00  0.00     0.124 S 
ATOM     91  O   UNL A   1      41.960  24.097  35.263  1.00  0.00    -0.237 OA
ATOM     92  O   UNL A   1      43.272  24.675  37.280  1.00  0.00    -0.237 OA
ATOM     93  O   UNL A   1      40.868  25.209  37.176  1.00  0.00    -0.744 OA
ENDBRANCH  89  90
ENDBRANCH  57  82
BRANCH  69  94
ATOM     94  C   UNL A   1      45.318  33.423  30.502  1.00  0.00     0.058 A 
ATOM     95  C   UNL A   1      44.105  33.362  29.797  1.00  0.00     0.135 A 
ATOM     96  C   UNL A   1      46.501  33.235  29.771  1.00  0.00     0.135 A 
ATOM     97  F   UNL A   1      42.941  33.628  30.410  1.00  0.00    -0.206 F 
ATOM     98  C   UNL A   1      44.066  33.089  28.430  1.00  0.00     0.059 A 
ATOM     99  C   UNL A   1      46.488  32.987  28.399  1.00  0.00     0.059 A 
ATOM    100  F   UNL A   1      47.693  33.341  30.382  1.00  0.00    -0.206 F 
ATOM    101  C   UNL A   1      45.263  32.905  27.738  1.00  0.00     0.060 A 
BRANCH 101 102
ATOM    102  S   UNL A   1      45.221  32.670  25.946  1.00  0.00     0.124 S 
ATOM    103  O   UNL A   1      43.788  32.606  25.680  1.00  0.00    -0.237 OA
ATOM    104  O   UNL A   1      45.906  33.860  25.447  1.00  0.00    -0.237 OA
ATOM    105  O   UNL A   1      45.951  31.420  25.755  1.00  0.00    -0.744 OA
ENDBRANCH 101 102
ENDBRANCH  69  94
ENDBRANCH  43  44
ENDBRANCH  36  38
ENDBRANCH  35  36
ENDBRANCH  34  35
ENDBRANCH  33  34
ENDBRANCH  32  33
ENDBRANCH  31  32
ENDBRANCH   1  31
TORSDOF 27
ENDMDL
MODEL 3
REMARK VINA RESULT:      -8.5      1.753      2.386
REMARK SMILES COC(=O)c1sc(SCC(=O)OCCOCCOCCOC(=O)c2ccc(-c3c4nc(c(-c5c(F)cc(S(=O)(=O)[O-])cc5F)c5ccc([nH]5)c(-c5c(F)cc(S(=O)(=O)[O-])cc5F)c5nc(c(-c6c(F)cc(S(=O)(=O)[O-])cc6F)c6ccc3[nH]6)C=C5)C=C4)cc2)c(NC(=O)c2ccccc2)c1O
REMARK SMILES IDX 16 1 15 2 14 3 13 4 12 5 10 6 11 7 9 8 8 9 7 10 5 11 6 12
REMARK SMILES IDX 100 13 90 14 3 15 4 16 2 17 1 18 101 19 91 21 92 22 93 24
REMARK SMILES IDX 94 25 95 26 99 27 96 28 98 29 97 30 17 31 18 32 19 33 20 34
REMARK SMILES IDX 21 35 22 36 23 37 24 38 25 39 89 40 26 41 88 42 27 43 28 44
REMARK SMILES IDX 29 45 82 46 30 47 87 48 81 49 83 50 31 51 86 52 80 53 79 54
REMARK SMILES IDX 32 56 66 57 45 58 65 59 46 60 49 61 64 62 84 63 47 64 48 65
REMARK SMILES IDX 63 67 85 68 50 69 33 70 34 71 43 72 35 73 36 74 42 75 44 76
REMARK SMILES IDX 37 77 38 78 39 79 40 80 41 81 67 82 68 83 77 84 69 85 70 86
REMARK SMILES IDX 76 87 78 88 71 89 72 90 73 91 74 92 75 93 51 94 52 95 61 96
REMARK SMILES IDX 53 97 54 98 60 99 62 100 55 101 56 102 57 103 58 104 59 105
REMARK H PARENT 101 20 91 23 83 55 49 66
REMARK Flexibility Score: inf
ROOT
ATOM      1  C   UNL A   1      33.025  26.054  26.054  1.00  0.00     0.188 C 
ENDROOT
BRANCH   1   2
ATOM      2  O   UNL A   1      33.911  25.422  25.128  1.00  0.00    -0.376 OA
BRANCH   2   3
ATOM      3  C   UNL A   1      34.428  24.145  25.529  1.00  0.00     0.202 C 
BRANCH   3   4
ATOM      4  C   UNL A   1      35.944  24.118  25.759  1.00  0.00     0.261 C 
BRANCH   4   5
ATOM      5  O   UNL A   1      36.563  22.943  25.182  1.00  0.00    -0.463 OA
BRANCH   5   6
ATOM      6  C   UNL A   1      37.871  22.705  25.537  1.00  0.00     0.316 C 
ATOM      7  O   UNL A   1      38.432  21.623  25.387  1.00  0.00    -0.251 OA
BRANCH   6   8
ATOM      8  C   UNL A   1      38.476  23.955  26.496  1.00  0.00     0.198 C 
BRANCH   8   9
ATOM      9  S   UNL A   1      40.820  25.029  26.632  1.00  0.00    -0.101 SA
BRANCH   9  10
ATOM     10  C   UNL A   1      42.271  24.139  25.997  1.00  0.00     0.089 A 
ATOM     11  C   UNL A   1      43.871  22.330  25.378  1.00  0.00     0.157 A 
ATOM     12  S   UNL A   1      42.416  22.443  26.282  1.00  0.00    -0.116 S 
ATOM     13  C   UNL A   1      44.111  23.519  24.719  1.00  0.00     0.166 A 
ATOM     14  C   UNL A   1      43.308  24.595  25.196  1.00  0.00     0.109 A 
BRANCH  11  15
ATOM     15  C   UNL A   1      44.657  21.110  25.427  1.00  0.00     0.352 C 
ATOM     16  O   UNL A   1      45.827  21.019  25.772  1.00  0.00    -0.245 OA
BRANCH  15  17
ATOM     17  O   UNL A   1      43.898  20.078  24.946  1.00  0.00    -0.465 OA
ATOM     18  C   UNL A   1      44.541  19.165  24.044  1.00  0.00     0.282 C 
ENDBRANCH  15  17
ENDBRANCH  11  15
BRANCH  13  19
ATOM     19  O   UNL A   1      45.107  23.704  23.824  1.00  0.00    -0.504 OA
ATOM     20  H   UNL A   1      45.132  24.484  23.304  1.00  0.00     0.293 HD
ENDBRANCH  13  19
BRANCH  14  21
ATOM     21  N   UNL A   1      43.638  25.909  24.881  1.00  0.00    -0.317 N 
ATOM     22  C   UNL A   1      44.365  26.771  25.657  1.00  0.00     0.255 C 
ATOM     23  H   UNL A   1      43.316  26.254  24.018  1.00  0.00     0.170 HD
ATOM     24  O   UNL A   1      44.630  27.916  25.323  1.00  0.00    -0.269 OA
BRANCH  22  25
ATOM     25  C   UNL A   1      44.825  26.250  26.949  1.00  0.00     0.040 A 
ATOM     26  C   UNL A   1      46.520  25.647  27.014  1.00  0.00     0.014 A 
ATOM     27  C   UNL A   1      43.953  26.676  28.496  1.00  0.00     0.014 A 
ATOM     28  C   UNL A   1      47.387  25.571  28.590  1.00  0.00     0.001 A 
ATOM     29  C   UNL A   1      44.832  26.621  30.066  1.00  0.00     0.001 A 
ATOM     30  C   UNL A   1      46.539  26.040  30.103  1.00  0.00     0.000 A 
ENDBRANCH  22  25
ENDBRANCH  14  21
ENDBRANCH   9  10
ENDBRANCH   8   9
ENDBRANCH   6   8
ENDBRANCH   5   6
ENDBRANCH   4   5
ENDBRANCH   3   4
ENDBRANCH   2   3
ENDBRANCH   1   2
BRANCH   1  31
ATOM     31  C   UNL A   1      32.670  27.494  25.681  1.00  0.00     0.188 C 
BRANCH  31  32
ATOM     32  O   UNL A   1      33.446  28.432  26.425  1.00  0.00    -0.376 OA
BRANCH  32  33
ATOM     33  C   UNL A   1      33.091  29.804  26.267  1.00  0.00     0.202 C 
BRANCH  33  34
ATOM     34  C   UNL A   1      33.278  30.644  27.542  1.00  0.00     0.261 C 
BRANCH  34  35
ATOM     35  O   UNL A   1      34.454  31.468  27.513  1.00  0.00    -0.460 OA
BRANCH  35  36
ATOM     36  C   UNL A   1      35.569  30.826  27.915  1.00  0.00     0.338 C 
ATOM     37  O   UNL A   1      36.279  30.103  27.232  1.00  0.00    -0.246 OA
BRANCH  36  38
ATOM     38  C   UNL A   1      35.915  31.180  29.296  1.00  0.00     0.060 A 
ATOM     39  C   UNL A   1      36.123  32.540  29.534  1.00  0.00     0.016 A 
ATOM     40  C   UNL A   1      36.285  30.215  30.231  1.00  0.00     0.016 A 
ATOM     41  C   UNL A   1      36.959  32.928  30.561  1.00  0.00     0.010 A 
ATOM     42  C   UNL A   1      37.095  30.610  31.288  1.00  0.00     0.010 A 
ATOM     43  C   UNL A   1      37.559  31.935  31.335  1.00  0.00    -0.014 A 
BRANCH  43  44
ATOM     44  C   UNL A   1      38.858  32.275  31.935  1.00  0.00     0.031 A 
ATOM     45  C   UNL A   1      39.953  32.781  31.066  1.00  0.00     0.074 A 
ATOM     46  C   UNL A   1      39.052  32.145  33.267  1.00  0.00     0.049 A 
ATOM     47  N   UNL A   1      41.193  32.397  31.034  1.00  0.00    -0.248 NA
ATOM     48  C   UNL A   1      39.621  33.841  30.104  1.00  0.00     0.031 C 
ATOM     49  C   UNL A   1      38.037  31.821  34.277  1.00  0.00     0.029 A 
ATOM     50  N   UNL A   1      40.161  32.420  34.022  1.00  0.00    -0.354 N 
ATOM     51  C   UNL A   1      41.842  33.303  30.206  1.00  0.00     0.074 A 
ATOM     52  C   UNL A   1      40.819  34.115  29.590  1.00  0.00     0.031 C 
ATOM     53  C   UNL A   1      38.484  32.202  35.488  1.00  0.00     0.029 A 
ATOM     54  C   UNL A   1      39.852  32.669  35.351  1.00  0.00     0.049 A 
ATOM     55  H   UNL A   1      41.077  32.439  33.661  1.00  0.00     0.167 HD
ATOM     56  C   UNL A   1      43.187  33.498  30.209  1.00  0.00     0.037 A 
ATOM     57  C   UNL A   1      40.601  33.322  36.266  1.00  0.00     0.037 A 
ATOM     58  C   UNL A   1      43.949  32.437  30.794  1.00  0.00     0.049 A 
ATOM     59  C   UNL A   1      42.020  33.271  35.853  1.00  0.00     0.074 A 
ATOM     60  C   UNL A   1      44.168  31.107  30.502  1.00  0.00     0.029 A 
ATOM     61  N   UNL A   1      44.511  32.653  32.026  1.00  0.00    -0.354 N 
ATOM     62  N   UNL A   1      42.758  32.195  35.859  1.00  0.00    -0.248 NA
ATOM     63  C   UNL A   1      42.597  34.419  35.167  1.00  0.00     0.031 C 
ATOM     64  C   UNL A   1      44.540  30.488  31.730  1.00  0.00     0.029 A 
ATOM     65  C   UNL A   1      44.482  31.468  32.720  1.00  0.00     0.049 A 
ATOM     66  H   UNL A   1      44.873  33.507  32.355  1.00  0.00     0.167 HD
ATOM     67  C   UNL A   1      43.698  32.409  34.866  1.00  0.00     0.074 A 
ATOM     68  C   UNL A   1      43.656  33.838  34.602  1.00  0.00     0.031 C 
ATOM     69  C   UNL A   1      44.197  31.371  34.136  1.00  0.00     0.037 A 
BRANCH  56  70
ATOM     70  C   UNL A   1      43.765  34.854  29.935  1.00  0.00     0.058 A 
ATOM     71  C   UNL A   1      44.618  35.084  28.846  1.00  0.00     0.135 A 
ATOM     72  C   UNL A   1      43.646  35.899  30.879  1.00  0.00     0.135 A 
ATOM     73  F   UNL A   1      44.832  34.122  27.935  1.00  0.00    -0.206 F 
ATOM     74  C   UNL A   1      45.298  36.293  28.689  1.00  0.00     0.059 A 
ATOM     75  C   UNL A   1      44.281  37.122  30.724  1.00  0.00     0.059 A 
ATOM     76  F   UNL A   1      42.950  35.727  32.014  1.00  0.00    -0.206 F 
ATOM     77  C   UNL A   1      45.124  37.304  29.635  1.00  0.00     0.060 A 
BRANCH  77  78
ATOM     78  S   UNL A   1      46.005  38.868  29.465  1.00  0.00     0.124 S 
ATOM     79  O   UNL A   1      47.067  38.500  28.536  1.00  0.00    -0.237 OA
ATOM     80  O   UNL A   1      44.977  39.759  28.938  1.00  0.00    -0.237 OA
ATOM     81  O   UNL A   1      46.427  39.151  30.834  1.00  0.00    -0.744 OA
ENDBRANCH  77  78
ENDBRANCH  56  70
BRANCH  57  82
ATOM     82  C   UNL A   1      40.102  34.214  37.340  1.00  0.00     0.058 A 
ATOM     83  C   UNL A   1      40.174  33.839  38.691  1.00  0.00     0.135 A 
ATOM     84  C   UNL A   1      39.753  35.558  37.084  1.00  0.00     0.135 A 
ATOM     85  F   UNL A   1      40.545  32.595  39.026  1.00  0.00    -0.206 F 
ATOM     86  C   UNL A   1      39.927  34.744  39.727  1.00  0.00     0.059 A 
ATOM     87  C   UNL A   1      39.477  36.470  38.097  1.00  0.00     0.059 A 
ATOM     88  F   UNL A   1      39.753  36.053  35.837  1.00  0.00    -0.206 F 
ATOM     89  C   UNL A   1      39.585  36.060  39.418  1.00  0.00     0.060 A 
BRANCH  89  90
ATOM     90  S   UNL A   1      39.389  37.261  40.753  1.00  0.00     0.124 S 
ATOM     91  O   UNL A   1      38.873  36.427  41.833  1.00  0.00    -0.237 OA
ATOM     92  O   UNL A   1      40.752  37.754  40.921  1.00  0.00    -0.237 OA
ATOM     93  O   UNL A   1      38.442  38.228  40.203  1.00  0.00    -0.744 OA
ENDBRANCH  89  90
ENDBRANCH  57  82
BRANCH  69  94
ATOM     94  C   UNL A   1      44.110  29.995  34.733  1.00  0.00     0.058 A 
ATOM     95  C   UNL A   1      45.103  29.449  35.561  1.00  0.00     0.135 A 
ATOM     96  C   UNL A   1      42.928  29.258  34.565  1.00  0.00     0.135 A 
ATOM     97  F   UNL A   1      46.217  30.140  35.846  1.00  0.00    -0.206 F 
ATOM     98  C   UNL A   1      44.944  28.204  36.169  1.00  0.00     0.059 A 
ATOM     99  C   UNL A   1      42.737  28.023  35.184  1.00  0.00     0.059 A 
ATOM    100  F   UNL A   1      41.920  29.758  33.832  1.00  0.00    -0.206 F 
ATOM    101  C   UNL A   1      43.757  27.498  35.977  1.00  0.00     0.060 A 
BRANCH 101 102
ATOM    102  S   UNL A   1      43.501  25.941  36.860  1.00  0.00     0.124 S 
ATOM    103  O   UNL A   1      44.863  25.434  36.986  1.00  0.00    -0.237 OA
ATOM    104  O   UNL A   1      42.867  26.373  38.102  1.00  0.00    -0.237 OA
ATOM    105  O   UNL A   1      42.631  25.186  35.961  1.00  0.00    -0.744 OA
ENDBRANCH 101 102
ENDBRANCH  69  94
ENDBRANCH  43  44
ENDBRANCH  36  38
ENDBRANCH  35  36
ENDBRANCH  34  35
ENDBRANCH  33  34
ENDBRANCH  32  33
ENDBRANCH  31  32
ENDBRANCH   1  31
TORSDOF 27
ENDMDL
