MODEL 1
REMARK VINA RESULT:     -10.2      0.000      0.000
REMARK SMILES C[C@@H]1[C@@H](C(=O)OCCOCCOCCOC(=O)c2ccc(-c3c4nc(c(-c5c(F)cc(S(=O)(=O)[O-])cc5F)c5ccc([nH]5)c(-c5c(F)cc(S(=O)(=O)[O-])cc5F)c5nc(c(-c6c(F)cc(S(=O)(=O)[O-])cc6F)c6ccc3[nH]6)C=C5)C=C4)cc2)CCN1C(=O)Nc1nccs1
REMARK SMILES IDX 11 1 10 2 9 3 8 4 7 5 6 6 4 7 5 8 3 9 1 10 2 11 86 12 84 13
REMARK SMILES IDX 85 14 87 15 88 16 89 17 90 19 91 20 94 21 92 22 93 23 12 24
REMARK SMILES IDX 13 25 14 26 15 27 16 28 17 29 18 30 19 31 83 32 20 33 82 34
REMARK SMILES IDX 21 35 22 36 23 37 76 38 24 39 81 40 75 41 77 42 25 43 80 44
REMARK SMILES IDX 74 45 73 46 26 48 60 49 39 50 59 51 40 52 43 53 58 54 78 55
REMARK SMILES IDX 41 56 42 57 57 59 79 60 44 61 27 62 28 63 37 64 29 65 30 66
REMARK SMILES IDX 36 67 38 68 31 69 32 70 33 71 34 72 35 73 61 74 62 75 71 76
REMARK SMILES IDX 63 77 64 78 70 79 72 80 65 81 66 82 67 83 68 84 69 85 45 86
REMARK SMILES IDX 46 87 55 88 47 89 48 90 54 91 56 92 49 93 50 94 51 95 52 96
REMARK SMILES IDX 53 97
REMARK H PARENT 89 18 77 47 43 58
REMARK Flexibility Score: inf
ROOT
ATOM      1  C   UNL A   1      37.086  21.284  24.737  1.00  0.00     0.188 C 
ENDROOT
BRANCH   1   2
ATOM      2  C   UNL A   1      35.631  20.843  24.991  1.00  0.00     0.188 C 
BRANCH   2   3
ATOM      3  O   UNL A   1      34.577  21.591  24.425  1.00  0.00    -0.376 OA
BRANCH   3   4
ATOM      4  C   UNL A   1      34.836  22.641  23.507  1.00  0.00     0.202 C 
BRANCH   4   5
ATOM      5  C   UNL A   1      34.807  24.135  23.860  1.00  0.00     0.261 C 
BRANCH   5   6
ATOM      6  O   UNL A   1      33.548  24.651  24.302  1.00  0.00    -0.463 OA
BRANCH   6   7
ATOM      7  C   UNL A   1      32.658  24.911  23.303  1.00  0.00     0.311 C 
ATOM      8  O   UNL A   1      31.912  24.075  22.811  1.00  0.00    -0.252 OA
BRANCH   7   9
ATOM      9  C   UNL A   1      32.687  26.380  22.918  1.00  0.00     0.123 C 
ATOM     10  C   UNL A   1      33.602  28.588  23.727  1.00  0.00     0.032 C 
ATOM     11  C   UNL A   1      33.029  27.227  24.152  1.00  0.00     0.098 C 
ATOM     12  N   UNL A   1      31.730  27.371  24.820  1.00  0.00    -0.321 N 
ATOM     13  C   UNL A   1      31.308  26.882  22.520  1.00  0.00     0.039 C 
ATOM     14  C   UNL A   1      30.646  27.181  23.859  1.00  0.00     0.122 C 
BRANCH  12  15
ATOM     15  C   UNL A   1      31.419  27.202  26.149  1.00  0.00     0.323 C 
ATOM     16  O   UNL A   1      30.594  26.343  26.489  1.00  0.00    -0.248 OA
ATOM     17  N   UNL A   1      32.080  27.831  27.144  1.00  0.00    -0.283 N 
ATOM     18  H   UNL A   1      32.171  27.308  27.975  1.00  0.00     0.174 HD
BRANCH  17  19
ATOM     19  C   UNL A   1      32.640  29.070  27.183  1.00  0.00     0.190 A 
ATOM     20  N   UNL A   1      32.078  30.244  27.074  1.00  0.00    -0.228 NA
ATOM     21  S   UNL A   1      34.328  29.065  27.452  1.00  0.00    -0.105 S 
ATOM     22  C   UNL A   1      33.035  31.229  27.195  1.00  0.00     0.125 A 
ATOM     23  C   UNL A   1      34.319  30.779  27.392  1.00  0.00     0.088 A 
ENDBRANCH  17  19
ENDBRANCH  12  15
ENDBRANCH   7   9
ENDBRANCH   6   7
ENDBRANCH   5   6
ENDBRANCH   4   5
ENDBRANCH   3   4
ENDBRANCH   2   3
ENDBRANCH   1   2
BRANCH   1  24
ATOM     24  O   UNL A   1      37.826  21.902  25.764  1.00  0.00    -0.376 OA
BRANCH  24  25
ATOM     25  C   UNL A   1      39.136  21.446  26.062  1.00  0.00     0.202 C 
BRANCH  25  26
ATOM     26  C   UNL A   1      40.297  22.340  26.544  1.00  0.00     0.261 C 
BRANCH  26  27
ATOM     27  O   UNL A   1      40.069  23.751  26.608  1.00  0.00    -0.460 OA
BRANCH  27  28
ATOM     28  C   UNL A   1      41.180  24.505  26.784  1.00  0.00     0.338 C 
ATOM     29  O   UNL A   1      42.253  24.389  26.199  1.00  0.00    -0.246 OA
BRANCH  28  30
ATOM     30  C   UNL A   1      40.868  25.643  27.662  1.00  0.00     0.060 A 
ATOM     31  C   UNL A   1      41.731  26.748  27.672  1.00  0.00     0.016 A 
ATOM     32  C   UNL A   1      39.764  25.597  28.514  1.00  0.00     0.016 A 
ATOM     33  C   UNL A   1      41.494  27.810  28.543  1.00  0.00     0.010 A 
ATOM     34  C   UNL A   1      39.548  26.648  29.410  1.00  0.00     0.010 A 
ATOM     35  C   UNL A   1      40.422  27.747  29.443  1.00  0.00    -0.014 A 
BRANCH  35  36
ATOM     36  C   UNL A   1      40.324  28.749  30.531  1.00  0.00     0.031 A 
ATOM     37  C   UNL A   1      41.341  28.709  31.637  1.00  0.00     0.074 A 
ATOM     38  C   UNL A   1      39.355  29.681  30.527  1.00  0.00     0.049 A 
ATOM     39  N   UNL A   1      41.430  29.456  32.705  1.00  0.00    -0.248 NA
ATOM     40  C   UNL A   1      42.382  27.673  31.534  1.00  0.00     0.031 C 
ATOM     41  C   UNL A   1      38.311  29.803  29.513  1.00  0.00     0.029 A 
ATOM     42  N   UNL A   1      39.102  30.713  31.396  1.00  0.00    -0.354 N 
ATOM     43  C   UNL A   1      42.505  28.952  33.427  1.00  0.00     0.074 A 
ATOM     44  C   UNL A   1      43.045  27.845  32.668  1.00  0.00     0.031 C 
ATOM     45  C   UNL A   1      37.556  30.879  29.794  1.00  0.00     0.029 A 
ATOM     46  C   UNL A   1      38.047  31.511  31.018  1.00  0.00     0.049 A 
ATOM     47  H   UNL A   1      39.627  30.868  32.215  1.00  0.00     0.167 HD
ATOM     48  C   UNL A   1      42.981  29.363  34.627  1.00  0.00     0.037 A 
ATOM     49  C   UNL A   1      37.549  32.625  31.593  1.00  0.00     0.037 A 
ATOM     50  C   UNL A   1      42.431  30.461  35.377  1.00  0.00     0.049 A 
ATOM     51  C   UNL A   1      38.127  33.088  32.910  1.00  0.00     0.074 A 
ATOM     52  C   UNL A   1      42.820  30.938  36.617  1.00  0.00     0.029 A 
ATOM     53  N   UNL A   1      41.374  31.255  34.958  1.00  0.00    -0.354 N 
ATOM     54  N   UNL A   1      39.136  32.593  33.590  1.00  0.00    -0.248 NA
ATOM     55  C   UNL A   1      37.475  34.236  33.558  1.00  0.00     0.031 C 
ATOM     56  C   UNL A   1      41.970  31.993  36.966  1.00  0.00     0.029 A 
ATOM     57  C   UNL A   1      41.089  32.212  35.919  1.00  0.00     0.049 A 
ATOM     58  H   UNL A   1      40.895  31.155  34.104  1.00  0.00     0.167 HD
ATOM     59  C   UNL A   1      39.231  33.363  34.746  1.00  0.00     0.074 A 
ATOM     60  C   UNL A   1      38.210  34.386  34.650  1.00  0.00     0.031 C 
ATOM     61  C   UNL A   1      40.070  33.224  35.804  1.00  0.00     0.037 A 
BRANCH  48  62
ATOM     62  C   UNL A   1      44.119  28.583  35.226  1.00  0.00     0.058 A 
ATOM     63  C   UNL A   1      45.457  28.967  35.051  1.00  0.00     0.135 A 
ATOM     64  C   UNL A   1      43.861  27.444  36.007  1.00  0.00     0.135 A 
ATOM     65  F   UNL A   1      45.761  30.033  34.292  1.00  0.00    -0.206 F 
ATOM     66  C   UNL A   1      46.501  28.237  35.610  1.00  0.00     0.059 A 
ATOM     67  C   UNL A   1      44.887  26.716  36.601  1.00  0.00     0.059 A 
ATOM     68  F   UNL A   1      42.599  27.029  36.200  1.00  0.00    -0.206 F 
ATOM     69  C   UNL A   1      46.205  27.113  36.385  1.00  0.00     0.060 A 
BRANCH  69  70
ATOM     70  S   UNL A   1      47.571  26.183  37.111  1.00  0.00     0.124 S 
ATOM     71  O   UNL A   1      48.642  26.446  36.155  1.00  0.00    -0.237 OA
ATOM     72  O   UNL A   1      47.719  26.816  38.417  1.00  0.00    -0.237 OA
ATOM     73  O   UNL A   1      47.075  24.810  37.133  1.00  0.00    -0.744 OA
ENDBRANCH  69  70
ENDBRANCH  48  62
BRANCH  49  74
ATOM     74  C   UNL A   1      36.451  33.396  30.942  1.00  0.00     0.058 A 
ATOM     75  C   UNL A   1      35.166  33.431  31.510  1.00  0.00     0.135 A 
ATOM     76  C   UNL A   1      36.645  34.093  29.739  1.00  0.00     0.135 A 
ATOM     77  F   UNL A   1      34.922  32.774  32.654  1.00  0.00    -0.206 F 
ATOM     78  C   UNL A   1      34.110  34.102  30.898  1.00  0.00     0.059 A 
ATOM     79  C   UNL A   1      35.615  34.803  29.129  1.00  0.00     0.059 A 
ATOM     80  F   UNL A   1      37.852  34.102  29.154  1.00  0.00    -0.206 F 
ATOM     81  C   UNL A   1      34.347  34.786  29.706  1.00  0.00     0.060 A 
BRANCH  81  82
ATOM     82  S   UNL A   1      32.984  35.684  28.932  1.00  0.00     0.124 S 
ATOM     83  O   UNL A   1      33.696  36.736  28.218  1.00  0.00    -0.237 OA
ATOM     84  O   UNL A   1      32.366  34.653  28.104  1.00  0.00    -0.237 OA
ATOM     85  O   UNL A   1      32.185  36.124  30.073  1.00  0.00    -0.744 OA
ENDBRANCH  81  82
ENDBRANCH  49  74
BRANCH  61  86
ATOM     86  C   UNL A   1      39.926  34.200  36.941  1.00  0.00     0.058 A 
ATOM     87  C   UNL A   1      40.564  35.451  36.924  1.00  0.00     0.135 A 
ATOM     88  C   UNL A   1      39.087  33.910  38.030  1.00  0.00     0.135 A 
ATOM     89  F   UNL A   1      41.379  35.779  35.908  1.00  0.00    -0.206 F 
ATOM     90  C   UNL A   1      40.396  36.369  37.956  1.00  0.00     0.059 A 
ATOM     91  C   UNL A   1      38.881  34.825  39.058  1.00  0.00     0.059 A 
ATOM     92  F   UNL A   1      38.441  32.734  38.090  1.00  0.00    -0.206 F 
ATOM     93  C   UNL A   1      39.549  36.047  39.018  1.00  0.00     0.060 A 
BRANCH  93  94
ATOM     94  S   UNL A   1      39.310  37.263  40.331  1.00  0.00     0.124 S 
ATOM     95  O   UNL A   1      38.541  38.293  39.641  1.00  0.00    -0.237 OA
ATOM     96  O   UNL A   1      38.583  36.496  41.339  1.00  0.00    -0.237 OA
ATOM     97  O   UNL A   1      40.672  37.637  40.700  1.00  0.00    -0.744 OA
ENDBRANCH  93  94
ENDBRANCH  61  86
ENDBRANCH  35  36
ENDBRANCH  28  30
ENDBRANCH  27  28
ENDBRANCH  26  27
ENDBRANCH  25  26
ENDBRANCH  24  25
ENDBRANCH   1  24
TORSDOF 22
ENDMDL
MODEL 2
REMARK VINA RESULT:     -10.1      1.514      2.274
REMARK SMILES C[C@@H]1[C@@H](C(=O)OCCOCCOCCOC(=O)c2ccc(-c3c4nc(c(-c5c(F)cc(S(=O)(=O)[O-])cc5F)c5ccc([nH]5)c(-c5c(F)cc(S(=O)(=O)[O-])cc5F)c5nc(c(-c6c(F)cc(S(=O)(=O)[O-])cc6F)c6ccc3[nH]6)C=C5)C=C4)cc2)CCN1C(=O)Nc1nccs1
REMARK SMILES IDX 11 1 10 2 9 3 8 4 7 5 6 6 4 7 5 8 3 9 1 10 2 11 86 12 84 13
REMARK SMILES IDX 85 14 87 15 88 16 89 17 90 19 91 20 94 21 92 22 93 23 12 24
REMARK SMILES IDX 13 25 14 26 15 27 16 28 17 29 18 30 19 31 83 32 20 33 82 34
REMARK SMILES IDX 21 35 22 36 23 37 76 38 24 39 81 40 75 41 77 42 25 43 80 44
REMARK SMILES IDX 74 45 73 46 26 48 60 49 39 50 59 51 40 52 43 53 58 54 78 55
REMARK SMILES IDX 41 56 42 57 57 59 79 60 44 61 27 62 28 63 37 64 29 65 30 66
REMARK SMILES IDX 36 67 38 68 31 69 32 70 33 71 34 72 35 73 61 74 62 75 71 76
REMARK SMILES IDX 63 77 64 78 70 79 72 80 65 81 66 82 67 83 68 84 69 85 45 86
REMARK SMILES IDX 46 87 55 88 47 89 48 90 54 91 56 92 49 93 50 94 51 95 52 96
REMARK SMILES IDX 53 97
REMARK H PARENT 89 18 77 47 43 58
REMARK Flexibility Score: inf
ROOT
ATOM      1  C   UNL A   1      36.454  21.573  24.612  1.00  0.00     0.188 C 
ENDROOT
BRANCH   1   2
ATOM      2  C   UNL A   1      34.980  21.378  25.018  1.00  0.00     0.188 C 
BRANCH   2   3
ATOM      3  O   UNL A   1      34.122  22.498  25.052  1.00  0.00    -0.376 OA
BRANCH   3   4
ATOM      4  C   UNL A   1      32.713  22.342  24.990  1.00  0.00     0.202 C 
BRANCH   4   5
ATOM      5  C   UNL A   1      31.778  23.205  24.130  1.00  0.00     0.261 C 
BRANCH   5   6
ATOM      6  O   UNL A   1      32.362  24.375  23.548  1.00  0.00    -0.463 OA
BRANCH   6   7
ATOM      7  C   UNL A   1      32.466  25.439  24.394  1.00  0.00     0.311 C 
ATOM      8  O   UNL A   1      33.525  25.947  24.736  1.00  0.00    -0.252 OA
BRANCH   7   9
ATOM      9  C   UNL A   1      31.093  25.933  24.814  1.00  0.00     0.123 C 
ATOM     10  C   UNL A   1      28.947  26.810  23.817  1.00  0.00     0.032 C 
ATOM     11  C   UNL A   1      30.477  26.766  23.681  1.00  0.00     0.098 C 
ATOM     12  N   UNL A   1      31.077  28.091  23.885  1.00  0.00    -0.321 N 
ATOM     13  C   UNL A   1      31.182  26.923  25.966  1.00  0.00     0.039 C 
ATOM     14  C   UNL A   1      31.512  28.237  25.272  1.00  0.00     0.122 C 
BRANCH  12  15
ATOM     15  C   UNL A   1      31.654  28.928  22.960  1.00  0.00     0.323 C 
ATOM     16  O   UNL A   1      32.888  28.980  22.855  1.00  0.00    -0.248 OA
ATOM     17  N   UNL A   1      30.941  29.607  22.036  1.00  0.00    -0.283 N 
ATOM     18  H   UNL A   1      31.395  29.726  21.169  1.00  0.00     0.174 HD
BRANCH  17  19
ATOM     19  C   UNL A   1      29.698  30.152  22.112  1.00  0.00     0.190 A 
ATOM     20  N   UNL A   1      28.708  30.097  21.261  1.00  0.00    -0.228 NA
ATOM     21  S   UNL A   1      29.396  31.003  23.564  1.00  0.00    -0.105 S 
ATOM     22  C   UNL A   1      27.624  30.783  21.766  1.00  0.00     0.125 A 
ATOM     23  C   UNL A   1      27.815  31.355  23.002  1.00  0.00     0.088 A 
ENDBRANCH  17  19
ENDBRANCH  12  15
ENDBRANCH   7   9
ENDBRANCH   6   7
ENDBRANCH   5   6
ENDBRANCH   4   5
ENDBRANCH   3   4
ENDBRANCH   2   3
ENDBRANCH   1   2
BRANCH   1  24
ATOM     24  O   UNL A   1      37.364  22.154  25.516  1.00  0.00    -0.376 OA
BRANCH  24  25
ATOM     25  C   UNL A   1      38.586  21.494  25.809  1.00  0.00     0.202 C 
BRANCH  25  26
ATOM     26  C   UNL A   1      39.805  22.149  26.490  1.00  0.00     0.261 C 
BRANCH  26  27
ATOM     27  O   UNL A   1      39.774  23.566  26.693  1.00  0.00    -0.460 OA
BRANCH  27  28
ATOM     28  C   UNL A   1      40.950  24.118  27.075  1.00  0.00     0.338 C 
ATOM     29  O   UNL A   1      42.074  23.802  26.693  1.00  0.00    -0.246 OA
BRANCH  28  30
ATOM     30  C   UNL A   1      40.691  25.312  27.894  1.00  0.00     0.060 A 
ATOM     31  C   UNL A   1      41.662  26.321  27.947  1.00  0.00     0.016 A 
ATOM     32  C   UNL A   1      39.523  25.409  28.651  1.00  0.00     0.016 A 
ATOM     33  C   UNL A   1      41.469  27.431  28.767  1.00  0.00     0.010 A 
ATOM     34  C   UNL A   1      39.348  26.507  29.498  1.00  0.00     0.010 A 
ATOM     35  C   UNL A   1      40.328  27.510  29.576  1.00  0.00    -0.014 A 
BRANCH  35  36
ATOM     36  C   UNL A   1      40.249  28.554  30.625  1.00  0.00     0.031 A 
ATOM     37  C   UNL A   1      41.271  28.543  31.727  1.00  0.00     0.074 A 
ATOM     38  C   UNL A   1      39.292  29.499  30.590  1.00  0.00     0.049 A 
ATOM     39  N   UNL A   1      41.376  29.329  32.765  1.00  0.00    -0.248 NA
ATOM     40  C   UNL A   1      42.298  27.490  31.659  1.00  0.00     0.031 C 
ATOM     41  C   UNL A   1      38.245  29.596  29.577  1.00  0.00     0.029 A 
ATOM     42  N   UNL A   1      39.058  30.566  31.421  1.00  0.00    -0.354 N 
ATOM     43  C   UNL A   1      42.448  28.839  33.501  1.00  0.00     0.074 A 
ATOM     44  C   UNL A   1      42.969  27.696  32.782  1.00  0.00     0.031 C 
ATOM     45  C   UNL A   1      37.505  30.692  29.821  1.00  0.00     0.029 A 
ATOM     46  C   UNL A   1      38.011  31.363  31.018  1.00  0.00     0.049 A 
ATOM     47  H   UNL A   1      39.589  30.745  32.231  1.00  0.00     0.167 HD
ATOM     48  C   UNL A   1      42.935  29.288  34.682  1.00  0.00     0.037 A 
ATOM     49  C   UNL A   1      37.531  32.505  31.552  1.00  0.00     0.037 A 
ATOM     50  C   UNL A   1      42.404  30.422  35.392  1.00  0.00     0.049 A 
ATOM     51  C   UNL A   1      38.123  33.010  32.847  1.00  0.00     0.074 A 
ATOM     52  C   UNL A   1      42.806  30.940  36.611  1.00  0.00     0.029 A 
ATOM     53  N   UNL A   1      41.355  31.213  34.948  1.00  0.00    -0.354 N 
ATOM     54  N   UNL A   1      39.128  32.528  33.541  1.00  0.00    -0.248 NA
ATOM     55  C   UNL A   1      37.489  34.191  33.454  1.00  0.00     0.031 C 
ATOM     56  C   UNL A   1      41.972  32.019  36.924  1.00  0.00     0.029 A 
ATOM     57  C   UNL A   1      41.089  32.210  35.873  1.00  0.00     0.049 A 
ATOM     58  H   UNL A   1      40.871  31.087  34.101  1.00  0.00     0.167 HD
ATOM     59  C   UNL A   1      39.240  33.341  34.667  1.00  0.00     0.074 A 
ATOM     60  C   UNL A   1      38.232  34.372  34.537  1.00  0.00     0.031 C 
ATOM     61  C   UNL A   1      40.082  33.230  35.725  1.00  0.00     0.037 A 
BRANCH  48  62
ATOM     62  C   UNL A   1      44.066  28.517  35.305  1.00  0.00     0.058 A 
ATOM     63  C   UNL A   1      45.409  28.864  35.094  1.00  0.00     0.135 A 
ATOM     64  C   UNL A   1      43.797  27.423  36.145  1.00  0.00     0.135 A 
ATOM     65  F   UNL A   1      45.723  29.884  34.279  1.00  0.00    -0.206 F 
ATOM     66  C   UNL A   1      46.445  28.142  35.676  1.00  0.00     0.059 A 
ATOM     67  C   UNL A   1      44.817  26.705  36.761  1.00  0.00     0.059 A 
ATOM     68  F   UNL A   1      42.530  27.043  36.375  1.00  0.00    -0.206 F 
ATOM     69  C   UNL A   1      46.139  27.064  36.510  1.00  0.00     0.060 A 
BRANCH  69  70
ATOM     70  S   UNL A   1      47.496  26.144  37.264  1.00  0.00     0.124 S 
ATOM     71  O   UNL A   1      48.329  27.226  37.780  1.00  0.00    -0.237 OA
ATOM     72  O   UNL A   1      46.807  25.341  38.268  1.00  0.00    -0.237 OA
ATOM     73  O   UNL A   1      48.063  25.396  36.146  1.00  0.00    -0.744 OA
ENDBRANCH  69  70
ENDBRANCH  48  62
BRANCH  49  74
ATOM     74  C   UNL A   1      36.440  33.266  30.877  1.00  0.00     0.058 A 
ATOM     75  C   UNL A   1      36.714  34.064  29.752  1.00  0.00     0.135 A 
ATOM     76  C   UNL A   1      35.117  33.237  31.342  1.00  0.00     0.135 A 
ATOM     77  F   UNL A   1      37.965  34.136  29.271  1.00  0.00    -0.206 F 
ATOM     78  C   UNL A   1      35.726  34.824  29.132  1.00  0.00     0.059 A 
ATOM     79  C   UNL A   1      34.104  33.958  30.715  1.00  0.00     0.059 A 
ATOM     80  F   UNL A   1      34.794  32.488  32.406  1.00  0.00    -0.206 F 
ATOM     81  C   UNL A   1      34.422  34.762  29.623  1.00  0.00     0.060 A 
BRANCH  81  82
ATOM     82  S   UNL A   1      33.134  35.722  28.796  1.00  0.00     0.124 S 
ATOM     83  O   UNL A   1      33.926  36.691  28.049  1.00  0.00    -0.237 OA
ATOM     84  O   UNL A   1      32.453  34.704  28.002  1.00  0.00    -0.237 OA
ATOM     85  O   UNL A   1      32.357  36.263  29.908  1.00  0.00    -0.744 OA
ENDBRANCH  81  82
ENDBRANCH  49  74
BRANCH  61  86
ATOM     86  C   UNL A   1      39.957  34.251  36.824  1.00  0.00     0.058 A 
ATOM     87  C   UNL A   1      40.650  35.471  36.779  1.00  0.00     0.135 A 
ATOM     88  C   UNL A   1      39.084  34.035  37.903  1.00  0.00     0.135 A 
ATOM     89  F   UNL A   1      41.500  35.728  35.771  1.00  0.00    -0.206 F 
ATOM     90  C   UNL A   1      40.501  36.432  37.775  1.00  0.00     0.059 A 
ATOM     91  C   UNL A   1      38.897  34.994  38.895  1.00  0.00     0.059 A 
ATOM     92  F   UNL A   1      38.386  32.891  37.989  1.00  0.00    -0.206 F 
ATOM     93  C   UNL A   1      39.618  36.184  38.828  1.00  0.00     0.060 A 
BRANCH  93  94
ATOM     94  S   UNL A   1      39.405  37.454  40.093  1.00  0.00     0.124 S 
ATOM     95  O   UNL A   1      38.124  38.038  39.711  1.00  0.00    -0.237 OA
ATOM     96  O   UNL A   1      39.402  36.671  41.326  1.00  0.00    -0.237 OA
ATOM     97  O   UNL A   1      40.568  38.316  39.909  1.00  0.00    -0.744 OA
ENDBRANCH  93  94
ENDBRANCH  61  86
ENDBRANCH  35  36
ENDBRANCH  28  30
ENDBRANCH  27  28
ENDBRANCH  26  27
ENDBRANCH  25  26
ENDBRANCH  24  25
ENDBRANCH   1  24
TORSDOF 22
ENDMDL
MODEL 3
REMARK VINA RESULT:      -9.9      6.297     10.934
REMARK SMILES C[C@@H]1[C@@H](C(=O)OCCOCCOCCOC(=O)c2ccc(-c3c4nc(c(-c5c(F)cc(S(=O)(=O)[O-])cc5F)c5ccc([nH]5)c(-c5c(F)cc(S(=O)(=O)[O-])cc5F)c5nc(c(-c6c(F)cc(S(=O)(=O)[O-])cc6F)c6ccc3[nH]6)C=C5)C=C4)cc2)CCN1C(=O)Nc1nccs1
REMARK SMILES IDX 11 1 10 2 9 3 8 4 7 5 6 6 4 7 5 8 3 9 1 10 2 11 86 12 84 13
REMARK SMILES IDX 85 14 87 15 88 16 89 17 90 19 91 20 94 21 92 22 93 23 12 24
REMARK SMILES IDX 13 25 14 26 15 27 16 28 17 29 18 30 19 31 83 32 20 33 82 34
REMARK SMILES IDX 21 35 22 36 23 37 76 38 24 39 81 40 75 41 77 42 25 43 80 44
REMARK SMILES IDX 74 45 73 46 26 48 60 49 39 50 59 51 40 52 43 53 58 54 78 55
REMARK SMILES IDX 41 56 42 57 57 59 79 60 44 61 27 62 28 63 37 64 29 65 30 66
REMARK SMILES IDX 36 67 38 68 31 69 32 70 33 71 34 72 35 73 61 74 62 75 71 76
REMARK SMILES IDX 63 77 64 78 70 79 72 80 65 81 66 82 67 83 68 84 69 85 45 86
REMARK SMILES IDX 46 87 55 88 47 89 48 90 54 91 56 92 49 93 50 94 51 95 52 96
REMARK SMILES IDX 53 97
REMARK H PARENT 89 18 77 47 43 58
REMARK Flexibility Score: inf
ROOT
ATOM      1  C   UNL A   1      37.016  22.444  24.171  1.00  0.00     0.188 C 
ENDROOT
BRANCH   1   2
ATOM      2  C   UNL A   1      35.840  23.072  23.397  1.00  0.00     0.188 C 
BRANCH   2   3
ATOM      3  O   UNL A   1      34.927  23.899  24.086  1.00  0.00    -0.376 OA
BRANCH   3   4
ATOM      4  C   UNL A   1      33.897  23.343  24.887  1.00  0.00     0.202 C 
BRANCH   4   5
ATOM      5  C   UNL A   1      33.226  24.062  26.067  1.00  0.00     0.261 C 
BRANCH   5   6
ATOM      6  O   UNL A   1      33.539  25.450  26.216  1.00  0.00    -0.463 OA
BRANCH   6   7
ATOM      7  C   UNL A   1      32.454  26.267  26.340  1.00  0.00     0.311 C 
ATOM      8  O   UNL A   1      31.423  25.960  26.921  1.00  0.00    -0.252 OA
BRANCH   7   9
ATOM      9  C   UNL A   1      32.717  27.619  25.700  1.00  0.00     0.123 C 
ATOM     10  C   UNL A   1      31.533  29.778  25.148  1.00  0.00     0.032 C 
ATOM     11  C   UNL A   1      31.386  28.254  25.274  1.00  0.00     0.098 C 
ATOM     12  N   UNL A   1      31.125  27.626  23.972  1.00  0.00    -0.321 N 
ATOM     13  C   UNL A   1      33.473  27.479  24.387  1.00  0.00     0.039 C 
ATOM     14  C   UNL A   1      32.375  27.148  23.386  1.00  0.00     0.122 C 
BRANCH  12  15
ATOM     15  C   UNL A   1      29.962  27.062  23.504  1.00  0.00     0.323 C 
ATOM     16  O   UNL A   1      29.824  25.830  23.509  1.00  0.00    -0.248 OA
ATOM     17  N   UNL A   1      28.876  27.790  23.164  1.00  0.00    -0.283 N 
ATOM     18  H   UNL A   1      28.012  27.355  23.350  1.00  0.00     0.174 HD
BRANCH  17  19
ATOM     19  C   UNL A   1      28.787  29.026  22.606  1.00  0.00     0.190 A 
ATOM     20  N   UNL A   1      29.519  29.579  21.676  1.00  0.00    -0.228 NA
ATOM     21  S   UNL A   1      27.490  29.969  23.202  1.00  0.00    -0.105 S 
ATOM     22  C   UNL A   1      29.049  30.846  21.406  1.00  0.00     0.125 A 
ATOM     23  C   UNL A   1      27.959  31.238  22.148  1.00  0.00     0.088 A 
ENDBRANCH  17  19
ENDBRANCH  12  15
ENDBRANCH   7   9
ENDBRANCH   6   7
ENDBRANCH   5   6
ENDBRANCH   4   5
ENDBRANCH   3   4
ENDBRANCH   2   3
ENDBRANCH   1   2
BRANCH   1  24
ATOM     24  O   UNL A   1      36.901  21.141  24.693  1.00  0.00    -0.376 OA
BRANCH  24  25
ATOM     25  C   UNL A   1      38.059  20.459  25.149  1.00  0.00     0.202 C 
BRANCH  25  26
ATOM     26  C   UNL A   1      39.203  21.102  25.959  1.00  0.00     0.261 C 
BRANCH  26  27
ATOM     27  O   UNL A   1      39.979  20.252  26.809  1.00  0.00    -0.460 OA
BRANCH  27  28
ATOM     28  C   UNL A   1      41.226  19.973  26.362  1.00  0.00     0.338 C 
ATOM     29  O   UNL A   1      41.583  18.976  25.740  1.00  0.00    -0.246 OA
BRANCH  28  30
ATOM     30  C   UNL A   1      42.093  21.145  26.558  1.00  0.00     0.060 A 
ATOM     31  C   UNL A   1      42.379  21.566  27.864  1.00  0.00     0.016 A 
ATOM     32  C   UNL A   1      42.573  21.860  25.460  1.00  0.00     0.016 A 
ATOM     33  C   UNL A   1      43.144  22.711  28.076  1.00  0.00     0.010 A 
ATOM     34  C   UNL A   1      43.311  23.027  25.676  1.00  0.00     0.010 A 
ATOM     35  C   UNL A   1      43.581  23.469  26.982  1.00  0.00    -0.014 A 
BRANCH  35  36
ATOM     36  C   UNL A   1      44.169  24.810  27.212  1.00  0.00     0.031 A 
ATOM     37  C   UNL A   1      43.289  25.892  27.771  1.00  0.00     0.074 A 
ATOM     38  C   UNL A   1      45.463  25.055  26.937  1.00  0.00     0.049 A 
ATOM     39  N   UNL A   1      43.573  27.143  28.019  1.00  0.00    -0.248 NA
ATOM     40  C   UNL A   1      41.897  25.518  28.071  1.00  0.00     0.031 C 
ATOM     41  C   UNL A   1      46.401  24.084  26.381  1.00  0.00     0.029 A 
ATOM     42  N   UNL A   1      46.214  26.191  27.107  1.00  0.00    -0.354 N 
ATOM     43  C   UNL A   1      42.386  27.719  28.456  1.00  0.00     0.074 A 
ATOM     44  C   UNL A   1      41.383  26.677  28.453  1.00  0.00     0.031 C 
ATOM     45  C   UNL A   1      47.616  24.654  26.296  1.00  0.00     0.029 A 
ATOM     46  C   UNL A   1      47.539  26.035  26.771  1.00  0.00     0.049 A 
ATOM     47  H   UNL A   1      45.840  27.040  27.438  1.00  0.00     0.167 HD
ATOM     48  C   UNL A   1      42.152  29.007  28.803  1.00  0.00     0.037 A 
ATOM     49  C   UNL A   1      48.566  26.906  26.851  1.00  0.00     0.037 A 
ATOM     50  C   UNL A   1      43.157  30.037  28.794  1.00  0.00     0.049 A 
ATOM     51  C   UNL A   1      48.285  28.326  27.285  1.00  0.00     0.074 A 
ATOM     52  C   UNL A   1      43.016  31.380  29.099  1.00  0.00     0.029 A 
ATOM     53  N   UNL A   1      44.490  29.841  28.464  1.00  0.00    -0.354 N 
ATOM     54  N   UNL A   1      47.154  28.861  27.682  1.00  0.00    -0.248 NA
ATOM     55  C   UNL A   1      49.412  29.271  27.243  1.00  0.00     0.031 C 
ATOM     56  C   UNL A   1      44.254  32.004  28.912  1.00  0.00     0.029 A 
ATOM     57  C   UNL A   1      45.180  31.039  28.547  1.00  0.00     0.049 A 
ATOM     58  H   UNL A   1      44.887  28.978  28.208  1.00  0.00     0.167 HD
ATOM     59  C   UNL A   1      47.433  30.204  27.928  1.00  0.00     0.074 A 
ATOM     60  C   UNL A   1      48.847  30.387  27.681  1.00  0.00     0.031 C 
ATOM     61  C   UNL A   1      46.591  31.201  28.299  1.00  0.00     0.037 A 
BRANCH  48  62
ATOM     62  C   UNL A   1      40.743  29.382  29.167  1.00  0.00     0.058 A 
ATOM     63  C   UNL A   1      40.347  29.588  30.498  1.00  0.00     0.135 A 
ATOM     64  C   UNL A   1      39.776  29.561  28.162  1.00  0.00     0.135 A 
ATOM     65  F   UNL A   1      41.224  29.405  31.499  1.00  0.00    -0.206 F 
ATOM     66  C   UNL A   1      39.040  29.934  30.822  1.00  0.00     0.059 A 
ATOM     67  C   UNL A   1      38.471  29.936  28.461  1.00  0.00     0.059 A 
ATOM     68  F   UNL A   1      40.099  29.370  26.873  1.00  0.00    -0.206 F 
ATOM     69  C   UNL A   1      38.109  30.108  29.795  1.00  0.00     0.060 A 
BRANCH  69  70
ATOM     70  S   UNL A   1      36.419  30.567  30.233  1.00  0.00     0.124 S 
ATOM     71  O   UNL A   1      35.681  30.113  29.059  1.00  0.00    -0.237 OA
ATOM     72  O   UNL A   1      36.196  29.802  31.456  1.00  0.00    -0.237 OA
ATOM     73  O   UNL A   1      36.492  32.014  30.406  1.00  0.00    -0.744 OA
ENDBRANCH  69  70
ENDBRANCH  48  62
BRANCH  49  74
ATOM     74  C   UNL A   1      49.958  26.480  26.527  1.00  0.00     0.058 A 
ATOM     75  C   UNL A   1      50.848  26.106  27.548  1.00  0.00     0.135 A 
ATOM     76  C   UNL A   1      50.439  26.457  25.209  1.00  0.00     0.135 A 
ATOM     77  F   UNL A   1      50.444  26.120  28.828  1.00  0.00    -0.206 F 
ATOM     78  C   UNL A   1      52.168  25.752  27.279  1.00  0.00     0.059 A 
ATOM     79  C   UNL A   1      51.742  26.070  24.911  1.00  0.00     0.059 A 
ATOM     80  F   UNL A   1      49.633  26.796  24.192  1.00  0.00    -0.206 F 
ATOM     81  C   UNL A   1      52.605  25.736  25.955  1.00  0.00     0.060 A 
BRANCH  81  82
ATOM     82  S   UNL A   1      54.307  25.244  25.605  1.00  0.00     0.124 S 
ATOM     83  O   UNL A   1      54.762  26.343  24.762  1.00  0.00    -0.237 OA
ATOM     84  O   UNL A   1      54.889  25.179  26.941  1.00  0.00    -0.237 OA
ATOM     85  O   UNL A   1      54.149  23.957  24.934  1.00  0.00    -0.744 OA
ENDBRANCH  81  82
ENDBRANCH  49  74
BRANCH  61  86
ATOM     86  C   UNL A   1      47.174  32.579  28.468  1.00  0.00     0.058 A 
ATOM     87  C   UNL A   1      47.180  33.510  27.418  1.00  0.00     0.135 A 
ATOM     88  C   UNL A   1      47.673  32.995  29.714  1.00  0.00     0.135 A 
ATOM     89  F   UNL A   1      46.718  33.164  26.206  1.00  0.00    -0.206 F 
ATOM     90  C   UNL A   1      47.681  34.797  27.588  1.00  0.00     0.059 A 
ATOM     91  C   UNL A   1      48.152  34.287  29.915  1.00  0.00     0.059 A 
ATOM     92  F   UNL A   1      47.679  32.149  30.757  1.00  0.00    -0.206 F 
ATOM     93  C   UNL A   1      48.162  35.177  28.843  1.00  0.00     0.060 A 
BRANCH  93  94
ATOM     94  S   UNL A   1      48.774  36.861  29.060  1.00  0.00     0.124 S 
ATOM     95  O   UNL A   1      47.605  37.529  29.622  1.00  0.00    -0.237 OA
ATOM     96  O   UNL A   1      49.896  36.671  29.975  1.00  0.00    -0.237 OA
ATOM     97  O   UNL A   1      49.139  37.268  27.706  1.00  0.00    -0.744 OA
ENDBRANCH  93  94
ENDBRANCH  61  86
ENDBRANCH  35  36
ENDBRANCH  28  30
ENDBRANCH  27  28
ENDBRANCH  26  27
ENDBRANCH  25  26
ENDBRANCH  24  25
ENDBRANCH   1  24
TORSDOF 22
ENDMDL
