MODEL 1
REMARK VINA RESULT:     -10.6      0.000      0.000
REMARK SMILES CC(C)(C)OC(=O)N1CCN(c2nc3ccccc3s2)[C@H](C(=O)OCCOCCOCCOC(=O)c2ccc(-c3c4nc(c(-c5c(F)cc(S(=O)(=O)[O-])cc5F)c5ccc([nH]5)c(-c5c(F)cc(S(=O)(=O)[O-])cc5F)c5nc(c(-c6c(F)cc(S(=O)(=O)[O-])cc6F)c6ccc3[nH]6)C=C5)C=C4)cc2)C1
REMARK SMILES IDX 28 1 27 2 26 3 25 4 24 5 22 6 23 7 21 8 8 9 9 10 102 11
REMARK SMILES IDX 10 12 11 13 6 14 7 15 5 16 2 17 1 18 3 19 4 20 12 21 13 22
REMARK SMILES IDX 20 23 14 24 19 25 15 26 18 27 16 28 17 29 29 30 30 31 31 32
REMARK SMILES IDX 32 33 33 34 34 35 35 36 36 37 37 38 101 39 38 40 100 41
REMARK SMILES IDX 39 42 40 43 41 44 94 45 42 46 99 47 93 48 95 49 43 50 98 51
REMARK SMILES IDX 92 52 91 53 44 55 78 56 57 57 77 58 58 59 61 60 76 61 96 62
REMARK SMILES IDX 59 63 60 64 75 66 97 67 62 68 45 69 46 70 55 71 47 72 48 73
REMARK SMILES IDX 54 74 56 75 49 76 50 77 51 78 52 79 53 80 79 81 80 82 89 83
REMARK SMILES IDX 81 84 82 85 88 86 90 87 83 88 84 89 85 90 86 91 87 92 63 93
REMARK SMILES IDX 64 94 73 95 65 96 66 97 72 98 74 99 67 100 68 101 69 102
REMARK SMILES IDX 70 103 71 104
REMARK H PARENT 95 54 61 65
REMARK Flexibility Score: inf
ROOT
ATOM      1  C   UNL A   1      39.613  22.511  26.562  1.00  0.00     0.188 C 
ENDROOT
BRANCH   1   2
ATOM      2  O   UNL A   1      38.279  22.706  26.106  1.00  0.00    -0.376 OA
BRANCH   2   3
ATOM      3  C   UNL A   1      37.757  21.830  25.119  1.00  0.00     0.202 C 
BRANCH   3   4
ATOM      4  C   UNL A   1      36.242  21.826  24.849  1.00  0.00     0.261 C 
BRANCH   4   5
ATOM      5  O   UNL A   1      35.579  23.105  24.968  1.00  0.00    -0.462 OA
BRANCH   5   6
ATOM      6  C   UNL A   1      34.764  23.460  23.932  1.00  0.00     0.330 C 
ATOM      7  O   UNL A   1      35.096  23.343  22.757  1.00  0.00    -0.250 OA
BRANCH   6   8
ATOM      8  C   UNL A   1      33.410  24.079  24.375  1.00  0.00     0.214 C 
ATOM      9  N   UNL A   1      32.118  25.539  25.991  1.00  0.00    -0.304 N 
ATOM     10  C   UNL A   1      31.038  24.547  26.081  1.00  0.00     0.144 C 
ATOM     11  C   UNL A   1      33.444  25.009  25.612  1.00  0.00     0.160 C 
ATOM     12  C   UNL A   1      30.996  23.638  24.839  1.00  0.00     0.141 C 
ATOM     13  N   UNL A   1      32.327  23.093  24.599  1.00  0.00    -0.331 N 
BRANCH   9  14
ATOM     14  C   UNL A   1      31.900  26.805  26.494  1.00  0.00     0.410 C 
ATOM     15  O   UNL A   1      31.049  27.047  27.348  1.00  0.00    -0.224 OA
BRANCH  14  16
ATOM     16  O   UNL A   1      32.669  27.751  25.899  1.00  0.00    -0.444 OA
BRANCH  16  17
ATOM     17  C   UNL A   1      32.089  28.661  24.922  1.00  0.00     0.106 C 
ATOM     18  C   UNL A   1      33.176  28.834  23.850  1.00  0.00     0.056 C 
ATOM     19  C   UNL A   1      31.796  30.025  25.557  1.00  0.00     0.056 C 
ATOM     20  C   UNL A   1      30.842  28.083  24.233  1.00  0.00     0.056 C 
ENDBRANCH  16  17
ENDBRANCH  14  16
ENDBRANCH   9  14
BRANCH  13  21
ATOM     21  C   UNL A   1      32.489  21.754  24.503  1.00  0.00     0.187 A 
ATOM     22  N   UNL A   1      32.281  21.074  23.405  1.00  0.00    -0.220 NA
ATOM     23  S   UNL A   1      32.868  20.803  25.887  1.00  0.00    -0.097 S 
ATOM     24  C   UNL A   1      32.561  19.732  23.615  1.00  0.00     0.084 A 
ATOM     25  C   UNL A   1      32.923  19.391  24.919  1.00  0.00     0.056 A 
ATOM     26  C   UNL A   1      32.509  18.713  22.645  1.00  0.00     0.030 A 
ATOM     27  C   UNL A   1      33.249  18.075  25.288  1.00  0.00     0.021 A 
ATOM     28  C   UNL A   1      32.822  17.397  22.999  1.00  0.00     0.002 A 
ATOM     29  C   UNL A   1      33.192  17.085  24.304  1.00  0.00     0.002 A 
ENDBRANCH  13  21
ENDBRANCH   6   8
ENDBRANCH   5   6
ENDBRANCH   4   5
ENDBRANCH   3   4
ENDBRANCH   2   3
ENDBRANCH   1   2
BRANCH   1  30
ATOM     30  C   UNL A   1      40.236  21.103  26.523  1.00  0.00     0.188 C 
BRANCH  30  31
ATOM     31  O   UNL A   1      41.337  21.024  25.651  1.00  0.00    -0.376 OA
BRANCH  31  32
ATOM     32  C   UNL A   1      42.620  20.994  26.228  1.00  0.00     0.202 C 
BRANCH  32  33
ATOM     33  C   UNL A   1      43.476  22.273  26.229  1.00  0.00     0.261 C 
BRANCH  33  34
ATOM     34  O   UNL A   1      42.991  23.408  26.967  1.00  0.00    -0.460 OA
BRANCH  34  35
ATOM     35  C   UNL A   1      42.720  24.534  26.263  1.00  0.00     0.338 C 
ATOM     36  O   UNL A   1      42.697  24.638  25.049  1.00  0.00    -0.246 OA
BRANCH  35  37
ATOM     37  C   UNL A   1      42.275  25.597  27.197  1.00  0.00     0.060 A 
ATOM     38  C   UNL A   1      42.878  26.863  27.138  1.00  0.00     0.016 A 
ATOM     39  C   UNL A   1      41.294  25.336  28.156  1.00  0.00     0.016 A 
ATOM     40  C   UNL A   1      42.519  27.860  28.054  1.00  0.00     0.010 A 
ATOM     41  C   UNL A   1      40.953  26.328  29.084  1.00  0.00     0.010 A 
ATOM     42  C   UNL A   1      41.582  27.588  29.061  1.00  0.00    -0.014 A 
BRANCH  42  43
ATOM     43  C   UNL A   1      41.377  28.536  30.191  1.00  0.00     0.031 A 
ATOM     44  C   UNL A   1      42.248  28.398  31.413  1.00  0.00     0.074 A 
ATOM     45  C   UNL A   1      40.433  29.495  30.155  1.00  0.00     0.049 A 
ATOM     46  N   UNL A   1      42.179  29.025  32.560  1.00  0.00    -0.248 NA
ATOM     47  C   UNL A   1      43.339  27.415  31.330  1.00  0.00     0.031 C 
ATOM     48  C   UNL A   1      39.552  29.772  29.022  1.00  0.00     0.029 A 
ATOM     49  N   UNL A   1      40.045  30.407  31.109  1.00  0.00    -0.354 N 
ATOM     50  C   UNL A   1      43.205  28.500  33.341  1.00  0.00     0.074 A 
ATOM     51  C   UNL A   1      43.863  27.487  32.545  1.00  0.00     0.031 C 
ATOM     52  C   UNL A   1      38.719  30.774  29.351  1.00  0.00     0.029 A 
ATOM     53  C   UNL A   1      38.970  31.180  30.734  1.00  0.00     0.049 A 
ATOM     54  H   UNL A   1      40.495  30.498  31.981  1.00  0.00     0.167 HD
ATOM     55  C   UNL A   1      43.567  28.833  34.603  1.00  0.00     0.037 A 
ATOM     56  C   UNL A   1      38.252  32.084  31.433  1.00  0.00     0.037 A 
ATOM     57  C   UNL A   1      42.911  29.843  35.394  1.00  0.00     0.049 A 
ATOM     58  C   UNL A   1      38.624  32.385  32.866  1.00  0.00     0.074 A 
ATOM     59  C   UNL A   1      43.219  30.261  36.678  1.00  0.00     0.029 A 
ATOM     60  N   UNL A   1      41.813  30.586  34.987  1.00  0.00    -0.354 N 
ATOM     61  N   UNL A   1      39.602  31.890  33.588  1.00  0.00    -0.248 NA
ATOM     62  C   UNL A   1      37.794  33.366  33.581  1.00  0.00     0.031 C 
ATOM     63  C   UNL A   1      42.271  31.213  37.068  1.00  0.00     0.029 A 
ATOM     64  C   UNL A   1      41.414  31.439  36.003  1.00  0.00     0.049 A 
ATOM     65  H   UNL A   1      41.382  30.517  34.105  1.00  0.00     0.167 HD
ATOM     66  C   UNL A   1      39.525  32.525  34.826  1.00  0.00     0.074 A 
ATOM     67  C   UNL A   1      38.411  33.446  34.752  1.00  0.00     0.031 C 
ATOM     68  C   UNL A   1      40.310  32.364  35.921  1.00  0.00     0.037 A 
BRANCH  55  69
ATOM     69  C   UNL A   1      44.710  28.076  35.226  1.00  0.00     0.058 A 
ATOM     70  C   UNL A   1      46.038  28.522  35.129  1.00  0.00     0.135 A 
ATOM     71  C   UNL A   1      44.466  26.906  35.966  1.00  0.00     0.135 A 
ATOM     72  F   UNL A   1      46.332  29.622  34.420  1.00  0.00    -0.206 F 
ATOM     73  C   UNL A   1      47.085  27.822  35.721  1.00  0.00     0.059 A 
ATOM     74  C   UNL A   1      45.494  26.209  36.593  1.00  0.00     0.059 A 
ATOM     75  F   UNL A   1      43.216  26.433  36.089  1.00  0.00    -0.206 F 
ATOM     76  C   UNL A   1      46.802  26.668  36.454  1.00  0.00     0.060 A 
BRANCH  76  77
ATOM     77  S   UNL A   1      48.172  25.778  37.223  1.00  0.00     0.124 S 
ATOM     78  O   UNL A   1      47.595  25.412  38.513  1.00  0.00    -0.237 OA
ATOM     79  O   UNL A   1      48.389  24.677  36.291  1.00  0.00    -0.237 OA
ATOM     80  O   UNL A   1      49.239  26.772  37.275  1.00  0.00    -0.744 OA
ENDBRANCH  76  77
ENDBRANCH  55  69
BRANCH  56  81
ATOM     81  C   UNL A   1      37.082  32.759  30.802  1.00  0.00     0.058 A 
ATOM     82  C   UNL A   1      35.767  32.366  31.095  1.00  0.00     0.135 A 
ATOM     83  C   UNL A   1      37.257  33.801  29.875  1.00  0.00     0.135 A 
ATOM     84  F   UNL A   1      35.544  31.362  31.955  1.00  0.00    -0.206 F 
ATOM     85  C   UNL A   1      34.670  32.970  30.486  1.00  0.00     0.059 A 
ATOM     86  C   UNL A   1      36.175  34.440  29.277  1.00  0.00     0.059 A 
ATOM     87  F   UNL A   1      38.492  34.219  29.557  1.00  0.00    -0.206 F 
ATOM     88  C   UNL A   1      34.885  34.011  29.582  1.00  0.00     0.060 A 
BRANCH  88  89
ATOM     89  S   UNL A   1      33.456  34.822  28.833  1.00  0.00     0.124 S 
ATOM     90  O   UNL A   1      32.569  34.977  29.979  1.00  0.00    -0.237 OA
ATOM     91  O   UNL A   1      34.041  36.052  28.307  1.00  0.00    -0.237 OA
ATOM     92  O   UNL A   1      33.020  33.865  27.820  1.00  0.00    -0.744 OA
ENDBRANCH  88  89
ENDBRANCH  56  81
BRANCH  68  93
ATOM     93  C   UNL A   1      40.033  33.231  37.122  1.00  0.00     0.058 A 
ATOM     94  C   UNL A   1      40.691  34.454  37.328  1.00  0.00     0.135 A 
ATOM     95  C   UNL A   1      39.046  32.859  38.051  1.00  0.00     0.135 A 
ATOM     96  F   UNL A   1      41.646  34.859  36.476  1.00  0.00    -0.206 F 
ATOM     97  C   UNL A   1      40.399  35.264  38.423  1.00  0.00     0.059 A 
ATOM     98  C   UNL A   1      38.715  33.669  39.135  1.00  0.00     0.059 A 
ATOM     99  F   UNL A   1      38.373  31.707  37.899  1.00  0.00    -0.206 F 
ATOM    100  C   UNL A   1      39.406  34.865  39.319  1.00  0.00     0.060 A 
BRANCH 100 101
ATOM    101  S   UNL A   1      39.014  35.942  40.715  1.00  0.00     0.124 S 
ATOM    102  O   UNL A   1      37.651  35.529  41.031  1.00  0.00    -0.237 OA
ATOM    103  O   UNL A   1      40.032  35.569  41.692  1.00  0.00    -0.237 OA
ATOM    104  O   UNL A   1      39.148  37.285  40.158  1.00  0.00    -0.744 OA
ENDBRANCH 100 101
ENDBRANCH  68  93
ENDBRANCH  42  43
ENDBRANCH  35  37
ENDBRANCH  34  35
ENDBRANCH  33  34
ENDBRANCH  32  33
ENDBRANCH  31  32
ENDBRANCH  30  31
ENDBRANCH   1  30
TORSDOF 24
ENDMDL
MODEL 2
REMARK VINA RESULT:     -10.0      0.902      7.946
REMARK SMILES CC(C)(C)OC(=O)N1CCN(c2nc3ccccc3s2)[C@H](C(=O)OCCOCCOCCOC(=O)c2ccc(-c3c4nc(c(-c5c(F)cc(S(=O)(=O)[O-])cc5F)c5ccc([nH]5)c(-c5c(F)cc(S(=O)(=O)[O-])cc5F)c5nc(c(-c6c(F)cc(S(=O)(=O)[O-])cc6F)c6ccc3[nH]6)C=C5)C=C4)cc2)C1
REMARK SMILES IDX 28 1 27 2 26 3 25 4 24 5 22 6 23 7 21 8 8 9 9 10 102 11
REMARK SMILES IDX 10 12 11 13 6 14 7 15 5 16 2 17 1 18 3 19 4 20 12 21 13 22
REMARK SMILES IDX 20 23 14 24 19 25 15 26 18 27 16 28 17 29 29 30 30 31 31 32
REMARK SMILES IDX 32 33 33 34 34 35 35 36 36 37 37 38 101 39 38 40 100 41
REMARK SMILES IDX 39 42 40 43 41 44 94 45 42 46 99 47 93 48 95 49 43 50 98 51
REMARK SMILES IDX 92 52 91 53 44 55 78 56 57 57 77 58 58 59 61 60 76 61 96 62
REMARK SMILES IDX 59 63 60 64 75 66 97 67 62 68 45 69 46 70 55 71 47 72 48 73
REMARK SMILES IDX 54 74 56 75 49 76 50 77 51 78 52 79 53 80 79 81 80 82 89 83
REMARK SMILES IDX 81 84 82 85 88 86 90 87 83 88 84 89 85 90 86 91 87 92 63 93
REMARK SMILES IDX 64 94 73 95 65 96 66 97 72 98 74 99 67 100 68 101 69 102
REMARK SMILES IDX 70 103 71 104
REMARK H PARENT 95 54 61 65
REMARK Flexibility Score: inf
ROOT
ATOM      1  C   UNL A   1      39.540  21.581  26.185  1.00  0.00     0.188 C 
ENDROOT
BRANCH   1   2
ATOM      2  O   UNL A   1      38.258  22.143  25.930  1.00  0.00    -0.376 OA
BRANCH   2   3
ATOM      3  C   UNL A   1      37.553  21.743  24.766  1.00  0.00     0.202 C 
BRANCH   3   4
ATOM      4  C   UNL A   1      36.015  21.818  24.761  1.00  0.00     0.261 C 
BRANCH   4   5
ATOM      5  O   UNL A   1      35.450  23.138  24.931  1.00  0.00    -0.462 OA
BRANCH   5   6
ATOM      6  C   UNL A   1      34.673  23.598  23.908  1.00  0.00     0.330 C 
ATOM      7  O   UNL A   1      35.027  23.550  22.734  1.00  0.00    -0.250 OA
BRANCH   6   8
ATOM      8  C   UNL A   1      33.335  24.239  24.367  1.00  0.00     0.214 C 
ATOM      9  N   UNL A   1      32.073  25.661  26.041  1.00  0.00    -0.304 N 
ATOM     10  C   UNL A   1      30.960  24.701  26.070  1.00  0.00     0.144 C 
ATOM     11  C   UNL A   1      33.386  25.106  25.649  1.00  0.00     0.160 C 
ATOM     12  C   UNL A   1      30.902  23.856  24.785  1.00  0.00     0.141 C 
ATOM     13  N   UNL A   1      32.218  23.280  24.532  1.00  0.00    -0.331 N 
BRANCH   9  14
ATOM     14  C   UNL A   1      31.891  26.906  26.603  1.00  0.00     0.410 C 
ATOM     15  O   UNL A   1      30.995  27.151  27.410  1.00  0.00    -0.224 OA
BRANCH  14  16
ATOM     16  O   UNL A   1      32.753  27.837  26.121  1.00  0.00    -0.444 OA
BRANCH  16  17
ATOM     17  C   UNL A   1      32.294  28.843  25.175  1.00  0.00     0.106 C 
ATOM     18  C   UNL A   1      33.448  28.996  24.172  1.00  0.00     0.056 C 
ATOM     19  C   UNL A   1      32.064  30.185  25.877  1.00  0.00     0.056 C 
ATOM     20  C   UNL A   1      31.049  28.400  24.388  1.00  0.00     0.056 C 
ENDBRANCH  16  17
ENDBRANCH  14  16
ENDBRANCH   9  14
BRANCH  13  21
ATOM     21  C   UNL A   1      32.337  21.943  24.371  1.00  0.00     0.187 A 
ATOM     22  N   UNL A   1      32.620  21.116  25.345  1.00  0.00    -0.220 NA
ATOM     23  S   UNL A   1      32.246  21.223  22.810  1.00  0.00    -0.097 S 
ATOM     24  C   UNL A   1      32.640  19.812  24.872  1.00  0.00     0.084 A 
ATOM     25  C   UNL A   1      32.434  19.667  23.500  1.00  0.00     0.056 A 
ATOM     26  C   UNL A   1      32.851  18.654  25.646  1.00  0.00     0.030 A 
ATOM     27  C   UNL A   1      32.414  18.411  22.873  1.00  0.00     0.021 A 
ATOM     28  C   UNL A   1      32.842  17.397  25.033  1.00  0.00     0.002 A 
ATOM     29  C   UNL A   1      32.621  17.278  23.664  1.00  0.00     0.002 A 
ENDBRANCH  13  21
ENDBRANCH   6   8
ENDBRANCH   5   6
ENDBRANCH   4   5
ENDBRANCH   3   4
ENDBRANCH   2   3
ENDBRANCH   1   2
BRANCH   1  30
ATOM     30  C   UNL A   1      40.415  22.155  27.316  1.00  0.00     0.188 C 
BRANCH  30  31
ATOM     31  O   UNL A   1      41.779  21.856  27.147  1.00  0.00    -0.376 OA
BRANCH  31  32
ATOM     32  C   UNL A   1      42.356  22.142  25.897  1.00  0.00     0.202 C 
BRANCH  32  33
ATOM     33  C   UNL A   1      42.728  23.596  25.553  1.00  0.00     0.261 C 
BRANCH  33  34
ATOM     34  O   UNL A   1      41.753  24.621  25.816  1.00  0.00    -0.460 OA
BRANCH  34  35
ATOM     35  C   UNL A   1      42.195  25.902  25.841  1.00  0.00     0.338 C 
ATOM     36  O   UNL A   1      42.529  26.569  24.878  1.00  0.00    -0.246 OA
BRANCH  35  37
ATOM     37  C   UNL A   1      42.043  26.442  27.214  1.00  0.00     0.060 A 
ATOM     38  C   UNL A   1      40.783  26.406  27.833  1.00  0.00     0.016 A 
ATOM     39  C   UNL A   1      43.128  27.022  27.874  1.00  0.00     0.016 A 
ATOM     40  C   UNL A   1      40.603  26.969  29.103  1.00  0.00     0.010 A 
ATOM     41  C   UNL A   1      42.939  27.604  29.135  1.00  0.00     0.010 A 
ATOM     42  C   UNL A   1      41.671  27.609  29.747  1.00  0.00    -0.014 A 
BRANCH  42  43
ATOM     43  C   UNL A   1      41.445  28.433  30.968  1.00  0.00     0.031 A 
ATOM     44  C   UNL A   1      40.360  29.480  30.938  1.00  0.00     0.074 A 
ATOM     45  C   UNL A   1      42.186  28.278  32.081  1.00  0.00     0.049 A 
ATOM     46  N   UNL A   1      40.056  30.389  31.828  1.00  0.00    -0.248 NA
ATOM     47  C   UNL A   1      39.509  29.505  29.738  1.00  0.00     0.031 C 
ATOM     48  C   UNL A   1      43.234  27.278  32.265  1.00  0.00     0.029 A 
ATOM     49  N   UNL A   1      42.180  28.977  33.266  1.00  0.00    -0.354 N 
ATOM     50  C   UNL A   1      38.992  31.107  31.289  1.00  0.00     0.074 A 
ATOM     51  C   UNL A   1      38.721  30.541  29.985  1.00  0.00     0.031 C 
ATOM     52  C   UNL A   1      43.780  27.435  33.484  1.00  0.00     0.029 A 
ATOM     53  C   UNL A   1      43.156  28.578  34.150  1.00  0.00     0.049 A 
ATOM     54  H   UNL A   1      41.536  29.697  33.462  1.00  0.00     0.167 HD
ATOM     55  C   UNL A   1      38.302  32.138  31.832  1.00  0.00     0.037 A 
ATOM     56  C   UNL A   1      43.525  29.095  35.341  1.00  0.00     0.037 A 
ATOM     57  C   UNL A   1      38.572  32.700  33.130  1.00  0.00     0.049 A 
ATOM     58  C   UNL A   1      42.793  30.295  35.893  1.00  0.00     0.074 A 
ATOM     59  C   UNL A   1      37.914  33.736  33.771  1.00  0.00     0.029 A 
ATOM     60  N   UNL A   1      39.582  32.283  33.984  1.00  0.00    -0.354 N 
ATOM     61  N   UNL A   1      41.782  30.956  35.379  1.00  0.00    -0.248 NA
ATOM     62  C   UNL A   1      43.252  30.822  37.187  1.00  0.00     0.031 C 
ATOM     63  C   UNL A   1      38.564  33.986  34.983  1.00  0.00     0.029 A 
ATOM     64  C   UNL A   1      39.584  33.059  35.132  1.00  0.00     0.049 A 
ATOM     65  H   UNL A   1      40.206  31.545  33.801  1.00  0.00     0.167 HD
ATOM     66  C   UNL A   1      41.464  31.950  36.302  1.00  0.00     0.074 A 
ATOM     67  C   UNL A   1      42.384  31.799  37.409  1.00  0.00     0.031 C 
ATOM     68  C   UNL A   1      40.495  32.898  36.238  1.00  0.00     0.037 A 
BRANCH  55  69
ATOM     69  C   UNL A   1      37.202  32.754  31.007  1.00  0.00     0.058 A 
ATOM     70  C   UNL A   1      35.868  32.331  31.113  1.00  0.00     0.135 A 
ATOM     71  C   UNL A   1      37.484  33.814  30.128  1.00  0.00     0.135 A 
ATOM     72  F   UNL A   1      35.543  31.311  31.923  1.00  0.00    -0.206 F 
ATOM     73  C   UNL A   1      34.856  32.917  30.357  1.00  0.00     0.059 A 
ATOM     74  C   UNL A   1      36.483  34.436  29.387  1.00  0.00     0.059 A 
ATOM     75  F   UNL A   1      38.743  34.258  29.986  1.00  0.00    -0.206 F 
ATOM     76  C   UNL A   1      35.174  33.972  29.499  1.00  0.00     0.060 A 
BRANCH  76  77
ATOM     77  S   UNL A   1      33.849  34.727  28.534  1.00  0.00     0.124 S 
ATOM     78  O   UNL A   1      34.089  36.147  28.769  1.00  0.00    -0.237 OA
ATOM     79  O   UNL A   1      34.137  34.250  27.185  1.00  0.00    -0.237 OA
ATOM     80  O   UNL A   1      32.636  34.189  29.140  1.00  0.00    -0.744 OA
ENDBRANCH  76  77
ENDBRANCH  55  69
BRANCH  56  81
ATOM     81  C   UNL A   1      44.667  28.499  36.092  1.00  0.00     0.058 A 
ATOM     82  C   UNL A   1      45.986  28.922  35.870  1.00  0.00     0.135 A 
ATOM     83  C   UNL A   1      44.463  27.478  37.035  1.00  0.00     0.135 A 
ATOM     84  F   UNL A   1      46.240  29.878  34.964  1.00  0.00    -0.206 F 
ATOM     85  C   UNL A   1      47.062  28.349  36.544  1.00  0.00     0.059 A 
ATOM     86  C   UNL A   1      45.518  26.911  37.744  1.00  0.00     0.059 A 
ATOM     87  F   UNL A   1      43.223  27.034  37.289  1.00  0.00    -0.206 F 
ATOM     88  C   UNL A   1      46.816  27.348  37.484  1.00  0.00     0.060 A 
BRANCH  88  89
ATOM     89  S   UNL A   1      48.211  26.643  38.390  1.00  0.00     0.124 S 
ATOM     90  O   UNL A   1      48.025  27.220  39.716  1.00  0.00    -0.237 OA
ATOM     91  O   UNL A   1      47.959  25.209  38.275  1.00  0.00    -0.237 OA
ATOM     92  O   UNL A   1      49.372  27.126  37.647  1.00  0.00    -0.744 OA
ENDBRANCH  88  89
ENDBRANCH  56  81
BRANCH  68  93
ATOM     93  C   UNL A   1      40.335  33.824  37.417  1.00  0.00     0.058 A 
ATOM     94  C   UNL A   1      39.443  33.551  38.467  1.00  0.00     0.135 A 
ATOM     95  C   UNL A   1      41.136  34.974  37.527  1.00  0.00     0.135 A 
ATOM     96  F   UNL A   1      38.650  32.469  38.414  1.00  0.00    -0.206 F 
ATOM     97  C   UNL A   1      39.332  34.396  39.568  1.00  0.00     0.059 A 
ATOM     98  C   UNL A   1      41.065  35.816  38.634  1.00  0.00     0.059 A 
ATOM     99  F   UNL A   1      42.017  35.280  36.561  1.00  0.00    -0.206 F 
ATOM    100  C   UNL A   1      40.150  35.524  39.645  1.00  0.00     0.060 A 
BRANCH 100 101
ATOM    101  S   UNL A   1      40.020  36.592  41.096  1.00  0.00     0.124 S 
ATOM    102  O   UNL A   1      38.578  36.796  41.183  1.00  0.00    -0.237 OA
ATOM    103  O   UNL A   1      40.609  35.766  42.145  1.00  0.00    -0.237 OA
ATOM    104  O   UNL A   1      40.797  37.771  40.723  1.00  0.00    -0.744 OA
ENDBRANCH 100 101
ENDBRANCH  68  93
ENDBRANCH  42  43
ENDBRANCH  35  37
ENDBRANCH  34  35
ENDBRANCH  33  34
ENDBRANCH  32  33
ENDBRANCH  31  32
ENDBRANCH  30  31
ENDBRANCH   1  30
TORSDOF 24
ENDMDL
MODEL 3
REMARK VINA RESULT:      -9.6      1.674      7.942
REMARK SMILES CC(C)(C)OC(=O)N1CCN(c2nc3ccccc3s2)[C@H](C(=O)OCCOCCOCCOC(=O)c2ccc(-c3c4nc(c(-c5c(F)cc(S(=O)(=O)[O-])cc5F)c5ccc([nH]5)c(-c5c(F)cc(S(=O)(=O)[O-])cc5F)c5nc(c(-c6c(F)cc(S(=O)(=O)[O-])cc6F)c6ccc3[nH]6)C=C5)C=C4)cc2)C1
REMARK SMILES IDX 28 1 27 2 26 3 25 4 24 5 22 6 23 7 21 8 8 9 9 10 102 11
REMARK SMILES IDX 10 12 11 13 6 14 7 15 5 16 2 17 1 18 3 19 4 20 12 21 13 22
REMARK SMILES IDX 20 23 14 24 19 25 15 26 18 27 16 28 17 29 29 30 30 31 31 32
REMARK SMILES IDX 32 33 33 34 34 35 35 36 36 37 37 38 101 39 38 40 100 41
REMARK SMILES IDX 39 42 40 43 41 44 94 45 42 46 99 47 93 48 95 49 43 50 98 51
REMARK SMILES IDX 92 52 91 53 44 55 78 56 57 57 77 58 58 59 61 60 76 61 96 62
REMARK SMILES IDX 59 63 60 64 75 66 97 67 62 68 45 69 46 70 55 71 47 72 48 73
REMARK SMILES IDX 54 74 56 75 49 76 50 77 51 78 52 79 53 80 79 81 80 82 89 83
REMARK SMILES IDX 81 84 82 85 88 86 90 87 83 88 84 89 85 90 86 91 87 92 63 93
REMARK SMILES IDX 64 94 73 95 65 96 66 97 72 98 74 99 67 100 68 101 69 102
REMARK SMILES IDX 70 103 71 104
REMARK H PARENT 95 54 61 65
REMARK Flexibility Score: inf
ROOT
ATOM      1  C   UNL A   1      40.513  24.151  26.779  1.00  0.00     0.188 C 
ENDROOT
BRANCH   1   2
ATOM      2  O   UNL A   1      39.340  23.355  26.666  1.00  0.00    -0.376 OA
BRANCH   2   3
ATOM      3  C   UNL A   1      38.198  23.903  26.026  1.00  0.00     0.202 C 
BRANCH   3   4
ATOM      4  C   UNL A   1      37.143  22.950  25.436  1.00  0.00     0.261 C 
BRANCH   4   5
ATOM      5  O   UNL A   1      35.768  23.373  25.572  1.00  0.00    -0.462 OA
BRANCH   5   6
ATOM      6  C   UNL A   1      35.047  23.462  24.416  1.00  0.00     0.330 C 
ATOM      7  O   UNL A   1      35.496  23.120  23.327  1.00  0.00    -0.250 OA
BRANCH   6   8
ATOM      8  C   UNL A   1      33.637  24.088  24.595  1.00  0.00     0.214 C 
ATOM      9  N   UNL A   1      32.050  25.501  25.973  1.00  0.00    -0.304 N 
ATOM     10  C   UNL A   1      30.965  24.528  25.788  1.00  0.00     0.144 C 
ATOM     11  C   UNL A   1      33.421  24.962  25.855  1.00  0.00     0.160 C 
ATOM     12  C   UNL A   1      31.174  23.676  24.523  1.00  0.00     0.141 C 
ATOM     13  N   UNL A   1      32.521  23.116  24.541  1.00  0.00    -0.331 N 
BRANCH   9  14
ATOM     14  C   UNL A   1      31.746  26.747  26.479  1.00  0.00     0.410 C 
ATOM     15  O   UNL A   1      30.760  26.960  27.184  1.00  0.00    -0.224 OA
BRANCH  14  16
ATOM     16  O   UNL A   1      32.602  27.713  26.061  1.00  0.00    -0.444 OA
BRANCH  16  17
ATOM     17  C   UNL A   1      32.159  28.727  25.114  1.00  0.00     0.106 C 
ATOM     18  C   UNL A   1      33.368  28.964  24.196  1.00  0.00     0.056 C 
ATOM     19  C   UNL A   1      31.819  30.035  25.836  1.00  0.00     0.056 C 
ATOM     20  C   UNL A   1      30.992  28.252  24.232  1.00  0.00     0.056 C 
ENDBRANCH  16  17
ENDBRANCH  14  16
ENDBRANCH   9  14
BRANCH  13  21
ATOM     21  C   UNL A   1      32.685  21.779  24.417  1.00  0.00     0.187 A 
ATOM     22  N   UNL A   1      32.287  21.091  23.378  1.00  0.00    -0.220 NA
ATOM     23  S   UNL A   1      33.332  20.840  25.706  1.00  0.00    -0.097 S 
ATOM     24  C   UNL A   1      32.625  19.755  23.532  1.00  0.00     0.084 A 
ATOM     25  C   UNL A   1      33.230  19.425  24.746  1.00  0.00     0.056 A 
ATOM     26  C   UNL A   1      32.409  18.732  22.589  1.00  0.00     0.030 A 
ATOM     27  C   UNL A   1      33.641  18.117  25.047  1.00  0.00     0.021 A 
ATOM     28  C   UNL A   1      32.806  17.422  22.880  1.00  0.00     0.002 A 
ATOM     29  C   UNL A   1      33.419  17.122  24.093  1.00  0.00     0.002 A 
ENDBRANCH  13  21
ENDBRANCH   6   8
ENDBRANCH   5   6
ENDBRANCH   4   5
ENDBRANCH   3   4
ENDBRANCH   2   3
ENDBRANCH   1   2
BRANCH   1  30
ATOM     30  C   UNL A   1      40.441  25.664  26.497  1.00  0.00     0.188 C 
BRANCH  30  31
ATOM     31  O   UNL A   1      41.059  26.018  25.284  1.00  0.00    -0.376 OA
BRANCH  31  32
ATOM     32  C   UNL A   1      42.250  26.764  25.357  1.00  0.00     0.202 C 
BRANCH  32  33
ATOM     33  C   UNL A   1      43.600  26.047  25.180  1.00  0.00     0.261 C 
BRANCH  33  34
ATOM     34  O   UNL A   1      44.593  26.217  26.207  1.00  0.00    -0.460 OA
BRANCH  34  35
ATOM     35  C   UNL A   1      44.363  25.606  27.395  1.00  0.00     0.338 C 
ATOM     36  O   UNL A   1      44.723  24.486  27.712  1.00  0.00    -0.246 OA
BRANCH  35  37
ATOM     37  C   UNL A   1      43.756  26.581  28.334  1.00  0.00     0.060 A 
ATOM     38  C   UNL A   1      44.202  27.912  28.329  1.00  0.00     0.016 A 
ATOM     39  C   UNL A   1      42.779  26.176  29.245  1.00  0.00     0.016 A 
ATOM     40  C   UNL A   1      43.688  28.832  29.252  1.00  0.00     0.010 A 
ATOM     41  C   UNL A   1      42.283  27.094  30.181  1.00  0.00     0.010 A 
ATOM     42  C   UNL A   1      42.753  28.420  30.212  1.00  0.00    -0.014 A 
BRANCH  42  43
ATOM     43  C   UNL A   1      42.390  29.306  31.354  1.00  0.00     0.031 A 
ATOM     44  C   UNL A   1      41.147  30.152  31.242  1.00  0.00     0.074 A 
ATOM     45  C   UNL A   1      43.143  29.379  32.467  1.00  0.00     0.049 A 
ATOM     46  N   UNL A   1      40.695  31.078  32.047  1.00  0.00    -0.248 NA
ATOM     47  C   UNL A   1      40.308  29.924  30.055  1.00  0.00     0.031 C 
ATOM     48  C   UNL A   1      44.342  28.587  32.729  1.00  0.00     0.029 A 
ATOM     49  N   UNL A   1      43.019  30.175  33.582  1.00  0.00    -0.354 N 
ATOM     50  C   UNL A   1      39.528  31.557  31.458  1.00  0.00     0.074 A 
ATOM     51  C   UNL A   1      39.358  30.834  30.215  1.00  0.00     0.031 C 
ATOM     52  C   UNL A   1      44.851  28.945  33.922  1.00  0.00     0.029 A 
ATOM     53  C   UNL A   1      44.045  30.027  34.487  1.00  0.00     0.049 A 
ATOM     54  H   UNL A   1      42.265  30.794  33.719  1.00  0.00     0.167 HD
ATOM     55  C   UNL A   1      38.676  32.506  31.911  1.00  0.00     0.037 A 
ATOM     56  C   UNL A   1      44.321  30.706  35.621  1.00  0.00     0.037 A 
ATOM     57  C   UNL A   1      38.846  33.224  33.149  1.00  0.00     0.049 A 
ATOM     58  C   UNL A   1      43.398  31.815  36.068  1.00  0.00     0.074 A 
ATOM     59  C   UNL A   1      38.024  34.192  33.699  1.00  0.00     0.029 A 
ATOM     60  N   UNL A   1      39.909  33.061  34.025  1.00  0.00    -0.354 N 
ATOM     61  N   UNL A   1      42.293  32.250  35.509  1.00  0.00    -0.248 NA
ATOM     62  C   UNL A   1      43.760  32.529  37.303  1.00  0.00     0.031 C 
ATOM     63  C   UNL A   1      38.621  34.658  34.875  1.00  0.00     0.029 A 
ATOM     64  C   UNL A   1      39.779  33.930  35.096  1.00  0.00     0.049 A 
ATOM     65  H   UNL A   1      40.647  32.421  33.903  1.00  0.00     0.167 HD
ATOM     66  C   UNL A   1      41.813  33.259  36.339  1.00  0.00     0.074 A 
ATOM     67  C   UNL A   1      42.742  33.366  37.444  1.00  0.00     0.031 C 
ATOM     68  C   UNL A   1      40.701  34.025  36.201  1.00  0.00     0.037 A 
BRANCH  55  69
ATOM     69  C   UNL A   1      37.492  32.853  31.047  1.00  0.00     0.058 A 
ATOM     70  C   UNL A   1      37.591  33.758  29.979  1.00  0.00     0.135 A 
ATOM     71  C   UNL A   1      36.248  32.237  31.268  1.00  0.00     0.135 A 
ATOM     72  F   UNL A   1      38.749  34.390  29.733  1.00  0.00    -0.206 F 
ATOM     73  C   UNL A   1      36.494  34.060  29.177  1.00  0.00     0.059 A 
ATOM     74  C   UNL A   1      35.147  32.499  30.459  1.00  0.00     0.059 A 
ATOM     75  F   UNL A   1      36.096  31.364  32.277  1.00  0.00    -0.206 F 
ATOM     76  C   UNL A   1      35.277  33.423  29.423  1.00  0.00     0.060 A 
BRANCH  76  77
ATOM     77  S   UNL A   1      33.867  33.819  28.367  1.00  0.00     0.124 S 
ATOM     78  O   UNL A   1      34.479  34.709  27.385  1.00  0.00    -0.237 OA
ATOM     79  O   UNL A   1      33.472  32.505  27.872  1.00  0.00    -0.237 OA
ATOM     80  O   UNL A   1      32.923  34.452  29.282  1.00  0.00    -0.744 OA
ENDBRANCH  76  77
ENDBRANCH  55  69
BRANCH  56  81
ATOM     81  C   UNL A   1      45.543  30.379  36.409  1.00  0.00     0.058 A 
ATOM     82  C   UNL A   1      45.532  29.374  37.388  1.00  0.00     0.135 A 
ATOM     83  C   UNL A   1      46.745  31.079  36.211  1.00  0.00     0.135 A 
ATOM     84  F   UNL A   1      44.405  28.690  37.634  1.00  0.00    -0.206 F 
ATOM     85  C   UNL A   1      46.661  29.084  38.151  1.00  0.00     0.059 A 
ATOM     86  C   UNL A   1      47.894  30.786  36.938  1.00  0.00     0.059 A 
ATOM     87  F   UNL A   1      46.814  32.050  35.287  1.00  0.00    -0.206 F 
ATOM     88  C   UNL A   1      47.839  29.792  37.914  1.00  0.00     0.060 A 
BRANCH  88  89
ATOM     89  S   UNL A   1      49.312  29.376  38.873  1.00  0.00     0.124 S 
ATOM     90  O   UNL A   1      50.375  29.623  37.905  1.00  0.00    -0.237 OA
ATOM     91  O   UNL A   1      49.230  30.317  39.986  1.00  0.00    -0.237 OA
ATOM     92  O   UNL A   1      49.096  27.977  39.231  1.00  0.00    -0.744 OA
ENDBRANCH  88  89
ENDBRANCH  56  81
BRANCH  68  93
ATOM     93  C   UNL A   1      40.387  35.017  37.291  1.00  0.00     0.058 A 
ATOM     94  C   UNL A   1      39.470  34.737  38.316  1.00  0.00     0.135 A 
ATOM     95  C   UNL A   1      41.064  36.249  37.344  1.00  0.00     0.135 A 
ATOM     96  F   UNL A   1      38.791  33.579  38.316  1.00  0.00    -0.206 F 
ATOM     97  C   UNL A   1      39.216  35.649  39.338  1.00  0.00     0.059 A 
ATOM     98  C   UNL A   1      40.851  37.161  38.373  1.00  0.00     0.059 A 
ATOM     99  F   UNL A   1      41.963  36.567  36.398  1.00  0.00    -0.206 F 
ATOM    100  C   UNL A   1      39.915  36.857  39.361  1.00  0.00     0.060 A 
BRANCH 100 101
ATOM    101  S   UNL A   1      39.602  38.014  40.711  1.00  0.00     0.124 S 
ATOM    102  O   UNL A   1      39.350  37.106  41.825  1.00  0.00    -0.237 OA
ATOM    103  O   UNL A   1      40.853  38.764  40.775  1.00  0.00    -0.237 OA
ATOM    104  O   UNL A   1      38.444  38.773  40.248  1.00  0.00    -0.744 OA
ENDBRANCH 100 101
ENDBRANCH  68  93
ENDBRANCH  42  43
ENDBRANCH  35  37
ENDBRANCH  34  35
ENDBRANCH  33  34
ENDBRANCH  32  33
ENDBRANCH  31  32
ENDBRANCH  30  31
ENDBRANCH   1  30
TORSDOF 24
ENDMDL
