MODEL 1
REMARK VINA RESULT:     -11.1      0.000      0.000
REMARK SMILES O=C(OCCOCCOCCOC(=O)c1ccc(-c2c3nc(c(-c4c(F)cc(S(=O)(=O)[O-])cc4F)c4ccc([nH]4)c(-c4c(F)cc(S(=O)(=O)[O-])cc4F)c4nc(c(-c5c(F)cc(S(=O)(=O)[O-])cc5F)c5ccc2[nH]5)C=C4)C=C3)cc1)c1ccc(Cn2c(-c3ccccc3)cccc2=O)cc1
REMARK SMILES IDX 7 1 6 2 5 3 4 4 3 5 2 6 1 7 81 8 82 9 100 10 83 11 99 12
REMARK SMILES IDX 84 13 85 14 86 15 87 16 97 17 94 18 96 19 98 20 95 21 88 22
REMARK SMILES IDX 89 23 93 24 90 25 92 26 91 27 8 28 9 29 10 30 11 31 12 32
REMARK SMILES IDX 13 33 14 34 15 35 16 36 80 37 17 38 79 39 18 40 19 41 20 42
REMARK SMILES IDX 73 43 21 44 78 45 72 46 74 47 22 48 77 49 71 50 70 51 23 53
REMARK SMILES IDX 57 54 36 55 56 56 37 57 40 58 55 59 75 60 38 61 39 62 54 64
REMARK SMILES IDX 76 65 41 66 24 67 25 68 34 69 26 70 27 71 33 72 35 73 28 74
REMARK SMILES IDX 29 75 30 76 31 77 32 78 58 79 59 80 68 81 60 82 61 83 67 84
REMARK SMILES IDX 69 85 62 86 63 87 64 88 65 89 66 90 42 91 43 92 52 93 44 94
REMARK SMILES IDX 45 95 51 96 53 97 46 98 47 99 48 100 49 101 50 102
REMARK H PARENT 74 52 40 63
REMARK Flexibility Score: inf
ROOT
ATOM      1  C   UNL A   1      33.195  35.704  30.084  1.00  0.00     0.188 C 
ENDROOT
BRANCH   1   2
ATOM      2  O   UNL A   1      32.656  34.533  29.455  1.00  0.00    -0.376 OA
BRANCH   2   3
ATOM      3  C   UNL A   1      33.163  34.296  28.147  1.00  0.00     0.202 C 
BRANCH   3   4
ATOM      4  C   UNL A   1      34.177  33.154  28.022  1.00  0.00     0.261 C 
BRANCH   4   5
ATOM      5  O   UNL A   1      33.582  31.883  27.709  1.00  0.00    -0.460 OA
BRANCH   5   6
ATOM      6  C   UNL A   1      34.302  30.746  27.514  1.00  0.00     0.338 C 
ATOM      7  O   UNL A   1      35.507  30.702  27.725  1.00  0.00    -0.246 OA
BRANCH   6   8
ATOM      8  C   UNL A   1      33.578  29.541  27.068  1.00  0.00     0.060 A 
ATOM      9  C   UNL A   1      34.250  28.539  26.366  1.00  0.00     0.016 A 
ATOM     10  C   UNL A   1      32.218  29.416  27.352  1.00  0.00     0.016 A 
ATOM     11  C   UNL A   1      33.539  27.449  25.868  1.00  0.00     0.006 A 
ATOM     12  C   UNL A   1      31.510  28.320  26.855  1.00  0.00     0.006 A 
ATOM     13  C   UNL A   1      32.158  27.342  26.081  1.00  0.00    -0.028 A 
BRANCH  13  14
ATOM     14  C   UNL A   1      31.381  26.176  25.506  1.00  0.00     0.161 C 
BRANCH  14  15
ATOM     15  N   UNL A   1      31.766  25.829  24.132  1.00  0.00    -0.304 N 
ATOM     16  C   UNL A   1      31.333  26.560  23.018  1.00  0.00     0.052 A 
ATOM     17  C   UNL A   1      32.604  24.717  23.987  1.00  0.00     0.251 A 
ATOM     18  C   UNL A   1      31.757  26.233  21.782  1.00  0.00     0.027 A 
ATOM     19  C   UNL A   1      33.054  24.389  22.610  1.00  0.00     0.072 A 
ATOM     20  O   UNL A   1      32.989  23.994  24.902  1.00  0.00    -0.269 OA
ATOM     21  C   UNL A   1      32.648  25.126  21.573  1.00  0.00     0.008 A 
BRANCH  16  22
ATOM     22  C   UNL A   1      30.393  27.693  23.112  1.00  0.00    -0.002 A 
ATOM     23  C   UNL A   1      29.009  27.450  23.093  1.00  0.00     0.010 A 
ATOM     24  C   UNL A   1      30.847  29.016  23.162  1.00  0.00     0.010 A 
ATOM     25  C   UNL A   1      28.100  28.508  23.140  1.00  0.00     0.001 A 
ATOM     26  C   UNL A   1      29.935  30.073  23.223  1.00  0.00     0.001 A 
ATOM     27  C   UNL A   1      28.565  29.820  23.210  1.00  0.00     0.000 A 
ENDBRANCH  16  22
ENDBRANCH  14  15
ENDBRANCH  13  14
ENDBRANCH   6   8
ENDBRANCH   5   6
ENDBRANCH   4   5
ENDBRANCH   3   4
ENDBRANCH   2   3
ENDBRANCH   1   2
BRANCH   1  28
ATOM     28  C   UNL A   1      33.791  35.325  31.443  1.00  0.00     0.188 C 
BRANCH  28  29
ATOM     29  O   UNL A   1      34.052  33.924  31.586  1.00  0.00    -0.376 OA
BRANCH  29  30
ATOM     30  C   UNL A   1      35.360  33.561  32.021  1.00  0.00     0.202 C 
BRANCH  30  31
ATOM     31  C   UNL A   1      35.645  32.057  32.052  1.00  0.00     0.261 C 
BRANCH  31  32
ATOM     32  O   UNL A   1      36.237  31.558  30.837  1.00  0.00    -0.460 OA
BRANCH  32  33
ATOM     33  C   UNL A   1      36.902  30.387  30.975  1.00  0.00     0.338 C 
ATOM     34  O   UNL A   1      36.467  29.340  31.436  1.00  0.00    -0.246 OA
BRANCH  33  35
ATOM     35  C   UNL A   1      38.286  30.494  30.493  1.00  0.00     0.060 A 
ATOM     36  C   UNL A   1      38.528  30.407  29.118  1.00  0.00     0.016 A 
ATOM     37  C   UNL A   1      39.341  30.413  31.406  1.00  0.00     0.016 A 
ATOM     38  C   UNL A   1      39.824  30.163  28.657  1.00  0.00     0.010 A 
ATOM     39  C   UNL A   1      40.640  30.179  30.940  1.00  0.00     0.010 A 
ATOM     40  C   UNL A   1      40.879  29.993  29.567  1.00  0.00    -0.014 A 
BRANCH  40  41
ATOM     41  C   UNL A   1      42.186  29.455  29.101  1.00  0.00     0.031 A 
ATOM     42  C   UNL A   1      43.393  30.362  29.071  1.00  0.00     0.074 A 
ATOM     43  C   UNL A   1      42.312  28.170  28.725  1.00  0.00     0.049 A 
ATOM     44  N   UNL A   1      44.617  30.104  28.684  1.00  0.00    -0.248 NA
ATOM     45  C   UNL A   1      43.191  31.745  29.533  1.00  0.00     0.031 C 
ATOM     46  C   UNL A   1      41.240  27.177  28.728  1.00  0.00     0.029 A 
ATOM     47  N   UNL A   1      43.408  27.482  28.267  1.00  0.00    -0.354 N 
ATOM     48  C   UNL A   1      45.327  31.290  28.845  1.00  0.00     0.074 A 
ATOM     49  C   UNL A   1      44.389  32.276  29.338  1.00  0.00     0.031 C 
ATOM     50  C   UNL A   1      41.733  26.004  28.294  1.00  0.00     0.029 A 
ATOM     51  C   UNL A   1      43.148  26.169  27.962  1.00  0.00     0.049 A 
ATOM     52  H   UNL A   1      44.299  27.891  28.166  1.00  0.00     0.167 HD
ATOM     53  C   UNL A   1      46.640  31.536  28.617  1.00  0.00     0.037 A 
ATOM     54  C   UNL A   1      43.955  25.209  27.468  1.00  0.00     0.037 A 
ATOM     55  C   UNL A   1      47.586  30.557  28.149  1.00  0.00     0.049 A 
ATOM     56  C   UNL A   1      45.403  25.514  27.188  1.00  0.00     0.074 A 
ATOM     57  C   UNL A   1      48.946  30.708  27.928  1.00  0.00     0.029 A 
ATOM     58  N   UNL A   1      47.276  29.244  27.833  1.00  0.00    -0.354 N 
ATOM     59  N   UNL A   1      46.062  26.634  27.369  1.00  0.00    -0.248 NA
ATOM     60  C   UNL A   1      46.218  24.421  26.636  1.00  0.00     0.031 C 
ATOM     61  C   UNL A   1      49.450  29.495  27.445  1.00  0.00     0.029 A 
ATOM     62  C   UNL A   1      48.411  28.579  27.398  1.00  0.00     0.049 A 
ATOM     63  H   UNL A   1      46.381  28.843  27.906  1.00  0.00     0.167 HD
ATOM     64  C   UNL A   1      47.374  26.369  26.983  1.00  0.00     0.074 A 
ATOM     65  C   UNL A   1      47.415  24.986  26.560  1.00  0.00     0.031 C 
ATOM     66  C   UNL A   1      48.447  27.200  26.985  1.00  0.00     0.037 A 
BRANCH  53  67
ATOM     67  C   UNL A   1      47.131  32.937  28.856  1.00  0.00     0.058 A 
ATOM     68  C   UNL A   1      47.105  33.909  27.844  1.00  0.00     0.135 A 
ATOM     69  C   UNL A   1      47.614  33.316  30.118  1.00  0.00     0.135 A 
ATOM     70  F   UNL A   1      46.666  33.594  26.616  1.00  0.00    -0.206 F 
ATOM     71  C   UNL A   1      47.572  35.202  28.066  1.00  0.00     0.059 A 
ATOM     72  C   UNL A   1      48.066  34.608  30.369  1.00  0.00     0.059 A 
ATOM     73  F   UNL A   1      47.657  32.424  31.121  1.00  0.00    -0.206 F 
ATOM     74  C   UNL A   1      48.058  35.539  29.330  1.00  0.00     0.060 A 
BRANCH  74  75
ATOM     75  S   UNL A   1      48.677  37.213  29.607  1.00  0.00     0.124 S 
ATOM     76  O   UNL A   1      47.688  37.736  30.544  1.00  0.00    -0.237 OA
ATOM     77  O   UNL A   1      50.006  36.973  30.157  1.00  0.00    -0.237 OA
ATOM     78  O   UNL A   1      48.653  37.806  28.272  1.00  0.00    -0.744 OA
ENDBRANCH  74  75
ENDBRANCH  53  67
BRANCH  54  79
ATOM     79  C   UNL A   1      43.413  23.849  27.214  1.00  0.00     0.058 A 
ATOM     80  C   UNL A   1      42.939  23.489  25.945  1.00  0.00     0.135 A 
ATOM     81  C   UNL A   1      43.356  22.889  28.236  1.00  0.00     0.135 A 
ATOM     82  F   UNL A   1      42.962  24.380  24.943  1.00  0.00    -0.206 F 
ATOM     83  C   UNL A   1      42.414  22.226  25.698  1.00  0.00     0.059 A 
ATOM     84  C   UNL A   1      42.853  21.613  28.008  1.00  0.00     0.059 A 
ATOM     85  F   UNL A   1      43.805  23.187  29.464  1.00  0.00    -0.206 F 
ATOM     86  C   UNL A   1      42.374  21.293  26.736  1.00  0.00     0.060 A 
BRANCH  86  87
ATOM     87  S   UNL A   1      41.724  19.643  26.396  1.00  0.00     0.124 S 
ATOM     88  O   UNL A   1      42.460  19.281  25.191  1.00  0.00    -0.237 OA
ATOM     89  O   UNL A   1      42.084  18.912  27.608  1.00  0.00    -0.237 OA
ATOM     90  O   UNL A   1      40.295  19.878  26.216  1.00  0.00    -0.744 OA
ENDBRANCH  86  87
ENDBRANCH  54  79
BRANCH  66  91
ATOM     91  C   UNL A   1      49.767  26.626  26.550  1.00  0.00     0.058 A 
ATOM     92  C   UNL A   1      50.173  26.652  25.207  1.00  0.00     0.135 A 
ATOM     93  C   UNL A   1      50.651  26.079  27.492  1.00  0.00     0.135 A 
ATOM     94  F   UNL A   1      49.362  27.160  24.265  1.00  0.00    -0.206 F 
ATOM     95  C   UNL A   1      51.402  26.133  24.809  1.00  0.00     0.059 A 
ATOM     96  C   UNL A   1      51.894  25.572  27.120  1.00  0.00     0.059 A 
ATOM     97  F   UNL A   1      50.316  26.041  28.792  1.00  0.00    -0.206 F 
ATOM     98  C   UNL A   1      52.255  25.592  25.774  1.00  0.00     0.060 A 
BRANCH  98  99
ATOM     99  S   UNL A   1      53.859  24.941  25.255  1.00  0.00     0.124 S 
ATOM    100  O   UNL A   1      54.623  25.026  26.494  1.00  0.00    -0.237 OA
ATOM    101  O   UNL A   1      53.524  23.593  24.808  1.00  0.00    -0.237 OA
ATOM    102  O   UNL A   1      54.269  25.861  24.198  1.00  0.00    -0.744 OA
ENDBRANCH  98  99
ENDBRANCH  66  91
ENDBRANCH  40  41
ENDBRANCH  33  35
ENDBRANCH  32  33
ENDBRANCH  31  32
ENDBRANCH  30  31
ENDBRANCH  29  30
ENDBRANCH  28  29
ENDBRANCH   1  28
TORSDOF 23
ENDMDL
MODEL 2
REMARK VINA RESULT:     -11.1      1.117      2.474
REMARK SMILES O=C(OCCOCCOCCOC(=O)c1ccc(-c2c3nc(c(-c4c(F)cc(S(=O)(=O)[O-])cc4F)c4ccc([nH]4)c(-c4c(F)cc(S(=O)(=O)[O-])cc4F)c4nc(c(-c5c(F)cc(S(=O)(=O)[O-])cc5F)c5ccc2[nH]5)C=C4)C=C3)cc1)c1ccc(Cn2c(-c3ccccc3)cccc2=O)cc1
REMARK SMILES IDX 7 1 6 2 5 3 4 4 3 5 2 6 1 7 81 8 82 9 100 10 83 11 99 12
REMARK SMILES IDX 84 13 85 14 86 15 87 16 97 17 94 18 96 19 98 20 95 21 88 22
REMARK SMILES IDX 89 23 93 24 90 25 92 26 91 27 8 28 9 29 10 30 11 31 12 32
REMARK SMILES IDX 13 33 14 34 15 35 16 36 80 37 17 38 79 39 18 40 19 41 20 42
REMARK SMILES IDX 73 43 21 44 78 45 72 46 74 47 22 48 77 49 71 50 70 51 23 53
REMARK SMILES IDX 57 54 36 55 56 56 37 57 40 58 55 59 75 60 38 61 39 62 54 64
REMARK SMILES IDX 76 65 41 66 24 67 25 68 34 69 26 70 27 71 33 72 35 73 28 74
REMARK SMILES IDX 29 75 30 76 31 77 32 78 58 79 59 80 68 81 60 82 61 83 67 84
REMARK SMILES IDX 69 85 62 86 63 87 64 88 65 89 66 90 42 91 43 92 52 93 44 94
REMARK SMILES IDX 45 95 51 96 53 97 46 98 47 99 48 100 49 101 50 102
REMARK H PARENT 74 52 40 63
REMARK Flexibility Score: inf
ROOT
ATOM      1  C   UNL A   1      33.278  35.694  30.095  1.00  0.00     0.188 C 
ENDROOT
BRANCH   1   2
ATOM      2  O   UNL A   1      32.701  34.550  29.452  1.00  0.00    -0.376 OA
BRANCH   2   3
ATOM      3  C   UNL A   1      33.365  34.166  28.254  1.00  0.00     0.202 C 
BRANCH   3   4
ATOM      4  C   UNL A   1      34.072  32.806  28.289  1.00  0.00     0.261 C 
BRANCH   4   5
ATOM      5  O   UNL A   1      33.242  31.711  27.866  1.00  0.00    -0.460 OA
BRANCH   5   6
ATOM      6  C   UNL A   1      33.733  30.565  27.324  1.00  0.00     0.338 C 
ATOM      7  O   UNL A   1      34.685  29.974  27.819  1.00  0.00    -0.246 OA
BRANCH   6   8
ATOM      8  C   UNL A   1      33.060  30.024  26.128  1.00  0.00     0.060 A 
ATOM      9  C   UNL A   1      31.797  30.492  25.762  1.00  0.00     0.016 A 
ATOM     10  C   UNL A   1      33.699  29.041  25.371  1.00  0.00     0.016 A 
ATOM     11  C   UNL A   1      31.130  29.910  24.686  1.00  0.00     0.006 A 
ATOM     12  C   UNL A   1      33.028  28.464  24.290  1.00  0.00     0.006 A 
ATOM     13  C   UNL A   1      31.725  28.871  23.957  1.00  0.00    -0.028 A 
BRANCH  13  14
ATOM     14  C   UNL A   1      30.983  28.214  22.812  1.00  0.00     0.161 C 
BRANCH  14  15
ATOM     15  N   UNL A   1      29.549  28.025  23.068  1.00  0.00    -0.304 N 
ATOM     16  C   UNL A   1      29.049  26.953  23.819  1.00  0.00     0.052 A 
ATOM     17  C   UNL A   1      28.691  28.987  22.520  1.00  0.00     0.251 A 
ATOM     18  C   UNL A   1      27.730  26.853  24.070  1.00  0.00     0.027 A 
ATOM     19  C   UNL A   1      27.244  28.847  22.821  1.00  0.00     0.072 A 
ATOM     20  O   UNL A   1      29.040  29.928  21.811  1.00  0.00    -0.269 OA
ATOM     21  C   UNL A   1      26.804  27.830  23.567  1.00  0.00     0.008 A 
BRANCH  16  22
ATOM     22  C   UNL A   1      29.904  25.876  24.354  1.00  0.00    -0.002 A 
ATOM     23  C   UNL A   1      30.284  24.812  23.519  1.00  0.00     0.010 A 
ATOM     24  C   UNL A   1      30.300  25.858  25.696  1.00  0.00     0.010 A 
ATOM     25  C   UNL A   1      31.057  23.760  24.014  1.00  0.00     0.001 A 
ATOM     26  C   UNL A   1      31.086  24.812  26.186  1.00  0.00     0.001 A 
ATOM     27  C   UNL A   1      31.462  23.764  25.347  1.00  0.00     0.000 A 
ENDBRANCH  16  22
ENDBRANCH  14  15
ENDBRANCH  13  14
ENDBRANCH   6   8
ENDBRANCH   5   6
ENDBRANCH   4   5
ENDBRANCH   3   4
ENDBRANCH   2   3
ENDBRANCH   1   2
BRANCH   1  28
ATOM     28  C   UNL A   1      33.804  35.294  31.477  1.00  0.00     0.188 C 
BRANCH  28  29
ATOM     29  O   UNL A   1      33.967  33.881  31.642  1.00  0.00    -0.376 OA
BRANCH  29  30
ATOM     30  C   UNL A   1      35.245  33.435  32.091  1.00  0.00     0.202 C 
BRANCH  30  31
ATOM     31  C   UNL A   1      35.514  31.938  31.915  1.00  0.00     0.261 C 
BRANCH  31  32
ATOM     32  O   UNL A   1      36.130  31.608  30.656  1.00  0.00    -0.460 OA
BRANCH  32  33
ATOM     33  C   UNL A   1      36.743  30.402  30.628  1.00  0.00     0.338 C 
ATOM     34  O   UNL A   1      36.258  29.319  30.928  1.00  0.00    -0.246 OA
BRANCH  33  35
ATOM     35  C   UNL A   1      38.139  30.517  30.181  1.00  0.00     0.060 A 
ATOM     36  C   UNL A   1      38.418  30.415  28.814  1.00  0.00     0.016 A 
ATOM     37  C   UNL A   1      39.170  30.459  31.122  1.00  0.00     0.016 A 
ATOM     38  C   UNL A   1      39.727  30.179  28.390  1.00  0.00     0.010 A 
ATOM     39  C   UNL A   1      40.483  30.232  30.693  1.00  0.00     0.010 A 
ATOM     40  C   UNL A   1      40.760  30.032  29.329  1.00  0.00    -0.014 A 
BRANCH  40  41
ATOM     41  C   UNL A   1      42.084  29.501  28.904  1.00  0.00     0.031 A 
ATOM     42  C   UNL A   1      43.275  30.428  28.864  1.00  0.00     0.074 A 
ATOM     43  C   UNL A   1      42.238  28.207  28.574  1.00  0.00     0.049 A 
ATOM     44  N   UNL A   1      44.511  30.178  28.508  1.00  0.00    -0.248 NA
ATOM     45  C   UNL A   1      43.042  31.821  29.277  1.00  0.00     0.031 C 
ATOM     46  C   UNL A   1      41.183  27.196  28.591  1.00  0.00     0.029 A 
ATOM     47  N   UNL A   1      43.354  27.523  28.158  1.00  0.00    -0.354 N 
ATOM     48  C   UNL A   1      45.197  31.382  28.641  1.00  0.00     0.074 A 
ATOM     49  C   UNL A   1      44.234  32.367  29.085  1.00  0.00     0.031 C 
ATOM     50  C   UNL A   1      41.703  26.018  28.206  1.00  0.00     0.029 A 
ATOM     51  C   UNL A   1      43.121  26.196  27.893  1.00  0.00     0.049 A 
ATOM     52  H   UNL A   1      44.239  27.945  28.059  1.00  0.00     0.167 HD
ATOM     53  C   UNL A   1      46.510  31.643  28.428  1.00  0.00     0.037 A 
ATOM     54  C   UNL A   1      43.953  25.235  27.445  1.00  0.00     0.037 A 
ATOM     55  C   UNL A   1      47.481  30.665  28.011  1.00  0.00     0.049 A 
ATOM     56  C   UNL A   1      45.401  25.556  27.180  1.00  0.00     0.074 A 
ATOM     57  C   UNL A   1      48.841  30.833  27.807  1.00  0.00     0.029 A 
ATOM     58  N   UNL A   1      47.198  29.337  27.733  1.00  0.00    -0.354 N 
ATOM     59  N   UNL A   1      46.038  26.692  27.336  1.00  0.00    -0.248 NA
ATOM     60  C   UNL A   1      46.245  24.459  26.680  1.00  0.00     0.031 C 
ATOM     61  C   UNL A   1      49.374  29.614  27.374  1.00  0.00     0.029 A 
ATOM     62  C   UNL A   1      48.353  28.679  27.340  1.00  0.00     0.049 A 
ATOM     63  H   UNL A   1      46.309  28.923  27.803  1.00  0.00     0.167 HD
ATOM     64  C   UNL A   1      47.361  26.438  26.981  1.00  0.00     0.074 A 
ATOM     65  C   UNL A   1      47.433  25.043  26.605  1.00  0.00     0.031 C 
ATOM     66  C   UNL A   1      48.419  27.287  26.975  1.00  0.00     0.037 A 
BRANCH  53  67
ATOM     67  C   UNL A   1      46.973  33.059  28.629  1.00  0.00     0.058 A 
ATOM     68  C   UNL A   1      47.460  33.506  29.867  1.00  0.00     0.135 A 
ATOM     69  C   UNL A   1      46.947  33.974  27.564  1.00  0.00     0.135 A 
ATOM     70  F   UNL A   1      47.493  32.675  30.920  1.00  0.00    -0.206 F 
ATOM     71  C   UNL A   1      47.876  34.822  30.051  1.00  0.00     0.059 A 
ATOM     72  C   UNL A   1      47.378  35.288  27.720  1.00  0.00     0.059 A 
ATOM     73  F   UNL A   1      46.492  33.595  26.359  1.00  0.00    -0.206 F 
ATOM     74  C   UNL A   1      47.823  35.707  28.974  1.00  0.00     0.060 A 
BRANCH  74  75
ATOM     75  S   UNL A   1      48.350  37.416  29.225  1.00  0.00     0.124 S 
ATOM     76  O   UNL A   1      48.332  37.513  30.681  1.00  0.00    -0.237 OA
ATOM     77  O   UNL A   1      49.670  37.436  28.605  1.00  0.00    -0.237 OA
ATOM     78  O   UNL A   1      47.325  38.191  28.531  1.00  0.00    -0.744 OA
ENDBRANCH  74  75
ENDBRANCH  53  67
BRANCH  54  79
ATOM     79  C   UNL A   1      43.440  23.858  27.228  1.00  0.00     0.058 A 
ATOM     80  C   UNL A   1      43.020  23.439  25.958  1.00  0.00     0.135 A 
ATOM     81  C   UNL A   1      43.354  22.940  28.285  1.00  0.00     0.135 A 
ATOM     82  F   UNL A   1      43.071  24.288  24.920  1.00  0.00    -0.206 F 
ATOM     83  C   UNL A   1      42.521  22.159  25.743  1.00  0.00     0.059 A 
ATOM     84  C   UNL A   1      42.877  21.649  28.092  1.00  0.00     0.059 A 
ATOM     85  F   UNL A   1      43.751  23.295  29.517  1.00  0.00    -0.206 F 
ATOM     86  C   UNL A   1      42.453  21.270  26.817  1.00  0.00     0.060 A 
BRANCH  86  87
ATOM     87  S   UNL A   1      41.838  19.598  26.522  1.00  0.00     0.124 S 
ATOM     88  O   UNL A   1      40.411  19.762  26.773  1.00  0.00    -0.237 OA
ATOM     89  O   UNL A   1      42.218  19.369  25.131  1.00  0.00    -0.237 OA
ATOM     90  O   UNL A   1      42.563  18.797  27.503  1.00  0.00    -0.744 OA
ENDBRANCH  86  87
ENDBRANCH  54  79
BRANCH  66  91
ATOM     91  C   UNL A   1      49.756  26.723  26.582  1.00  0.00     0.058 A 
ATOM     92  C   UNL A   1      50.591  26.090  27.515  1.00  0.00     0.135 A 
ATOM     93  C   UNL A   1      50.190  26.782  25.248  1.00  0.00     0.135 A 
ATOM     94  F   UNL A   1      50.225  26.010  28.804  1.00  0.00    -0.206 F 
ATOM     95  C   UNL A   1      51.823  25.556  27.144  1.00  0.00     0.059 A 
ATOM     96  C   UNL A   1      51.409  26.238  24.851  1.00  0.00     0.059 A 
ATOM     97  F   UNL A   1      49.424  27.366  24.313  1.00  0.00    -0.206 F 
ATOM     98  C   UNL A   1      52.224  25.639  25.810  1.00  0.00     0.060 A 
BRANCH  98  99
ATOM     99  S   UNL A   1      53.812  24.923  25.330  1.00  0.00     0.124 S 
ATOM    100  O   UNL A   1      54.471  24.778  26.623  1.00  0.00    -0.237 OA
ATOM    101  O   UNL A   1      53.416  23.679  24.678  1.00  0.00    -0.237 OA
ATOM    102  O   UNL A   1      54.383  25.933  24.443  1.00  0.00    -0.744 OA
ENDBRANCH  98  99
ENDBRANCH  66  91
ENDBRANCH  40  41
ENDBRANCH  33  35
ENDBRANCH  32  33
ENDBRANCH  31  32
ENDBRANCH  30  31
ENDBRANCH  29  30
ENDBRANCH  28  29
ENDBRANCH   1  28
TORSDOF 23
ENDMDL
MODEL 3
REMARK VINA RESULT:     -10.7      5.919     12.327
REMARK SMILES O=C(OCCOCCOCCOC(=O)c1ccc(-c2c3nc(c(-c4c(F)cc(S(=O)(=O)[O-])cc4F)c4ccc([nH]4)c(-c4c(F)cc(S(=O)(=O)[O-])cc4F)c4nc(c(-c5c(F)cc(S(=O)(=O)[O-])cc5F)c5ccc2[nH]5)C=C4)C=C3)cc1)c1ccc(Cn2c(-c3ccccc3)cccc2=O)cc1
REMARK SMILES IDX 7 1 6 2 5 3 4 4 3 5 2 6 1 7 81 8 82 9 100 10 83 11 99 12
REMARK SMILES IDX 84 13 85 14 86 15 87 16 97 17 94 18 96 19 98 20 95 21 88 22
REMARK SMILES IDX 89 23 93 24 90 25 92 26 91 27 8 28 9 29 10 30 11 31 12 32
REMARK SMILES IDX 13 33 14 34 15 35 16 36 80 37 17 38 79 39 18 40 19 41 20 42
REMARK SMILES IDX 73 43 21 44 78 45 72 46 74 47 22 48 77 49 71 50 70 51 23 53
REMARK SMILES IDX 57 54 36 55 56 56 37 57 40 58 55 59 75 60 38 61 39 62 54 64
REMARK SMILES IDX 76 65 41 66 24 67 25 68 34 69 26 70 27 71 33 72 35 73 28 74
REMARK SMILES IDX 29 75 30 76 31 77 32 78 58 79 59 80 68 81 60 82 61 83 67 84
REMARK SMILES IDX 69 85 62 86 63 87 64 88 65 89 66 90 42 91 43 92 52 93 44 94
REMARK SMILES IDX 45 95 51 96 53 97 46 98 47 99 48 100 49 101 50 102
REMARK H PARENT 74 52 40 63
REMARK Flexibility Score: inf
ROOT
ATOM      1  C   UNL A   1      43.106  18.956  26.064  1.00  0.00     0.188 C 
ENDROOT
BRANCH   1   2
ATOM      2  O   UNL A   1      42.124  19.505  26.953  1.00  0.00    -0.376 OA
BRANCH   2   3
ATOM      3  C   UNL A   1      40.921  19.904  26.308  1.00  0.00     0.202 C 
BRANCH   3   4
ATOM      4  C   UNL A   1      40.271  21.186  26.840  1.00  0.00     0.261 C 
BRANCH   4   5
ATOM      5  O   UNL A   1      39.094  21.583  26.115  1.00  0.00    -0.460 OA
BRANCH   5   6
ATOM      6  C   UNL A   1      38.524  22.812  26.229  1.00  0.00     0.338 C 
ATOM      7  O   UNL A   1      38.951  23.651  27.011  1.00  0.00    -0.246 OA
BRANCH   6   8
ATOM      8  C   UNL A   1      37.383  23.126  25.348  1.00  0.00     0.060 A 
ATOM      9  C   UNL A   1      36.425  24.059  25.746  1.00  0.00     0.016 A 
ATOM     10  C   UNL A   1      37.271  22.476  24.118  1.00  0.00     0.016 A 
ATOM     11  C   UNL A   1      35.303  24.280  24.951  1.00  0.00     0.006 A 
ATOM     12  C   UNL A   1      36.146  22.704  23.322  1.00  0.00     0.006 A 
ATOM     13  C   UNL A   1      35.136  23.584  23.745  1.00  0.00    -0.028 A 
BRANCH  13  14
ATOM     14  C   UNL A   1      33.897  23.797  22.901  1.00  0.00     0.161 C 
BRANCH  14  15
ATOM     15  N   UNL A   1      32.695  24.113  23.685  1.00  0.00    -0.304 N 
ATOM     16  C   UNL A   1      32.019  23.155  24.451  1.00  0.00     0.052 A 
ATOM     17  C   UNL A   1      32.254  25.440  23.632  1.00  0.00     0.251 A 
ATOM     18  C   UNL A   1      30.951  23.506  25.194  1.00  0.00     0.027 A 
ATOM     19  C   UNL A   1      31.077  25.792  24.467  1.00  0.00     0.072 A 
ATOM     20  O   UNL A   1      32.758  26.329  22.949  1.00  0.00    -0.269 OA
ATOM     21  C   UNL A   1      30.474  24.861  25.210  1.00  0.00     0.008 A 
BRANCH  16  22
ATOM     22  C   UNL A   1      32.401  21.730  24.482  1.00  0.00    -0.002 A 
ATOM     23  C   UNL A   1      33.090  21.220  25.595  1.00  0.00     0.010 A 
ATOM     24  C   UNL A   1      32.143  20.882  23.399  1.00  0.00     0.010 A 
ATOM     25  C   UNL A   1      33.498  19.886  25.629  1.00  0.00     0.001 A 
ATOM     26  C   UNL A   1      32.540  19.543  23.441  1.00  0.00     0.001 A 
ATOM     27  C   UNL A   1      33.218  19.047  24.553  1.00  0.00     0.000 A 
ENDBRANCH  16  22
ENDBRANCH  14  15
ENDBRANCH  13  14
ENDBRANCH   6   8
ENDBRANCH   5   6
ENDBRANCH   4   5
ENDBRANCH   3   4
ENDBRANCH   2   3
ENDBRANCH   1   2
BRANCH   1  28
ATOM     28  C   UNL A   1      43.619  20.055  25.128  1.00  0.00     0.188 C 
BRANCH  28  29
ATOM     29  O   UNL A   1      44.669  20.847  25.694  1.00  0.00    -0.376 OA
BRANCH  29  30
ATOM     30  C   UNL A   1      44.574  22.258  25.512  1.00  0.00     0.202 C 
BRANCH  30  31
ATOM     31  C   UNL A   1      43.153  22.800  25.343  1.00  0.00     0.261 C 
BRANCH  31  32
ATOM     32  O   UNL A   1      42.785  23.774  26.340  1.00  0.00    -0.460 OA
BRANCH  32  33
ATOM     33  C   UNL A   1      42.942  25.061  25.954  1.00  0.00     0.338 C 
ATOM     34  O   UNL A   1      43.634  25.478  25.035  1.00  0.00    -0.246 OA
BRANCH  33  35
ATOM     35  C   UNL A   1      42.161  25.976  26.799  1.00  0.00     0.060 A 
ATOM     36  C   UNL A   1      42.411  27.349  26.714  1.00  0.00     0.016 A 
ATOM     37  C   UNL A   1      41.389  25.458  27.843  1.00  0.00     0.016 A 
ATOM     38  C   UNL A   1      41.948  28.201  27.719  1.00  0.00     0.010 A 
ATOM     39  C   UNL A   1      40.918  26.317  28.843  1.00  0.00     0.010 A 
ATOM     40  C   UNL A   1      41.246  27.684  28.818  1.00  0.00    -0.014 A 
BRANCH  40  41
ATOM     41  C   UNL A   1      41.006  28.533  30.017  1.00  0.00     0.031 A 
ATOM     42  C   UNL A   1      41.885  28.365  31.232  1.00  0.00     0.074 A 
ATOM     43  C   UNL A   1      40.031  29.460  30.025  1.00  0.00     0.049 A 
ATOM     44  N   UNL A   1      41.838  28.987  32.384  1.00  0.00    -0.248 NA
ATOM     45  C   UNL A   1      42.956  27.361  31.138  1.00  0.00     0.031 C 
ATOM     46  C   UNL A   1      39.126  29.747  28.915  1.00  0.00     0.029 A 
ATOM     47  N   UNL A   1      39.644  30.333  31.011  1.00  0.00    -0.354 N 
ATOM     48  C   UNL A   1      42.861  28.442  33.154  1.00  0.00     0.074 A 
ATOM     49  C   UNL A   1      43.494  27.421  32.348  1.00  0.00     0.031 C 
ATOM     50  C   UNL A   1      38.288  30.733  29.281  1.00  0.00     0.029 A 
ATOM     51  C   UNL A   1      38.584  31.130  30.657  1.00  0.00     0.049 A 
ATOM     52  H   UNL A   1      40.085  30.384  31.890  1.00  0.00     0.167 HD
ATOM     53  C   UNL A   1      43.249  28.769  34.412  1.00  0.00     0.037 A 
ATOM     54  C   UNL A   1      37.922  32.069  31.363  1.00  0.00     0.037 A 
ATOM     55  C   UNL A   1      42.641  29.799  35.213  1.00  0.00     0.049 A 
ATOM     56  C   UNL A   1      38.347  32.391  32.771  1.00  0.00     0.074 A 
ATOM     57  C   UNL A   1      42.995  30.224  36.484  1.00  0.00     0.029 A 
ATOM     58  N   UNL A   1      41.556  30.568  34.824  1.00  0.00    -0.354 N 
ATOM     59  N   UNL A   1      39.332  31.884  33.474  1.00  0.00    -0.248 NA
ATOM     60  C   UNL A   1      37.569  33.418  33.483  1.00  0.00     0.031 C 
ATOM     61  C   UNL A   1      42.101  31.227  36.875  1.00  0.00     0.029 A 
ATOM     62  C   UNL A   1      41.213  31.450  35.836  1.00  0.00     0.049 A 
ATOM     63  H   UNL A   1      41.096  30.497  33.958  1.00  0.00     0.167 HD
ATOM     64  C   UNL A   1      39.310  32.551  34.697  1.00  0.00     0.074 A 
ATOM     65  C   UNL A   1      38.216  33.497  34.637  1.00  0.00     0.031 C 
ATOM     66  C   UNL A   1      40.127  32.395  35.768  1.00  0.00     0.037 A 
BRANCH  53  67
ATOM     67  C   UNL A   1      44.383  27.984  35.009  1.00  0.00     0.058 A 
ATOM     68  C   UNL A   1      45.715  28.410  34.893  1.00  0.00     0.135 A 
ATOM     69  C   UNL A   1      44.132  26.801  35.723  1.00  0.00     0.135 A 
ATOM     70  F   UNL A   1      46.010  29.527  34.210  1.00  0.00    -0.206 F 
ATOM     71  C   UNL A   1      46.764  27.674  35.438  1.00  0.00     0.059 A 
ATOM     72  C   UNL A   1      45.163  26.060  36.294  1.00  0.00     0.059 A 
ATOM     73  F   UNL A   1      42.875  26.351  35.865  1.00  0.00    -0.206 F 
ATOM     74  C   UNL A   1      46.477  26.496  36.129  1.00  0.00     0.060 A 
BRANCH  74  75
ATOM     75  S   UNL A   1      47.844  25.538  36.819  1.00  0.00     0.124 S 
ATOM     76  O   UNL A   1      48.289  24.785  35.650  1.00  0.00    -0.237 OA
ATOM     77  O   UNL A   1      48.755  26.576  37.287  1.00  0.00    -0.237 OA
ATOM     78  O   UNL A   1      47.207  24.748  37.869  1.00  0.00    -0.744 OA
ENDBRANCH  74  75
ENDBRANCH  53  67
BRANCH  54  79
ATOM     79  C   UNL A   1      36.784  32.793  30.740  1.00  0.00     0.058 A 
ATOM     80  C   UNL A   1      35.461  32.494  31.096  1.00  0.00     0.135 A 
ATOM     81  C   UNL A   1      36.997  33.790  29.776  1.00  0.00     0.135 A 
ATOM     82  F   UNL A   1      35.210  31.539  32.004  1.00  0.00    -0.206 F 
ATOM     83  C   UNL A   1      34.385  33.151  30.509  1.00  0.00     0.059 A 
ATOM     84  C   UNL A   1      35.939  34.474  29.189  1.00  0.00     0.059 A 
ATOM     85  F   UNL A   1      38.247  34.113  29.409  1.00  0.00    -0.206 F 
ATOM     86  C   UNL A   1      34.634  34.140  29.556  1.00  0.00     0.060 A 
BRANCH  86  87
ATOM     87  S   UNL A   1      33.232  35.014  28.826  1.00  0.00     0.124 S 
ATOM     88  O   UNL A   1      32.464  35.376  30.011  1.00  0.00    -0.237 OA
ATOM     89  O   UNL A   1      33.884  36.116  28.125  1.00  0.00    -0.237 OA
ATOM     90  O   UNL A   1      32.623  34.005  27.963  1.00  0.00    -0.744 OA
ENDBRANCH  86  87
ENDBRANCH  54  79
BRANCH  66  91
ATOM     91  C   UNL A   1      39.894  33.290  36.953  1.00  0.00     0.058 A 
ATOM     92  C   UNL A   1      38.903  33.008  37.905  1.00  0.00     0.135 A 
ATOM     93  C   UNL A   1      40.697  34.423  37.158  1.00  0.00     0.135 A 
ATOM     94  F   UNL A   1      38.105  31.939  37.753  1.00  0.00    -0.206 F 
ATOM     95  C   UNL A   1      38.700  33.832  39.009  1.00  0.00     0.059 A 
ATOM     96  C   UNL A   1      40.525  35.250  38.265  1.00  0.00     0.059 A 
ATOM     97  F   UNL A   1      41.667  34.732  36.283  1.00  0.00    -0.206 F 
ATOM     98  C   UNL A   1      39.514  34.953  39.178  1.00  0.00     0.060 A 
BRANCH  98  99
ATOM     99  S   UNL A   1      39.261  36.005  40.625  1.00  0.00     0.124 S 
ATOM    100  O   UNL A   1      40.614  36.092  41.164  1.00  0.00    -0.237 OA
ATOM    101  O   UNL A   1      38.734  37.233  40.036  1.00  0.00    -0.237 OA
ATOM    102  O   UNL A   1      38.309  35.247  41.431  1.00  0.00    -0.744 OA
ENDBRANCH  98  99
ENDBRANCH  66  91
ENDBRANCH  40  41
ENDBRANCH  33  35
ENDBRANCH  32  33
ENDBRANCH  31  32
ENDBRANCH  30  31
ENDBRANCH  29  30
ENDBRANCH  28  29
ENDBRANCH   1  28
TORSDOF 23
ENDMDL
