MODEL 1
REMARK VINA RESULT:     -10.9      0.000      0.000
REMARK SMILES Cc1nsc(NC(=O)c2ccc(N)cc2)c1C(=O)OCCOCCOCCOC(=O)c1ccc(-c2c3nc(c(-c4c(F)cc(S(=O)(=O)[O-])cc4F)c4ccc([nH]4)c(-c4c(F)cc(S(=O)(=O)[O-])cc4F)c4nc(c(-c5c(F)cc(S(=O)(=O)[O-])cc5F)c5ccc2[nH]5)C=C4)C=C3)cc1
REMARK SMILES IDX 23 1 22 2 21 3 20 4 19 5 17 6 18 7 16 8 1 9 2 10 3 11 4 12
REMARK SMILES IDX 5 13 6 14 7 15 8 17 9 18 10 19 15 20 11 21 14 22 12 23 13 24
REMARK SMILES IDX 24 27 25 28 26 29 27 30 28 31 29 32 30 33 31 34 32 35 96 36
REMARK SMILES IDX 33 37 95 38 34 39 35 40 36 41 89 42 37 43 94 44 88 45 90 46
REMARK SMILES IDX 38 47 93 48 87 49 86 50 39 52 73 53 52 54 72 55 53 56 56 57
REMARK SMILES IDX 71 58 91 59 54 60 55 61 70 63 92 64 57 65 40 66 41 67 50 68
REMARK SMILES IDX 42 69 43 70 49 71 51 72 44 73 45 74 46 75 47 76 48 77 74 78
REMARK SMILES IDX 75 79 84 80 76 81 77 82 83 83 85 84 78 85 79 86 80 87 81 88
REMARK SMILES IDX 82 89 58 90 59 91 68 92 60 93 61 94 67 95 69 96 62 97 63 98
REMARK SMILES IDX 64 99 65 100 66 101
REMARK H PARENT 6 16 13 25 13 26 90 51 56 62
REMARK Flexibility Score: inf
ROOT
ATOM      1  C   UNL A   1      37.729  22.507  25.748  1.00  0.00     0.188 C 
ENDROOT
BRANCH   1   2
ATOM      2  O   UNL A   1      36.576  22.084  25.033  1.00  0.00    -0.376 OA
BRANCH   2   3
ATOM      3  C   UNL A   1      35.335  22.755  25.207  1.00  0.00     0.202 C 
BRANCH   3   4
ATOM      4  C   UNL A   1      35.302  24.284  25.418  1.00  0.00     0.261 C 
BRANCH   4   5
ATOM      5  O   UNL A   1      34.013  24.841  25.733  1.00  0.00    -0.460 OA
BRANCH   5   6
ATOM      6  C   UNL A   1      32.951  24.368  25.028  1.00  0.00     0.343 C 
ATOM      7  O   UNL A   1      32.013  23.743  25.521  1.00  0.00    -0.246 OA
BRANCH   6   8
ATOM      8  C   UNL A   1      32.919  24.859  23.657  1.00  0.00     0.117 A 
ATOM      9  C   UNL A   1      33.193  22.619  22.309  1.00  0.00     0.069 C 
ATOM     10  C   UNL A   1      33.047  24.097  22.434  1.00  0.00     0.068 A 
ATOM     11  N   UNL A   1      33.091  24.810  21.308  1.00  0.00    -0.195 NA
ATOM     12  S   UNL A   1      33.124  26.411  21.687  1.00  0.00    -0.017 S 
ATOM     13  C   UNL A   1      32.921  26.221  23.364  1.00  0.00     0.131 A 
BRANCH  13  14
ATOM     14  N   UNL A   1      32.958  27.274  24.268  1.00  0.00    -0.312 N 
ATOM     15  C   UNL A   1      32.165  28.393  24.400  1.00  0.00     0.256 C 
ATOM     16  H   UNL A   1      33.680  27.211  24.934  1.00  0.00     0.171 HD
ATOM     17  O   UNL A   1      32.606  29.384  24.982  1.00  0.00    -0.269 OA
BRANCH  15  18
ATOM     18  C   UNL A   1      30.759  28.410  23.957  1.00  0.00     0.040 A 
ATOM     19  C   UNL A   1      30.234  29.545  23.333  1.00  0.00     0.016 A 
ATOM     20  C   UNL A   1      29.972  27.267  24.109  1.00  0.00     0.016 A 
ATOM     21  C   UNL A   1      28.883  29.580  22.986  1.00  0.00     0.026 A 
ATOM     22  C   UNL A   1      28.627  27.305  23.732  1.00  0.00     0.026 A 
ATOM     23  C   UNL A   1      28.058  28.480  23.231  1.00  0.00     0.031 A 
BRANCH  23  24
ATOM     24  N   UNL A   1      26.725  28.512  22.848  1.00  0.00    -0.399 N 
ATOM     25  H   UNL A   1      26.438  29.101  22.113  1.00  0.00     0.156 HD
ATOM     26  H   UNL A   1      26.067  27.945  23.311  1.00  0.00     0.156 HD
ENDBRANCH  23  24
ENDBRANCH  15  18
ENDBRANCH  13  14
ENDBRANCH   6   8
ENDBRANCH   5   6
ENDBRANCH   4   5
ENDBRANCH   3   4
ENDBRANCH   2   3
ENDBRANCH   1   2
BRANCH   1  27
ATOM     27  C   UNL A   1      38.920  21.547  25.975  1.00  0.00     0.188 C 
BRANCH  27  28
ATOM     28  O   UNL A   1      40.055  22.156  26.555  1.00  0.00    -0.376 OA
BRANCH  28  29
ATOM     29  C   UNL A   1      40.877  21.402  27.433  1.00  0.00     0.202 C 
BRANCH  29  30
ATOM     30  C   UNL A   1      41.932  20.432  26.895  1.00  0.00     0.261 C 
BRANCH  30  31
ATOM     31  O   UNL A   1      42.404  20.713  25.593  1.00  0.00    -0.460 OA
BRANCH  31  32
ATOM     32  C   UNL A   1      43.745  20.701  25.462  1.00  0.00     0.338 C 
ATOM     33  O   UNL A   1      44.469  19.721  25.449  1.00  0.00    -0.246 OA
BRANCH  32  34
ATOM     34  C   UNL A   1      44.208  22.088  25.364  1.00  0.00     0.060 A 
ATOM     35  C   UNL A   1      45.260  22.454  26.203  1.00  0.00     0.016 A 
ATOM     36  C   UNL A   1      43.375  23.027  24.738  1.00  0.00     0.016 A 
ATOM     37  C   UNL A   1      45.275  23.745  26.671  1.00  0.00     0.010 A 
ATOM     38  C   UNL A   1      43.380  24.308  25.218  1.00  0.00     0.010 A 
ATOM     39  C   UNL A   1      44.244  24.598  26.269  1.00  0.00    -0.014 A 
BRANCH  39  40
ATOM     40  C   UNL A   1      44.022  25.787  27.055  1.00  0.00     0.031 A 
ATOM     41  C   UNL A   1      45.040  26.832  26.848  1.00  0.00     0.074 A 
ATOM     42  C   UNL A   1      42.918  25.902  27.817  1.00  0.00     0.049 A 
ATOM     43  N   UNL A   1      45.917  27.268  27.687  1.00  0.00    -0.248 NA
ATOM     44  C   UNL A   1      45.217  27.323  25.471  1.00  0.00     0.031 C 
ATOM     45  C   UNL A   1      41.730  25.039  27.839  1.00  0.00     0.029 A 
ATOM     46  N   UNL A   1      42.573  26.903  28.663  1.00  0.00    -0.354 N 
ATOM     47  C   UNL A   1      46.612  28.257  27.003  1.00  0.00     0.074 A 
ATOM     48  C   UNL A   1      46.287  28.102  25.609  1.00  0.00     0.031 C 
ATOM     49  C   UNL A   1      40.719  25.689  28.459  1.00  0.00     0.029 A 
ATOM     50  C   UNL A   1      41.224  26.946  28.984  1.00  0.00     0.049 A 
ATOM     51  H   UNL A   1      43.227  27.546  29.021  1.00  0.00     0.167 HD
ATOM     52  C   UNL A   1      47.199  29.295  27.655  1.00  0.00     0.037 A 
ATOM     53  C   UNL A   1      40.581  28.009  29.528  1.00  0.00     0.037 A 
ATOM     54  C   UNL A   1      47.361  29.019  29.058  1.00  0.00     0.049 A 
ATOM     55  C   UNL A   1      41.627  28.880  30.140  1.00  0.00     0.074 A 
ATOM     56  C   UNL A   1      48.048  28.059  29.775  1.00  0.00     0.029 A 
ATOM     57  N   UNL A   1      46.448  29.562  29.930  1.00  0.00    -0.354 N 
ATOM     58  N   UNL A   1      42.365  28.527  31.159  1.00  0.00    -0.248 NA
ATOM     59  C   UNL A   1      42.181  29.946  29.315  1.00  0.00     0.031 C 
ATOM     60  C   UNL A   1      47.207  27.750  30.882  1.00  0.00     0.029 A 
ATOM     61  C   UNL A   1      46.080  28.573  30.807  1.00  0.00     0.049 A 
ATOM     62  H   UNL A   1      46.117  30.490  29.926  1.00  0.00     0.167 HD
ATOM     63  C   UNL A   1      43.631  29.031  30.883  1.00  0.00     0.074 A 
ATOM     64  C   UNL A   1      43.439  29.953  29.769  1.00  0.00     0.031 C 
ATOM     65  C   UNL A   1      44.759  28.446  31.388  1.00  0.00     0.037 A 
BRANCH  52  66
ATOM     66  C   UNL A   1      47.285  30.681  27.080  1.00  0.00     0.058 A 
ATOM     67  C   UNL A   1      48.521  31.352  27.069  1.00  0.00     0.135 A 
ATOM     68  C   UNL A   1      46.151  31.474  26.784  1.00  0.00     0.135 A 
ATOM     69  F   UNL A   1      49.656  30.695  27.356  1.00  0.00    -0.206 F 
ATOM     70  C   UNL A   1      48.617  32.725  26.840  1.00  0.00     0.059 A 
ATOM     71  C   UNL A   1      46.231  32.827  26.491  1.00  0.00     0.059 A 
ATOM     72  F   UNL A   1      44.903  30.999  26.870  1.00  0.00    -0.206 F 
ATOM     73  C   UNL A   1      47.462  33.454  26.567  1.00  0.00     0.060 A 
BRANCH  73  74
ATOM     74  S   UNL A   1      47.563  35.242  26.393  1.00  0.00     0.124 S 
ATOM     75  O   UNL A   1      48.135  35.623  27.679  1.00  0.00    -0.237 OA
ATOM     76  O   UNL A   1      48.437  35.386  25.234  1.00  0.00    -0.237 OA
ATOM     77  O   UNL A   1      46.175  35.637  26.177  1.00  0.00    -0.744 OA
ENDBRANCH  73  74
ENDBRANCH  52  66
BRANCH  53  78
ATOM     78  C   UNL A   1      39.224  28.503  29.158  1.00  0.00     0.058 A 
ATOM     79  C   UNL A   1      38.197  28.605  30.112  1.00  0.00     0.135 A 
ATOM     80  C   UNL A   1      38.981  29.132  27.918  1.00  0.00     0.135 A 
ATOM     81  F   UNL A   1      38.354  28.066  31.330  1.00  0.00    -0.206 F 
ATOM     82  C   UNL A   1      37.013  29.313  29.862  1.00  0.00     0.059 A 
ATOM     83  C   UNL A   1      37.806  29.830  27.642  1.00  0.00     0.059 A 
ATOM     84  F   UNL A   1      39.918  29.165  26.959  1.00  0.00    -0.206 F 
ATOM     85  C   UNL A   1      36.833  29.935  28.626  1.00  0.00     0.060 A 
BRANCH  85  86
ATOM     86  S   UNL A   1      35.379  30.973  28.349  1.00  0.00     0.124 S 
ATOM     87  O   UNL A   1      34.460  30.040  27.707  1.00  0.00    -0.237 OA
ATOM     88  O   UNL A   1      35.029  31.383  29.704  1.00  0.00    -0.237 OA
ATOM     89  O   UNL A   1      35.883  32.042  27.489  1.00  0.00    -0.744 OA
ENDBRANCH  85  86
ENDBRANCH  53  78
BRANCH  65  90
ATOM     90  C   UNL A   1      44.612  27.403  32.466  1.00  0.00     0.058 A 
ATOM     91  C   UNL A   1      44.428  27.702  33.828  1.00  0.00     0.135 A 
ATOM     92  C   UNL A   1      44.433  26.069  32.073  1.00  0.00     0.135 A 
ATOM     93  F   UNL A   1      44.488  28.967  34.268  1.00  0.00    -0.206 F 
ATOM     94  C   UNL A   1      44.092  26.716  34.759  1.00  0.00     0.059 A 
ATOM     95  C   UNL A   1      44.071  25.074  32.978  1.00  0.00     0.059 A 
ATOM     96  F   UNL A   1      44.536  25.732  30.777  1.00  0.00    -0.206 F 
ATOM     97  C   UNL A   1      43.904  25.405  34.320  1.00  0.00     0.060 A 
BRANCH  97  98
ATOM     98  S   UNL A   1      43.341  24.154  35.498  1.00  0.00     0.124 S 
ATOM     99  O   UNL A   1      44.084  22.973  35.071  1.00  0.00    -0.237 OA
ATOM    100  O   UNL A   1      43.738  24.723  36.783  1.00  0.00    -0.237 OA
ATOM    101  O   UNL A   1      41.899  24.097  35.273  1.00  0.00    -0.744 OA
ENDBRANCH  97  98
ENDBRANCH  65  90
ENDBRANCH  39  40
ENDBRANCH  32  34
ENDBRANCH  31  32
ENDBRANCH  30  31
ENDBRANCH  29  30
ENDBRANCH  28  29
ENDBRANCH  27  28
ENDBRANCH   1  27
TORSDOF 23
ENDMDL
MODEL 2
REMARK VINA RESULT:     -10.6      1.692      3.265
REMARK SMILES Cc1nsc(NC(=O)c2ccc(N)cc2)c1C(=O)OCCOCCOCCOC(=O)c1ccc(-c2c3nc(c(-c4c(F)cc(S(=O)(=O)[O-])cc4F)c4ccc([nH]4)c(-c4c(F)cc(S(=O)(=O)[O-])cc4F)c4nc(c(-c5c(F)cc(S(=O)(=O)[O-])cc5F)c5ccc2[nH]5)C=C4)C=C3)cc1
REMARK SMILES IDX 23 1 22 2 21 3 20 4 19 5 17 6 18 7 16 8 1 9 2 10 3 11 4 12
REMARK SMILES IDX 5 13 6 14 7 15 8 17 9 18 10 19 15 20 11 21 14 22 12 23 13 24
REMARK SMILES IDX 24 27 25 28 26 29 27 30 28 31 29 32 30 33 31 34 32 35 96 36
REMARK SMILES IDX 33 37 95 38 34 39 35 40 36 41 89 42 37 43 94 44 88 45 90 46
REMARK SMILES IDX 38 47 93 48 87 49 86 50 39 52 73 53 52 54 72 55 53 56 56 57
REMARK SMILES IDX 71 58 91 59 54 60 55 61 70 63 92 64 57 65 40 66 41 67 50 68
REMARK SMILES IDX 42 69 43 70 49 71 51 72 44 73 45 74 46 75 47 76 48 77 74 78
REMARK SMILES IDX 75 79 84 80 76 81 77 82 83 83 85 84 78 85 79 86 80 87 81 88
REMARK SMILES IDX 82 89 58 90 59 91 68 92 60 93 61 94 67 95 69 96 62 97 63 98
REMARK SMILES IDX 64 99 65 100 66 101
REMARK H PARENT 6 16 13 25 13 26 90 51 56 62
REMARK Flexibility Score: inf
ROOT
ATOM      1  C   UNL A   1      38.218  21.961  25.485  1.00  0.00     0.188 C 
ENDROOT
BRANCH   1   2
ATOM      2  O   UNL A   1      37.346  21.488  24.467  1.00  0.00    -0.376 OA
BRANCH   2   3
ATOM      3  C   UNL A   1      36.246  22.279  24.037  1.00  0.00     0.202 C 
BRANCH   3   4
ATOM      4  C   UNL A   1      36.290  23.815  24.181  1.00  0.00     0.261 C 
BRANCH   4   5
ATOM      5  O   UNL A   1      35.045  24.444  24.534  1.00  0.00    -0.460 OA
BRANCH   5   6
ATOM      6  C   UNL A   1      34.059  24.422  23.598  1.00  0.00     0.343 C 
ATOM      7  O   UNL A   1      34.247  24.257  22.394  1.00  0.00    -0.246 OA
BRANCH   6   8
ATOM      8  C   UNL A   1      32.725  24.399  24.184  1.00  0.00     0.117 A 
ATOM      9  C   UNL A   1      31.497  26.208  22.724  1.00  0.00     0.069 C 
ATOM     10  C   UNL A   1      31.578  25.203  23.821  1.00  0.00     0.068 A 
ATOM     11  N   UNL A   1      30.501  25.058  24.593  1.00  0.00    -0.195 NA
ATOM     12  S   UNL A   1      30.873  24.069  25.854  1.00  0.00    -0.017 S 
ATOM     13  C   UNL A   1      32.441  23.667  25.334  1.00  0.00     0.131 A 
BRANCH  13  14
ATOM     14  N   UNL A   1      33.321  22.889  26.073  1.00  0.00    -0.312 N 
ATOM     15  C   UNL A   1      33.432  21.524  26.221  1.00  0.00     0.256 C 
ATOM     16  H   UNL A   1      33.985  23.405  26.585  1.00  0.00     0.171 HD
ATOM     17  O   UNL A   1      33.990  21.065  27.217  1.00  0.00    -0.269 OA
BRANCH  15  18
ATOM     18  C   UNL A   1      32.994  20.587  25.171  1.00  0.00     0.040 A 
ATOM     19  C   UNL A   1      32.863  19.225  25.456  1.00  0.00     0.016 A 
ATOM     20  C   UNL A   1      32.653  21.074  23.908  1.00  0.00     0.016 A 
ATOM     21  C   UNL A   1      32.521  18.336  24.437  1.00  0.00     0.026 A 
ATOM     22  C   UNL A   1      32.285  20.176  22.902  1.00  0.00     0.026 A 
ATOM     23  C   UNL A   1      32.281  18.799  23.140  1.00  0.00     0.031 A 
BRANCH  23  24
ATOM     24  N   UNL A   1      31.906  17.910  22.143  1.00  0.00    -0.399 N 
ATOM     25  H   UNL A   1      31.681  16.980  22.372  1.00  0.00     0.156 HD
ATOM     26  H   UNL A   1      31.865  18.211  21.207  1.00  0.00     0.156 HD
ENDBRANCH  23  24
ENDBRANCH  15  18
ENDBRANCH  13  14
ENDBRANCH   6   8
ENDBRANCH   5   6
ENDBRANCH   4   5
ENDBRANCH   3   4
ENDBRANCH   2   3
ENDBRANCH   1   2
BRANCH   1  27
ATOM     27  C   UNL A   1      39.313  21.047  26.080  1.00  0.00     0.188 C 
BRANCH  27  28
ATOM     28  O   UNL A   1      40.457  21.736  26.542  1.00  0.00    -0.376 OA
BRANCH  28  29
ATOM     29  C   UNL A   1      41.401  21.052  27.352  1.00  0.00     0.202 C 
BRANCH  29  30
ATOM     30  C   UNL A   1      42.476  20.155  26.732  1.00  0.00     0.261 C 
BRANCH  30  31
ATOM     31  O   UNL A   1      42.752  20.396  25.368  1.00  0.00    -0.460 OA
BRANCH  31  32
ATOM     32  C   UNL A   1      44.061  20.405  25.047  1.00  0.00     0.338 C 
ATOM     33  O   UNL A   1      44.776  19.435  24.868  1.00  0.00    -0.246 OA
BRANCH  32  34
ATOM     34  C   UNL A   1      44.505  21.800  24.975  1.00  0.00     0.060 A 
ATOM     35  C   UNL A   1      45.604  22.145  25.761  1.00  0.00     0.016 A 
ATOM     36  C   UNL A   1      43.627  22.753  24.439  1.00  0.00     0.016 A 
ATOM     37  C   UNL A   1      45.637  23.417  26.277  1.00  0.00     0.010 A 
ATOM     38  C   UNL A   1      43.650  24.015  24.967  1.00  0.00     0.010 A 
ATOM     39  C   UNL A   1      44.576  24.274  25.973  1.00  0.00    -0.014 A 
BRANCH  39  40
ATOM     40  C   UNL A   1      44.393  25.429  26.817  1.00  0.00     0.031 A 
ATOM     41  C   UNL A   1      45.436  26.455  26.649  1.00  0.00     0.074 A 
ATOM     42  C   UNL A   1      43.299  25.537  27.595  1.00  0.00     0.049 A 
ATOM     43  N   UNL A   1      46.332  26.828  27.498  1.00  0.00    -0.248 NA
ATOM     44  C   UNL A   1      45.613  27.007  25.295  1.00  0.00     0.031 C 
ATOM     45  C   UNL A   1      42.089  24.704  27.589  1.00  0.00     0.029 A 
ATOM     46  N   UNL A   1      42.989  26.504  28.492  1.00  0.00    -0.354 N 
ATOM     47  C   UNL A   1      47.047  27.830  26.855  1.00  0.00     0.074 A 
ATOM     48  C   UNL A   1      46.705  27.751  25.459  1.00  0.00     0.031 C 
ATOM     49  C   UNL A   1      41.102  25.351  28.250  1.00  0.00     0.029 A 
ATOM     50  C   UNL A   1      41.645  26.567  28.829  1.00  0.00     0.049 A 
ATOM     51  H   UNL A   1      43.663  27.112  28.873  1.00  0.00     0.167 HD
ATOM     52  C   UNL A   1      47.667  28.820  27.549  1.00  0.00     0.037 A 
ATOM     53  C   UNL A   1      41.035  27.620  29.430  1.00  0.00     0.037 A 
ATOM     54  C   UNL A   1      47.835  28.473  28.935  1.00  0.00     0.049 A 
ATOM     55  C   UNL A   1      42.110  28.433  30.071  1.00  0.00     0.074 A 
ATOM     56  C   UNL A   1      48.503  27.462  29.599  1.00  0.00     0.029 A 
ATOM     57  N   UNL A   1      46.945  28.997  29.842  1.00  0.00    -0.354 N 
ATOM     58  N   UNL A   1      42.848  28.012  31.064  1.00  0.00    -0.248 NA
ATOM     59  C   UNL A   1      42.685  29.522  29.292  1.00  0.00     0.031 C 
ATOM     60  C   UNL A   1      47.665  27.123  30.699  1.00  0.00     0.029 A 
ATOM     61  C   UNL A   1      46.560  27.977  30.675  1.00  0.00     0.049 A 
ATOM     62  H   UNL A   1      46.640  29.932  29.886  1.00  0.00     0.167 HD
ATOM     63  C   UNL A   1      44.125  28.495  30.799  1.00  0.00     0.074 A 
ATOM     64  C   UNL A   1      43.946  29.474  29.732  1.00  0.00     0.031 C 
ATOM     65  C   UNL A   1      45.242  27.857  31.263  1.00  0.00     0.037 A 
BRANCH  52  66
ATOM     66  C   UNL A   1      47.784  30.229  27.039  1.00  0.00     0.058 A 
ATOM     67  C   UNL A   1      49.028  30.885  27.094  1.00  0.00     0.135 A 
ATOM     68  C   UNL A   1      46.669  31.048  26.748  1.00  0.00     0.135 A 
ATOM     69  F   UNL A   1      50.147  30.202  27.383  1.00  0.00    -0.206 F 
ATOM     70  C   UNL A   1      49.145  32.265  26.929  1.00  0.00     0.059 A 
ATOM     71  C   UNL A   1      46.772  32.412  26.519  1.00  0.00     0.059 A 
ATOM     72  F   UNL A   1      45.413  30.585  26.777  1.00  0.00    -0.206 F 
ATOM     73  C   UNL A   1      48.007  33.020  26.657  1.00  0.00     0.060 A 
BRANCH  73  74
ATOM     74  S   UNL A   1      48.132  34.812  26.567  1.00  0.00     0.124 S 
ATOM     75  O   UNL A   1      48.418  35.010  25.151  1.00  0.00    -0.237 OA
ATOM     76  O   UNL A   1      46.810  35.233  27.019  1.00  0.00    -0.237 OA
ATOM     77  O   UNL A   1      49.227  35.119  27.482  1.00  0.00    -0.744 OA
ENDBRANCH  73  74
ENDBRANCH  52  66
BRANCH  53  78
ATOM     78  C   UNL A   1      39.689  28.166  29.098  1.00  0.00     0.058 A 
ATOM     79  C   UNL A   1      38.683  28.275  30.074  1.00  0.00     0.135 A 
ATOM     80  C   UNL A   1      39.444  28.835  27.880  1.00  0.00     0.135 A 
ATOM     81  F   UNL A   1      38.844  27.699  31.274  1.00  0.00    -0.206 F 
ATOM     82  C   UNL A   1      37.518  29.026  29.864  1.00  0.00     0.059 A 
ATOM     83  C   UNL A   1      38.287  29.577  27.644  1.00  0.00     0.059 A 
ATOM     84  F   UNL A   1      40.364  28.863  26.905  1.00  0.00    -0.206 F 
ATOM     85  C   UNL A   1      37.336  29.687  28.649  1.00  0.00     0.060 A 
BRANCH  85  86
ATOM     86  S   UNL A   1      35.911  30.777  28.426  1.00  0.00     0.124 S 
ATOM     87  O   UNL A   1      36.538  31.994  27.922  1.00  0.00    -0.237 OA
ATOM     88  O   UNL A   1      35.100  30.034  27.468  1.00  0.00    -0.237 OA
ATOM     89  O   UNL A   1      35.347  30.878  29.770  1.00  0.00    -0.744 OA
ENDBRANCH  85  86
ENDBRANCH  53  78
BRANCH  65  90
ATOM     90  C   UNL A   1      45.077  26.768  32.292  1.00  0.00     0.058 A 
ATOM     91  C   UNL A   1      44.953  27.005  33.673  1.00  0.00     0.135 A 
ATOM     92  C   UNL A   1      44.817  25.467  31.839  1.00  0.00     0.135 A 
ATOM     93  F   UNL A   1      45.093  28.240  34.174  1.00  0.00    -0.206 F 
ATOM     94  C   UNL A   1      44.599  25.989  34.564  1.00  0.00     0.059 A 
ATOM     95  C   UNL A   1      44.434  24.446  32.705  1.00  0.00     0.059 A 
ATOM     96  F   UNL A   1      44.859  25.193  30.525  1.00  0.00    -0.206 F 
ATOM     97  C   UNL A   1      44.329  24.714  34.068  1.00  0.00     0.060 A 
BRANCH  97  98
ATOM     98  S   UNL A   1      43.742  23.433  35.200  1.00  0.00     0.124 S 
ATOM     99  O   UNL A   1      44.101  22.208  34.492  1.00  0.00    -0.237 OA
ATOM    100  O   UNL A   1      44.502  23.708  36.416  1.00  0.00    -0.237 OA
ATOM    101  O   UNL A   1      42.309  23.697  35.302  1.00  0.00    -0.744 OA
ENDBRANCH  97  98
ENDBRANCH  65  90
ENDBRANCH  39  40
ENDBRANCH  32  34
ENDBRANCH  31  32
ENDBRANCH  30  31
ENDBRANCH  29  30
ENDBRANCH  28  29
ENDBRANCH  27  28
ENDBRANCH   1  27
TORSDOF 23
ENDMDL
MODEL 3
REMARK VINA RESULT:     -10.6      1.446      2.088
REMARK SMILES Cc1nsc(NC(=O)c2ccc(N)cc2)c1C(=O)OCCOCCOCCOC(=O)c1ccc(-c2c3nc(c(-c4c(F)cc(S(=O)(=O)[O-])cc4F)c4ccc([nH]4)c(-c4c(F)cc(S(=O)(=O)[O-])cc4F)c4nc(c(-c5c(F)cc(S(=O)(=O)[O-])cc5F)c5ccc2[nH]5)C=C4)C=C3)cc1
REMARK SMILES IDX 23 1 22 2 21 3 20 4 19 5 17 6 18 7 16 8 1 9 2 10 3 11 4 12
REMARK SMILES IDX 5 13 6 14 7 15 8 17 9 18 10 19 15 20 11 21 14 22 12 23 13 24
REMARK SMILES IDX 24 27 25 28 26 29 27 30 28 31 29 32 30 33 31 34 32 35 96 36
REMARK SMILES IDX 33 37 95 38 34 39 35 40 36 41 89 42 37 43 94 44 88 45 90 46
REMARK SMILES IDX 38 47 93 48 87 49 86 50 39 52 73 53 52 54 72 55 53 56 56 57
REMARK SMILES IDX 71 58 91 59 54 60 55 61 70 63 92 64 57 65 40 66 41 67 50 68
REMARK SMILES IDX 42 69 43 70 49 71 51 72 44 73 45 74 46 75 47 76 48 77 74 78
REMARK SMILES IDX 75 79 84 80 76 81 77 82 83 83 85 84 78 85 79 86 80 87 81 88
REMARK SMILES IDX 82 89 58 90 59 91 68 92 60 93 61 94 67 95 69 96 62 97 63 98
REMARK SMILES IDX 64 99 65 100 66 101
REMARK H PARENT 6 16 13 25 13 26 90 51 56 62
REMARK Flexibility Score: inf
ROOT
ATOM      1  C   UNL A   1      38.522  21.450  25.381  1.00  0.00     0.188 C 
ENDROOT
BRANCH   1   2
ATOM      2  O   UNL A   1      37.932  22.485  26.156  1.00  0.00    -0.376 OA
BRANCH   2   3
ATOM      3  C   UNL A   1      37.220  23.540  25.524  1.00  0.00     0.202 C 
BRANCH   3   4
ATOM      4  C   UNL A   1      35.763  23.847  25.931  1.00  0.00     0.261 C 
BRANCH   4   5
ATOM      5  O   UNL A   1      35.079  24.813  25.112  1.00  0.00    -0.460 OA
BRANCH   5   6
ATOM      6  C   UNL A   1      33.846  25.207  25.528  1.00  0.00     0.343 C 
ATOM      7  O   UNL A   1      33.611  26.275  26.092  1.00  0.00    -0.246 OA
BRANCH   6   8
ATOM      8  C   UNL A   1      32.782  24.334  25.049  1.00  0.00     0.117 A 
ATOM      9  C   UNL A   1      32.017  23.188  27.288  1.00  0.00     0.069 C 
ATOM     10  C   UNL A   1      31.972  23.413  25.815  1.00  0.00     0.068 A 
ATOM     11  N   UNL A   1      31.136  22.650  25.110  1.00  0.00    -0.195 NA
ATOM     12  S   UNL A   1      31.396  22.910  23.506  1.00  0.00    -0.017 S 
ATOM     13  C   UNL A   1      32.525  24.168  23.690  1.00  0.00     0.131 A 
BRANCH  13  14
ATOM     14  N   UNL A   1      33.196  24.761  22.629  1.00  0.00    -0.312 N 
ATOM     15  C   UNL A   1      32.944  25.913  21.918  1.00  0.00     0.256 C 
ATOM     16  H   UNL A   1      33.996  24.271  22.332  1.00  0.00     0.171 HD
ATOM     17  O   UNL A   1      33.401  26.037  20.782  1.00  0.00    -0.269 OA
BRANCH  15  18
ATOM     18  C   UNL A   1      32.224  27.055  22.510  1.00  0.00     0.040 A 
ATOM     19  C   UNL A   1      30.837  27.157  22.378  1.00  0.00     0.016 A 
ATOM     20  C   UNL A   1      32.928  28.003  23.255  1.00  0.00     0.016 A 
ATOM     21  C   UNL A   1      30.176  28.279  22.876  1.00  0.00     0.026 A 
ATOM     22  C   UNL A   1      32.250  29.110  23.774  1.00  0.00     0.026 A 
ATOM     23  C   UNL A   1      30.885  29.290  23.532  1.00  0.00     0.031 A 
BRANCH  23  24
ATOM     24  N   UNL A   1      30.212  30.383  24.056  1.00  0.00    -0.399 N 
ATOM     25  H   UNL A   1      29.601  30.266  24.819  1.00  0.00     0.156 HD
ATOM     26  H   UNL A   1      30.346  31.277  23.664  1.00  0.00     0.156 HD
ENDBRANCH  23  24
ENDBRANCH  15  18
ENDBRANCH  13  14
ENDBRANCH   6   8
ENDBRANCH   5   6
ENDBRANCH   4   5
ENDBRANCH   3   4
ENDBRANCH   2   3
ENDBRANCH   1   2
BRANCH   1  27
ATOM     27  C   UNL A   1      39.482  20.423  26.025  1.00  0.00     0.188 C 
BRANCH  27  28
ATOM     28  O   UNL A   1      40.162  20.902  27.168  1.00  0.00    -0.376 OA
BRANCH  28  29
ATOM     29  C   UNL A   1      41.581  20.952  27.162  1.00  0.00     0.202 C 
BRANCH  29  30
ATOM     30  C   UNL A   1      42.410  19.856  26.488  1.00  0.00     0.261 C 
BRANCH  30  31
ATOM     31  O   UNL A   1      42.885  20.166  25.194  1.00  0.00    -0.460 OA
BRANCH  31  32
ATOM     32  C   UNL A   1      44.227  20.204  25.077  1.00  0.00     0.338 C 
ATOM     33  O   UNL A   1      44.987  19.251  25.066  1.00  0.00    -0.246 OA
BRANCH  32  34
ATOM     34  C   UNL A   1      44.640  21.607  24.992  1.00  0.00     0.060 A 
ATOM     35  C   UNL A   1      45.759  21.974  25.739  1.00  0.00     0.016 A 
ATOM     36  C   UNL A   1      43.724  22.543  24.490  1.00  0.00     0.016 A 
ATOM     37  C   UNL A   1      45.785  23.245  26.256  1.00  0.00     0.010 A 
ATOM     38  C   UNL A   1      43.740  23.804  25.020  1.00  0.00     0.010 A 
ATOM     39  C   UNL A   1      44.697  24.080  25.992  1.00  0.00    -0.014 A 
BRANCH  39  40
ATOM     40  C   UNL A   1      44.521  25.230  26.846  1.00  0.00     0.031 A 
ATOM     41  C   UNL A   1      45.587  26.237  26.707  1.00  0.00     0.074 A 
ATOM     42  C   UNL A   1      43.415  25.352  27.604  1.00  0.00     0.049 A 
ATOM     43  N   UNL A   1      46.474  26.583  27.577  1.00  0.00    -0.248 NA
ATOM     44  C   UNL A   1      45.801  26.799  25.363  1.00  0.00     0.031 C 
ATOM     45  C   UNL A   1      42.189  24.544  27.567  1.00  0.00     0.029 A 
ATOM     46  N   UNL A   1      43.108  26.316  28.505  1.00  0.00    -0.354 N 
ATOM     47  C   UNL A   1      47.221  27.577  26.958  1.00  0.00     0.074 A 
ATOM     48  C   UNL A   1      46.904  27.519  25.554  1.00  0.00     0.031 C 
ATOM     49  C   UNL A   1      41.203  25.203  28.216  1.00  0.00     0.029 A 
ATOM     50  C   UNL A   1      41.759  26.403  28.818  1.00  0.00     0.049 A 
ATOM     51  H   UNL A   1      43.787  26.907  28.905  1.00  0.00     0.167 HD
ATOM     52  C   UNL A   1      47.848  28.547  27.673  1.00  0.00     0.037 A 
ATOM     53  C   UNL A   1      41.159  27.461  29.419  1.00  0.00     0.037 A 
ATOM     54  C   UNL A   1      47.983  28.183  29.059  1.00  0.00     0.049 A 
ATOM     55  C   UNL A   1      42.238  28.246  30.088  1.00  0.00     0.074 A 
ATOM     56  C   UNL A   1      48.618  27.152  29.724  1.00  0.00     0.029 A 
ATOM     57  N   UNL A   1      47.087  28.716  29.954  1.00  0.00    -0.354 N 
ATOM     58  N   UNL A   1      42.949  27.800  31.090  1.00  0.00    -0.248 NA
ATOM     59  C   UNL A   1      42.849  29.332  29.331  1.00  0.00     0.031 C 
ATOM     60  C   UNL A   1      47.753  26.819  30.804  1.00  0.00     0.029 A 
ATOM     61  C   UNL A   1      46.666  27.695  30.769  1.00  0.00     0.049 A 
ATOM     62  H   UNL A   1      46.799  29.656  30.003  1.00  0.00     0.167 HD
ATOM     63  C   UNL A   1      44.240  28.260  30.854  1.00  0.00     0.074 A 
ATOM     64  C   UNL A   1      44.100  29.254  29.794  1.00  0.00     0.031 C 
ATOM     65  C   UNL A   1      45.335  27.596  31.332  1.00  0.00     0.037 A 
BRANCH  52  66
ATOM     66  C   UNL A   1      48.002  29.959  27.181  1.00  0.00     0.058 A 
ATOM     67  C   UNL A   1      49.273  30.564  27.198  1.00  0.00     0.135 A 
ATOM     68  C   UNL A   1      46.910  30.826  26.944  1.00  0.00     0.135 A 
ATOM     69  F   UNL A   1      50.373  29.834  27.435  1.00  0.00    -0.206 F 
ATOM     70  C   UNL A   1      49.439  31.941  27.050  1.00  0.00     0.059 A 
ATOM     71  C   UNL A   1      47.060  32.188  26.731  1.00  0.00     0.059 A 
ATOM     72  F   UNL A   1      45.639  30.413  27.013  1.00  0.00    -0.206 F 
ATOM     73  C   UNL A   1      48.322  32.745  26.832  1.00  0.00     0.060 A 
BRANCH  73  74
ATOM     74  S   UNL A   1      48.515  34.532  26.765  1.00  0.00     0.124 S 
ATOM     75  O   UNL A   1      48.790  34.738  25.348  1.00  0.00    -0.237 OA
ATOM     76  O   UNL A   1      47.217  34.997  27.242  1.00  0.00    -0.237 OA
ATOM     77  O   UNL A   1      49.634  34.783  27.668  1.00  0.00    -0.744 OA
ENDBRANCH  73  74
ENDBRANCH  52  66
BRANCH  53  78
ATOM     78  C   UNL A   1      39.831  28.038  29.068  1.00  0.00     0.058 A 
ATOM     79  C   UNL A   1      38.798  28.127  30.018  1.00  0.00     0.135 A 
ATOM     80  C   UNL A   1      39.630  28.752  27.867  1.00  0.00     0.135 A 
ATOM     81  F   UNL A   1      38.917  27.508  31.202  1.00  0.00    -0.206 F 
ATOM     82  C   UNL A   1      37.650  28.902  29.802  1.00  0.00     0.059 A 
ATOM     83  C   UNL A   1      38.491  29.518  27.625  1.00  0.00     0.059 A 
ATOM     84  F   UNL A   1      40.578  28.801  26.921  1.00  0.00    -0.206 F 
ATOM     85  C   UNL A   1      37.512  29.606  28.605  1.00  0.00     0.060 A 
BRANCH  85  86
ATOM     86  S   UNL A   1      36.109  30.724  28.380  1.00  0.00     0.124 S 
ATOM     87  O   UNL A   1      35.346  30.044  27.339  1.00  0.00    -0.237 OA
ATOM     88  O   UNL A   1      35.507  30.736  29.708  1.00  0.00    -0.237 OA
ATOM     89  O   UNL A   1      36.736  31.979  27.973  1.00  0.00    -0.744 OA
ENDBRANCH  85  86
ENDBRANCH  53  78
BRANCH  65  90
ATOM     90  C   UNL A   1      45.129  26.500  32.346  1.00  0.00     0.058 A 
ATOM     91  C   UNL A   1      44.844  25.164  32.012  1.00  0.00     0.135 A 
ATOM     92  C   UNL A   1      45.450  26.771  33.684  1.00  0.00     0.135 A 
ATOM     93  F   UNL A   1      44.622  24.805  30.740  1.00  0.00    -0.206 F 
ATOM     94  C   UNL A   1      44.865  24.146  32.969  1.00  0.00     0.059 A 
ATOM     95  C   UNL A   1      45.505  25.769  34.649  1.00  0.00     0.059 A 
ATOM     96  F   UNL A   1      45.791  28.017  34.052  1.00  0.00    -0.206 F 
ATOM     97  C   UNL A   1      45.210  24.458  34.285  1.00  0.00     0.060 A 
BRANCH  97  98
ATOM     98  S   UNL A   1      45.367  23.124  35.494  1.00  0.00     0.124 S 
ATOM     99  O   UNL A   1      44.582  22.058  34.880  1.00  0.00    -0.237 OA
ATOM    100  O   UNL A   1      46.810  22.903  35.541  1.00  0.00    -0.237 OA
ATOM    101  O   UNL A   1      44.795  23.697  36.711  1.00  0.00    -0.744 OA
ENDBRANCH  97  98
ENDBRANCH  65  90
ENDBRANCH  39  40
ENDBRANCH  32  34
ENDBRANCH  31  32
ENDBRANCH  30  31
ENDBRANCH  29  30
ENDBRANCH  28  29
ENDBRANCH  27  28
ENDBRANCH   1  27
TORSDOF 23
ENDMDL
