MODEL 1
REMARK VINA RESULT:      -9.0      0.000      0.000
REMARK SMILES CN(C)S(=O)(=O)c1cccc(-c2cc(Cl)cc(C(=O)OCCOCCOCCOC(=O)c3ccc(-c4c5nc(c(-c6c(F)cc(S(=O)(=O)[O-])cc6F)c6ccc([nH]6)c(-c6c(F)cc(S(=O)(=O)[O-])cc6F)c6nc(c(-c7c(F)cc(S(=O)(=O)[O-])cc7F)c7ccc4[nH]7)C=C6)C=C5)cc3)c2)c1
REMARK SMILES IDX 24 1 23 2 22 3 21 4 20 5 18 6 19 7 17 8 12 9 13 10 98 11
REMARK SMILES IDX 14 12 15 13 16 14 11 15 7 16 8 17 99 18 9 19 10 20 4 21 5 22
REMARK SMILES IDX 6 23 2 24 1 25 3 26 25 27 26 28 27 29 28 30 29 31 30 32
REMARK SMILES IDX 31 33 32 34 33 35 97 36 34 37 96 38 35 39 36 40 37 41 90 42
REMARK SMILES IDX 38 43 95 44 89 45 91 46 39 47 94 48 88 49 87 50 40 52 74 53
REMARK SMILES IDX 53 54 73 55 54 56 57 57 72 58 92 59 55 60 56 61 71 63 93 64
REMARK SMILES IDX 58 65 41 66 42 67 51 68 43 69 44 70 50 71 52 72 45 73 46 74
REMARK SMILES IDX 47 75 48 76 49 77 75 78 76 79 85 80 77 81 78 82 84 83 86 84
REMARK SMILES IDX 79 85 80 86 81 87 82 88 83 89 59 90 60 91 69 92 61 93 62 94
REMARK SMILES IDX 68 95 70 96 63 97 64 98 65 99 66 100 67 101
REMARK H PARENT 91 51 57 62
REMARK Flexibility Score: inf
ROOT
ATOM      1  C   UNL A   1      35.264  22.919  24.979  1.00  0.00     0.188 C 
ENDROOT
BRANCH   1   2
ATOM      2  O   UNL A   1      34.482  22.321  23.956  1.00  0.00    -0.376 OA
BRANCH   2   3
ATOM      3  C   UNL A   1      33.486  23.086  23.290  1.00  0.00     0.202 C 
BRANCH   3   4
ATOM      4  C   UNL A   1      32.376  23.748  24.113  1.00  0.00     0.261 C 
BRANCH   4   5
ATOM      5  O   UNL A   1      32.584  25.154  24.316  1.00  0.00    -0.460 OA
BRANCH   5   6
ATOM      6  C   UNL A   1      32.859  25.530  25.589  1.00  0.00     0.338 C 
ATOM      7  O   UNL A   1      33.226  24.817  26.507  1.00  0.00    -0.246 OA
BRANCH   6   8
ATOM      8  C   UNL A   1      32.814  27.003  25.679  1.00  0.00     0.062 A 
ATOM      9  C   UNL A   1      33.653  29.112  26.593  1.00  0.00    -0.016 A 
ATOM     10  C   UNL A   1      32.645  29.776  25.873  1.00  0.00     0.029 A 
ATOM     11  C   UNL A   1      33.700  27.706  26.502  1.00  0.00     0.024 A 
ATOM     12  C   UNL A   1      31.746  29.065  25.072  1.00  0.00     0.042 A 
ATOM     13  Cl  UNL A   1      30.502  29.908  24.235  1.00  0.00    -0.084 Cl
ATOM     14  C   UNL A   1      31.837  27.682  24.952  1.00  0.00     0.036 A 
BRANCH   9  15
ATOM     15  C   UNL A   1      34.650  29.843  27.404  1.00  0.00    -0.017 A 
ATOM     16  C   UNL A   1      35.424  31.938  28.391  1.00  0.00     0.083 A 
ATOM     17  C   UNL A   1      36.580  31.322  28.867  1.00  0.00     0.022 A 
ATOM     18  C   UNL A   1      34.464  31.206  27.687  1.00  0.00     0.030 A 
ATOM     19  C   UNL A   1      36.767  29.961  28.629  1.00  0.00     0.002 A 
ATOM     20  C   UNL A   1      35.817  29.233  27.899  1.00  0.00     0.009 A 
BRANCH  16  21
ATOM     21  S   UNL A   1      35.200  33.684  28.585  1.00  0.00     0.242 S 
ATOM     22  O   UNL A   1      34.634  34.215  27.365  1.00  0.00    -0.207 OA
ATOM     23  O   UNL A   1      36.437  34.219  29.123  1.00  0.00    -0.207 OA
BRANCH  21  24
ATOM     24  N   UNL A   1      33.995  33.826  29.797  1.00  0.00    -0.204 NA
ATOM     25  C   UNL A   1      34.498  33.378  31.118  1.00  0.00     0.124 C 
ATOM     26  C   UNL A   1      33.362  35.162  29.896  1.00  0.00     0.124 C 
ENDBRANCH  21  24
ENDBRANCH  16  21
ENDBRANCH   9  15
ENDBRANCH   6   8
ENDBRANCH   5   6
ENDBRANCH   4   5
ENDBRANCH   3   4
ENDBRANCH   2   3
ENDBRANCH   1   2
BRANCH   1  27
ATOM     27  C   UNL A   1      36.730  22.484  25.183  1.00  0.00     0.188 C 
BRANCH  27  28
ATOM     28  O   UNL A   1      37.510  23.239  26.075  1.00  0.00    -0.376 OA
BRANCH  28  29
ATOM     29  C   UNL A   1      38.877  22.953  26.299  1.00  0.00     0.202 C 
BRANCH  29  30
ATOM     30  C   UNL A   1      39.530  21.559  26.370  1.00  0.00     0.261 C 
BRANCH  30  31
ATOM     31  O   UNL A   1      40.626  21.274  25.505  1.00  0.00    -0.460 OA
BRANCH  31  32
ATOM     32  C   UNL A   1      41.722  20.744  26.099  1.00  0.00     0.338 C 
ATOM     33  O   UNL A   1      42.015  19.564  26.188  1.00  0.00    -0.246 OA
BRANCH  32  34
ATOM     34  C   UNL A   1      42.615  21.851  26.490  1.00  0.00     0.060 A 
ATOM     35  C   UNL A   1      43.058  21.916  27.816  1.00  0.00     0.016 A 
ATOM     36  C   UNL A   1      42.996  22.821  25.560  1.00  0.00     0.016 A 
ATOM     37  C   UNL A   1      43.868  22.976  28.224  1.00  0.00     0.010 A 
ATOM     38  C   UNL A   1      43.793  23.890  25.976  1.00  0.00     0.010 A 
ATOM     39  C   UNL A   1      44.210  23.987  27.315  1.00  0.00    -0.014 A 
BRANCH  39  40
ATOM     40  C   UNL A   1      44.878  25.219  27.800  1.00  0.00     0.031 A 
ATOM     41  C   UNL A   1      44.077  26.208  28.601  1.00  0.00     0.074 A 
ATOM     42  C   UNL A   1      46.176  25.450  27.540  1.00  0.00     0.049 A 
ATOM     43  N   UNL A   1      44.440  27.361  29.099  1.00  0.00    -0.248 NA
ATOM     44  C   UNL A   1      42.676  25.847  28.876  1.00  0.00     0.031 C 
ATOM     45  C   UNL A   1      47.064  24.557  26.797  1.00  0.00     0.029 A 
ATOM     46  N   UNL A   1      46.973  26.521  27.867  1.00  0.00    -0.354 N 
ATOM     47  C   UNL A   1      43.318  27.864  29.746  1.00  0.00     0.074 A 
ATOM     48  C   UNL A   1      42.252  26.905  29.552  1.00  0.00     0.031 C 
ATOM     49  C   UNL A   1      48.281  25.123  26.714  1.00  0.00     0.029 A 
ATOM     50  C   UNL A   1      48.251  26.427  27.373  1.00  0.00     0.049 A 
ATOM     51  H   UNL A   1      46.656  27.282  28.404  1.00  0.00     0.167 HD
ATOM     52  C   UNL A   1      43.190  29.015  30.446  1.00  0.00     0.037 A 
ATOM     53  C   UNL A   1      49.274  27.304  27.432  1.00  0.00     0.037 A 
ATOM     54  C   UNL A   1      44.251  29.971  30.631  1.00  0.00     0.049 A 
ATOM     55  C   UNL A   1      49.088  28.611  28.161  1.00  0.00     0.074 A 
ATOM     56  C   UNL A   1      44.223  31.160  31.339  1.00  0.00     0.029 A 
ATOM     57  N   UNL A   1      45.524  29.854  30.095  1.00  0.00    -0.354 N 
ATOM     58  N   UNL A   1      48.031  29.060  28.795  1.00  0.00    -0.248 NA
ATOM     59  C   UNL A   1      50.236  29.530  28.183  1.00  0.00     0.031 C 
ATOM     60  C   UNL A   1      45.468  31.784  31.194  1.00  0.00     0.029 A 
ATOM     61  C   UNL A   1      46.285  30.960  30.436  1.00  0.00     0.049 A 
ATOM     62  H   UNL A   1      45.841  29.096  29.552  1.00  0.00     0.167 HD
ATOM     63  C   UNL A   1      48.395  30.299  29.313  1.00  0.00     0.074 A 
ATOM     64  C   UNL A   1      49.773  30.525  28.927  1.00  0.00     0.031 C 
ATOM     65  C   UNL A   1      47.658  31.170  30.047  1.00  0.00     0.037 A 
BRANCH  52  66
ATOM     66  C   UNL A   1      41.845  29.314  31.047  1.00  0.00     0.058 A 
ATOM     67  C   UNL A   1      40.847  29.983  30.321  1.00  0.00     0.135 A 
ATOM     68  C   UNL A   1      41.542  28.906  32.355  1.00  0.00     0.135 A 
ATOM     69  F   UNL A   1      41.091  30.412  29.072  1.00  0.00    -0.206 F 
ATOM     70  C   UNL A   1      39.603  30.258  30.880  1.00  0.00     0.059 A 
ATOM     71  C   UNL A   1      40.298  29.149  32.926  1.00  0.00     0.059 A 
ATOM     72  F   UNL A   1      42.463  28.267  33.094  1.00  0.00    -0.206 F 
ATOM     73  C   UNL A   1      39.339  29.838  32.186  1.00  0.00     0.060 A 
BRANCH  73  74
ATOM     74  S   UNL A   1      37.720  30.202  32.898  1.00  0.00     0.124 S 
ATOM     75  O   UNL A   1      36.877  29.225  32.215  1.00  0.00    -0.237 OA
ATOM     76  O   UNL A   1      37.943  29.962  34.320  1.00  0.00    -0.237 OA
ATOM     77  O   UNL A   1      37.491  31.595  32.528  1.00  0.00    -0.744 OA
ENDBRANCH  73  74
ENDBRANCH  52  66
BRANCH  53  78
ATOM     78  C   UNL A   1      50.568  26.983  26.772  1.00  0.00     0.058 A 
ATOM     79  C   UNL A   1      50.795  27.303  25.426  1.00  0.00     0.135 A 
ATOM     80  C   UNL A   1      51.601  26.342  27.475  1.00  0.00     0.135 A 
ATOM     81  F   UNL A   1      49.833  27.904  24.709  1.00  0.00    -0.206 F 
ATOM     82  C   UNL A   1      51.994  26.989  24.794  1.00  0.00     0.059 A 
ATOM     83  C   UNL A   1      52.817  26.038  26.872  1.00  0.00     0.059 A 
ATOM     84  F   UNL A   1      51.436  26.019  28.768  1.00  0.00    -0.206 F 
ATOM     85  C   UNL A   1      53.001  26.357  25.527  1.00  0.00     0.060 A 
BRANCH  85  86
ATOM     86  S   UNL A   1      54.569  25.990  24.709  1.00  0.00     0.124 S 
ATOM     87  O   UNL A   1      54.764  24.590  25.062  1.00  0.00    -0.237 OA
ATOM     88  O   UNL A   1      54.255  26.258  23.309  1.00  0.00    -0.237 OA
ATOM     89  O   UNL A   1      55.497  26.934  25.326  1.00  0.00    -0.744 OA
ENDBRANCH  85  86
ENDBRANCH  53  78
BRANCH  65  90
ATOM     90  C   UNL A   1      48.330  32.435  30.508  1.00  0.00     0.058 A 
ATOM     91  C   UNL A   1      48.987  32.511  31.746  1.00  0.00     0.135 A 
ATOM     92  C   UNL A   1      48.360  33.568  29.679  1.00  0.00     0.135 A 
ATOM     93  F   UNL A   1      48.985  31.459  32.579  1.00  0.00    -0.206 F 
ATOM     94  C   UNL A   1      49.631  33.675  32.156  1.00  0.00     0.059 A 
ATOM     95  C   UNL A   1      49.020  34.733  30.057  1.00  0.00     0.059 A 
ATOM     96  F   UNL A   1      47.758  33.544  28.479  1.00  0.00    -0.206 F 
ATOM     97  C   UNL A   1      49.642  34.782  31.304  1.00  0.00     0.060 A 
BRANCH  97  98
ATOM     98  S   UNL A   1      50.507  36.277  31.833  1.00  0.00     0.124 S 
ATOM     99  O   UNL A   1      51.003  36.794  30.561  1.00  0.00    -0.237 OA
ATOM    100  O   UNL A   1      49.442  37.051  32.460  1.00  0.00    -0.237 OA
ATOM    101  O   UNL A   1      51.528  35.773  32.746  1.00  0.00    -0.744 OA
ENDBRANCH  97  98
ENDBRANCH  65  90
ENDBRANCH  39  40
ENDBRANCH  32  34
ENDBRANCH  31  32
ENDBRANCH  30  31
ENDBRANCH  29  30
ENDBRANCH  28  29
ENDBRANCH  27  28
ENDBRANCH   1  27
TORSDOF 23
ENDMDL
MODEL 2
REMARK VINA RESULT:      -8.8      0.800      7.934
REMARK SMILES CN(C)S(=O)(=O)c1cccc(-c2cc(Cl)cc(C(=O)OCCOCCOCCOC(=O)c3ccc(-c4c5nc(c(-c6c(F)cc(S(=O)(=O)[O-])cc6F)c6ccc([nH]6)c(-c6c(F)cc(S(=O)(=O)[O-])cc6F)c6nc(c(-c7c(F)cc(S(=O)(=O)[O-])cc7F)c7ccc4[nH]7)C=C6)C=C5)cc3)c2)c1
REMARK SMILES IDX 24 1 23 2 22 3 21 4 20 5 18 6 19 7 17 8 12 9 13 10 98 11
REMARK SMILES IDX 14 12 15 13 16 14 11 15 7 16 8 17 99 18 9 19 10 20 4 21 5 22
REMARK SMILES IDX 6 23 2 24 1 25 3 26 25 27 26 28 27 29 28 30 29 31 30 32
REMARK SMILES IDX 31 33 32 34 33 35 97 36 34 37 96 38 35 39 36 40 37 41 90 42
REMARK SMILES IDX 38 43 95 44 89 45 91 46 39 47 94 48 88 49 87 50 40 52 74 53
REMARK SMILES IDX 53 54 73 55 54 56 57 57 72 58 92 59 55 60 56 61 71 63 93 64
REMARK SMILES IDX 58 65 41 66 42 67 51 68 43 69 44 70 50 71 52 72 45 73 46 74
REMARK SMILES IDX 47 75 48 76 49 77 75 78 76 79 85 80 77 81 78 82 84 83 86 84
REMARK SMILES IDX 79 85 80 86 81 87 82 88 83 89 59 90 60 91 69 92 61 93 62 94
REMARK SMILES IDX 68 95 70 96 63 97 64 98 65 99 66 100 67 101
REMARK H PARENT 91 51 57 62
REMARK Flexibility Score: inf
ROOT
ATOM      1  C   UNL A   1      35.097  22.032  24.409  1.00  0.00     0.188 C 
ENDROOT
BRANCH   1   2
ATOM      2  O   UNL A   1      34.707  22.497  23.124  1.00  0.00    -0.376 OA
BRANCH   2   3
ATOM      3  C   UNL A   1      34.103  23.776  22.990  1.00  0.00     0.202 C 
BRANCH   3   4
ATOM      4  C   UNL A   1      33.009  24.195  23.977  1.00  0.00     0.261 C 
BRANCH   4   5
ATOM      5  O   UNL A   1      33.358  25.352  24.751  1.00  0.00    -0.460 OA
BRANCH   5   6
ATOM      6  C   UNL A   1      32.417  25.778  25.629  1.00  0.00     0.338 C 
ATOM      7  O   UNL A   1      31.726  25.093  26.362  1.00  0.00    -0.246 OA
BRANCH   6   8
ATOM      8  C   UNL A   1      32.456  27.253  25.704  1.00  0.00     0.062 A 
ATOM      9  C   UNL A   1      33.439  29.321  26.567  1.00  0.00    -0.016 A 
ATOM     10  C   UNL A   1      32.448  30.032  25.870  1.00  0.00     0.029 A 
ATOM     11  C   UNL A   1      33.405  27.913  26.491  1.00  0.00     0.024 A 
ATOM     12  C   UNL A   1      31.486  29.364  25.105  1.00  0.00     0.042 A 
ATOM     13  Cl  UNL A   1      30.266  30.268  24.296  1.00  0.00    -0.084 Cl
ATOM     14  C   UNL A   1      31.496  27.978  24.999  1.00  0.00     0.036 A 
BRANCH   9  15
ATOM     15  C   UNL A   1      34.500  30.002  27.338  1.00  0.00    -0.017 A 
ATOM     16  C   UNL A   1      35.373  32.043  28.356  1.00  0.00     0.083 A 
ATOM     17  C   UNL A   1      36.548  31.392  28.728  1.00  0.00     0.022 A 
ATOM     18  C   UNL A   1      34.356  31.355  27.688  1.00  0.00     0.030 A 
ATOM     19  C   UNL A   1      36.695  30.039  28.423  1.00  0.00     0.002 A 
ATOM     20  C   UNL A   1      35.686  29.356  27.729  1.00  0.00     0.009 A 
BRANCH  16  21
ATOM     21  S   UNL A   1      35.192  33.783  28.635  1.00  0.00     0.242 S 
ATOM     22  O   UNL A   1      34.603  34.380  27.458  1.00  0.00    -0.207 OA
ATOM     23  O   UNL A   1      36.456  34.267  29.160  1.00  0.00    -0.207 OA
BRANCH  21  24
ATOM     24  N   UNL A   1      34.027  33.894  29.888  1.00  0.00    -0.204 NA
ATOM     25  C   UNL A   1      34.593  33.477  31.195  1.00  0.00     0.124 C 
ATOM     26  C   UNL A   1      33.349  35.206  29.998  1.00  0.00     0.124 C 
ENDBRANCH  21  24
ENDBRANCH  16  21
ENDBRANCH   9  15
ENDBRANCH   6   8
ENDBRANCH   5   6
ENDBRANCH   4   5
ENDBRANCH   3   4
ENDBRANCH   2   3
ENDBRANCH   1   2
BRANCH   1  27
ATOM     27  C   UNL A   1      36.492  21.406  24.612  1.00  0.00     0.188 C 
BRANCH  27  28
ATOM     28  O   UNL A   1      37.213  21.794  25.755  1.00  0.00    -0.376 OA
BRANCH  28  29
ATOM     29  C   UNL A   1      38.626  21.853  25.760  1.00  0.00     0.202 C 
BRANCH  29  30
ATOM     30  C   UNL A   1      39.597  20.744  26.210  1.00  0.00     0.261 C 
BRANCH  30  31
ATOM     31  O   UNL A   1      40.993  20.932  25.999  1.00  0.00    -0.460 OA
BRANCH  31  32
ATOM     32  C   UNL A   1      41.789  20.678  27.066  1.00  0.00     0.338 C 
ATOM     33  O   UNL A   1      41.954  19.608  27.625  1.00  0.00    -0.246 OA
BRANCH  32  34
ATOM     34  C   UNL A   1      42.573  21.893  27.354  1.00  0.00     0.060 A 
ATOM     35  C   UNL A   1      43.029  22.100  28.661  1.00  0.00     0.016 A 
ATOM     36  C   UNL A   1      42.840  22.824  26.348  1.00  0.00     0.016 A 
ATOM     37  C   UNL A   1      43.737  23.261  28.973  1.00  0.00     0.010 A 
ATOM     38  C   UNL A   1      43.534  23.994  26.667  1.00  0.00     0.010 A 
ATOM     39  C   UNL A   1      43.962  24.230  27.985  1.00  0.00    -0.014 A 
BRANCH  39  40
ATOM     40  C   UNL A   1      44.512  25.554  28.364  1.00  0.00     0.031 A 
ATOM     41  C   UNL A   1      45.961  25.843  28.080  1.00  0.00     0.074 A 
ATOM     42  C   UNL A   1      43.736  26.487  28.942  1.00  0.00     0.049 A 
ATOM     43  N   UNL A   1      46.662  26.913  28.349  1.00  0.00    -0.248 NA
ATOM     44  C   UNL A   1      46.721  24.779  27.402  1.00  0.00     0.031 C 
ATOM     45  C   UNL A   1      42.313  26.336  29.244  1.00  0.00     0.029 A 
ATOM     46  N   UNL A   1      44.043  27.749  29.388  1.00  0.00    -0.354 N 
ATOM     47  C   UNL A   1      47.942  26.656  27.875  1.00  0.00     0.074 A 
ATOM     48  C   UNL A   1      47.930  25.316  27.328  1.00  0.00     0.031 C 
ATOM     49  C   UNL A   1      41.873  27.459  29.838  1.00  0.00     0.029 A 
ATOM     50  C   UNL A   1      42.986  28.396  29.982  1.00  0.00     0.049 A 
ATOM     51  H   UNL A   1      44.935  28.152  29.291  1.00  0.00     0.167 HD
ATOM     52  C   UNL A   1      49.027  27.465  27.885  1.00  0.00     0.037 A 
ATOM     53  C   UNL A   1      42.930  29.598  30.589  1.00  0.00     0.037 A 
ATOM     54  C   UNL A   1      49.039  28.796  28.437  1.00  0.00     0.049 A 
ATOM     55  C   UNL A   1      44.169  30.457  30.648  1.00  0.00     0.074 A 
ATOM     56  C   UNL A   1      50.085  29.700  28.479  1.00  0.00     0.029 A 
ATOM     57  N   UNL A   1      47.956  29.406  29.053  1.00  0.00    -0.354 N 
ATOM     58  N   UNL A   1      45.366  30.214  30.167  1.00  0.00    -0.248 NA
ATOM     59  C   UNL A   1      44.049  31.753  31.330  1.00  0.00     0.031 C 
ATOM     60  C   UNL A   1      49.648  30.842  29.161  1.00  0.00     0.029 A 
ATOM     61  C   UNL A   1      48.316  30.667  29.500  1.00  0.00     0.049 A 
ATOM     62  H   UNL A   1      47.064  29.003  29.156  1.00  0.00     0.167 HD
ATOM     63  C   UNL A   1      46.131  31.337  30.465  1.00  0.00     0.074 A 
ATOM     64  C   UNL A   1      45.261  32.263  31.159  1.00  0.00     0.031 C 
ATOM     65  C   UNL A   1      47.437  31.581  30.187  1.00  0.00     0.037 A 
BRANCH  52  66
ATOM     66  C   UNL A   1      50.301  26.923  27.300  1.00  0.00     0.058 A 
ATOM     67  C   UNL A   1      51.281  26.319  28.102  1.00  0.00     0.135 A 
ATOM     68  C   UNL A   1      50.534  26.988  25.917  1.00  0.00     0.135 A 
ATOM     69  F   UNL A   1      51.118  26.249  29.433  1.00  0.00    -0.206 F 
ATOM     70  C   UNL A   1      52.459  25.818  27.557  1.00  0.00     0.059 A 
ATOM     71  C   UNL A   1      51.692  26.472  25.347  1.00  0.00     0.059 A 
ATOM     72  F   UNL A   1      49.630  27.559  25.106  1.00  0.00    -0.206 F 
ATOM     73  C   UNL A   1      52.656  25.901  26.177  1.00  0.00     0.060 A 
BRANCH  73  74
ATOM     74  S   UNL A   1      54.189  25.247  25.484  1.00  0.00     0.124 S 
ATOM     75  O   UNL A   1      53.683  24.415  24.395  1.00  0.00    -0.237 OA
ATOM     76  O   UNL A   1      54.893  26.460  25.078  1.00  0.00    -0.237 OA
ATOM     77  O   UNL A   1      54.786  24.522  26.601  1.00  0.00    -0.744 OA
ENDBRANCH  73  74
ENDBRANCH  52  66
BRANCH  53  78
ATOM     78  C   UNL A   1      41.658  30.064  31.202  1.00  0.00     0.058 A 
ATOM     79  C   UNL A   1      40.724  30.804  30.462  1.00  0.00     0.135 A 
ATOM     80  C   UNL A   1      41.355  29.785  32.544  1.00  0.00     0.135 A 
ATOM     81  F   UNL A   1      40.975  31.108  29.180  1.00  0.00    -0.206 F 
ATOM     82  C   UNL A   1      39.541  31.262  31.033  1.00  0.00     0.059 A 
ATOM     83  C   UNL A   1      40.168  30.211  33.131  1.00  0.00     0.059 A 
ATOM     84  F   UNL A   1      42.213  29.074  33.294  1.00  0.00    -0.206 F 
ATOM     85  C   UNL A   1      39.271  30.958  32.369  1.00  0.00     0.060 A 
BRANCH  85  86
ATOM     86  S   UNL A   1      37.713  31.523  33.088  1.00  0.00     0.124 S 
ATOM     87  O   UNL A   1      37.726  32.939  32.744  1.00  0.00    -0.237 OA
ATOM     88  O   UNL A   1      36.733  30.703  32.381  1.00  0.00    -0.237 OA
ATOM     89  O   UNL A   1      37.869  31.215  34.507  1.00  0.00    -0.744 OA
ENDBRANCH  85  86
ENDBRANCH  53  78
BRANCH  65  90
ATOM     90  C   UNL A   1      47.999  32.913  30.602  1.00  0.00     0.058 A 
ATOM     91  C   UNL A   1      48.625  33.094  31.845  1.00  0.00     0.135 A 
ATOM     92  C   UNL A   1      47.958  34.008  29.723  1.00  0.00     0.135 A 
ATOM     93  F   UNL A   1      48.689  32.082  32.724  1.00  0.00    -0.206 F 
ATOM     94  C   UNL A   1      49.169  34.322  32.212  1.00  0.00     0.059 A 
ATOM     95  C   UNL A   1      48.518  35.237  30.059  1.00  0.00     0.059 A 
ATOM     96  F   UNL A   1      47.382  33.885  28.517  1.00  0.00    -0.206 F 
ATOM     97  C   UNL A   1      49.111  35.388  31.312  1.00  0.00     0.060 A 
BRANCH  97  98
ATOM     98  S   UNL A   1      49.847  36.968  31.787  1.00  0.00     0.124 S 
ATOM     99  O   UNL A   1      51.271  36.686  31.630  1.00  0.00    -0.237 OA
ATOM    100  O   UNL A   1      49.272  37.888  30.812  1.00  0.00    -0.237 OA
ATOM    101  O   UNL A   1      49.392  37.155  33.161  1.00  0.00    -0.744 OA
ENDBRANCH  97  98
ENDBRANCH  65  90
ENDBRANCH  39  40
ENDBRANCH  32  34
ENDBRANCH  31  32
ENDBRANCH  30  31
ENDBRANCH  29  30
ENDBRANCH  28  29
ENDBRANCH  27  28
ENDBRANCH   1  27
TORSDOF 23
ENDMDL
MODEL 3
REMARK VINA RESULT:      -8.7      4.899      9.191
REMARK SMILES CN(C)S(=O)(=O)c1cccc(-c2cc(Cl)cc(C(=O)OCCOCCOCCOC(=O)c3ccc(-c4c5nc(c(-c6c(F)cc(S(=O)(=O)[O-])cc6F)c6ccc([nH]6)c(-c6c(F)cc(S(=O)(=O)[O-])cc6F)c6nc(c(-c7c(F)cc(S(=O)(=O)[O-])cc7F)c7ccc4[nH]7)C=C6)C=C5)cc3)c2)c1
REMARK SMILES IDX 24 1 23 2 22 3 21 4 20 5 18 6 19 7 17 8 12 9 13 10 98 11
REMARK SMILES IDX 14 12 15 13 16 14 11 15 7 16 8 17 99 18 9 19 10 20 4 21 5 22
REMARK SMILES IDX 6 23 2 24 1 25 3 26 25 27 26 28 27 29 28 30 29 31 30 32
REMARK SMILES IDX 31 33 32 34 33 35 97 36 34 37 96 38 35 39 36 40 37 41 90 42
REMARK SMILES IDX 38 43 95 44 89 45 91 46 39 47 94 48 88 49 87 50 40 52 74 53
REMARK SMILES IDX 53 54 73 55 54 56 57 57 72 58 92 59 55 60 56 61 71 63 93 64
REMARK SMILES IDX 58 65 41 66 42 67 51 68 43 69 44 70 50 71 52 72 45 73 46 74
REMARK SMILES IDX 47 75 48 76 49 77 75 78 76 79 85 80 77 81 78 82 84 83 86 84
REMARK SMILES IDX 79 85 80 86 81 87 82 88 83 89 59 90 60 91 69 92 61 93 62 94
REMARK SMILES IDX 68 95 70 96 63 97 64 98 65 99 66 100 67 101
REMARK H PARENT 91 51 57 62
REMARK Flexibility Score: inf
ROOT
ATOM      1  C   UNL A   1      33.946  33.343  28.406  1.00  0.00     0.188 C 
ENDROOT
BRANCH   1   2
ATOM      2  O   UNL A   1      35.276  33.673  28.032  1.00  0.00    -0.376 OA
BRANCH   2   3
ATOM      3  C   UNL A   1      36.283  33.778  29.030  1.00  0.00     0.202 C 
BRANCH   3   4
ATOM      4  C   UNL A   1      37.750  33.898  28.604  1.00  0.00     0.261 C 
BRANCH   4   5
ATOM      5  O   UNL A   1      38.668  33.423  29.600  1.00  0.00    -0.460 OA
BRANCH   5   6
ATOM      6  C   UNL A   1      39.369  34.380  30.256  1.00  0.00     0.338 C 
ATOM      7  O   UNL A   1      39.043  34.971  31.271  1.00  0.00    -0.246 OA
BRANCH   6   8
ATOM      8  C   UNL A   1      40.710  34.500  29.648  1.00  0.00     0.062 A 
ATOM      9  C   UNL A   1      42.956  33.619  29.242  1.00  0.00    -0.016 A 
ATOM     10  C   UNL A   1      43.247  34.802  28.542  1.00  0.00     0.029 A 
ATOM     11  C   UNL A   1      41.675  33.502  29.817  1.00  0.00     0.024 A 
ATOM     12  C   UNL A   1      42.287  35.808  28.398  1.00  0.00     0.042 A 
ATOM     13  Cl  UNL A   1      42.692  37.258  27.566  1.00  0.00    -0.084 Cl
ATOM     14  C   UNL A   1      41.010  35.656  28.928  1.00  0.00     0.036 A 
BRANCH   9  15
ATOM     15  C   UNL A   1      43.934  32.516  29.363  1.00  0.00    -0.017 A 
ATOM     16  C   UNL A   1      44.930  30.485  28.444  1.00  0.00     0.083 A 
ATOM     17  C   UNL A   1      45.718  30.320  29.581  1.00  0.00     0.022 A 
ATOM     18  C   UNL A   1      44.065  31.576  28.326  1.00  0.00     0.030 A 
ATOM     19  C   UNL A   1      45.630  31.262  30.606  1.00  0.00     0.002 A 
ATOM     20  C   UNL A   1      44.742  32.342  30.500  1.00  0.00     0.009 A 
BRANCH  16  21
ATOM     21  S   UNL A   1      44.940  29.257  27.167  1.00  0.00     0.242 S 
ATOM     22  O   UNL A   1      43.683  29.322  26.456  1.00  0.00    -0.207 OA
ATOM     23  O   UNL A   1      45.388  28.015  27.770  1.00  0.00    -0.207 OA
BRANCH  21  24
ATOM     24  N   UNL A   1      46.156  29.782  26.080  1.00  0.00    -0.204 NA
ATOM     25  C   UNL A   1      46.825  31.014  26.567  1.00  0.00     0.124 C 
ATOM     26  C   UNL A   1      47.152  28.750  25.709  1.00  0.00     0.124 C 
ENDBRANCH  21  24
ENDBRANCH  16  21
ENDBRANCH   9  15
ENDBRANCH   6   8
ENDBRANCH   5   6
ENDBRANCH   4   5
ENDBRANCH   3   4
ENDBRANCH   2   3
ENDBRANCH   1   2
BRANCH   1  27
ATOM     27  C   UNL A   1      32.755  33.948  27.633  1.00  0.00     0.188 C 
BRANCH  27  28
ATOM     28  O   UNL A   1      31.681  33.094  27.330  1.00  0.00    -0.376 OA
BRANCH  28  29
ATOM     29  C   UNL A   1      31.867  31.886  26.616  1.00  0.00     0.202 C 
BRANCH  29  30
ATOM     30  C   UNL A   1      32.223  30.509  27.207  1.00  0.00     0.261 C 
BRANCH  30  31
ATOM     31  O   UNL A   1      33.519  30.322  27.769  1.00  0.00    -0.460 OA
BRANCH  31  32
ATOM     32  C   UNL A   1      34.415  29.680  26.982  1.00  0.00     0.338 C 
ATOM     33  O   UNL A   1      34.269  29.346  25.819  1.00  0.00    -0.246 OA
BRANCH  32  34
ATOM     34  C   UNL A   1      35.692  29.591  27.715  1.00  0.00     0.060 A 
ATOM     35  C   UNL A   1      36.880  29.845  27.021  1.00  0.00     0.016 A 
ATOM     36  C   UNL A   1      35.714  29.243  29.068  1.00  0.00     0.016 A 
ATOM     37  C   UNL A   1      38.105  29.726  27.678  1.00  0.00     0.010 A 
ATOM     38  C   UNL A   1      36.943  29.108  29.718  1.00  0.00     0.010 A 
ATOM     39  C   UNL A   1      38.144  29.322  29.020  1.00  0.00    -0.014 A 
BRANCH  39  40
ATOM     40  C   UNL A   1      39.442  28.980  29.650  1.00  0.00     0.031 A 
ATOM     41  C   UNL A   1      39.942  29.832  30.785  1.00  0.00     0.074 A 
ATOM     42  C   UNL A   1      40.160  27.926  29.226  1.00  0.00     0.049 A 
ATOM     43  N   UNL A   1      41.055  29.740  31.463  1.00  0.00    -0.248 NA
ATOM     44  C   UNL A   1      39.066  30.936  31.211  1.00  0.00     0.031 C 
ATOM     45  C   UNL A   1      39.771  27.011  28.154  1.00  0.00     0.029 A 
ATOM     46  N   UNL A   1      41.380  27.453  29.646  1.00  0.00    -0.354 N 
ATOM     47  C   UNL A   1      41.017  30.770  32.395  1.00  0.00     0.074 A 
ATOM     48  C   UNL A   1      39.783  31.493  32.176  1.00  0.00     0.031 C 
ATOM     49  C   UNL A   1      40.740  26.094  27.991  1.00  0.00     0.029 A 
ATOM     50  C   UNL A   1      41.828  26.372  28.927  1.00  0.00     0.049 A 
ATOM     51  H   UNL A   1      41.884  27.852  30.390  1.00  0.00     0.167 HD
ATOM     52  C   UNL A   1      41.922  31.080  33.352  1.00  0.00     0.037 A 
ATOM     53  C   UNL A   1      42.992  25.695  29.005  1.00  0.00     0.037 A 
ATOM     54  C   UNL A   1      43.154  30.363  33.563  1.00  0.00     0.049 A 
ATOM     55  C   UNL A   1      44.016  26.100  30.036  1.00  0.00     0.074 A 
ATOM     56  C   UNL A   1      44.128  30.591  34.519  1.00  0.00     0.029 A 
ATOM     57  N   UNL A   1      43.584  29.289  32.799  1.00  0.00    -0.354 N 
ATOM     58  N   UNL A   1      43.953  27.056  30.932  1.00  0.00    -0.248 NA
ATOM     59  C   UNL A   1      45.269  25.332  30.067  1.00  0.00     0.031 C 
ATOM     60  C   UNL A   1      45.171  29.681  34.304  1.00  0.00     0.029 A 
ATOM     61  C   UNL A   1      44.822  28.857  33.247  1.00  0.00     0.049 A 
ATOM     62  H   UNL A   1      43.084  28.892  32.050  1.00  0.00     0.167 HD
ATOM     63  C   UNL A   1      45.143  26.987  31.649  1.00  0.00     0.074 A 
ATOM     64  C   UNL A   1      45.904  25.889  31.090  1.00  0.00     0.031 C 
ATOM     65  C   UNL A   1      45.568  27.759  32.681  1.00  0.00     0.037 A 
BRANCH  52  66
ATOM     66  C   UNL A   1      41.623  32.261  34.232  1.00  0.00     0.058 A 
ATOM     67  C   UNL A   1      42.110  33.543  33.934  1.00  0.00     0.135 A 
ATOM     68  C   UNL A   1      40.820  32.114  35.374  1.00  0.00     0.135 A 
ATOM     69  F   UNL A   1      42.899  33.736  32.864  1.00  0.00    -0.206 F 
ATOM     70  C   UNL A   1      41.831  34.634  34.750  1.00  0.00     0.059 A 
ATOM     71  C   UNL A   1      40.508  33.195  36.191  1.00  0.00     0.059 A 
ATOM     72  F   UNL A   1      40.332  30.909  35.706  1.00  0.00    -0.206 F 
ATOM     73  C   UNL A   1      41.030  34.449  35.879  1.00  0.00     0.060 A 
BRANCH  73  74
ATOM     74  S   UNL A   1      40.676  35.875  36.929  1.00  0.00     0.124 S 
ATOM     75  O   UNL A   1      40.293  35.226  38.180  1.00  0.00    -0.237 OA
ATOM     76  O   UNL A   1      41.955  36.577  36.946  1.00  0.00    -0.237 OA
ATOM     77  O   UNL A   1      39.597  36.558  36.222  1.00  0.00    -0.744 OA
ENDBRANCH  73  74
ENDBRANCH  52  66
BRANCH  53  78
ATOM     78  C   UNL A   1      43.262  24.568  28.073  1.00  0.00     0.058 A 
ATOM     79  C   UNL A   1      43.663  24.802  26.750  1.00  0.00     0.135 A 
ATOM     80  C   UNL A   1      43.117  23.235  28.486  1.00  0.00     0.135 A 
ATOM     81  F   UNL A   1      43.803  26.060  26.304  1.00  0.00    -0.206 F 
ATOM     82  C   UNL A   1      43.899  23.755  25.864  1.00  0.00     0.059 A 
ATOM     83  C   UNL A   1      43.368  22.170  27.627  1.00  0.00     0.059 A 
ATOM     84  F   UNL A   1      42.741  22.957  29.746  1.00  0.00    -0.206 F 
ATOM     85  C   UNL A   1      43.750  22.441  26.313  1.00  0.00     0.060 A 
BRANCH  85  86
ATOM     86  S   UNL A   1      44.097  21.089  25.167  1.00  0.00     0.124 S 
ATOM     87  O   UNL A   1      45.345  20.561  25.705  1.00  0.00    -0.237 OA
ATOM     88  O   UNL A   1      42.922  20.239  25.329  1.00  0.00    -0.237 OA
ATOM     89  O   UNL A   1      44.201  21.763  23.876  1.00  0.00    -0.744 OA
ENDBRANCH  85  86
ENDBRANCH  53  78
BRANCH  65  90
ATOM     90  C   UNL A   1      46.901  27.429  33.296  1.00  0.00     0.058 A 
ATOM     91  C   UNL A   1      47.021  26.501  34.342  1.00  0.00     0.135 A 
ATOM     92  C   UNL A   1      48.078  28.009  32.796  1.00  0.00     0.135 A 
ATOM     93  F   UNL A   1      45.927  25.920  34.859  1.00  0.00    -0.206 F 
ATOM     94  C   UNL A   1      48.260  26.179  34.888  1.00  0.00     0.059 A 
ATOM     95  C   UNL A   1      49.329  27.682  33.309  1.00  0.00     0.059 A 
ATOM     96  F   UNL A   1      48.020  28.893  31.787  1.00  0.00    -0.206 F 
ATOM     97  C   UNL A   1      49.409  26.775  34.365  1.00  0.00     0.060 A 
BRANCH  97  98
ATOM     98  S   UNL A   1      51.015  26.325  35.060  1.00  0.00     0.124 S 
ATOM     99  O   UNL A   1      51.466  25.305  34.119  1.00  0.00    -0.237 OA
ATOM    100  O   UNL A   1      51.740  27.591  35.019  1.00  0.00    -0.237 OA
ATOM    101  O   UNL A   1      50.682  25.844  36.397  1.00  0.00    -0.744 OA
ENDBRANCH  97  98
ENDBRANCH  65  90
ENDBRANCH  39  40
ENDBRANCH  32  34
ENDBRANCH  31  32
ENDBRANCH  30  31
ENDBRANCH  29  30
ENDBRANCH  28  29
ENDBRANCH  27  28
ENDBRANCH   1  27
TORSDOF 23
ENDMDL
