MODEL 1
REMARK VINA RESULT:     -10.4      0.000      0.000
REMARK SMILES Cc1ccc(NC(=O)C[C@H]([NH2+]Cc2cccnc2)C(=O)OCCOCCOCCOC(=O)c2ccc(-c3c4nc(c(-c5c(F)cc(S(=O)(=O)[O-])cc5F)c5ccc([nH]5)c(-c5c(F)cc(S(=O)(=O)[O-])cc5F)c5nc(c(-c6c(F)cc(S(=O)(=O)[O-])cc6F)c6ccc3[nH]6)C=C5)C=C4)cc2)cc1Cl
REMARK SMILES IDX 25 1 24 2 23 3 22 4 21 5 19 6 20 7 10 8 9 9 7 10 6 11 8 13
REMARK SMILES IDX 5 14 1 15 2 16 3 17 100 18 4 19 99 20 101 21 11 22 12 25
REMARK SMILES IDX 13 26 14 27 18 28 15 29 17 30 16 31 26 32 27 33 28 34 29 35
REMARK SMILES IDX 30 36 31 37 32 38 33 39 34 40 98 41 35 42 97 43 36 44 37 45
REMARK SMILES IDX 38 46 91 47 39 48 96 49 90 50 92 51 40 52 95 53 89 54 88 55
REMARK SMILES IDX 41 57 75 58 54 59 74 60 55 61 58 62 73 63 93 64 56 65 57 66
REMARK SMILES IDX 72 68 94 69 59 70 42 71 43 72 52 73 44 74 45 75 51 76 53 77
REMARK SMILES IDX 46 78 47 79 48 80 49 81 50 82 76 83 77 84 86 85 78 86 79 87
REMARK SMILES IDX 85 88 87 89 80 90 81 91 82 92 83 93 84 94 60 95 61 96 70 97
REMARK SMILES IDX 62 98 63 99 69 100 71 101 64 102 65 103 66 104 67 105 68 106
REMARK H PARENT 6 12 11 23 11 24 92 56 58 67
REMARK Flexibility Score: inf
ROOT
ATOM      1  C   UNL A   1      31.081  29.208  24.538  1.00  0.00     0.188 C 
ENDROOT
BRANCH   1   2
ATOM      2  O   UNL A   1      31.361  28.967  23.166  1.00  0.00    -0.376 OA
BRANCH   2   3
ATOM      3  C   UNL A   1      32.694  28.728  22.749  1.00  0.00     0.202 C 
BRANCH   3   4
ATOM      4  C   UNL A   1      33.171  27.271  22.631  1.00  0.00     0.261 C 
BRANCH   4   5
ATOM      5  O   UNL A   1      33.867  26.660  23.745  1.00  0.00    -0.459 OA
BRANCH   5   6
ATOM      6  C   UNL A   1      33.145  25.840  24.565  1.00  0.00     0.365 C 
ATOM      7  O   UNL A   1      32.356  26.248  25.409  1.00  0.00    -0.245 OA
BRANCH   6   8
ATOM      8  C   UNL A   1      33.505  24.330  24.433  1.00  0.00     0.303 C 
BRANCH   8   9
ATOM      9  C   UNL A   1      33.174  23.641  25.749  1.00  0.00     0.177 C 
BRANCH   9  10
ATOM     10  C   UNL A   1      32.032  22.681  26.064  1.00  0.00     0.231 C 
ATOM     11  N   UNL A   1      31.738  21.435  25.630  1.00  0.00    -0.326 N 
ATOM     12  H   UNL A   1      30.792  21.235  25.816  1.00  0.00     0.169 HD
ATOM     13  O   UNL A   1      31.093  23.186  26.714  1.00  0.00    -0.274 OA
BRANCH  11  14
ATOM     14  C   UNL A   1      32.336  20.330  25.000  1.00  0.00     0.042 A 
ATOM     15  C   UNL A   1      34.307  16.867  23.239  1.00  0.00     0.046 C 
ATOM     16  C   UNL A   1      33.618  18.043  23.867  1.00  0.00    -0.032 A 
ATOM     17  C   UNL A   1      33.902  18.454  25.172  1.00  0.00     0.007 A 
ATOM     18  C   UNL A   1      32.688  18.786  23.152  1.00  0.00     0.046 A 
ATOM     19  C   UNL A   1      33.250  19.567  25.736  1.00  0.00     0.026 A 
ATOM     20  C   UNL A   1      32.143  19.954  23.694  1.00  0.00     0.047 A 
ATOM     21  Cl  UNL A   1      32.152  18.268  21.594  1.00  0.00    -0.084 Cl
ENDBRANCH  11  14
ENDBRANCH   9  10
ENDBRANCH   8   9
BRANCH   8  22
ATOM     22  N   UNL A   1      34.799  24.000  23.777  1.00  0.00    -0.330 N 
ATOM     23  H   UNL A   1      35.512  24.621  24.162  1.00  0.00     0.347 HD
ATOM     24  H   UNL A   1      34.641  24.118  22.777  1.00  0.00     0.347 HD
BRANCH  22  25
ATOM     25  C   UNL A   1      35.269  22.613  23.945  1.00  0.00     0.299 C 
BRANCH  25  26
ATOM     26  C   UNL A   1      36.567  22.488  24.717  1.00  0.00     0.024 A 
ATOM     27  C   UNL A   1      37.274  21.289  24.815  1.00  0.00     0.013 A 
ATOM     28  C   UNL A   1      37.117  23.587  25.383  1.00  0.00     0.120 A 
ATOM     29  C   UNL A   1      38.479  21.242  25.523  1.00  0.00     0.021 A 
ATOM     30  N   UNL A   1      38.276  23.573  26.090  1.00  0.00    -0.264 NA
ATOM     31  C   UNL A   1      38.937  22.399  26.130  1.00  0.00     0.111 A 
ENDBRANCH  25  26
ENDBRANCH  22  25
ENDBRANCH   8  22
ENDBRANCH   6   8
ENDBRANCH   5   6
ENDBRANCH   4   5
ENDBRANCH   3   4
ENDBRANCH   2   3
ENDBRANCH   1   2
BRANCH   1  32
ATOM     32  C   UNL A   1      30.729  30.626  24.987  1.00  0.00     0.188 C 
BRANCH  32  33
ATOM     33  O   UNL A   1      31.355  31.007  26.195  1.00  0.00    -0.376 OA
BRANCH  33  34
ATOM     34  C   UNL A   1      32.219  30.087  26.831  1.00  0.00     0.202 C 
BRANCH  34  35
ATOM     35  C   UNL A   1      33.700  30.471  26.878  1.00  0.00     0.261 C 
BRANCH  35  36
ATOM     36  O   UNL A   1      34.434  29.918  27.981  1.00  0.00    -0.460 OA
BRANCH  36  37
ATOM     37  C   UNL A   1      35.196  30.763  28.715  1.00  0.00     0.338 C 
ATOM     38  O   UNL A   1      34.827  31.766  29.304  1.00  0.00    -0.246 OA
BRANCH  37  39
ATOM     39  C   UNL A   1      36.545  30.162  28.791  1.00  0.00     0.060 A 
ATOM     40  C   UNL A   1      37.040  29.650  30.003  1.00  0.00     0.016 A 
ATOM     41  C   UNL A   1      37.305  30.070  27.628  1.00  0.00     0.016 A 
ATOM     42  C   UNL A   1      38.301  29.051  30.054  1.00  0.00     0.010 A 
ATOM     43  C   UNL A   1      38.572  29.494  27.684  1.00  0.00     0.010 A 
ATOM     44  C   UNL A   1      39.086  29.002  28.898  1.00  0.00    -0.014 A 
BRANCH  44  45
ATOM     45  C   UNL A   1      40.515  28.610  28.943  1.00  0.00     0.031 A 
ATOM     46  C   UNL A   1      41.531  29.699  29.130  1.00  0.00     0.074 A 
ATOM     47  C   UNL A   1      40.904  27.345  28.715  1.00  0.00     0.049 A 
ATOM     48  N   UNL A   1      42.821  29.675  28.937  1.00  0.00    -0.248 NA
ATOM     49  C   UNL A   1      41.006  31.001  29.571  1.00  0.00     0.031 C 
ATOM     50  C   UNL A   1      40.011  26.198  28.565  1.00  0.00     0.029 A 
ATOM     51  N   UNL A   1      42.160  26.826  28.517  1.00  0.00    -0.354 N 
ATOM     52  C   UNL A   1      43.259  30.970  29.186  1.00  0.00     0.074 A 
ATOM     53  C   UNL A   1      42.095  31.753  29.537  1.00  0.00     0.031 C 
ATOM     54  C   UNL A   1      40.744  25.118  28.247  1.00  0.00     0.029 A 
ATOM     55  C   UNL A   1      42.147  25.512  28.115  1.00  0.00     0.049 A 
ATOM     56  H   UNL A   1      42.988  27.344  28.650  1.00  0.00     0.167 HD
ATOM     57  C   UNL A   1      44.520  31.460  29.111  1.00  0.00     0.037 A 
ATOM     58  C   UNL A   1      43.140  24.735  27.636  1.00  0.00     0.037 A 
ATOM     59  C   UNL A   1      45.664  30.662  28.757  1.00  0.00     0.049 A 
ATOM     60  C   UNL A   1      44.531  25.304  27.510  1.00  0.00     0.074 A 
ATOM     61  C   UNL A   1      46.991  31.046  28.693  1.00  0.00     0.029 A 
ATOM     62  N   UNL A   1      45.614  29.326  28.386  1.00  0.00    -0.354 N 
ATOM     63  N   UNL A   1      44.948  26.521  27.769  1.00  0.00    -0.248 NA
ATOM     64  C   UNL A   1      45.584  24.401  27.026  1.00  0.00     0.031 C 
ATOM     65  C   UNL A   1      47.734  29.960  28.218  1.00  0.00     0.029 A 
ATOM     66  C   UNL A   1      46.882  28.877  28.060  1.00  0.00     0.049 A 
ATOM     67  H   UNL A   1      44.797  28.777  28.358  1.00  0.00     0.167 HD
ATOM     68  C   UNL A   1      46.316  26.521  27.511  1.00  0.00     0.074 A 
ATOM     69  C   UNL A   1      46.655  25.183  27.073  1.00  0.00     0.031 C 
ATOM     70  C   UNL A   1      47.209  27.535  27.638  1.00  0.00     0.037 A 
BRANCH  57  71
ATOM     71  C   UNL A   1      44.709  32.932  29.357  1.00  0.00     0.058 A 
ATOM     72  C   UNL A   1      44.617  33.883  28.328  1.00  0.00     0.135 A 
ATOM     73  C   UNL A   1      44.998  33.397  30.651  1.00  0.00     0.135 A 
ATOM     74  F   UNL A   1      44.360  33.495  27.068  1.00  0.00    -0.206 F 
ATOM     75  C   UNL A   1      44.853  35.234  28.563  1.00  0.00     0.059 A 
ATOM     76  C   UNL A   1      45.201  34.748  30.916  1.00  0.00     0.059 A 
ATOM     77  F   UNL A   1      45.098  32.535  31.674  1.00  0.00    -0.206 F 
ATOM     78  C   UNL A   1      45.150  35.656  29.860  1.00  0.00     0.060 A 
BRANCH  78  79
ATOM     79  S   UNL A   1      45.486  37.406  30.141  1.00  0.00     0.124 S 
ATOM     80  O   UNL A   1      44.562  38.034  29.200  1.00  0.00    -0.237 OA
ATOM     81  O   UNL A   1      45.154  37.564  31.554  1.00  0.00    -0.237 OA
ATOM     82  O   UNL A   1      46.902  37.539  29.813  1.00  0.00    -0.744 OA
ENDBRANCH  78  79
ENDBRANCH  57  71
BRANCH  58  83
ATOM     83  C   UNL A   1      42.834  23.342  27.209  1.00  0.00     0.058 A 
ATOM     84  C   UNL A   1      42.859  22.975  25.858  1.00  0.00     0.135 A 
ATOM     85  C   UNL A   1      42.568  22.337  28.155  1.00  0.00     0.135 A 
ATOM     86  F   UNL A   1      43.091  23.902  24.915  1.00  0.00    -0.206 F 
ATOM     87  C   UNL A   1      42.641  21.661  25.455  1.00  0.00     0.059 A 
ATOM     88  C   UNL A   1      42.375  21.011  27.779  1.00  0.00     0.059 A 
ATOM     89  F   UNL A   1      42.538  22.635  29.463  1.00  0.00    -0.206 F 
ATOM     90  C   UNL A   1      42.414  20.683  26.425  1.00  0.00     0.060 A 
BRANCH  90  91
ATOM     91  S   UNL A   1      42.231  18.966  25.895  1.00  0.00     0.124 S 
ATOM     92  O   UNL A   1      40.786  18.859  25.735  1.00  0.00    -0.237 OA
ATOM     93  O   UNL A   1      43.013  18.944  24.662  1.00  0.00    -0.237 OA
ATOM     94  O   UNL A   1      42.801  18.207  27.003  1.00  0.00    -0.744 OA
ENDBRANCH  90  91
ENDBRANCH  58  83
BRANCH  70  95
ATOM     95  C   UNL A   1      48.660  27.244  27.357  1.00  0.00     0.058 A 
ATOM     96  C   UNL A   1      49.484  26.594  28.287  1.00  0.00     0.135 A 
ATOM     97  C   UNL A   1      49.195  27.519  26.087  1.00  0.00     0.135 A 
ATOM     98  F   UNL A   1      49.027  26.316  29.518  1.00  0.00    -0.206 F 
ATOM     99  C   UNL A   1      50.787  26.223  27.967  1.00  0.00     0.059 A 
ATOM    100  C   UNL A   1      50.484  27.133  25.736  1.00  0.00     0.059 A 
ATOM    101  F   UNL A   1      48.446  28.133  25.156  1.00  0.00    -0.206 F 
ATOM    102  C   UNL A   1      51.273  26.484  26.684  1.00  0.00     0.060 A 
BRANCH 102 103
ATOM    103  S   UNL A   1      52.936  25.923  26.255  1.00  0.00     0.124 S 
ATOM    104  O   UNL A   1      53.703  26.353  27.420  1.00  0.00    -0.237 OA
ATOM    105  O   UNL A   1      52.750  24.481  26.116  1.00  0.00    -0.237 OA
ATOM    106  O   UNL A   1      53.228  26.635  25.015  1.00  0.00    -0.744 OA
ENDBRANCH 102 103
ENDBRANCH  70  95
ENDBRANCH  44  45
ENDBRANCH  37  39
ENDBRANCH  36  37
ENDBRANCH  35  36
ENDBRANCH  34  35
ENDBRANCH  33  34
ENDBRANCH  32  33
ENDBRANCH   1  32
TORSDOF 26
ENDMDL
MODEL 2
REMARK VINA RESULT:      -9.9      1.387      2.246
REMARK SMILES Cc1ccc(NC(=O)C[C@H]([NH2+]Cc2cccnc2)C(=O)OCCOCCOCCOC(=O)c2ccc(-c3c4nc(c(-c5c(F)cc(S(=O)(=O)[O-])cc5F)c5ccc([nH]5)c(-c5c(F)cc(S(=O)(=O)[O-])cc5F)c5nc(c(-c6c(F)cc(S(=O)(=O)[O-])cc6F)c6ccc3[nH]6)C=C5)C=C4)cc2)cc1Cl
REMARK SMILES IDX 25 1 24 2 23 3 22 4 21 5 19 6 20 7 10 8 9 9 7 10 6 11 8 13
REMARK SMILES IDX 5 14 1 15 2 16 3 17 100 18 4 19 99 20 101 21 11 22 12 25
REMARK SMILES IDX 13 26 14 27 18 28 15 29 17 30 16 31 26 32 27 33 28 34 29 35
REMARK SMILES IDX 30 36 31 37 32 38 33 39 34 40 98 41 35 42 97 43 36 44 37 45
REMARK SMILES IDX 38 46 91 47 39 48 96 49 90 50 92 51 40 52 95 53 89 54 88 55
REMARK SMILES IDX 41 57 75 58 54 59 74 60 55 61 58 62 73 63 93 64 56 65 57 66
REMARK SMILES IDX 72 68 94 69 59 70 42 71 43 72 52 73 44 74 45 75 51 76 53 77
REMARK SMILES IDX 46 78 47 79 48 80 49 81 50 82 76 83 77 84 86 85 78 86 79 87
REMARK SMILES IDX 85 88 87 89 80 90 81 91 82 92 83 93 84 94 60 95 61 96 70 97
REMARK SMILES IDX 62 98 63 99 69 100 71 101 64 102 65 103 66 104 67 105 68 106
REMARK H PARENT 6 12 11 23 11 24 92 56 58 67
REMARK Flexibility Score: inf
ROOT
ATOM      1  C   UNL A   1      32.724  29.115  24.307  1.00  0.00     0.188 C 
ENDROOT
BRANCH   1   2
ATOM      2  O   UNL A   1      32.360  28.037  23.456  1.00  0.00    -0.376 OA
BRANCH   2   3
ATOM      3  C   UNL A   1      31.010  27.881  23.053  1.00  0.00     0.202 C 
BRANCH   3   4
ATOM      4  C   UNL A   1      30.324  26.529  23.309  1.00  0.00     0.261 C 
BRANCH   4   5
ATOM      5  O   UNL A   1      29.881  26.200  24.648  1.00  0.00    -0.459 OA
BRANCH   5   6
ATOM      6  C   UNL A   1      30.814  25.705  25.515  1.00  0.00     0.365 C 
ATOM      7  O   UNL A   1      30.887  26.032  26.693  1.00  0.00    -0.245 OA
BRANCH   6   8
ATOM      8  C   UNL A   1      31.874  24.779  24.847  1.00  0.00     0.303 C 
BRANCH   8   9
ATOM      9  C   UNL A   1      31.628  23.351  25.317  1.00  0.00     0.177 C 
BRANCH   9  10
ATOM     10  C   UNL A   1      32.236  22.621  26.510  1.00  0.00     0.231 C 
ATOM     11  N   UNL A   1      32.696  21.360  26.673  1.00  0.00    -0.326 N 
ATOM     12  H   UNL A   1      32.747  21.149  27.633  1.00  0.00     0.169 HD
ATOM     13  O   UNL A   1      32.146  23.233  27.595  1.00  0.00    -0.274 OA
BRANCH  11  14
ATOM     14  C   UNL A   1      33.123  20.251  25.925  1.00  0.00     0.042 A 
ATOM     15  C   UNL A   1      34.613  16.941  23.515  1.00  0.00     0.046 C 
ATOM     16  C   UNL A   1      34.127  18.083  24.357  1.00  0.00    -0.032 A 
ATOM     17  C   UNL A   1      34.709  19.351  24.289  1.00  0.00     0.007 A 
ATOM     18  C   UNL A   1      33.049  17.922  25.219  1.00  0.00     0.046 A 
ATOM     19  C   UNL A   1      34.228  20.411  25.081  1.00  0.00     0.026 A 
ATOM     20  C   UNL A   1      32.518  19.018  25.906  1.00  0.00     0.047 A 
ATOM     21  Cl  UNL A   1      32.363  16.361  25.495  1.00  0.00    -0.084 Cl
ENDBRANCH  11  14
ENDBRANCH   9  10
ENDBRANCH   8   9
BRANCH   8  22
ATOM     22  N   UNL A   1      33.277  25.273  24.816  1.00  0.00    -0.330 N 
ATOM     23  H   UNL A   1      33.711  25.039  25.709  1.00  0.00     0.347 HD
ATOM     24  H   UNL A   1      33.214  26.273  24.633  1.00  0.00     0.347 HD
BRANCH  22  25
ATOM     25  C   UNL A   1      34.127  24.724  23.743  1.00  0.00     0.299 C 
BRANCH  25  26
ATOM     26  C   UNL A   1      35.295  23.898  24.241  1.00  0.00     0.024 A 
ATOM     27  C   UNL A   1      35.741  23.940  25.564  1.00  0.00     0.013 A 
ATOM     28  C   UNL A   1      35.994  23.048  23.379  1.00  0.00     0.120 A 
ATOM     29  C   UNL A   1      36.810  23.136  25.968  1.00  0.00     0.021 A 
ATOM     30  N   UNL A   1      37.045  22.266  23.736  1.00  0.00    -0.264 NA
ATOM     31  C   UNL A   1      37.419  22.319  25.029  1.00  0.00     0.111 A 
ENDBRANCH  25  26
ENDBRANCH  22  25
ENDBRANCH   8  22
ENDBRANCH   6   8
ENDBRANCH   5   6
ENDBRANCH   4   5
ENDBRANCH   3   4
ENDBRANCH   2   3
ENDBRANCH   1   2
BRANCH   1  32
ATOM     32  C   UNL A   1      33.008  28.834  25.782  1.00  0.00     0.188 C 
BRANCH  32  33
ATOM     33  O   UNL A   1      32.503  29.825  26.653  1.00  0.00    -0.376 OA
BRANCH  33  34
ATOM     34  C   UNL A   1      33.400  30.777  27.188  1.00  0.00     0.202 C 
BRANCH  34  35
ATOM     35  C   UNL A   1      34.725  30.232  27.725  1.00  0.00     0.261 C 
BRANCH  35  36
ATOM     36  O   UNL A   1      35.749  31.219  27.927  1.00  0.00    -0.460 OA
BRANCH  36  37
ATOM     37  C   UNL A   1      36.257  31.350  29.175  1.00  0.00     0.338 C 
ATOM     38  O   UNL A   1      35.685  31.782  30.163  1.00  0.00    -0.246 OA
BRANCH  37  39
ATOM     39  C   UNL A   1      37.600  30.731  29.155  1.00  0.00     0.060 A 
ATOM     40  C   UNL A   1      38.390  30.682  30.316  1.00  0.00     0.016 A 
ATOM     41  C   UNL A   1      38.055  30.155  27.971  1.00  0.00     0.016 A 
ATOM     42  C   UNL A   1      39.641  30.062  30.293  1.00  0.00     0.010 A 
ATOM     43  C   UNL A   1      39.312  29.557  27.942  1.00  0.00     0.010 A 
ATOM     44  C   UNL A   1      40.121  29.526  29.094  1.00  0.00    -0.014 A 
BRANCH  44  45
ATOM     45  C   UNL A   1      41.528  29.082  28.946  1.00  0.00     0.031 A 
ATOM     46  C   UNL A   1      42.594  30.139  28.930  1.00  0.00     0.074 A 
ATOM     47  C   UNL A   1      41.839  27.794  28.723  1.00  0.00     0.049 A 
ATOM     48  N   UNL A   1      43.840  30.058  28.551  1.00  0.00    -0.248 NA
ATOM     49  C   UNL A   1      42.181  31.477  29.382  1.00  0.00     0.031 C 
ATOM     50  C   UNL A   1      40.899  26.678  28.760  1.00  0.00     0.029 A 
ATOM     51  N   UNL A   1      43.035  27.221  28.367  1.00  0.00    -0.354 N 
ATOM     52  C   UNL A   1      44.350  31.345  28.672  1.00  0.00     0.074 A 
ATOM     53  C   UNL A   1      43.276  32.186  29.153  1.00  0.00     0.031 C 
ATOM     54  C   UNL A   1      41.542  25.558  28.388  1.00  0.00     0.029 A 
ATOM     55  C   UNL A   1      42.921  25.892  28.033  1.00  0.00     0.049 A 
ATOM     56  H   UNL A   1      43.889  27.712  28.352  1.00  0.00     0.167 HD
ATOM     57  C   UNL A   1      45.600  31.783  28.389  1.00  0.00     0.037 A 
ATOM     58  C   UNL A   1      43.807  25.059  27.450  1.00  0.00     0.037 A 
ATOM     59  C   UNL A   1      46.653  30.929  27.908  1.00  0.00     0.049 A 
ATOM     60  C   UNL A   1      45.181  25.570  27.094  1.00  0.00     0.074 A 
ATOM     61  C   UNL A   1      47.967  31.259  27.632  1.00  0.00     0.029 A 
ATOM     62  N   UNL A   1      46.507  29.581  27.611  1.00  0.00    -0.354 N 
ATOM     63  N   UNL A   1      45.670  26.780  27.231  1.00  0.00    -0.248 NA
ATOM     64  C   UNL A   1      46.122  24.608  26.503  1.00  0.00     0.031 C 
ATOM     65  C   UNL A   1      48.597  30.127  27.104  1.00  0.00     0.029 A 
ATOM     66  C   UNL A   1      47.698  29.071  27.124  1.00  0.00     0.049 A 
ATOM     67  H   UNL A   1      45.678  29.063  27.731  1.00  0.00     0.167 HD
ATOM     68  C   UNL A   1      46.984  26.717  26.776  1.00  0.00     0.074 A 
ATOM     69  C   UNL A   1      47.212  25.351  26.355  1.00  0.00     0.031 C 
ATOM     70  C   UNL A   1      47.917  27.702  26.722  1.00  0.00     0.037 A 
BRANCH  57  71
ATOM     71  C   UNL A   1      45.869  33.256  28.536  1.00  0.00     0.058 A 
ATOM     72  C   UNL A   1      46.251  33.831  29.758  1.00  0.00     0.135 A 
ATOM     73  C   UNL A   1      45.733  34.110  27.428  1.00  0.00     0.135 A 
ATOM     74  F   UNL A   1      46.381  33.068  30.856  1.00  0.00    -0.206 F 
ATOM     75  C   UNL A   1      46.439  35.204  29.890  1.00  0.00     0.059 A 
ATOM     76  C   UNL A   1      45.951  35.480  27.527  1.00  0.00     0.059 A 
ATOM     77  F   UNL A   1      45.370  33.616  26.234  1.00  0.00    -0.206 F 
ATOM     78  C   UNL A   1      46.281  36.020  28.769  1.00  0.00     0.060 A 
BRANCH  78  79
ATOM     79  S   UNL A   1      46.495  37.802  28.963  1.00  0.00     0.124 S 
ATOM     80  O   UNL A   1      47.943  37.904  29.127  1.00  0.00    -0.237 OA
ATOM     81  O   UNL A   1      45.964  38.318  27.706  1.00  0.00    -0.237 OA
ATOM     82  O   UNL A   1      45.706  38.113  30.151  1.00  0.00    -0.744 OA
ENDBRANCH  78  79
ENDBRANCH  57  71
BRANCH  58  83
ATOM     83  C   UNL A   1      43.398  23.663  27.139  1.00  0.00     0.058 A 
ATOM     84  C   UNL A   1      43.281  22.698  28.148  1.00  0.00     0.135 A 
ATOM     85  C   UNL A   1      43.059  23.282  25.829  1.00  0.00     0.135 A 
ATOM     86  F   UNL A   1      43.610  23.008  29.412  1.00  0.00    -0.206 F 
ATOM     87  C   UNL A   1      42.833  21.409  27.877  1.00  0.00     0.059 A 
ATOM     88  C   UNL A   1      42.582  22.007  25.538  1.00  0.00     0.059 A 
ATOM     89  F   UNL A   1      43.148  24.169  24.826  1.00  0.00    -0.206 F 
ATOM     90  C   UNL A   1      42.472  21.078  26.570  1.00  0.00     0.060 A 
BRANCH  90  91
ATOM     91  S   UNL A   1      41.800  19.432  26.251  1.00  0.00     0.124 S 
ATOM     92  O   UNL A   1      42.493  19.063  25.022  1.00  0.00    -0.237 OA
ATOM     93  O   UNL A   1      42.198  18.703  27.451  1.00  0.00    -0.237 OA
ATOM     94  O   UNL A   1      40.366  19.672  26.119  1.00  0.00    -0.744 OA
ENDBRANCH  90  91
ENDBRANCH  58  83
BRANCH  70  95
ATOM     95  C   UNL A   1      49.300  27.345  26.244  1.00  0.00     0.058 A 
ATOM     96  C   UNL A   1      49.659  27.399  24.889  1.00  0.00     0.135 A 
ATOM     97  C   UNL A   1      50.310  27.058  27.179  1.00  0.00     0.135 A 
ATOM     98  F   UNL A   1      48.732  27.659  23.954  1.00  0.00    -0.206 F 
ATOM     99  C   UNL A   1      50.972  27.186  24.478  1.00  0.00     0.059 A 
ATOM    100  C   UNL A   1      51.633  26.870  26.793  1.00  0.00     0.059 A 
ATOM    101  F   UNL A   1      50.022  27.002  28.489  1.00  0.00    -0.206 F 
ATOM    102  C   UNL A   1      51.954  26.935  25.438  1.00  0.00     0.060 A 
BRANCH 102 103
ATOM    103  S   UNL A   1      53.667  26.743  24.898  1.00  0.00     0.124 S 
ATOM    104  O   UNL A   1      54.371  26.654  26.173  1.00  0.00    -0.237 OA
ATOM    105  O   UNL A   1      53.610  25.510  24.118  1.00  0.00    -0.237 OA
ATOM    106  O   UNL A   1      53.920  27.956  24.127  1.00  0.00    -0.744 OA
ENDBRANCH 102 103
ENDBRANCH  70  95
ENDBRANCH  44  45
ENDBRANCH  37  39
ENDBRANCH  36  37
ENDBRANCH  35  36
ENDBRANCH  34  35
ENDBRANCH  33  34
ENDBRANCH  32  33
ENDBRANCH   1  32
TORSDOF 26
ENDMDL
MODEL 3
REMARK VINA RESULT:      -9.8      2.183      8.660
REMARK SMILES Cc1ccc(NC(=O)C[C@H]([NH2+]Cc2cccnc2)C(=O)OCCOCCOCCOC(=O)c2ccc(-c3c4nc(c(-c5c(F)cc(S(=O)(=O)[O-])cc5F)c5ccc([nH]5)c(-c5c(F)cc(S(=O)(=O)[O-])cc5F)c5nc(c(-c6c(F)cc(S(=O)(=O)[O-])cc6F)c6ccc3[nH]6)C=C5)C=C4)cc2)cc1Cl
REMARK SMILES IDX 25 1 24 2 23 3 22 4 21 5 19 6 20 7 10 8 9 9 7 10 6 11 8 13
REMARK SMILES IDX 5 14 1 15 2 16 3 17 100 18 4 19 99 20 101 21 11 22 12 25
REMARK SMILES IDX 13 26 14 27 18 28 15 29 17 30 16 31 26 32 27 33 28 34 29 35
REMARK SMILES IDX 30 36 31 37 32 38 33 39 34 40 98 41 35 42 97 43 36 44 37 45
REMARK SMILES IDX 38 46 91 47 39 48 96 49 90 50 92 51 40 52 95 53 89 54 88 55
REMARK SMILES IDX 41 57 75 58 54 59 74 60 55 61 58 62 73 63 93 64 56 65 57 66
REMARK SMILES IDX 72 68 94 69 59 70 42 71 43 72 52 73 44 74 45 75 51 76 53 77
REMARK SMILES IDX 46 78 47 79 48 80 49 81 50 82 76 83 77 84 86 85 78 86 79 87
REMARK SMILES IDX 85 88 87 89 80 90 81 91 82 92 83 93 84 94 60 95 61 96 70 97
REMARK SMILES IDX 62 98 63 99 69 100 71 101 64 102 65 103 66 104 67 105 68 106
REMARK H PARENT 6 12 11 23 11 24 92 56 58 67
REMARK Flexibility Score: inf
ROOT
ATOM      1  C   UNL A   1      31.920  28.481  27.429  1.00  0.00     0.188 C 
ENDROOT
BRANCH   1   2
ATOM      2  O   UNL A   1      31.297  27.205  27.364  1.00  0.00    -0.376 OA
BRANCH   2   3
ATOM      3  C   UNL A   1      31.862  26.185  26.559  1.00  0.00     0.202 C 
BRANCH   3   4
ATOM      4  C   UNL A   1      31.285  24.765  26.671  1.00  0.00     0.261 C 
BRANCH   4   5
ATOM      5  O   UNL A   1      31.895  23.689  25.917  1.00  0.00    -0.459 OA
BRANCH   5   6
ATOM      6  C   UNL A   1      32.795  22.895  26.570  1.00  0.00     0.365 C 
ATOM      7  O   UNL A   1      32.834  22.773  27.788  1.00  0.00    -0.245 OA
BRANCH   6   8
ATOM      8  C   UNL A   1      33.867  22.252  25.640  1.00  0.00     0.303 C 
BRANCH   8   9
ATOM      9  C   UNL A   1      33.455  22.491  24.194  1.00  0.00     0.177 C 
BRANCH   9  10
ATOM     10  C   UNL A   1      34.031  23.481  23.188  1.00  0.00     0.231 C 
ATOM     11  N   UNL A   1      33.515  24.571  22.578  1.00  0.00    -0.326 N 
ATOM     12  H   UNL A   1      34.058  24.796  21.788  1.00  0.00     0.169 HD
ATOM     13  O   UNL A   1      35.127  23.141  22.694  1.00  0.00    -0.274 OA
BRANCH  11  14
ATOM     14  C   UNL A   1      32.458  25.490  22.699  1.00  0.00     0.042 A 
ATOM     15  C   UNL A   1      29.046  28.164  23.124  1.00  0.00     0.046 C 
ATOM     16  C   UNL A   1      30.217  27.234  23.005  1.00  0.00    -0.032 A 
ATOM     17  C   UNL A   1      30.084  25.854  23.178  1.00  0.00     0.007 A 
ATOM     18  C   UNL A   1      31.478  27.718  22.685  1.00  0.00     0.046 A 
ATOM     19  C   UNL A   1      31.196  25.000  23.051  1.00  0.00     0.026 A 
ATOM     20  C   UNL A   1      32.539  26.838  22.450  1.00  0.00     0.047 A 
ATOM     21  Cl  UNL A   1      31.781  29.417  22.608  1.00  0.00    -0.084 Cl
ENDBRANCH  11  14
ENDBRANCH   9  10
ENDBRANCH   8   9
BRANCH   8  22
ATOM     22  N   UNL A   1      34.358  20.898  26.012  1.00  0.00    -0.330 N 
ATOM     23  H   UNL A   1      33.588  20.398  26.459  1.00  0.00     0.347 HD
ATOM     24  H   UNL A   1      35.162  21.051  26.619  1.00  0.00     0.347 HD
BRANCH  22  25
ATOM     25  C   UNL A   1      34.851  20.066  24.900  1.00  0.00     0.299 C 
BRANCH  25  26
ATOM     26  C   UNL A   1      34.161  18.722  24.779  1.00  0.00     0.024 A 
ATOM     27  C   UNL A   1      34.744  17.630  24.132  1.00  0.00     0.013 A 
ATOM     28  C   UNL A   1      32.886  18.517  25.313  1.00  0.00     0.120 A 
ATOM     29  C   UNL A   1      34.067  16.408  24.074  1.00  0.00     0.021 A 
ATOM     30  N   UNL A   1      32.196  17.349  25.261  1.00  0.00    -0.264 NA
ATOM     31  C   UNL A   1      32.812  16.316  24.653  1.00  0.00     0.111 A 
ENDBRANCH  25  26
ENDBRANCH  22  25
ENDBRANCH   8  22
ENDBRANCH   6   8
ENDBRANCH   5   6
ENDBRANCH   4   5
ENDBRANCH   3   4
ENDBRANCH   2   3
ENDBRANCH   1   2
BRANCH   1  32
ATOM     32  C   UNL A   1      32.481  29.100  26.149  1.00  0.00     0.188 C 
BRANCH  32  33
ATOM     33  O   UNL A   1      33.871  29.347  26.204  1.00  0.00    -0.376 OA
BRANCH  33  34
ATOM     34  C   UNL A   1      34.520  29.297  27.458  1.00  0.00     0.202 C 
BRANCH  34  35
ATOM     35  C   UNL A   1      34.808  30.645  28.125  1.00  0.00     0.261 C 
BRANCH  35  36
ATOM     36  O   UNL A   1      36.201  30.971  28.253  1.00  0.00    -0.460 OA
BRANCH  36  37
ATOM     37  C   UNL A   1      36.834  30.586  29.386  1.00  0.00     0.338 C 
ATOM     38  O   UNL A   1      36.359  30.511  30.508  1.00  0.00    -0.246 OA
BRANCH  37  39
ATOM     39  C   UNL A   1      38.182  30.128  28.985  1.00  0.00     0.060 A 
ATOM     40  C   UNL A   1      39.221  30.028  29.927  1.00  0.00     0.016 A 
ATOM     41  C   UNL A   1      38.397  29.752  27.661  1.00  0.00     0.016 A 
ATOM     42  C   UNL A   1      40.479  29.559  29.543  1.00  0.00     0.010 A 
ATOM     43  C   UNL A   1      39.658  29.306  27.274  1.00  0.00     0.010 A 
ATOM     44  C   UNL A   1      40.711  29.227  28.204  1.00  0.00    -0.014 A 
BRANCH  44  45
ATOM     45  C   UNL A   1      42.076  28.965  27.691  1.00  0.00     0.031 A 
ATOM     46  C   UNL A   1      42.430  27.549  27.343  1.00  0.00     0.074 A 
ATOM     47  C   UNL A   1      43.006  29.934  27.640  1.00  0.00     0.049 A 
ATOM     48  N   UNL A   1      43.601  27.010  27.140  1.00  0.00    -0.248 NA
ATOM     49  C   UNL A   1      41.302  26.610  27.236  1.00  0.00     0.031 C 
ATOM     50  C   UNL A   1      42.769  31.350  27.909  1.00  0.00     0.029 A 
ATOM     51  N   UNL A   1      44.354  29.856  27.393  1.00  0.00    -0.354 N 
ATOM     52  C   UNL A   1      43.357  25.658  26.929  1.00  0.00     0.074 A 
ATOM     53  C   UNL A   1      41.928  25.461  27.035  1.00  0.00     0.031 C 
ATOM     54  C   UNL A   1      43.943  32.001  27.865  1.00  0.00     0.029 A 
ATOM     55  C   UNL A   1      45.017  31.038  27.621  1.00  0.00     0.049 A 
ATOM     56  H   UNL A   1      44.802  29.035  27.083  1.00  0.00     0.167 HD
ATOM     57  C   UNL A   1      44.252  24.671  26.684  1.00  0.00     0.037 A 
ATOM     58  C   UNL A   1      46.339  31.301  27.687  1.00  0.00     0.037 A 
ATOM     59  C   UNL A   1      45.671  24.889  26.585  1.00  0.00     0.049 A 
ATOM     60  C   UNL A   1      47.327  30.184  27.462  1.00  0.00     0.074 A 
ATOM     61  C   UNL A   1      46.662  23.970  26.298  1.00  0.00     0.029 A 
ATOM     62  N   UNL A   1      46.302  26.108  26.792  1.00  0.00    -0.354 N 
ATOM     63  N   UNL A   1      47.095  28.912  27.238  1.00  0.00    -0.248 NA
ATOM     64  C   UNL A   1      48.754  30.534  27.499  1.00  0.00     0.031 C 
ATOM     65  C   UNL A   1      47.898  24.618  26.398  1.00  0.00     0.029 A 
ATOM     66  C   UNL A   1      47.672  25.959  26.671  1.00  0.00     0.049 A 
ATOM     67  H   UNL A   1      45.841  26.955  26.995  1.00  0.00     0.167 HD
ATOM     68  C   UNL A   1      48.343  28.317  27.076  1.00  0.00     0.074 A 
ATOM     69  C   UNL A   1      49.327  29.367  27.232  1.00  0.00     0.031 C 
ATOM     70  C   UNL A   1      48.642  27.019  26.813  1.00  0.00     0.037 A 
BRANCH  57  71
ATOM     71  C   UNL A   1      43.723  23.267  26.571  1.00  0.00     0.058 A 
ATOM     72  C   UNL A   1      43.279  22.540  27.687  1.00  0.00     0.135 A 
ATOM     73  C   UNL A   1      43.671  22.634  25.318  1.00  0.00     0.135 A 
ATOM     74  F   UNL A   1      43.322  23.087  28.913  1.00  0.00    -0.206 F 
ATOM     75  C   UNL A   1      42.849  21.221  27.573  1.00  0.00     0.059 A 
ATOM     76  C   UNL A   1      43.209  21.329  25.174  1.00  0.00     0.059 A 
ATOM     77  F   UNL A   1      44.082  23.280  24.216  1.00  0.00    -0.206 F 
ATOM     78  C   UNL A   1      42.823  20.624  26.312  1.00  0.00     0.060 A 
BRANCH  78  79
ATOM     79  S   UNL A   1      42.294  18.903  26.185  1.00  0.00     0.124 S 
ATOM     80  O   UNL A   1      40.909  19.057  25.747  1.00  0.00    -0.237 OA
ATOM     81  O   UNL A   1      43.215  18.366  25.188  1.00  0.00    -0.237 OA
ATOM     82  O   UNL A   1      42.470  18.391  27.540  1.00  0.00    -0.744 OA
ENDBRANCH  78  79
ENDBRANCH  57  71
BRANCH  58  83
ATOM     83  C   UNL A   1      46.792  32.679  28.015  1.00  0.00     0.058 A 
ATOM     84  C   UNL A   1      46.915  33.659  27.021  1.00  0.00     0.135 A 
ATOM     85  C   UNL A   1      47.055  33.059  29.343  1.00  0.00     0.135 A 
ATOM     86  F   UNL A   1      46.692  33.342  25.736  1.00  0.00    -0.206 F 
ATOM     87  C   UNL A   1      47.271  34.969  27.328  1.00  0.00     0.059 A 
ATOM     88  C   UNL A   1      47.385  34.368  29.678  1.00  0.00     0.059 A 
ATOM     89  F   UNL A   1      46.946  32.160  30.333  1.00  0.00    -0.206 F 
ATOM     90  C   UNL A   1      47.491  35.317  28.662  1.00  0.00     0.060 A 
BRANCH  90  91
ATOM     91  S   UNL A   1      47.857  37.041  29.055  1.00  0.00     0.124 S 
ATOM     92  O   UNL A   1      47.034  37.747  28.080  1.00  0.00    -0.237 OA
ATOM     93  O   UNL A   1      47.420  37.135  30.445  1.00  0.00    -0.237 OA
ATOM     94  O   UNL A   1      49.299  37.136  28.851  1.00  0.00    -0.744 OA
ENDBRANCH  90  91
ENDBRANCH  58  83
BRANCH  70  95
ATOM     95  C   UNL A   1      50.089  26.650  26.614  1.00  0.00     0.058 A 
ATOM     96  C   UNL A   1      50.903  26.226  27.674  1.00  0.00     0.135 A 
ATOM     97  C   UNL A   1      50.628  26.609  25.317  1.00  0.00     0.135 A 
ATOM     98  F   UNL A   1      50.442  26.252  28.935  1.00  0.00    -0.206 F 
ATOM     99  C   UNL A   1      52.201  25.771  27.455  1.00  0.00     0.059 A 
ATOM    100  C   UNL A   1      51.911  26.132  25.071  1.00  0.00     0.059 A 
ATOM    101  F   UNL A   1      49.888  26.996  24.265  1.00  0.00    -0.206 F 
ATOM    102  C   UNL A   1      52.691  25.715  26.149  1.00  0.00     0.060 A 
BRANCH 102 103
ATOM    103  S   UNL A   1      54.345  25.045  25.870  1.00  0.00     0.124 S 
ATOM    104  O   UNL A   1      55.049  25.487  27.069  1.00  0.00    -0.237 OA
ATOM    105  O   UNL A   1      54.087  23.610  25.779  1.00  0.00    -0.237 OA
ATOM    106  O   UNL A   1      54.766  25.680  24.626  1.00  0.00    -0.744 OA
ENDBRANCH 102 103
ENDBRANCH  70  95
ENDBRANCH  44  45
ENDBRANCH  37  39
ENDBRANCH  36  37
ENDBRANCH  35  36
ENDBRANCH  34  35
ENDBRANCH  33  34
ENDBRANCH  32  33
ENDBRANCH   1  32
TORSDOF 26
ENDMDL
