MODEL 1
REMARK VINA RESULT:     -10.3      0.000      0.000
REMARK SMILES O=C(/C=C/c1ccccc1)Nc1ccc(O)cc1C(=O)OCCOCCOCCOC(=O)c1ccc(-c2c3nc(c(-c4c(F)cc(S(=O)(=O)[O-])cc4F)c4ccc([nH]4)c(-c4c(F)cc(S(=O)(=O)[O-])cc4F)c4nc(c(-c5c(F)cc(S(=O)(=O)[O-])cc5F)c5ccc2[nH]5)C=C4)C=C3)cc1
REMARK SMILES IDX 25 1 24 2 23 3 22 4 21 5 19 6 20 7 18 8 12 9 13 10 14 11
REMARK SMILES IDX 17 12 15 13 11 14 1 15 2 16 3 18 4 19 5 20 6 21 10 22 7 23
REMARK SMILES IDX 9 24 8 25 16 26 26 28 27 29 28 30 29 31 30 32 31 33 32 34
REMARK SMILES IDX 33 35 34 36 98 37 35 38 97 39 36 40 37 41 38 42 91 43 39 44
REMARK SMILES IDX 96 45 90 46 92 47 40 48 95 49 89 50 88 51 41 53 75 54 54 55
REMARK SMILES IDX 74 56 55 57 58 58 73 59 93 60 56 61 57 62 72 64 94 65 59 66
REMARK SMILES IDX 42 67 43 68 52 69 44 70 45 71 51 72 53 73 46 74 47 75 48 76
REMARK SMILES IDX 49 77 50 78 76 79 77 80 86 81 78 82 79 83 85 84 87 85 80 86
REMARK SMILES IDX 81 87 82 88 83 89 84 90 60 91 61 92 70 93 62 94 63 95 69 96
REMARK SMILES IDX 71 97 64 98 65 99 66 100 67 101 68 102
REMARK H PARENT 11 17 16 27 92 52 58 63
REMARK Flexibility Score: inf
ROOT
ATOM      1  C   UNL A   1      34.855  32.097  27.704  1.00  0.00     0.188 C 
ENDROOT
BRANCH   1   2
ATOM      2  O   UNL A   1      34.328  30.877  28.205  1.00  0.00    -0.376 OA
BRANCH   2   3
ATOM      3  C   UNL A   1      33.600  30.034  27.316  1.00  0.00     0.202 C 
BRANCH   3   4
ATOM      4  C   UNL A   1      34.240  28.695  26.969  1.00  0.00     0.261 C 
BRANCH   4   5
ATOM      5  O   UNL A   1      33.212  27.703  26.847  1.00  0.00    -0.460 OA
BRANCH   5   6
ATOM      6  C   UNL A   1      33.385  26.808  25.846  1.00  0.00     0.340 C 
ATOM      7  O   UNL A   1      34.343  26.742  25.092  1.00  0.00    -0.246 OA
BRANCH   6   8
ATOM      8  C   UNL A   1      32.369  25.738  25.976  1.00  0.00     0.087 A 
ATOM      9  C   UNL A   1      31.032  25.803  25.530  1.00  0.00     0.056 A 
ATOM     10  C   UNL A   1      30.154  24.769  25.904  1.00  0.00     0.031 A 
ATOM     11  C   UNL A   1      30.590  23.694  26.681  1.00  0.00     0.048 A 
ATOM     12  C   UNL A   1      32.797  24.651  26.768  1.00  0.00     0.064 A 
ATOM     13  C   UNL A   1      31.904  23.647  27.114  1.00  0.00     0.116 A 
BRANCH   9  14
ATOM     14  N   UNL A   1      30.437  26.849  24.778  1.00  0.00    -0.322 N 
ATOM     15  O   UNL A   1      30.680  26.070  22.617  1.00  0.00    -0.270 OA
ATOM     16  C   UNL A   1      30.434  26.970  23.414  1.00  0.00     0.248 C 
ATOM     17  H   UNL A   1      29.983  27.558  25.287  1.00  0.00     0.170 HD
BRANCH  16  18
ATOM     18  C   UNL A   1      30.041  28.295  22.859  1.00  0.00     0.072 C 
ATOM     19  C   UNL A   1      29.004  29.078  23.197  1.00  0.00     0.014 C 
BRANCH  19  20
ATOM     20  C   UNL A   1      28.734  30.380  22.556  1.00  0.00    -0.025 A 
ATOM     21  C   UNL A   1      28.816  31.551  23.324  1.00  0.00     0.008 A 
ATOM     22  C   UNL A   1      28.346  30.493  21.212  1.00  0.00     0.008 A 
ATOM     23  C   UNL A   1      28.543  32.799  22.756  1.00  0.00     0.001 A 
ATOM     24  C   UNL A   1      28.079  31.741  20.643  1.00  0.00     0.001 A 
ATOM     25  C   UNL A   1      28.179  32.894  21.415  1.00  0.00     0.000 A 
ENDBRANCH  19  20
ENDBRANCH  16  18
ENDBRANCH   9  14
BRANCH  13  26
ATOM     26  O   UNL A   1      32.273  22.604  27.907  1.00  0.00    -0.508 OA
ATOM     27  H   UNL A   1      31.619  22.085  28.334  1.00  0.00     0.293 HD
ENDBRANCH  13  26
ENDBRANCH   6   8
ENDBRANCH   5   6
ENDBRANCH   4   5
ENDBRANCH   3   4
ENDBRANCH   2   3
ENDBRANCH   1   2
BRANCH   1  28
ATOM     28  C   UNL A   1      34.323  33.442  28.248  1.00  0.00     0.188 C 
BRANCH  28  29
ATOM     29  O   UNL A   1      33.789  33.556  29.559  1.00  0.00    -0.376 OA
BRANCH  29  30
ATOM     30  C   UNL A   1      34.673  33.714  30.659  1.00  0.00     0.202 C 
BRANCH  30  31
ATOM     31  C   UNL A   1      34.952  32.514  31.563  1.00  0.00     0.261 C 
BRANCH  31  32
ATOM     32  O   UNL A   1      36.024  31.688  31.088  1.00  0.00    -0.460 OA
BRANCH  32  33
ATOM     33  C   UNL A   1      37.093  31.608  31.915  1.00  0.00     0.338 C 
ATOM     34  O   UNL A   1      37.142  31.926  33.091  1.00  0.00    -0.246 OA
BRANCH  33  35
ATOM     35  C   UNL A   1      38.188  30.894  31.233  1.00  0.00     0.060 A 
ATOM     36  C   UNL A   1      39.120  30.215  32.027  1.00  0.00     0.016 A 
ATOM     37  C   UNL A   1      38.323  30.926  29.843  1.00  0.00     0.016 A 
ATOM     38  C   UNL A   1      40.219  29.597  31.436  1.00  0.00     0.010 A 
ATOM     39  C   UNL A   1      39.436  30.322  29.253  1.00  0.00     0.010 A 
ATOM     40  C   UNL A   1      40.403  29.686  30.050  1.00  0.00    -0.014 A 
BRANCH  40  41
ATOM     41  C   UNL A   1      41.695  29.271  29.458  1.00  0.00     0.031 A 
ATOM     42  C   UNL A   1      42.797  30.291  29.360  1.00  0.00     0.074 A 
ATOM     43  C   UNL A   1      41.892  28.012  29.035  1.00  0.00     0.049 A 
ATOM     44  N   UNL A   1      43.998  30.166  28.862  1.00  0.00    -0.248 NA
ATOM     45  C   UNL A   1      42.499  31.629  29.897  1.00  0.00     0.031 C 
ATOM     46  C   UNL A   1      40.913  26.929  29.112  1.00  0.00     0.029 A 
ATOM     47  N   UNL A   1      42.989  27.435  28.446  1.00  0.00    -0.354 N 
ATOM     48  C   UNL A   1      44.604  31.405  29.030  1.00  0.00     0.074 A 
ATOM     49  C   UNL A   1      43.628  32.276  29.649  1.00  0.00     0.031 C 
ATOM     50  C   UNL A   1      41.451  25.818  28.579  1.00  0.00     0.029 A 
ATOM     51  C   UNL A   1      42.801  26.118  28.102  1.00  0.00     0.049 A 
ATOM     52  H   UNL A   1      43.831  27.919  28.285  1.00  0.00     0.167 HD
ATOM     53  C   UNL A   1      45.864  31.783  28.707  1.00  0.00     0.037 A 
ATOM     54  C   UNL A   1      43.620  25.263  27.460  1.00  0.00     0.037 A 
ATOM     55  C   UNL A   1      46.826  30.923  28.071  1.00  0.00     0.049 A 
ATOM     56  C   UNL A   1      44.988  25.729  27.032  1.00  0.00     0.074 A 
ATOM     57  C   UNL A   1      48.125  31.211  27.696  1.00  0.00     0.029 A 
ATOM     58  N   UNL A   1      46.585  29.607  27.705  1.00  0.00    -0.354 N 
ATOM     59  N   UNL A   1      45.556  26.898  27.213  1.00  0.00    -0.248 NA
ATOM     60  C   UNL A   1      45.825  24.760  26.311  1.00  0.00     0.031 C 
ATOM     61  C   UNL A   1      48.660  30.080  27.069  1.00  0.00     0.029 A 
ATOM     62  C   UNL A   1      47.706  29.074  27.090  1.00  0.00     0.049 A 
ATOM     63  H   UNL A   1      45.743  29.123  27.859  1.00  0.00     0.167 HD
ATOM     64  C   UNL A   1      46.826  26.796  26.653  1.00  0.00     0.074 A 
ATOM     65  C   UNL A   1      46.944  25.449  26.131  1.00  0.00     0.031 C 
ATOM     66  C   UNL A   1      47.807  27.730  26.582  1.00  0.00     0.037 A 
BRANCH  53  67
ATOM     67  C   UNL A   1      46.252  33.200  29.016  1.00  0.00     0.058 A 
ATOM     68  C   UNL A   1      46.839  33.549  30.242  1.00  0.00     0.135 A 
ATOM     69  C   UNL A   1      46.029  34.222  28.079  1.00  0.00     0.135 A 
ATOM     70  F   UNL A   1      47.054  32.613  31.180  1.00  0.00    -0.206 F 
ATOM     71  C   UNL A   1      47.160  34.869  30.545  1.00  0.00     0.059 A 
ATOM     72  C   UNL A   1      46.362  35.546  28.352  1.00  0.00     0.059 A 
ATOM     73  F   UNL A   1      45.466  33.942  26.894  1.00  0.00    -0.206 F 
ATOM     74  C   UNL A   1      46.910  35.861  29.595  1.00  0.00     0.060 A 
BRANCH  74  75
ATOM     75  S   UNL A   1      47.308  37.572  30.008  1.00  0.00     0.124 S 
ATOM     76  O   UNL A   1      47.376  38.182  28.683  1.00  0.00    -0.237 OA
ATOM     77  O   UNL A   1      46.171  37.971  30.832  1.00  0.00    -0.237 OA
ATOM     78  O   UNL A   1      48.581  37.463  30.715  1.00  0.00    -0.744 OA
ENDBRANCH  74  75
ENDBRANCH  53  67
BRANCH  54  79
ATOM     79  C   UNL A   1      43.173  23.875  27.180  1.00  0.00     0.058 A 
ATOM     80  C   UNL A   1      43.271  22.874  28.156  1.00  0.00     0.135 A 
ATOM     81  C   UNL A   1      42.639  23.521  25.931  1.00  0.00     0.135 A 
ATOM     82  F   UNL A   1      43.785  23.163  29.362  1.00  0.00    -0.206 F 
ATOM     83  C   UNL A   1      42.867  21.567  27.904  1.00  0.00     0.059 A 
ATOM     84  C   UNL A   1      42.208  22.226  25.660  1.00  0.00     0.059 A 
ATOM     85  F   UNL A   1      42.517  24.446  24.965  1.00  0.00    -0.206 F 
ATOM     86  C   UNL A   1      42.335  21.254  26.652  1.00  0.00     0.060 A 
BRANCH  86  87
ATOM     87  S   UNL A   1      41.767  19.566  26.350  1.00  0.00     0.124 S 
ATOM     88  O   UNL A   1      42.529  19.210  25.159  1.00  0.00    -0.237 OA
ATOM     89  O   UNL A   1      42.154  18.887  27.583  1.00  0.00    -0.237 OA
ATOM     90  O   UNL A   1      40.329  19.727  26.157  1.00  0.00    -0.744 OA
ENDBRANCH  86  87
ENDBRANCH  54  79
BRANCH  66  91
ATOM     91  C   UNL A   1      49.108  27.322  25.947  1.00  0.00     0.058 A 
ATOM     92  C   UNL A   1      49.311  27.407  24.562  1.00  0.00     0.135 A 
ATOM     93  C   UNL A   1      50.184  26.898  26.744  1.00  0.00     0.135 A 
ATOM     94  F   UNL A   1      48.312  27.802  23.756  1.00  0.00    -0.206 F 
ATOM     95  C   UNL A   1      50.530  27.068  23.985  1.00  0.00     0.059 A 
ATOM     96  C   UNL A   1      51.419  26.576  26.191  1.00  0.00     0.059 A 
ATOM     97  F   UNL A   1      50.045  26.809  28.077  1.00  0.00    -0.206 F 
ATOM     98  C   UNL A   1      51.580  26.655  24.808  1.00  0.00     0.060 A 
BRANCH  98  99
ATOM     99  S   UNL A   1      53.171  26.255  24.054  1.00  0.00     0.124 S 
ATOM    100  O   UNL A   1      53.391  24.896  24.535  1.00  0.00    -0.237 OA
ATOM    101  O   UNL A   1      52.885  26.386  22.629  1.00  0.00    -0.237 OA
ATOM    102  O   UNL A   1      54.069  27.270  24.601  1.00  0.00    -0.744 OA
ENDBRANCH  98  99
ENDBRANCH  66  91
ENDBRANCH  40  41
ENDBRANCH  33  35
ENDBRANCH  32  33
ENDBRANCH  31  32
ENDBRANCH  30  31
ENDBRANCH  29  30
ENDBRANCH  28  29
ENDBRANCH   1  28
TORSDOF 24
ENDMDL
MODEL 2
REMARK VINA RESULT:     -10.2      1.566      3.996
REMARK SMILES O=C(/C=C/c1ccccc1)Nc1ccc(O)cc1C(=O)OCCOCCOCCOC(=O)c1ccc(-c2c3nc(c(-c4c(F)cc(S(=O)(=O)[O-])cc4F)c4ccc([nH]4)c(-c4c(F)cc(S(=O)(=O)[O-])cc4F)c4nc(c(-c5c(F)cc(S(=O)(=O)[O-])cc5F)c5ccc2[nH]5)C=C4)C=C3)cc1
REMARK SMILES IDX 25 1 24 2 23 3 22 4 21 5 19 6 20 7 18 8 12 9 13 10 14 11
REMARK SMILES IDX 17 12 15 13 11 14 1 15 2 16 3 18 4 19 5 20 6 21 10 22 7 23
REMARK SMILES IDX 9 24 8 25 16 26 26 28 27 29 28 30 29 31 30 32 31 33 32 34
REMARK SMILES IDX 33 35 34 36 98 37 35 38 97 39 36 40 37 41 38 42 91 43 39 44
REMARK SMILES IDX 96 45 90 46 92 47 40 48 95 49 89 50 88 51 41 53 75 54 54 55
REMARK SMILES IDX 74 56 55 57 58 58 73 59 93 60 56 61 57 62 72 64 94 65 59 66
REMARK SMILES IDX 42 67 43 68 52 69 44 70 45 71 51 72 53 73 46 74 47 75 48 76
REMARK SMILES IDX 49 77 50 78 76 79 77 80 86 81 78 82 79 83 85 84 87 85 80 86
REMARK SMILES IDX 81 87 82 88 83 89 84 90 60 91 61 92 70 93 62 94 63 95 69 96
REMARK SMILES IDX 71 97 64 98 65 99 66 100 67 101 68 102
REMARK H PARENT 11 17 16 27 92 52 58 63
REMARK Flexibility Score: inf
ROOT
ATOM      1  C   UNL A   1      34.923  32.329  27.637  1.00  0.00     0.188 C 
ENDROOT
BRANCH   1   2
ATOM      2  O   UNL A   1      34.463  31.056  28.068  1.00  0.00    -0.376 OA
BRANCH   2   3
ATOM      3  C   UNL A   1      33.941  30.156  27.094  1.00  0.00     0.202 C 
BRANCH   3   4
ATOM      4  C   UNL A   1      34.105  28.668  27.385  1.00  0.00     0.261 C 
BRANCH   4   5
ATOM      5  O   UNL A   1      33.439  27.916  26.362  1.00  0.00    -0.460 OA
BRANCH   5   6
ATOM      6  C   UNL A   1      32.096  27.809  26.503  1.00  0.00     0.340 C 
ATOM      7  O   UNL A   1      31.470  27.875  27.549  1.00  0.00    -0.246 OA
BRANCH   6   8
ATOM      8  C   UNL A   1      31.465  27.880  25.164  1.00  0.00     0.087 A 
ATOM      9  C   UNL A   1      31.511  26.879  24.170  1.00  0.00     0.056 A 
ATOM     10  C   UNL A   1      31.018  27.189  22.890  1.00  0.00     0.031 A 
ATOM     11  C   UNL A   1      30.480  28.446  22.606  1.00  0.00     0.048 A 
ATOM     12  C   UNL A   1      30.927  29.149  24.864  1.00  0.00     0.064 A 
ATOM     13  C   UNL A   1      30.445  29.418  23.591  1.00  0.00     0.116 A 
BRANCH   9  14
ATOM     14  N   UNL A   1      32.066  25.580  24.298  1.00  0.00    -0.322 N 
ATOM     15  O   UNL A   1      34.062  25.808  23.158  1.00  0.00    -0.270 OA
ATOM     16  C   UNL A   1      33.196  25.114  23.681  1.00  0.00     0.248 C 
ATOM     17  H   UNL A   1      31.591  24.951  24.888  1.00  0.00     0.170 HD
BRANCH  16  18
ATOM     18  C   UNL A   1      33.411  23.640  23.700  1.00  0.00     0.072 C 
ATOM     19  C   UNL A   1      33.111  22.755  24.665  1.00  0.00     0.014 C 
BRANCH  19  20
ATOM     20  C   UNL A   1      33.385  21.310  24.547  1.00  0.00    -0.025 A 
ATOM     21  C   UNL A   1      32.360  20.453  24.117  1.00  0.00     0.008 A 
ATOM     22  C   UNL A   1      34.620  20.744  24.897  1.00  0.00     0.008 A 
ATOM     23  C   UNL A   1      32.577  19.075  24.017  1.00  0.00     0.001 A 
ATOM     24  C   UNL A   1      34.838  19.368  24.791  1.00  0.00     0.001 A 
ATOM     25  C   UNL A   1      33.816  18.534  24.349  1.00  0.00     0.000 A 
ENDBRANCH  19  20
ENDBRANCH  16  18
ENDBRANCH   9  14
BRANCH  13  26
ATOM     26  O   UNL A   1      29.954  30.643  23.257  1.00  0.00    -0.508 OA
ATOM     27  H   UNL A   1      29.416  30.740  22.495  1.00  0.00     0.293 HD
ENDBRANCH  13  26
ENDBRANCH   6   8
ENDBRANCH   5   6
ENDBRANCH   4   5
ENDBRANCH   3   4
ENDBRANCH   2   3
ENDBRANCH   1   2
BRANCH   1  28
ATOM     28  C   UNL A   1      34.236  33.610  28.162  1.00  0.00     0.188 C 
BRANCH  28  29
ATOM     29  O   UNL A   1      33.638  33.659  29.449  1.00  0.00    -0.376 OA
BRANCH  29  30
ATOM     30  C   UNL A   1      34.461  33.831  30.593  1.00  0.00     0.202 C 
BRANCH  30  31
ATOM     31  C   UNL A   1      34.749  32.625  31.487  1.00  0.00     0.261 C 
BRANCH  31  32
ATOM     32  O   UNL A   1      35.836  31.819  31.014  1.00  0.00    -0.460 OA
BRANCH  32  33
ATOM     33  C   UNL A   1      36.894  31.737  31.855  1.00  0.00     0.338 C 
ATOM     34  O   UNL A   1      36.929  32.059  33.031  1.00  0.00    -0.246 OA
BRANCH  33  35
ATOM     35  C   UNL A   1      37.995  31.016  31.190  1.00  0.00     0.060 A 
ATOM     36  C   UNL A   1      38.936  30.370  32.000  1.00  0.00     0.016 A 
ATOM     37  C   UNL A   1      38.125  31.011  29.799  1.00  0.00     0.016 A 
ATOM     38  C   UNL A   1      40.040  29.748  31.422  1.00  0.00     0.010 A 
ATOM     39  C   UNL A   1      39.243  30.404  29.223  1.00  0.00     0.010 A 
ATOM     40  C   UNL A   1      40.219  29.800  30.034  1.00  0.00    -0.014 A 
BRANCH  40  41
ATOM     41  C   UNL A   1      41.514  29.383  29.450  1.00  0.00     0.031 A 
ATOM     42  C   UNL A   1      42.612  30.405  29.340  1.00  0.00     0.074 A 
ATOM     43  C   UNL A   1      41.717  28.119  29.043  1.00  0.00     0.049 A 
ATOM     44  N   UNL A   1      43.815  30.279  28.846  1.00  0.00    -0.248 NA
ATOM     45  C   UNL A   1      42.308  31.749  29.860  1.00  0.00     0.031 C 
ATOM     46  C   UNL A   1      40.742  27.033  29.132  1.00  0.00     0.029 A 
ATOM     47  N   UNL A   1      42.817  27.539  28.463  1.00  0.00    -0.354 N 
ATOM     48  C   UNL A   1      44.415  31.523  29.000  1.00  0.00     0.074 A 
ATOM     49  C   UNL A   1      43.435  32.398  29.605  1.00  0.00     0.031 C 
ATOM     50  C   UNL A   1      41.285  25.917  28.614  1.00  0.00     0.029 A 
ATOM     51  C   UNL A   1      42.635  26.217  28.135  1.00  0.00     0.049 A 
ATOM     52  H   UNL A   1      43.658  28.024  28.298  1.00  0.00     0.167 HD
ATOM     53  C   UNL A   1      45.674  31.901  28.674  1.00  0.00     0.037 A 
ATOM     54  C   UNL A   1      43.458  25.357  27.506  1.00  0.00     0.037 A 
ATOM     55  C   UNL A   1      46.641  31.037  28.051  1.00  0.00     0.049 A 
ATOM     56  C   UNL A   1      44.825  25.823  27.075  1.00  0.00     0.074 A 
ATOM     57  C   UNL A   1      47.940  31.326  27.674  1.00  0.00     0.029 A 
ATOM     58  N   UNL A   1      46.406  29.716  27.701  1.00  0.00    -0.354 N 
ATOM     59  N   UNL A   1      45.388  26.997  27.242  1.00  0.00    -0.248 NA
ATOM     60  C   UNL A   1      45.668  24.848  26.368  1.00  0.00     0.031 C 
ATOM     61  C   UNL A   1      48.480  30.189  27.063  1.00  0.00     0.029 A 
ATOM     62  C   UNL A   1      47.530  29.180  27.095  1.00  0.00     0.049 A 
ATOM     63  H   UNL A   1      45.565  29.230  27.860  1.00  0.00     0.167 HD
ATOM     64  C   UNL A   1      46.660  26.892  26.686  1.00  0.00     0.074 A 
ATOM     65  C   UNL A   1      46.784  25.539  26.181  1.00  0.00     0.031 C 
ATOM     66  C   UNL A   1      47.638  27.829  26.604  1.00  0.00     0.037 A 
BRANCH  53  67
ATOM     67  C   UNL A   1      46.056  33.324  28.965  1.00  0.00     0.058 A 
ATOM     68  C   UNL A   1      46.647  33.689  30.185  1.00  0.00     0.135 A 
ATOM     69  C   UNL A   1      45.822  34.335  28.019  1.00  0.00     0.135 A 
ATOM     70  F   UNL A   1      46.873  32.764  31.131  1.00  0.00    -0.206 F 
ATOM     71  C   UNL A   1      46.963  35.014  30.471  1.00  0.00     0.059 A 
ATOM     72  C   UNL A   1      46.150  35.663  28.276  1.00  0.00     0.059 A 
ATOM     73  F   UNL A   1      45.254  34.038  26.840  1.00  0.00    -0.206 F 
ATOM     74  C   UNL A   1      46.703  35.994  29.512  1.00  0.00     0.060 A 
BRANCH  74  75
ATOM     75  S   UNL A   1      47.094  37.712  29.905  1.00  0.00     0.124 S 
ATOM     76  O   UNL A   1      46.692  37.788  31.306  1.00  0.00    -0.237 OA
ATOM     77  O   UNL A   1      48.530  37.774  29.653  1.00  0.00    -0.237 OA
ATOM     78  O   UNL A   1      46.265  38.470  28.972  1.00  0.00    -0.744 OA
ENDBRANCH  74  75
ENDBRANCH  53  67
BRANCH  54  79
ATOM     79  C   UNL A   1      43.017  23.963  27.243  1.00  0.00     0.058 A 
ATOM     80  C   UNL A   1      42.590  23.571  25.967  1.00  0.00     0.135 A 
ATOM     81  C   UNL A   1      43.014  22.998  28.262  1.00  0.00     0.135 A 
ATOM     82  F   UNL A   1      42.566  24.462  24.965  1.00  0.00    -0.206 F 
ATOM     83  C   UNL A   1      42.163  22.272  25.710  1.00  0.00     0.059 A 
ATOM     84  C   UNL A   1      42.611  21.687  28.025  1.00  0.00     0.059 A 
ATOM     85  F   UNL A   1      43.422  23.323  29.499  1.00  0.00    -0.206 F 
ATOM     86  C   UNL A   1      42.179  21.336  26.746  1.00  0.00     0.060 A 
BRANCH  86  87
ATOM     87  S   UNL A   1      41.670  19.640  26.391  1.00  0.00     0.124 S 
ATOM     88  O   UNL A   1      42.112  18.944  27.593  1.00  0.00    -0.237 OA
ATOM     89  O   UNL A   1      40.226  19.781  26.228  1.00  0.00    -0.237 OA
ATOM     90  O   UNL A   1      42.402  19.322  25.169  1.00  0.00    -0.744 OA
ENDBRANCH  86  87
ENDBRANCH  54  79
BRANCH  66  91
ATOM     91  C   UNL A   1      48.941  27.418  25.977  1.00  0.00     0.058 A 
ATOM     92  C   UNL A   1      49.171  27.553  24.600  1.00  0.00     0.135 A 
ATOM     93  C   UNL A   1      49.993  26.940  26.776  1.00  0.00     0.135 A 
ATOM     94  F   UNL A   1      48.196  28.000  23.793  1.00  0.00    -0.206 F 
ATOM     95  C   UNL A   1      50.394  27.211  24.032  1.00  0.00     0.059 A 
ATOM     96  C   UNL A   1      51.231  26.613  26.233  1.00  0.00     0.059 A 
ATOM     97  F   UNL A   1      49.828  26.803  28.102  1.00  0.00    -0.206 F 
ATOM     98  C   UNL A   1      51.419  26.743  24.857  1.00  0.00     0.060 A 
BRANCH  98  99
ATOM     99  S   UNL A   1      53.016  26.339  24.116  1.00  0.00     0.124 S 
ATOM    100  O   UNL A   1      53.808  27.512  24.466  1.00  0.00    -0.237 OA
ATOM    101  O   UNL A   1      53.376  25.102  24.801  1.00  0.00    -0.237 OA
ATOM    102  O   UNL A   1      52.702  26.192  22.696  1.00  0.00    -0.744 OA
ENDBRANCH  98  99
ENDBRANCH  66  91
ENDBRANCH  40  41
ENDBRANCH  33  35
ENDBRANCH  32  33
ENDBRANCH  31  32
ENDBRANCH  30  31
ENDBRANCH  29  30
ENDBRANCH  28  29
ENDBRANCH   1  28
TORSDOF 24
ENDMDL
MODEL 3
REMARK VINA RESULT:      -9.5      7.255     15.807
REMARK SMILES O=C(/C=C/c1ccccc1)Nc1ccc(O)cc1C(=O)OCCOCCOCCOC(=O)c1ccc(-c2c3nc(c(-c4c(F)cc(S(=O)(=O)[O-])cc4F)c4ccc([nH]4)c(-c4c(F)cc(S(=O)(=O)[O-])cc4F)c4nc(c(-c5c(F)cc(S(=O)(=O)[O-])cc5F)c5ccc2[nH]5)C=C4)C=C3)cc1
REMARK SMILES IDX 25 1 24 2 23 3 22 4 21 5 19 6 20 7 18 8 12 9 13 10 14 11
REMARK SMILES IDX 17 12 15 13 11 14 1 15 2 16 3 18 4 19 5 20 6 21 10 22 7 23
REMARK SMILES IDX 9 24 8 25 16 26 26 28 27 29 28 30 29 31 30 32 31 33 32 34
REMARK SMILES IDX 33 35 34 36 98 37 35 38 97 39 36 40 37 41 38 42 91 43 39 44
REMARK SMILES IDX 96 45 90 46 92 47 40 48 95 49 89 50 88 51 41 53 75 54 54 55
REMARK SMILES IDX 74 56 55 57 58 58 73 59 93 60 56 61 57 62 72 64 94 65 59 66
REMARK SMILES IDX 42 67 43 68 52 69 44 70 45 71 51 72 53 73 46 74 47 75 48 76
REMARK SMILES IDX 49 77 50 78 76 79 77 80 86 81 78 82 79 83 85 84 87 85 80 86
REMARK SMILES IDX 81 87 82 88 83 89 84 90 60 91 61 92 70 93 62 94 63 95 69 96
REMARK SMILES IDX 71 97 64 98 65 99 66 100 67 101 68 102
REMARK H PARENT 11 17 16 27 92 52 58 63
REMARK Flexibility Score: inf
ROOT
ATOM      1  C   UNL A   1      51.141  23.434  34.859  1.00  0.00     0.188 C 
ENDROOT
BRANCH   1   2
ATOM      2  O   UNL A   1      50.632  22.152  35.199  1.00  0.00    -0.376 OA
BRANCH   2   3
ATOM      3  C   UNL A   1      49.271  21.857  34.893  1.00  0.00     0.202 C 
BRANCH   3   4
ATOM      4  C   UNL A   1      48.824  20.414  35.097  1.00  0.00     0.261 C 
BRANCH   4   5
ATOM      5  O   UNL A   1      47.885  20.364  36.179  1.00  0.00    -0.460 OA
BRANCH   5   6
ATOM      6  C   UNL A   1      46.669  20.899  35.916  1.00  0.00     0.340 C 
ATOM      7  O   UNL A   1      45.950  20.631  34.965  1.00  0.00    -0.246 OA
BRANCH   6   8
ATOM      8  C   UNL A   1      46.208  21.656  37.103  1.00  0.00     0.087 A 
ATOM      9  C   UNL A   1      45.766  22.996  37.114  1.00  0.00     0.056 A 
ATOM     10  C   UNL A   1      45.545  23.614  38.359  1.00  0.00     0.031 A 
ATOM     11  C   UNL A   1      45.739  22.922  39.556  1.00  0.00     0.048 A 
ATOM     12  C   UNL A   1      46.409  20.968  38.319  1.00  0.00     0.064 A 
ATOM     13  C   UNL A   1      46.177  21.609  39.528  1.00  0.00     0.116 A 
BRANCH   9  14
ATOM     14  N   UNL A   1      45.571  23.835  35.987  1.00  0.00    -0.322 N 
ATOM     15  O   UNL A   1      43.304  23.600  35.614  1.00  0.00    -0.270 OA
ATOM     16  C   UNL A   1      44.421  23.959  35.255  1.00  0.00     0.248 C 
ATOM     17  H   UNL A   1      46.339  24.382  35.704  1.00  0.00     0.170 HD
BRANCH  16  18
ATOM     18  C   UNL A   1      44.536  24.642  33.936  1.00  0.00     0.072 C 
ATOM     19  C   UNL A   1      45.630  25.136  33.333  1.00  0.00     0.014 C 
BRANCH  19  20
ATOM     20  C   UNL A   1      45.595  25.793  32.012  1.00  0.00    -0.025 A 
ATOM     21  C   UNL A   1      46.280  27.005  31.834  1.00  0.00     0.008 A 
ATOM     22  C   UNL A   1      44.859  25.281  30.933  1.00  0.00     0.008 A 
ATOM     23  C   UNL A   1      46.249  27.668  30.604  1.00  0.00     0.001 A 
ATOM     24  C   UNL A   1      44.834  25.941  29.702  1.00  0.00     0.001 A 
ATOM     25  C   UNL A   1      45.530  27.134  29.537  1.00  0.00     0.000 A 
ENDBRANCH  19  20
ENDBRANCH  16  18
ENDBRANCH   9  14
BRANCH  13  26
ATOM     26  O   UNL A   1      46.396  20.988  40.720  1.00  0.00    -0.508 OA
ATOM     27  H   UNL A   1      46.486  20.055  40.753  1.00  0.00     0.293 HD
ENDBRANCH  13  26
ENDBRANCH   6   8
ENDBRANCH   5   6
ENDBRANCH   4   5
ENDBRANCH   3   4
ENDBRANCH   2   3
ENDBRANCH   1   2
BRANCH   1  28
ATOM     28  C   UNL A   1      51.066  24.584  35.888  1.00  0.00     0.188 C 
BRANCH  28  29
ATOM     29  O   UNL A   1      50.667  24.357  37.232  1.00  0.00    -0.376 OA
BRANCH  29  30
ATOM     30  C   UNL A   1      49.285  24.271  37.543  1.00  0.00     0.202 C 
BRANCH  30  31
ATOM     31  C   UNL A   1      48.601  25.460  38.216  1.00  0.00     0.261 C 
BRANCH  31  32
ATOM     32  O   UNL A   1      47.613  26.086  37.388  1.00  0.00    -0.460 OA
BRANCH  32  33
ATOM     33  C   UNL A   1      47.041  27.193  37.918  1.00  0.00     0.338 C 
ATOM     34  O   UNL A   1      47.442  27.850  38.864  1.00  0.00    -0.246 OA
BRANCH  33  35
ATOM     35  C   UNL A   1      45.921  27.624  37.062  1.00  0.00     0.060 A 
ATOM     36  C   UNL A   1      46.177  28.605  36.095  1.00  0.00     0.016 A 
ATOM     37  C   UNL A   1      44.633  27.109  37.233  1.00  0.00     0.016 A 
ATOM     38  C   UNL A   1      45.135  29.106  35.320  1.00  0.00     0.010 A 
ATOM     39  C   UNL A   1      43.586  27.627  36.468  1.00  0.00     0.010 A 
ATOM     40  C   UNL A   1      43.828  28.649  35.534  1.00  0.00    -0.014 A 
BRANCH  40  41
ATOM     41  C   UNL A   1      42.693  29.368  34.910  1.00  0.00     0.031 A 
ATOM     42  C   UNL A   1      42.207  28.907  33.564  1.00  0.00     0.074 A 
ATOM     43  C   UNL A   1      42.096  30.396  35.536  1.00  0.00     0.049 A 
ATOM     44  N   UNL A   1      41.250  29.392  32.818  1.00  0.00    -0.248 NA
ATOM     45  C   UNL A   1      42.895  27.741  32.984  1.00  0.00     0.031 C 
ATOM     46  C   UNL A   1      42.455  30.908  36.857  1.00  0.00     0.029 A 
ATOM     47  N   UNL A   1      41.060  31.199  35.132  1.00  0.00    -0.354 N 
ATOM     48  C   UNL A   1      41.215  28.590  31.684  1.00  0.00     0.074 A 
ATOM     49  C   UNL A   1      42.266  27.605  31.826  1.00  0.00     0.031 C 
ATOM     50  C   UNL A   1      41.656  31.949  37.151  1.00  0.00     0.029 A 
ATOM     51  C   UNL A   1      40.749  32.191  36.030  1.00  0.00     0.049 A 
ATOM     52  H   UNL A   1      40.584  31.076  34.278  1.00  0.00     0.167 HD
ATOM     53  C   UNL A   1      40.377  28.660  30.623  1.00  0.00     0.037 A 
ATOM     54  C   UNL A   1      39.847  33.188  35.945  1.00  0.00     0.037 A 
ATOM     55  C   UNL A   1      39.348  29.654  30.472  1.00  0.00     0.049 A 
ATOM     56  C   UNL A   1      38.981  33.299  34.716  1.00  0.00     0.074 A 
ATOM     57  C   UNL A   1      38.452  29.816  29.431  1.00  0.00     0.029 A 
ATOM     58  N   UNL A   1      39.089  30.664  31.386  1.00  0.00    -0.354 N 
ATOM     59  N   UNL A   1      38.945  32.523  33.658  1.00  0.00    -0.248 NA
ATOM     60  C   UNL A   1      38.036  34.423  34.668  1.00  0.00     0.031 C 
ATOM     61  C   UNL A   1      37.672  30.947  29.699  1.00  0.00     0.029 A 
ATOM     62  C   UNL A   1      38.058  31.466  30.925  1.00  0.00     0.049 A 
ATOM     63  H   UNL A   1      39.566  30.793  32.236  1.00  0.00     0.167 HD
ATOM     64  C   UNL A   1      37.955  33.049  32.833  1.00  0.00     0.074 A 
ATOM     65  C   UNL A   1      37.415  34.208  33.516  1.00  0.00     0.031 C 
ATOM     66  C   UNL A   1      37.529  32.612  31.622  1.00  0.00     0.037 A 
BRANCH  53  67
ATOM     67  C   UNL A   1      40.568  27.644  29.533  1.00  0.00     0.058 A 
ATOM     68  C   UNL A   1      41.600  27.766  28.590  1.00  0.00     0.135 A 
ATOM     69  C   UNL A   1      39.706  26.542  29.426  1.00  0.00     0.135 A 
ATOM     70  F   UNL A   1      42.439  28.813  28.636  1.00  0.00    -0.206 F 
ATOM     71  C   UNL A   1      41.751  26.848  27.556  1.00  0.00     0.059 A 
ATOM     72  C   UNL A   1      39.851  25.599  28.412  1.00  0.00     0.059 A 
ATOM     73  F   UNL A   1      38.700  26.383  30.300  1.00  0.00    -0.206 F 
ATOM     74  C   UNL A   1      40.866  25.772  27.472  1.00  0.00     0.060 A 
BRANCH  74  75
ATOM     75  S   UNL A   1      41.056  24.601  26.111  1.00  0.00     0.124 S 
ATOM     76  O   UNL A   1      41.439  25.487  25.016  1.00  0.00    -0.237 OA
ATOM     77  O   UNL A   1      42.105  23.713  26.604  1.00  0.00    -0.237 OA
ATOM     78  O   UNL A   1      39.732  23.996  25.996  1.00  0.00    -0.744 OA
ENDBRANCH  74  75
ENDBRANCH  53  67
BRANCH  54  79
ATOM     79  C   UNL A   1      39.711  34.164  37.056  1.00  0.00     0.058 A 
ATOM     80  C   UNL A   1      40.281  35.441  36.967  1.00  0.00     0.135 A 
ATOM     81  C   UNL A   1      39.010  33.838  38.227  1.00  0.00     0.135 A 
ATOM     82  F   UNL A   1      40.969  35.794  35.871  1.00  0.00    -0.206 F 
ATOM     83  C   UNL A   1      40.171  36.361  38.005  1.00  0.00     0.059 A 
ATOM     84  C   UNL A   1      38.869  34.748  39.271  1.00  0.00     0.059 A 
ATOM     85  F   UNL A   1      38.440  32.630  38.356  1.00  0.00    -0.206 F 
ATOM     86  C   UNL A   1      39.462  36.005  39.153  1.00  0.00     0.060 A 
BRANCH  86  87
ATOM     87  S   UNL A   1      39.283  37.223  40.475  1.00  0.00     0.124 S 
ATOM     88  O   UNL A   1      38.833  36.388  41.583  1.00  0.00    -0.237 OA
ATOM     89  O   UNL A   1      40.638  37.756  40.586  1.00  0.00    -0.237 OA
ATOM     90  O   UNL A   1      38.293  38.153  39.940  1.00  0.00    -0.744 OA
ENDBRANCH  86  87
ENDBRANCH  54  79
BRANCH  66  91
ATOM     91  C   UNL A   1      36.402  33.363  30.970  1.00  0.00     0.058 A 
ATOM     92  C   UNL A   1      35.093  33.313  31.473  1.00  0.00     0.135 A 
ATOM     93  C   UNL A   1      36.648  34.192  29.863  1.00  0.00     0.135 A 
ATOM     94  F   UNL A   1      34.805  32.532  32.526  1.00  0.00    -0.206 F 
ATOM     95  C   UNL A   1      34.063  34.043  30.890  1.00  0.00     0.059 A 
ATOM     96  C   UNL A   1      35.638  34.949  29.278  1.00  0.00     0.059 A 
ATOM     97  F   UNL A   1      37.886  34.284  29.349  1.00  0.00    -0.206 F 
ATOM     98  C   UNL A   1      34.345  34.860  29.794  1.00  0.00     0.060 A 
BRANCH  98  99
ATOM     99  S   UNL A   1      33.009  35.835  29.069  1.00  0.00     0.124 S 
ATOM    100  O   UNL A   1      32.354  34.849  28.218  1.00  0.00    -0.237 OA
ATOM    101  O   UNL A   1      32.256  36.259  30.245  1.00  0.00    -0.237 OA
ATOM    102  O   UNL A   1      33.714  36.905  28.366  1.00  0.00    -0.744 OA
ENDBRANCH  98  99
ENDBRANCH  66  91
ENDBRANCH  40  41
ENDBRANCH  33  35
ENDBRANCH  32  33
ENDBRANCH  31  32
ENDBRANCH  30  31
ENDBRANCH  29  30
ENDBRANCH  28  29
ENDBRANCH   1  28
TORSDOF 24
ENDMDL
