MODEL 1
REMARK VINA RESULT:     -11.8      0.000      0.000
REMARK SMILES Cc1cc(=O)n2cc(-c3ccccc3)nc2n1[C@H](C)C(=O)OCCOCCOCCOC(=O)c1ccc(-c2c3nc(c(-c4c(F)cc(S(=O)(=O)[O-])cc4F)c4ccc([nH]4)c(-c4c(F)cc(S(=O)(=O)[O-])cc4F)c4nc(c(-c5c(F)cc(S(=O)(=O)[O-])cc5F)c5ccc2[nH]5)C=C4)C=C3)cc1
REMARK SMILES IDX 27 1 26 2 25 3 24 4 23 5 22 6 20 7 21 8 18 9 19 10 17 11
REMARK SMILES IDX 1 12 2 13 3 14 4 15 16 16 5 17 6 18 15 19 7 20 8 21 9 22
REMARK SMILES IDX 10 23 14 24 11 25 13 26 12 27 28 28 29 29 30 30 31 31 32 32
REMARK SMILES IDX 33 33 34 34 35 35 99 36 36 37 98 38 37 39 38 40 39 41 92 42
REMARK SMILES IDX 40 43 97 44 91 45 93 46 41 47 96 48 90 49 89 50 42 52 76 53
REMARK SMILES IDX 55 54 75 55 56 56 59 57 74 58 94 59 57 60 58 61 73 63 95 64
REMARK SMILES IDX 60 65 43 66 44 67 53 68 45 69 46 70 52 71 54 72 47 73 48 74
REMARK SMILES IDX 49 75 50 76 51 77 77 78 78 79 87 80 79 81 80 82 86 83 88 84
REMARK SMILES IDX 81 85 82 86 83 87 84 88 85 89 61 90 62 91 71 92 63 93 64 94
REMARK SMILES IDX 70 95 72 96 65 97 66 98 67 99 68 100 69 101
REMARK H PARENT 93 51 59 62
REMARK Flexibility Score: inf
ROOT
ATOM      1  C   UNL A   1      32.642  28.788  24.086  1.00  0.00     0.188 C 
ENDROOT
BRANCH   1   2
ATOM      2  C   UNL A   1      31.141  28.563  23.829  1.00  0.00     0.188 C 
BRANCH   2   3
ATOM      3  O   UNL A   1      30.621  27.262  23.746  1.00  0.00    -0.376 OA
BRANCH   3   4
ATOM      4  C   UNL A   1      29.671  26.831  24.701  1.00  0.00     0.202 C 
BRANCH   4   5
ATOM      5  C   UNL A   1      29.915  25.656  25.668  1.00  0.00     0.261 C 
BRANCH   5   6
ATOM      6  O   UNL A   1      31.255  25.498  26.166  1.00  0.00    -0.462 OA
BRANCH   6   7
ATOM      7  C   UNL A   1      31.702  24.225  26.325  1.00  0.00     0.329 C 
ATOM      8  O   UNL A   1      31.680  23.630  27.404  1.00  0.00    -0.250 OA
BRANCH   7   9
ATOM      9  C   UNL A   1      32.260  23.543  25.044  1.00  0.00     0.197 C 
ATOM     10  C   UNL A   1      31.994  24.097  23.640  1.00  0.00     0.044 C 
BRANCH   9  11
ATOM     11  N   UNL A   1      33.731  23.404  25.208  1.00  0.00    -0.301 N 
ATOM     12  C   UNL A   1      34.139  25.884  25.438  1.00  0.00     0.065 C 
ATOM     13  C   UNL A   1      34.637  24.461  25.343  1.00  0.00     0.024 A 
ATOM     14  C   UNL A   1      35.962  24.225  25.396  1.00  0.00     0.093 A 
ATOM     15  C   UNL A   1      36.486  22.838  25.297  1.00  0.00     0.259 A 
ATOM     16  C   UNL A   1      34.167  22.110  25.183  1.00  0.00     0.218 A 
ATOM     17  O   UNL A   1      37.675  22.549  25.296  1.00  0.00    -0.269 OA
ATOM     18  N   UNL A   1      35.514  21.848  25.206  1.00  0.00    -0.251 N 
ATOM     19  N   UNL A   1      33.461  21.010  25.090  1.00  0.00    -0.212 NA
ATOM     20  C   UNL A   1      35.651  20.475  25.092  1.00  0.00     0.127 A 
ATOM     21  C   UNL A   1      34.363  19.992  25.015  1.00  0.00     0.091 A 
BRANCH  21  22
ATOM     22  C   UNL A   1      33.940  18.626  24.817  1.00  0.00     0.002 A 
ATOM     23  C   UNL A   1      34.778  17.689  24.210  1.00  0.00     0.010 A 
ATOM     24  C   UNL A   1      32.705  18.211  25.335  1.00  0.00     0.010 A 
ATOM     25  C   UNL A   1      34.377  16.352  24.112  1.00  0.00     0.001 A 
ATOM     26  C   UNL A   1      32.306  16.877  25.239  1.00  0.00     0.001 A 
ATOM     27  C   UNL A   1      33.143  15.948  24.625  1.00  0.00     0.000 A 
ENDBRANCH  21  22
ENDBRANCH   9  11
ENDBRANCH   7   9
ENDBRANCH   6   7
ENDBRANCH   5   6
ENDBRANCH   4   5
ENDBRANCH   3   4
ENDBRANCH   2   3
ENDBRANCH   1   2
BRANCH   1  28
ATOM     28  O   UNL A   1      33.208  29.704  25.005  1.00  0.00    -0.376 OA
BRANCH  28  29
ATOM     29  C   UNL A   1      32.704  30.064  26.283  1.00  0.00     0.202 C 
BRANCH  29  30
ATOM     30  C   UNL A   1      33.501  30.839  27.328  1.00  0.00     0.261 C 
BRANCH  30  31
ATOM     31  O   UNL A   1      34.882  30.611  27.248  1.00  0.00    -0.460 OA
BRANCH  31  32
ATOM     32  C   UNL A   1      35.594  31.602  27.818  1.00  0.00     0.338 C 
ATOM     33  O   UNL A   1      35.597  32.788  27.518  1.00  0.00    -0.246 OA
BRANCH  32  34
ATOM     34  C   UNL A   1      36.365  31.021  28.914  1.00  0.00     0.060 A 
ATOM     35  C   UNL A   1      37.349  31.845  29.454  1.00  0.00     0.016 A 
ATOM     36  C   UNL A   1      36.340  29.632  29.091  1.00  0.00     0.016 A 
ATOM     37  C   UNL A   1      38.518  31.240  29.815  1.00  0.00     0.010 A 
ATOM     38  C   UNL A   1      37.514  29.028  29.431  1.00  0.00     0.010 A 
ATOM     39  C   UNL A   1      38.610  29.853  29.648  1.00  0.00    -0.014 A 
BRANCH  39  40
ATOM     40  C   UNL A   1      39.921  29.271  29.722  1.00  0.00     0.031 A 
ATOM     41  C   UNL A   1      40.341  29.090  31.118  1.00  0.00     0.074 A 
ATOM     42  C   UNL A   1      40.604  28.930  28.616  1.00  0.00     0.049 A 
ATOM     43  N   UNL A   1      41.172  29.821  31.778  1.00  0.00    -0.248 NA
ATOM     44  C   UNL A   1      39.546  28.172  31.946  1.00  0.00     0.031 C 
ATOM     45  C   UNL A   1      40.140  28.868  27.227  1.00  0.00     0.029 A 
ATOM     46  N   UNL A   1      41.878  28.475  28.530  1.00  0.00    -0.354 N 
ATOM     47  C   UNL A   1      41.202  29.263  33.046  1.00  0.00     0.074 A 
ATOM     48  C   UNL A   1      40.019  28.455  33.159  1.00  0.00     0.031 C 
ATOM     49  C   UNL A   1      41.043  28.181  26.488  1.00  0.00     0.029 A 
ATOM     50  C   UNL A   1      42.199  27.882  27.315  1.00  0.00     0.049 A 
ATOM     51  H   UNL A   1      42.523  28.558  29.268  1.00  0.00     0.167 HD
ATOM     52  C   UNL A   1      42.356  29.254  33.762  1.00  0.00     0.037 A 
ATOM     53  C   UNL A   1      43.307  27.130  27.083  1.00  0.00     0.037 A 
ATOM     54  C   UNL A   1      43.288  30.231  33.248  1.00  0.00     0.049 A 
ATOM     55  C   UNL A   1      44.295  27.498  28.140  1.00  0.00     0.074 A 
ATOM     56  C   UNL A   1      43.262  31.604  33.092  1.00  0.00     0.029 A 
ATOM     57  N   UNL A   1      44.297  29.775  32.435  1.00  0.00    -0.354 N 
ATOM     58  N   UNL A   1      44.853  28.676  28.232  1.00  0.00    -0.248 NA
ATOM     59  C   UNL A   1      44.291  26.718  29.371  1.00  0.00     0.031 C 
ATOM     60  C   UNL A   1      43.955  31.856  31.872  1.00  0.00     0.029 A 
ATOM     61  C   UNL A   1      44.419  30.637  31.374  1.00  0.00     0.049 A 
ATOM     62  H   UNL A   1      44.840  28.967  32.585  1.00  0.00     0.167 HD
ATOM     63  C   UNL A   1      44.889  28.954  29.593  1.00  0.00     0.074 A 
ATOM     64  C   UNL A   1      44.601  27.680  30.246  1.00  0.00     0.031 C 
ATOM     65  C   UNL A   1      44.858  30.241  30.051  1.00  0.00     0.037 A 
BRANCH  52  66
ATOM     66  C   UNL A   1      42.786  28.090  34.622  1.00  0.00     0.058 A 
ATOM     67  C   UNL A   1      42.971  28.305  36.001  1.00  0.00     0.135 A 
ATOM     68  C   UNL A   1      43.293  26.866  34.124  1.00  0.00     0.135 A 
ATOM     69  F   UNL A   1      42.528  29.431  36.582  1.00  0.00    -0.206 F 
ATOM     70  C   UNL A   1      43.685  27.417  36.802  1.00  0.00     0.059 A 
ATOM     71  C   UNL A   1      43.955  25.941  34.917  1.00  0.00     0.059 A 
ATOM     72  F   UNL A   1      43.265  26.535  32.829  1.00  0.00    -0.206 F 
ATOM     73  C   UNL A   1      44.187  26.244  36.245  1.00  0.00     0.060 A 
BRANCH  73  74
ATOM     74  S   UNL A   1      45.204  25.151  37.246  1.00  0.00     0.124 S 
ATOM     75  O   UNL A   1      44.917  25.640  38.589  1.00  0.00    -0.237 OA
ATOM     76  O   UNL A   1      44.655  23.842  36.906  1.00  0.00    -0.237 OA
ATOM     77  O   UNL A   1      46.555  25.405  36.754  1.00  0.00    -0.744 OA
ENDBRANCH  73  74
ENDBRANCH  52  66
BRANCH  53  78
ATOM     78  C   UNL A   1      43.403  25.861  26.308  1.00  0.00     0.058 A 
ATOM     79  C   UNL A   1      44.428  25.670  25.364  1.00  0.00     0.135 A 
ATOM     80  C   UNL A   1      42.684  24.706  26.679  1.00  0.00     0.135 A 
ATOM     81  F   UNL A   1      45.175  26.709  24.961  1.00  0.00    -0.206 F 
ATOM     82  C   UNL A   1      44.764  24.404  24.867  1.00  0.00     0.059 A 
ATOM     83  C   UNL A   1      42.994  23.436  26.191  1.00  0.00     0.059 A 
ATOM     84  F   UNL A   1      41.714  24.758  27.604  1.00  0.00    -0.206 F 
ATOM     85  C   UNL A   1      44.056  23.288  25.308  1.00  0.00     0.060 A 
BRANCH  85  86
ATOM     86  S   UNL A   1      44.601  21.635  24.817  1.00  0.00     0.124 S 
ATOM     87  O   UNL A   1      43.544  20.792  25.365  1.00  0.00    -0.237 OA
ATOM     88  O   UNL A   1      44.638  21.744  23.362  1.00  0.00    -0.237 OA
ATOM     89  O   UNL A   1      45.904  21.500  25.462  1.00  0.00    -0.744 OA
ENDBRANCH  85  86
ENDBRANCH  53  78
BRANCH  65  90
ATOM     90  C   UNL A   1      45.095  31.357  29.063  1.00  0.00     0.058 A 
ATOM     91  C   UNL A   1      46.362  31.760  28.600  1.00  0.00     0.135 A 
ATOM     92  C   UNL A   1      43.976  31.924  28.437  1.00  0.00     0.135 A 
ATOM     93  F   UNL A   1      47.481  31.198  29.080  1.00  0.00    -0.206 F 
ATOM     94  C   UNL A   1      46.505  32.703  27.578  1.00  0.00     0.059 A 
ATOM     95  C   UNL A   1      44.094  32.841  27.397  1.00  0.00     0.059 A 
ATOM     96  F   UNL A   1      42.740  31.537  28.793  1.00  0.00    -0.206 F 
ATOM     97  C   UNL A   1      45.362  33.234  26.978  1.00  0.00     0.060 A 
BRANCH  97  98
ATOM     98  S   UNL A   1      45.543  34.388  25.600  1.00  0.00     0.124 S 
ATOM     99  O   UNL A   1      44.744  33.753  24.557  1.00  0.00    -0.237 OA
ATOM    100  O   UNL A   1      44.999  35.627  26.151  1.00  0.00    -0.237 OA
ATOM    101  O   UNL A   1      46.984  34.407  25.355  1.00  0.00    -0.744 OA
ENDBRANCH  97  98
ENDBRANCH  65  90
ENDBRANCH  39  40
ENDBRANCH  32  34
ENDBRANCH  31  32
ENDBRANCH  30  31
ENDBRANCH  29  30
ENDBRANCH  28  29
ENDBRANCH   1  28
TORSDOF 22
ENDMDL
MODEL 2
REMARK VINA RESULT:     -11.7      2.622      9.383
REMARK SMILES Cc1cc(=O)n2cc(-c3ccccc3)nc2n1[C@H](C)C(=O)OCCOCCOCCOC(=O)c1ccc(-c2c3nc(c(-c4c(F)cc(S(=O)(=O)[O-])cc4F)c4ccc([nH]4)c(-c4c(F)cc(S(=O)(=O)[O-])cc4F)c4nc(c(-c5c(F)cc(S(=O)(=O)[O-])cc5F)c5ccc2[nH]5)C=C4)C=C3)cc1
REMARK SMILES IDX 27 1 26 2 25 3 24 4 23 5 22 6 20 7 21 8 18 9 19 10 17 11
REMARK SMILES IDX 1 12 2 13 3 14 4 15 16 16 5 17 6 18 15 19 7 20 8 21 9 22
REMARK SMILES IDX 10 23 14 24 11 25 13 26 12 27 28 28 29 29 30 30 31 31 32 32
REMARK SMILES IDX 33 33 34 34 35 35 99 36 36 37 98 38 37 39 38 40 39 41 92 42
REMARK SMILES IDX 40 43 97 44 91 45 93 46 41 47 96 48 90 49 89 50 42 52 76 53
REMARK SMILES IDX 55 54 75 55 56 56 59 57 74 58 94 59 57 60 58 61 73 63 95 64
REMARK SMILES IDX 60 65 43 66 44 67 53 68 45 69 46 70 52 71 54 72 47 73 48 74
REMARK SMILES IDX 49 75 50 76 51 77 77 78 78 79 87 80 79 81 80 82 86 83 88 84
REMARK SMILES IDX 81 85 82 86 83 87 84 88 85 89 61 90 62 91 71 92 63 93 64 94
REMARK SMILES IDX 70 95 72 96 65 97 66 98 67 99 68 100 69 101
REMARK H PARENT 93 51 59 62
REMARK Flexibility Score: inf
ROOT
ATOM      1  C   UNL A   1      39.287  21.968  26.123  1.00  0.00     0.188 C 
ENDROOT
BRANCH   1   2
ATOM      2  C   UNL A   1      38.147  21.259  25.372  1.00  0.00     0.188 C 
BRANCH   2   3
ATOM      3  O   UNL A   1      37.021  21.979  24.943  1.00  0.00    -0.376 OA
BRANCH   3   4
ATOM      4  C   UNL A   1      35.765  21.730  25.545  1.00  0.00     0.202 C 
BRANCH   4   5
ATOM      5  C   UNL A   1      35.227  22.533  26.744  1.00  0.00     0.261 C 
BRANCH   5   6
ATOM      6  O   UNL A   1      33.995  23.247  26.543  1.00  0.00    -0.462 OA
BRANCH   6   7
ATOM      7  C   UNL A   1      32.893  22.752  27.162  1.00  0.00     0.329 C 
ATOM      8  O   UNL A   1      32.868  22.448  28.357  1.00  0.00    -0.250 OA
BRANCH   7   9
ATOM      9  C   UNL A   1      31.636  22.579  26.265  1.00  0.00     0.197 C 
ATOM     10  C   UNL A   1      30.307  23.280  26.574  1.00  0.00     0.044 C 
BRANCH   9  11
ATOM     11  N   UNL A   1      32.020  22.927  24.872  1.00  0.00    -0.301 N 
ATOM     12  C   UNL A   1      32.350  20.530  24.153  1.00  0.00     0.065 C 
ATOM     13  C   UNL A   1      32.404  22.015  23.883  1.00  0.00     0.024 A 
ATOM     14  C   UNL A   1      32.820  22.447  22.676  1.00  0.00     0.093 A 
ATOM     15  C   UNL A   1      32.893  23.901  22.379  1.00  0.00     0.259 A 
ATOM     16  C   UNL A   1      32.008  24.269  24.616  1.00  0.00     0.218 A 
ATOM     17  O   UNL A   1      33.298  24.369  21.325  1.00  0.00    -0.269 OA
ATOM     18  N   UNL A   1      32.455  24.732  23.404  1.00  0.00    -0.251 N 
ATOM     19  N   UNL A   1      31.655  25.250  25.410  1.00  0.00    -0.212 NA
ATOM     20  C   UNL A   1      32.398  26.114  23.466  1.00  0.00     0.127 A 
ATOM     21  C   UNL A   1      31.907  26.397  24.721  1.00  0.00     0.091 A 
BRANCH  21  22
ATOM     22  C   UNL A   1      31.716  27.694  25.326  1.00  0.00     0.002 A 
ATOM     23  C   UNL A   1      31.891  27.888  26.697  1.00  0.00     0.010 A 
ATOM     24  C   UNL A   1      31.448  28.798  24.504  1.00  0.00     0.010 A 
ATOM     25  C   UNL A   1      31.788  29.172  27.240  1.00  0.00     0.001 A 
ATOM     26  C   UNL A   1      31.347  30.080  25.047  1.00  0.00     0.001 A 
ATOM     27  C   UNL A   1      31.515  30.265  26.417  1.00  0.00     0.000 A 
ENDBRANCH  21  22
ENDBRANCH   9  11
ENDBRANCH   7   9
ENDBRANCH   6   7
ENDBRANCH   5   6
ENDBRANCH   4   5
ENDBRANCH   3   4
ENDBRANCH   2   3
ENDBRANCH   1   2
BRANCH   1  28
ATOM     28  O   UNL A   1      40.030  21.445  27.209  1.00  0.00    -0.376 OA
BRANCH  28  29
ATOM     29  C   UNL A   1      40.824  20.268  27.220  1.00  0.00     0.202 C 
BRANCH  29  30
ATOM     30  C   UNL A   1      41.825  19.903  26.128  1.00  0.00     0.261 C 
BRANCH  30  31
ATOM     31  O   UNL A   1      43.104  20.432  26.354  1.00  0.00    -0.460 OA
BRANCH  31  32
ATOM     32  C   UNL A   1      43.823  20.522  25.219  1.00  0.00     0.338 C 
ATOM     33  O   UNL A   1      43.992  19.657  24.370  1.00  0.00    -0.246 OA
BRANCH  32  34
ATOM     34  C   UNL A   1      44.364  21.877  25.142  1.00  0.00     0.060 A 
ATOM     35  C   UNL A   1      45.324  22.193  26.099  1.00  0.00     0.016 A 
ATOM     36  C   UNL A   1      43.657  22.841  24.410  1.00  0.00     0.016 A 
ATOM     37  C   UNL A   1      45.280  23.456  26.611  1.00  0.00     0.010 A 
ATOM     38  C   UNL A   1      43.597  24.097  24.937  1.00  0.00     0.010 A 
ATOM     39  C   UNL A   1      44.307  24.328  26.108  1.00  0.00    -0.014 A 
BRANCH  39  40
ATOM     40  C   UNL A   1      44.053  25.527  26.855  1.00  0.00     0.031 A 
ATOM     41  C   UNL A   1      45.125  26.511  26.655  1.00  0.00     0.074 A 
ATOM     42  C   UNL A   1      42.941  25.675  27.596  1.00  0.00     0.049 A 
ATOM     43  N   UNL A   1      46.078  26.797  27.474  1.00  0.00    -0.248 NA
ATOM     44  C   UNL A   1      45.316  27.029  25.292  1.00  0.00     0.031 C 
ATOM     45  C   UNL A   1      41.742  24.832  27.639  1.00  0.00     0.029 A 
ATOM     46  N   UNL A   1      42.623  26.696  28.428  1.00  0.00    -0.354 N 
ATOM     47  C   UNL A   1      46.836  27.750  26.814  1.00  0.00     0.074 A 
ATOM     48  C   UNL A   1      46.488  27.650  25.423  1.00  0.00     0.031 C 
ATOM     49  C   UNL A   1      40.750  25.505  28.268  1.00  0.00     0.029 A 
ATOM     50  C   UNL A   1      41.282  26.753  28.788  1.00  0.00     0.049 A 
ATOM     51  H   UNL A   1      43.288  27.345  28.753  1.00  0.00     0.167 HD
ATOM     52  C   UNL A   1      47.433  28.752  27.510  1.00  0.00     0.037 A 
ATOM     53  C   UNL A   1      40.679  27.813  29.386  1.00  0.00     0.037 A 
ATOM     54  C   UNL A   1      47.537  28.413  28.911  1.00  0.00     0.049 A 
ATOM     55  C   UNL A   1      41.767  28.612  30.025  1.00  0.00     0.074 A 
ATOM     56  C   UNL A   1      48.155  27.400  29.618  1.00  0.00     0.029 A 
ATOM     57  N   UNL A   1      46.608  28.960  29.764  1.00  0.00    -0.354 N 
ATOM     58  N   UNL A   1      42.487  28.183  31.026  1.00  0.00    -0.248 NA
ATOM     59  C   UNL A   1      42.373  29.679  29.239  1.00  0.00     0.031 C 
ATOM     60  C   UNL A   1      47.272  27.100  30.696  1.00  0.00     0.029 A 
ATOM     61  C   UNL A   1      46.190  27.981  30.629  1.00  0.00     0.049 A 
ATOM     62  H   UNL A   1      46.294  29.893  29.754  1.00  0.00     0.167 HD
ATOM     63  C   UNL A   1      43.779  28.614  30.754  1.00  0.00     0.074 A 
ATOM     64  C   UNL A   1      43.632  29.596  29.682  1.00  0.00     0.031 C 
ATOM     65  C   UNL A   1      44.866  27.926  31.216  1.00  0.00     0.037 A 
BRANCH  52  66
ATOM     66  C   UNL A   1      47.520  30.172  27.006  1.00  0.00     0.058 A 
ATOM     67  C   UNL A   1      48.746  30.853  27.121  1.00  0.00     0.135 A 
ATOM     68  C   UNL A   1      46.403  30.980  26.682  1.00  0.00     0.135 A 
ATOM     69  F   UNL A   1      49.872  30.187  27.422  1.00  0.00    -0.206 F 
ATOM     70  C   UNL A   1      48.840  32.239  27.015  1.00  0.00     0.059 A 
ATOM     71  C   UNL A   1      46.486  32.354  26.514  1.00  0.00     0.059 A 
ATOM     72  F   UNL A   1      45.156  30.507  26.604  1.00  0.00    -0.206 F 
ATOM     73  C   UNL A   1      47.698  32.982  26.727  1.00  0.00     0.060 A 
BRANCH  73  74
ATOM     74  S   UNL A   1      47.791  34.777  26.701  1.00  0.00     0.124 S 
ATOM     75  O   UNL A   1      47.069  35.120  27.920  1.00  0.00    -0.237 OA
ATOM     76  O   UNL A   1      49.232  35.000  26.721  1.00  0.00    -0.237 OA
ATOM     77  O   UNL A   1      47.124  35.128  25.450  1.00  0.00    -0.744 OA
ENDBRANCH  73  74
ENDBRANCH  52  66
BRANCH  53  78
ATOM     78  C   UNL A   1      39.337  28.389  29.087  1.00  0.00     0.058 A 
ATOM     79  C   UNL A   1      38.364  28.507  30.096  1.00  0.00     0.135 A 
ATOM     80  C   UNL A   1      39.080  29.099  27.897  1.00  0.00     0.135 A 
ATOM     81  F   UNL A   1      38.530  27.878  31.270  1.00  0.00    -0.206 F 
ATOM     82  C   UNL A   1      37.239  29.331  29.961  1.00  0.00     0.059 A 
ATOM     83  C   UNL A   1      37.962  29.918  27.735  1.00  0.00     0.059 A 
ATOM     84  F   UNL A   1      39.957  29.097  26.882  1.00  0.00    -0.206 F 
ATOM     85  C   UNL A   1      37.061  30.054  28.783  1.00  0.00     0.060 A 
BRANCH  85  86
ATOM     86  S   UNL A   1      35.716  31.257  28.671  1.00  0.00     0.124 S 
ATOM     87  O   UNL A   1      34.704  30.513  27.928  1.00  0.00    -0.237 OA
ATOM     88  O   UNL A   1      35.415  31.513  30.075  1.00  0.00    -0.237 OA
ATOM     89  O   UNL A   1      36.318  32.376  27.952  1.00  0.00    -0.744 OA
ENDBRANCH  85  86
ENDBRANCH  53  78
BRANCH  65  90
ATOM     90  C   UNL A   1      44.647  26.876  32.277  1.00  0.00     0.058 A 
ATOM     91  C   UNL A   1      44.408  25.513  32.016  1.00  0.00     0.135 A 
ATOM     92  C   UNL A   1      44.858  27.243  33.614  1.00  0.00     0.135 A 
ATOM     93  F   UNL A   1      44.290  25.063  30.759  1.00  0.00    -0.206 F 
ATOM     94  C   UNL A   1      44.356  24.566  33.044  1.00  0.00     0.059 A 
ATOM     95  C   UNL A   1      44.842  26.313  34.649  1.00  0.00     0.059 A 
ATOM     96  F   UNL A   1      45.149  28.518  33.922  1.00  0.00    -0.206 F 
ATOM     97  C   UNL A   1      44.581  24.976  34.359  1.00  0.00     0.060 A 
BRANCH  97  98
ATOM     98  S   UNL A   1      44.599  23.743  35.679  1.00  0.00     0.124 S 
ATOM     99  O   UNL A   1      43.405  22.957  35.383  1.00  0.00    -0.237 OA
ATOM    100  O   UNL A   1      45.875  23.066  35.461  1.00  0.00    -0.237 OA
ATOM    101  O   UNL A   1      44.530  24.544  36.898  1.00  0.00    -0.744 OA
ENDBRANCH  97  98
ENDBRANCH  65  90
ENDBRANCH  39  40
ENDBRANCH  32  34
ENDBRANCH  31  32
ENDBRANCH  30  31
ENDBRANCH  29  30
ENDBRANCH  28  29
ENDBRANCH   1  28
TORSDOF 22
ENDMDL
MODEL 3
REMARK VINA RESULT:     -11.7      3.395      5.741
REMARK SMILES Cc1cc(=O)n2cc(-c3ccccc3)nc2n1[C@H](C)C(=O)OCCOCCOCCOC(=O)c1ccc(-c2c3nc(c(-c4c(F)cc(S(=O)(=O)[O-])cc4F)c4ccc([nH]4)c(-c4c(F)cc(S(=O)(=O)[O-])cc4F)c4nc(c(-c5c(F)cc(S(=O)(=O)[O-])cc5F)c5ccc2[nH]5)C=C4)C=C3)cc1
REMARK SMILES IDX 27 1 26 2 25 3 24 4 23 5 22 6 20 7 21 8 18 9 19 10 17 11
REMARK SMILES IDX 1 12 2 13 3 14 4 15 16 16 5 17 6 18 15 19 7 20 8 21 9 22
REMARK SMILES IDX 10 23 14 24 11 25 13 26 12 27 28 28 29 29 30 30 31 31 32 32
REMARK SMILES IDX 33 33 34 34 35 35 99 36 36 37 98 38 37 39 38 40 39 41 92 42
REMARK SMILES IDX 40 43 97 44 91 45 93 46 41 47 96 48 90 49 89 50 42 52 76 53
REMARK SMILES IDX 55 54 75 55 56 56 59 57 74 58 94 59 57 60 58 61 73 63 95 64
REMARK SMILES IDX 60 65 43 66 44 67 53 68 45 69 46 70 52 71 54 72 47 73 48 74
REMARK SMILES IDX 49 75 50 76 51 77 77 78 78 79 87 80 79 81 80 82 86 83 88 84
REMARK SMILES IDX 81 85 82 86 83 87 84 88 85 89 61 90 62 91 71 92 63 93 64 94
REMARK SMILES IDX 70 95 72 96 65 97 66 98 67 99 68 100 69 101
REMARK H PARENT 93 51 59 62
REMARK Flexibility Score: inf
ROOT
ATOM      1  C   UNL A   1      35.070  33.200  28.002  1.00  0.00     0.188 C 
ENDROOT
BRANCH   1   2
ATOM      2  C   UNL A   1      34.442  31.856  28.413  1.00  0.00     0.188 C 
BRANCH   2   3
ATOM      3  O   UNL A   1      33.971  30.963  27.438  1.00  0.00    -0.376 OA
BRANCH   3   4
ATOM      4  C   UNL A   1      32.579  30.738  27.317  1.00  0.00     0.202 C 
BRANCH   4   5
ATOM      5  C   UNL A   1      31.979  29.547  26.544  1.00  0.00     0.261 C 
BRANCH   5   6
ATOM      6  O   UNL A   1      32.259  28.235  27.060  1.00  0.00    -0.462 OA
BRANCH   6   7
ATOM      7  C   UNL A   1      33.169  27.492  26.380  1.00  0.00     0.329 C 
ATOM      8  O   UNL A   1      34.236  27.947  25.961  1.00  0.00    -0.250 OA
BRANCH   7   9
ATOM      9  C   UNL A   1      32.786  26.004  26.147  1.00  0.00     0.197 C 
ATOM     10  C   UNL A   1      31.446  25.422  26.614  1.00  0.00     0.044 C 
BRANCH   9  11
ATOM     11  N   UNL A   1      32.923  25.721  24.694  1.00  0.00    -0.301 N 
ATOM     12  C   UNL A   1      34.773  24.029  24.998  1.00  0.00     0.065 C 
ATOM     13  C   UNL A   1      33.861  24.855  24.121  1.00  0.00     0.024 A 
ATOM     14  C   UNL A   1      33.958  24.739  22.782  1.00  0.00     0.093 A 
ATOM     15  C   UNL A   1      33.081  25.542  21.890  1.00  0.00     0.259 A 
ATOM     16  C   UNL A   1      32.053  26.424  23.911  1.00  0.00     0.218 A 
ATOM     17  O   UNL A   1      33.138  25.522  20.668  1.00  0.00    -0.269 OA
ATOM     18  N   UNL A   1      32.154  26.345  22.545  1.00  0.00    -0.251 N 
ATOM     19  N   UNL A   1      31.106  27.251  24.280  1.00  0.00    -0.212 NA
ATOM     20  C   UNL A   1      31.207  27.213  22.029  1.00  0.00     0.127 A 
ATOM     21  C   UNL A   1      30.584  27.759  23.129  1.00  0.00     0.091 A 
BRANCH  21  22
ATOM     22  C   UNL A   1      29.563  28.779  23.153  1.00  0.00     0.002 A 
ATOM     23  C   UNL A   1      28.223  28.469  22.916  1.00  0.00     0.010 A 
ATOM     24  C   UNL A   1      29.911  30.087  23.520  1.00  0.00     0.010 A 
ATOM     25  C   UNL A   1      27.244  29.460  23.034  1.00  0.00     0.001 A 
ATOM     26  C   UNL A   1      28.934  31.075  23.640  1.00  0.00     0.001 A 
ATOM     27  C   UNL A   1      27.599  30.761  23.394  1.00  0.00     0.000 A 
ENDBRANCH  21  22
ENDBRANCH   9  11
ENDBRANCH   7   9
ENDBRANCH   6   7
ENDBRANCH   5   6
ENDBRANCH   4   5
ENDBRANCH   3   4
ENDBRANCH   2   3
ENDBRANCH   1   2
BRANCH   1  28
ATOM     28  O   UNL A   1      34.407  34.448  27.923  1.00  0.00    -0.376 OA
BRANCH  28  29
ATOM     29  C   UNL A   1      33.199  34.822  28.570  1.00  0.00     0.202 C 
BRANCH  29  30
ATOM     30  C   UNL A   1      33.132  35.426  29.970  1.00  0.00     0.261 C 
BRANCH  30  31
ATOM     31  O   UNL A   1      33.612  34.563  30.965  1.00  0.00    -0.460 OA
BRANCH  31  32
ATOM     32  C   UNL A   1      33.685  35.165  32.167  1.00  0.00     0.338 C 
ATOM     33  O   UNL A   1      33.041  36.129  32.560  1.00  0.00    -0.246 OA
BRANCH  32  34
ATOM     34  C   UNL A   1      34.665  34.439  32.971  1.00  0.00     0.060 A 
ATOM     35  C   UNL A   1      35.822  35.147  33.285  1.00  0.00     0.016 A 
ATOM     36  C   UNL A   1      34.569  33.043  33.046  1.00  0.00     0.016 A 
ATOM     37  C   UNL A   1      36.989  34.440  33.274  1.00  0.00     0.010 A 
ATOM     38  C   UNL A   1      35.737  32.339  33.013  1.00  0.00     0.010 A 
ATOM     39  C   UNL A   1      36.917  33.072  32.988  1.00  0.00    -0.014 A 
BRANCH  39  40
ATOM     40  C   UNL A   1      38.147  32.405  32.665  1.00  0.00     0.031 A 
ATOM     41  C   UNL A   1      38.991  32.246  33.855  1.00  0.00     0.074 A 
ATOM     42  C   UNL A   1      38.412  31.979  31.417  1.00  0.00     0.049 A 
ATOM     43  N   UNL A   1      40.030  32.943  34.168  1.00  0.00    -0.248 NA
ATOM     44  C   UNL A   1      38.464  31.414  34.948  1.00  0.00     0.031 C 
ATOM     45  C   UNL A   1      37.515  31.899  30.260  1.00  0.00     0.029 A 
ATOM     46  N   UNL A   1      39.561  31.436  30.948  1.00  0.00    -0.354 N 
ATOM     47  C   UNL A   1      40.444  32.429  35.386  1.00  0.00     0.074 A 
ATOM     48  C   UNL A   1      39.323  31.707  35.923  1.00  0.00     0.031 C 
ATOM     49  C   UNL A   1      38.089  31.126  29.307  1.00  0.00     0.029 A 
ATOM     50  C   UNL A   1      39.436  30.780  29.729  1.00  0.00     0.049 A 
ATOM     51  H   UNL A   1      40.416  31.502  31.430  1.00  0.00     0.167 HD
ATOM     52  C   UNL A   1      41.767  32.368  35.689  1.00  0.00     0.037 A 
ATOM     53  C   UNL A   1      40.366  29.947  29.193  1.00  0.00     0.037 A 
ATOM     54  C   UNL A   1      42.529  33.260  34.846  1.00  0.00     0.049 A 
ATOM     55  C   UNL A   1      41.663  30.284  29.849  1.00  0.00     0.074 A 
ATOM     56  C   UNL A   1      42.525  34.626  34.630  1.00  0.00     0.029 A 
ATOM     57  N   UNL A   1      43.191  32.708  33.776  1.00  0.00    -0.354 N 
ATOM     58  N   UNL A   1      42.281  31.424  29.689  1.00  0.00    -0.248 NA
ATOM     59  C   UNL A   1      42.022  29.551  31.056  1.00  0.00     0.031 C 
ATOM     60  C   UNL A   1      42.792  34.787  33.239  1.00  0.00     0.029 A 
ATOM     61  C   UNL A   1      43.003  33.521  32.687  1.00  0.00     0.049 A 
ATOM     62  H   UNL A   1      43.710  31.871  33.787  1.00  0.00     0.167 HD
ATOM     63  C   UNL A   1      42.775  31.748  30.946  1.00  0.00     0.074 A 
ATOM     64  C   UNL A   1      42.651  30.520  31.728  1.00  0.00     0.031 C 
ATOM     65  C   UNL A   1      42.964  33.050  31.318  1.00  0.00     0.037 A 
BRANCH  52  66
ATOM     66  C   UNL A   1      42.394  31.209  36.426  1.00  0.00     0.058 A 
ATOM     67  C   UNL A   1      43.280  31.485  37.484  1.00  0.00     0.135 A 
ATOM     68  C   UNL A   1      42.389  29.869  35.970  1.00  0.00     0.135 A 
ATOM     69  F   UNL A   1      43.367  32.723  37.998  1.00  0.00    -0.206 F 
ATOM     70  C   UNL A   1      44.159  30.529  37.986  1.00  0.00     0.059 A 
ATOM     71  C   UNL A   1      43.215  28.887  36.497  1.00  0.00     0.059 A 
ATOM     72  F   UNL A   1      41.661  29.452  34.930  1.00  0.00    -0.206 F 
ATOM     73  C   UNL A   1      44.130  29.235  37.473  1.00  0.00     0.060 A 
BRANCH  73  74
ATOM     74  S   UNL A   1      45.336  28.028  38.037  1.00  0.00     0.124 S 
ATOM     75  O   UNL A   1      45.832  27.503  36.771  1.00  0.00    -0.237 OA
ATOM     76  O   UNL A   1      46.261  28.865  38.793  1.00  0.00    -0.237 OA
ATOM     77  O   UNL A   1      44.537  27.104  38.836  1.00  0.00    -0.744 OA
ENDBRANCH  73  74
ENDBRANCH  52  66
BRANCH  53  78
ATOM     78  C   UNL A   1      40.135  28.647  28.501  1.00  0.00     0.058 A 
ATOM     79  C   UNL A   1      40.729  28.381  27.254  1.00  0.00     0.135 A 
ATOM     80  C   UNL A   1      39.581  27.536  29.169  1.00  0.00     0.135 A 
ATOM     81  F   UNL A   1      41.296  29.374  26.552  1.00  0.00    -0.206 F 
ATOM     82  C   UNL A   1      40.826  27.085  26.731  1.00  0.00     0.059 A 
ATOM     83  C   UNL A   1      39.656  26.238  28.663  1.00  0.00     0.059 A 
ATOM     84  F   UNL A   1      39.027  27.660  30.384  1.00  0.00    -0.206 F 
ATOM     85  C   UNL A   1      40.308  26.015  27.457  1.00  0.00     0.060 A 
BRANCH  85  86
ATOM     86  S   UNL A   1      40.592  24.325  26.880  1.00  0.00     0.124 S 
ATOM     87  O   UNL A   1      39.293  23.976  26.313  1.00  0.00    -0.237 OA
ATOM     88  O   UNL A   1      41.677  24.507  25.921  1.00  0.00    -0.237 OA
ATOM     89  O   UNL A   1      40.954  23.605  28.097  1.00  0.00    -0.744 OA
ENDBRANCH  85  86
ENDBRANCH  53  78
BRANCH  65  90
ATOM     90  C   UNL A   1      42.922  34.111  30.245  1.00  0.00     0.058 A 
ATOM     91  C   UNL A   1      41.743  34.680  29.728  1.00  0.00     0.135 A 
ATOM     92  C   UNL A   1      44.137  34.690  29.851  1.00  0.00     0.135 A 
ATOM     93  F   UNL A   1      40.538  34.248  30.127  1.00  0.00    -0.206 F 
ATOM     94  C   UNL A   1      41.776  35.759  28.840  1.00  0.00     0.059 A 
ATOM     95  C   UNL A   1      44.193  35.784  28.992  1.00  0.00     0.059 A 
ATOM     96  F   UNL A   1      45.294  34.230  30.355  1.00  0.00    -0.206 F 
ATOM     97  C   UNL A   1      43.008  36.309  28.483  1.00  0.00     0.060 A 
BRANCH  97  98
ATOM     98  S   UNL A   1      43.050  37.757  27.403  1.00  0.00     0.124 S 
ATOM     99  O   UNL A   1      41.846  37.577  26.597  1.00  0.00    -0.237 OA
ATOM    100  O   UNL A   1      43.017  38.863  28.356  1.00  0.00    -0.237 OA
ATOM    101  O   UNL A   1      44.311  37.609  26.680  1.00  0.00    -0.744 OA
ENDBRANCH  97  98
ENDBRANCH  65  90
ENDBRANCH  39  40
ENDBRANCH  32  34
ENDBRANCH  31  32
ENDBRANCH  30  31
ENDBRANCH  29  30
ENDBRANCH  28  29
ENDBRANCH   1  28
TORSDOF 22
ENDMDL
