MODEL 1
REMARK VINA RESULT:      -9.3      0.000      0.000
REMARK SMILES C[NH2+][C@](C)(C(=O)OCCOCCOCCOC(=O)c1ccc(-c2c3nc(c(-c4c(F)cc(S(=O)(=O)[O-])cc4F)c4ccc([nH]4)c(-c4c(F)cc(S(=O)(=O)[O-])cc4F)c4nc(c(-c5c(F)cc(S(=O)(=O)[O-])cc5F)c5ccc2[nH]5)C=C4)C=C3)cc1)c1cccc(Cl)c1
REMARK SMILES IDX 12 1 11 2 10 3 9 4 8 5 7 6 5 7 6 8 3 9 4 10 2 11 1 12 85 15
REMARK SMILES IDX 86 16 91 17 87 18 89 19 88 20 90 21 13 22 14 23 15 24 16 25
REMARK SMILES IDX 17 26 18 27 19 28 20 29 84 30 21 31 83 32 22 33 23 34 24 35
REMARK SMILES IDX 77 36 25 37 82 38 76 39 78 40 26 41 81 42 75 43 74 44 27 46
REMARK SMILES IDX 61 47 40 48 60 49 41 50 44 51 59 52 79 53 42 54 43 55 58 57
REMARK SMILES IDX 80 58 45 59 28 60 29 61 38 62 30 63 31 64 37 65 39 66 32 67
REMARK SMILES IDX 33 68 34 69 35 70 36 71 62 72 63 73 72 74 64 75 65 76 71 77
REMARK SMILES IDX 73 78 66 79 67 80 68 81 69 82 70 83 46 84 47 85 56 86 48 87
REMARK SMILES IDX 49 88 55 89 57 90 50 91 51 92 52 93 53 94 54 95
REMARK H PARENT 2 13 2 14 78 45 44 56
REMARK Flexibility Score: inf
ROOT
ATOM      1  C   UNL A   1      35.447  32.752  28.093  1.00  0.00     0.188 C 
ENDROOT
BRANCH   1   2
ATOM      2  C   UNL A   1      34.136  32.107  27.625  1.00  0.00     0.188 C 
BRANCH   2   3
ATOM      3  O   UNL A   1      34.197  30.755  27.201  1.00  0.00    -0.376 OA
BRANCH   3   4
ATOM      4  C   UNL A   1      33.085  29.916  27.508  1.00  0.00     0.202 C 
BRANCH   4   5
ATOM      5  C   UNL A   1      33.137  28.406  27.178  1.00  0.00     0.261 C 
BRANCH   5   6
ATOM      6  O   UNL A   1      32.538  27.990  25.923  1.00  0.00    -0.458 OA
BRANCH   6   7
ATOM      7  C   UNL A   1      31.962  26.745  25.910  1.00  0.00     0.372 C 
ATOM      8  O   UNL A   1      31.112  26.399  26.730  1.00  0.00    -0.244 OA
BRANCH   7   9
ATOM      9  C   UNL A   1      32.452  25.758  24.721  1.00  0.00     0.216 C 
ATOM     10  C   UNL A   1      31.305  24.951  24.068  1.00  0.00     0.098 C 
BRANCH   9  11
ATOM     11  N   UNL A   1      33.039  26.697  23.724  1.00  0.00    -0.331 N 
ATOM     12  C   UNL A   1      32.574  26.632  22.354  1.00  0.00     0.332 C 
ATOM     13  H   UNL A   1      32.859  27.643  24.060  1.00  0.00     0.347 HD
ATOM     14  H   UNL A   1      34.020  26.420  23.668  1.00  0.00     0.347 HD
ENDBRANCH   9  11
BRANCH   9  15
ATOM     15  C   UNL A   1      33.507  24.792  25.336  1.00  0.00     0.025 A 
ATOM     16  C   UNL A   1      33.359  23.998  26.487  1.00  0.00     0.011 A 
ATOM     17  C   UNL A   1      34.699  24.611  24.639  1.00  0.00     0.031 A 
ATOM     18  C   UNL A   1      34.359  23.098  26.905  1.00  0.00     0.002 A 
ATOM     19  C   UNL A   1      35.622  23.630  24.969  1.00  0.00     0.041 A 
ATOM     20  C   UNL A   1      35.496  22.895  26.129  1.00  0.00     0.020 A 
ATOM     21  Cl  UNL A   1      36.792  23.284  23.781  1.00  0.00    -0.084 Cl
ENDBRANCH   9  15
ENDBRANCH   7   9
ENDBRANCH   6   7
ENDBRANCH   5   6
ENDBRANCH   4   5
ENDBRANCH   3   4
ENDBRANCH   2   3
ENDBRANCH   1   2
BRANCH   1  22
ATOM     22  O   UNL A   1      35.294  33.783  29.037  1.00  0.00    -0.376 OA
BRANCH  22  23
ATOM     23  C   UNL A   1      34.914  33.453  30.357  1.00  0.00     0.202 C 
BRANCH  23  24
ATOM     24  C   UNL A   1      35.125  32.043  30.942  1.00  0.00     0.261 C 
BRANCH  24  25
ATOM     25  O   UNL A   1      36.469  31.620  31.227  1.00  0.00    -0.460 OA
BRANCH  25  26
ATOM     26  C   UNL A   1      36.778  30.320  30.991  1.00  0.00     0.338 C 
ATOM     27  O   UNL A   1      36.003  29.388  30.982  1.00  0.00    -0.246 OA
BRANCH  26  28
ATOM     28  C   UNL A   1      38.189  30.260  30.510  1.00  0.00     0.060 A 
ATOM     29  C   UNL A   1      38.434  30.346  29.134  1.00  0.00     0.016 A 
ATOM     30  C   UNL A   1      39.261  30.112  31.398  1.00  0.00     0.016 A 
ATOM     31  C   UNL A   1      39.740  30.221  28.643  1.00  0.00     0.010 A 
ATOM     32  C   UNL A   1      40.567  29.966  30.902  1.00  0.00     0.010 A 
ATOM     33  C   UNL A   1      40.811  29.976  29.519  1.00  0.00    -0.014 A 
BRANCH  33  34
ATOM     34  C   UNL A   1      42.098  29.476  28.953  1.00  0.00     0.031 A 
ATOM     35  C   UNL A   1      43.279  30.401  28.983  1.00  0.00     0.074 A 
ATOM     36  C   UNL A   1      42.260  28.228  28.475  1.00  0.00     0.049 A 
ATOM     37  N   UNL A   1      44.512  30.178  28.615  1.00  0.00    -0.248 NA
ATOM     38  C   UNL A   1      43.022  31.775  29.443  1.00  0.00     0.031 C 
ATOM     39  C   UNL A   1      41.181  27.285  28.266  1.00  0.00     0.029 A 
ATOM     40  N   UNL A   1      43.378  27.524  28.098  1.00  0.00    -0.354 N 
ATOM     41  C   UNL A   1      45.172  31.388  28.768  1.00  0.00     0.074 A 
ATOM     42  C   UNL A   1      44.201  32.346  29.252  1.00  0.00     0.031 C 
ATOM     43  C   UNL A   1      41.680  26.078  27.959  1.00  0.00     0.029 A 
ATOM     44  C   UNL A   1      43.125  26.201  27.800  1.00  0.00     0.049 A 
ATOM     45  H   UNL A   1      44.275  27.926  28.046  1.00  0.00     0.167 HD
ATOM     46  C   UNL A   1      46.468  31.676  28.511  1.00  0.00     0.037 A 
ATOM     47  C   UNL A   1      43.954  25.213  27.399  1.00  0.00     0.037 A 
ATOM     48  C   UNL A   1      47.419  30.723  28.003  1.00  0.00     0.049 A 
ATOM     49  C   UNL A   1      45.398  25.556  27.142  1.00  0.00     0.074 A 
ATOM     50  C   UNL A   1      48.757  30.919  27.711  1.00  0.00     0.029 A 
ATOM     51  N   UNL A   1      47.134  29.399  27.697  1.00  0.00    -0.354 N 
ATOM     52  N   UNL A   1      46.015  26.702  27.313  1.00  0.00    -0.248 NA
ATOM     53  C   UNL A   1      46.248  24.492  26.595  1.00  0.00     0.031 C 
ATOM     54  C   UNL A   1      49.269  29.729  27.183  1.00  0.00     0.029 A 
ATOM     55  C   UNL A   1      48.269  28.771  27.207  1.00  0.00     0.049 A 
ATOM     56  H   UNL A   1      46.256  28.969  27.811  1.00  0.00     0.167 HD
ATOM     57  C   UNL A   1      47.323  26.497  26.890  1.00  0.00     0.074 A 
ATOM     58  C   UNL A   1      47.419  25.106  26.497  1.00  0.00     0.031 C 
ATOM     59  C   UNL A   1      48.347  27.384  26.816  1.00  0.00     0.037 A 
BRANCH  46  60
ATOM     60  C   UNL A   1      46.909  33.094  28.737  1.00  0.00     0.058 A 
ATOM     61  C   UNL A   1      47.377  33.534  29.985  1.00  0.00     0.135 A 
ATOM     62  C   UNL A   1      46.858  34.027  27.689  1.00  0.00     0.135 A 
ATOM     63  F   UNL A   1      47.416  32.691  31.030  1.00  0.00    -0.206 F 
ATOM     64  C   UNL A   1      47.756  34.856  30.193  1.00  0.00     0.059 A 
ATOM     65  C   UNL A   1      47.263  35.347  27.866  1.00  0.00     0.059 A 
ATOM     66  F   UNL A   1      46.405  33.663  26.480  1.00  0.00    -0.206 F 
ATOM     67  C   UNL A   1      47.697  35.753  29.126  1.00  0.00     0.060 A 
BRANCH  67  68
ATOM     68  S   UNL A   1      48.204  37.461  29.412  1.00  0.00     0.124 S 
ATOM     69  O   UNL A   1      47.133  38.198  28.748  1.00  0.00    -0.237 OA
ATOM     70  O   UNL A   1      48.219  37.540  30.869  1.00  0.00    -0.237 OA
ATOM     71  O   UNL A   1      49.511  37.540  28.769  1.00  0.00    -0.744 OA
ENDBRANCH  67  68
ENDBRANCH  46  60
BRANCH  47  72
ATOM     72  C   UNL A   1      43.447  23.828  27.155  1.00  0.00     0.058 A 
ATOM     73  C   UNL A   1      43.155  23.378  25.856  1.00  0.00     0.135 A 
ATOM     74  C   UNL A   1      43.217  22.931  28.211  1.00  0.00     0.135 A 
ATOM     75  F   UNL A   1      43.332  24.198  24.807  1.00  0.00    -0.206 F 
ATOM     76  C   UNL A   1      42.645  22.104  25.615  1.00  0.00     0.059 A 
ATOM     77  C   UNL A   1      42.748  21.639  27.993  1.00  0.00     0.059 A 
ATOM     78  F   UNL A   1      43.472  23.302  29.476  1.00  0.00    -0.206 F 
ATOM     79  C   UNL A   1      42.451  21.238  26.692  1.00  0.00     0.060 A 
BRANCH  79  80
ATOM     80  S   UNL A   1      41.838  19.569  26.370  1.00  0.00     0.124 S 
ATOM     81  O   UNL A   1      42.529  19.237  25.129  1.00  0.00    -0.237 OA
ATOM     82  O   UNL A   1      42.280  18.846  27.559  1.00  0.00    -0.237 OA
ATOM     83  O   UNL A   1      40.395  19.757  26.259  1.00  0.00    -0.744 OA
ENDBRANCH  79  80
ENDBRANCH  47  72
BRANCH  59  84
ATOM     84  C   UNL A   1      49.671  26.861  26.325  1.00  0.00     0.058 A 
ATOM     85  C   UNL A   1      50.596  26.249  27.186  1.00  0.00     0.135 A 
ATOM     86  C   UNL A   1      50.011  26.966  24.967  1.00  0.00     0.135 A 
ATOM     87  F   UNL A   1      50.323  26.127  28.496  1.00  0.00    -0.206 F 
ATOM     88  C   UNL A   1      51.830  25.802  26.727  1.00  0.00     0.059 A 
ATOM     89  C   UNL A   1      51.226  26.493  24.479  1.00  0.00     0.059 A 
ATOM     90  F   UNL A   1      49.160  27.529  24.096  1.00  0.00    -0.206 F 
ATOM     91  C   UNL A   1      52.138  25.933  25.371  1.00  0.00     0.060 A 
BRANCH  91  92
ATOM     92  S   UNL A   1      53.746  25.356  24.788  1.00  0.00     0.124 S 
ATOM     93  O   UNL A   1      53.531  23.915  24.711  1.00  0.00    -0.237 OA
ATOM     94  O   UNL A   1      53.880  26.047  23.509  1.00  0.00    -0.237 OA
ATOM     95  O   UNL A   1      54.664  25.799  25.833  1.00  0.00    -0.744 OA
ENDBRANCH  91  92
ENDBRANCH  59  84
ENDBRANCH  33  34
ENDBRANCH  26  28
ENDBRANCH  25  26
ENDBRANCH  24  25
ENDBRANCH  23  24
ENDBRANCH  22  23
ENDBRANCH   1  22
TORSDOF 22
ENDMDL
MODEL 2
REMARK VINA RESULT:      -9.0      6.292     12.656
REMARK SMILES C[NH2+][C@](C)(C(=O)OCCOCCOCCOC(=O)c1ccc(-c2c3nc(c(-c4c(F)cc(S(=O)(=O)[O-])cc4F)c4ccc([nH]4)c(-c4c(F)cc(S(=O)(=O)[O-])cc4F)c4nc(c(-c5c(F)cc(S(=O)(=O)[O-])cc5F)c5ccc2[nH]5)C=C4)C=C3)cc1)c1cccc(Cl)c1
REMARK SMILES IDX 12 1 11 2 10 3 9 4 8 5 7 6 5 7 6 8 3 9 4 10 2 11 1 12 85 15
REMARK SMILES IDX 86 16 91 17 87 18 89 19 88 20 90 21 13 22 14 23 15 24 16 25
REMARK SMILES IDX 17 26 18 27 19 28 20 29 84 30 21 31 83 32 22 33 23 34 24 35
REMARK SMILES IDX 77 36 25 37 82 38 76 39 78 40 26 41 81 42 75 43 74 44 27 46
REMARK SMILES IDX 61 47 40 48 60 49 41 50 44 51 59 52 79 53 42 54 43 55 58 57
REMARK SMILES IDX 80 58 45 59 28 60 29 61 38 62 30 63 31 64 37 65 39 66 32 67
REMARK SMILES IDX 33 68 34 69 35 70 36 71 62 72 63 73 72 74 64 75 65 76 71 77
REMARK SMILES IDX 73 78 66 79 67 80 68 81 69 82 70 83 46 84 47 85 56 86 48 87
REMARK SMILES IDX 49 88 55 89 57 90 50 91 51 92 52 93 53 94 54 95
REMARK H PARENT 2 13 2 14 78 45 44 56
REMARK Flexibility Score: inf
ROOT
ATOM      1  C   UNL A   1      46.253  23.007  24.903  1.00  0.00     0.188 C 
ENDROOT
BRANCH   1   2
ATOM      2  C   UNL A   1      45.321  21.971  24.262  1.00  0.00     0.188 C 
BRANCH   2   3
ATOM      3  O   UNL A   1      45.446  20.629  24.704  1.00  0.00    -0.376 OA
BRANCH   3   4
ATOM      4  C   UNL A   1      44.247  19.872  24.865  1.00  0.00     0.202 C 
BRANCH   4   5
ATOM      5  C   UNL A   1      43.103  20.412  25.755  1.00  0.00     0.261 C 
BRANCH   5   6
ATOM      6  O   UNL A   1      42.544  21.701  25.389  1.00  0.00    -0.458 OA
BRANCH   6   7
ATOM      7  C   UNL A   1      41.464  22.122  26.124  1.00  0.00     0.372 C 
ATOM      8  O   UNL A   1      40.304  21.858  25.808  1.00  0.00    -0.244 OA
BRANCH   7   9
ATOM      9  C   UNL A   1      41.813  22.969  27.462  1.00  0.00     0.216 C 
ATOM     10  C   UNL A   1      41.228  22.358  28.757  1.00  0.00     0.098 C 
BRANCH   9  11
ATOM     11  N   UNL A   1      43.301  22.924  27.510  1.00  0.00    -0.331 N 
ATOM     12  C   UNL A   1      43.944  22.606  28.768  1.00  0.00     0.332 C 
ATOM     13  H   UNL A   1      43.604  22.225  26.832  1.00  0.00     0.347 HD
ATOM     14  H   UNL A   1      43.586  23.886  27.321  1.00  0.00     0.347 HD
ENDBRANCH   9  11
BRANCH   9  15
ATOM     15  C   UNL A   1      41.258  24.408  27.248  1.00  0.00     0.025 A 
ATOM     16  C   UNL A   1      40.325  25.083  28.053  1.00  0.00     0.011 A 
ATOM     17  C   UNL A   1      41.795  25.157  26.204  1.00  0.00     0.031 A 
ATOM     18  C   UNL A   1      39.955  26.420  27.804  1.00  0.00     0.002 A 
ATOM     19  C   UNL A   1      41.537  26.510  26.040  1.00  0.00     0.041 A 
ATOM     20  C   UNL A   1      40.580  27.150  26.799  1.00  0.00     0.020 A 
ATOM     21  Cl  UNL A   1      42.587  27.341  24.986  1.00  0.00    -0.084 Cl
ENDBRANCH   9  15
ENDBRANCH   7   9
ENDBRANCH   6   7
ENDBRANCH   5   6
ENDBRANCH   4   5
ENDBRANCH   3   4
ENDBRANCH   2   3
ENDBRANCH   1   2
BRANCH   1  22
ATOM     22  O   UNL A   1      46.433  24.182  24.153  1.00  0.00    -0.376 OA
BRANCH  22  23
ATOM     23  C   UNL A   1      47.338  25.163  24.621  1.00  0.00     0.202 C 
BRANCH  23  24
ATOM     24  C   UNL A   1      46.880  26.350  25.490  1.00  0.00     0.261 C 
BRANCH  24  25
ATOM     25  O   UNL A   1      45.581  26.284  26.100  1.00  0.00    -0.460 OA
BRANCH  25  26
ATOM     26  C   UNL A   1      45.493  25.697  27.321  1.00  0.00     0.338 C 
ATOM     27  O   UNL A   1      46.168  24.774  27.723  1.00  0.00    -0.246 OA
BRANCH  26  28
ATOM     28  C   UNL A   1      44.592  26.529  28.170  1.00  0.00     0.060 A 
ATOM     29  C   UNL A   1      44.582  27.917  27.980  1.00  0.00     0.016 A 
ATOM     30  C   UNL A   1      43.772  25.957  29.150  1.00  0.00     0.016 A 
ATOM     31  C   UNL A   1      43.803  28.734  28.810  1.00  0.00     0.010 A 
ATOM     32  C   UNL A   1      43.008  26.779  29.993  1.00  0.00     0.010 A 
ATOM     33  C   UNL A   1      43.050  28.176  29.857  1.00  0.00    -0.014 A 
BRANCH  33  34
ATOM     34  C   UNL A   1      42.549  29.078  30.936  1.00  0.00     0.031 A 
ATOM     35  C   UNL A   1      43.433  29.300  32.126  1.00  0.00     0.074 A 
ATOM     36  C   UNL A   1      41.378  29.739  30.861  1.00  0.00     0.049 A 
ATOM     37  N   UNL A   1      43.252  30.084  33.155  1.00  0.00    -0.248 NA
ATOM     38  C   UNL A   1      44.662  28.492  32.188  1.00  0.00     0.031 C 
ATOM     39  C   UNL A   1      40.375  29.517  29.840  1.00  0.00     0.029 A 
ATOM     40  N   UNL A   1      40.834  30.739  31.632  1.00  0.00    -0.354 N 
ATOM     41  C   UNL A   1      44.323  29.843  34.002  1.00  0.00     0.074 A 
ATOM     42  C   UNL A   1      45.146  28.832  33.372  1.00  0.00     0.031 C 
ATOM     43  C   UNL A   1      39.415  30.449  29.930  1.00  0.00     0.029 A 
ATOM     44  C   UNL A   1      39.658  31.252  31.124  1.00  0.00     0.049 A 
ATOM     45  H   UNL A   1      41.245  31.058  32.467  1.00  0.00     0.167 HD
ATOM     46  C   UNL A   1      44.587  30.404  35.203  1.00  0.00     0.037 A 
ATOM     47  C   UNL A   1      38.846  32.225  31.590  1.00  0.00     0.037 A 
ATOM     48  C   UNL A   1      43.748  31.389  35.834  1.00  0.00     0.049 A 
ATOM     49  C   UNL A   1      39.176  32.849  32.920  1.00  0.00     0.074 A 
ATOM     50  C   UNL A   1      43.931  32.018  37.052  1.00  0.00     0.029 A 
ATOM     51  N   UNL A   1      42.561  31.878  35.307  1.00  0.00    -0.354 N 
ATOM     52  N   UNL A   1      40.207  32.627  33.702  1.00  0.00    -0.248 NA
ATOM     53  C   UNL A   1      38.213  33.819  33.458  1.00  0.00     0.031 C 
ATOM     54  C   UNL A   1      42.831  32.851  37.284  1.00  0.00     0.029 A 
ATOM     55  C   UNL A   1      41.994  32.793  36.182  1.00  0.00     0.049 A 
ATOM     56  H   UNL A   1      42.177  31.615  34.439  1.00  0.00     0.167 HD
ATOM     57  C   UNL A   1      40.014  33.426  34.823  1.00  0.00     0.074 A 
ATOM     58  C   UNL A   1      38.791  34.168  34.599  1.00  0.00     0.031 C 
ATOM     59  C   UNL A   1      40.772  33.522  35.945  1.00  0.00     0.037 A 
BRANCH  46  60
ATOM     60  C   UNL A   1      45.814  29.924  35.925  1.00  0.00     0.058 A 
ATOM     61  C   UNL A   1      47.075  30.499  35.706  1.00  0.00     0.135 A 
ATOM     62  C   UNL A   1      45.725  28.870  36.849  1.00  0.00     0.135 A 
ATOM     63  F   UNL A   1      47.222  31.489  34.810  1.00  0.00    -0.206 F 
ATOM     64  C   UNL A   1      48.210  30.029  36.357  1.00  0.00     0.059 A 
ATOM     65  C   UNL A   1      46.842  28.405  37.536  1.00  0.00     0.059 A 
ATOM     66  F   UNL A   1      44.546  28.275  37.086  1.00  0.00    -0.206 F 
ATOM     67  C   UNL A   1      48.082  28.983  37.272  1.00  0.00     0.060 A 
BRANCH  67  68
ATOM     68  S   UNL A   1      49.564  28.395  38.116  1.00  0.00     0.124 S 
ATOM     69  O   UNL A   1      50.289  27.755  37.022  1.00  0.00    -0.237 OA
ATOM     70  O   UNL A   1      50.145  29.634  38.622  1.00  0.00    -0.237 OA
ATOM     71  O   UNL A   1      49.040  27.490  39.134  1.00  0.00    -0.744 OA
ENDBRANCH  67  68
ENDBRANCH  46  60
BRANCH  47  72
ATOM     72  C   UNL A   1      37.618  32.634  30.842  1.00  0.00     0.058 A 
ATOM     73  C   UNL A   1      37.670  33.617  29.840  1.00  0.00     0.135 A 
ATOM     74  C   UNL A   1      36.361  32.075  31.128  1.00  0.00     0.135 A 
ATOM     75  F   UNL A   1      38.839  34.205  29.538  1.00  0.00    -0.206 F 
ATOM     76  C   UNL A   1      36.529  34.038  29.161  1.00  0.00     0.059 A 
ATOM     77  C   UNL A   1      35.213  32.448  30.435  1.00  0.00     0.059 A 
ATOM     78  F   UNL A   1      36.244  31.134  32.078  1.00  0.00    -0.206 F 
ATOM     79  C   UNL A   1      35.304  33.442  29.462  1.00  0.00     0.060 A 
BRANCH  79  80
ATOM     80  S   UNL A   1      33.835  33.954  28.543  1.00  0.00     0.124 S 
ATOM     81  O   UNL A   1      34.395  34.927  27.613  1.00  0.00    -0.237 OA
ATOM     82  O   UNL A   1      33.387  32.694  27.956  1.00  0.00    -0.237 OA
ATOM     83  O   UNL A   1      32.964  34.499  29.579  1.00  0.00    -0.744 OA
ENDBRANCH  79  80
ENDBRANCH  47  72
BRANCH  59  84
ATOM     84  C   UNL A   1      40.314  34.495  36.998  1.00  0.00     0.058 A 
ATOM     85  C   UNL A   1      40.685  35.848  36.974  1.00  0.00     0.135 A 
ATOM     86  C   UNL A   1      39.479  34.064  38.042  1.00  0.00     0.135 A 
ATOM     87  F   UNL A   1      41.486  36.313  36.001  1.00  0.00    -0.206 F 
ATOM     88  C   UNL A   1      40.284  36.730  37.972  1.00  0.00     0.059 A 
ATOM     89  C   UNL A   1      39.036  34.936  39.032  1.00  0.00     0.059 A 
ATOM     90  F   UNL A   1      39.081  32.784  38.108  1.00  0.00    -0.206 F 
ATOM     91  C   UNL A   1      39.462  36.263  39.000  1.00  0.00     0.060 A 
BRANCH  91  92
ATOM     92  S   UNL A   1      38.955  37.413  40.295  1.00  0.00     0.124 S 
ATOM     93  O   UNL A   1      38.179  36.544  41.173  1.00  0.00    -0.237 OA
ATOM     94  O   UNL A   1      40.234  37.873  40.825  1.00  0.00    -0.237 OA
ATOM     95  O   UNL A   1      38.185  38.421  39.570  1.00  0.00    -0.744 OA
ENDBRANCH  91  92
ENDBRANCH  59  84
ENDBRANCH  33  34
ENDBRANCH  26  28
ENDBRANCH  25  26
ENDBRANCH  24  25
ENDBRANCH  23  24
ENDBRANCH  22  23
ENDBRANCH   1  22
TORSDOF 22
ENDMDL
MODEL 3
REMARK VINA RESULT:      -8.9      6.259     12.435
REMARK SMILES C[NH2+][C@](C)(C(=O)OCCOCCOCCOC(=O)c1ccc(-c2c3nc(c(-c4c(F)cc(S(=O)(=O)[O-])cc4F)c4ccc([nH]4)c(-c4c(F)cc(S(=O)(=O)[O-])cc4F)c4nc(c(-c5c(F)cc(S(=O)(=O)[O-])cc5F)c5ccc2[nH]5)C=C4)C=C3)cc1)c1cccc(Cl)c1
REMARK SMILES IDX 12 1 11 2 10 3 9 4 8 5 7 6 5 7 6 8 3 9 4 10 2 11 1 12 85 15
REMARK SMILES IDX 86 16 91 17 87 18 89 19 88 20 90 21 13 22 14 23 15 24 16 25
REMARK SMILES IDX 17 26 18 27 19 28 20 29 84 30 21 31 83 32 22 33 23 34 24 35
REMARK SMILES IDX 77 36 25 37 82 38 76 39 78 40 26 41 81 42 75 43 74 44 27 46
REMARK SMILES IDX 61 47 40 48 60 49 41 50 44 51 59 52 79 53 42 54 43 55 58 57
REMARK SMILES IDX 80 58 45 59 28 60 29 61 38 62 30 63 31 64 37 65 39 66 32 67
REMARK SMILES IDX 33 68 34 69 35 70 36 71 62 72 63 73 72 74 64 75 65 76 71 77
REMARK SMILES IDX 73 78 66 79 67 80 68 81 69 82 70 83 46 84 47 85 56 86 48 87
REMARK SMILES IDX 49 88 55 89 57 90 50 91 51 92 52 93 53 94 54 95
REMARK H PARENT 2 13 2 14 78 45 44 56
REMARK Flexibility Score: inf
ROOT
ATOM      1  C   UNL A   1      46.010  22.545  24.827  1.00  0.00     0.188 C 
ENDROOT
BRANCH   1   2
ATOM      2  C   UNL A   1      44.913  21.608  24.306  1.00  0.00     0.188 C 
BRANCH   2   3
ATOM      3  O   UNL A   1      44.871  20.298  24.847  1.00  0.00    -0.376 OA
BRANCH   3   4
ATOM      4  C   UNL A   1      43.595  19.777  25.217  1.00  0.00     0.202 C 
BRANCH   4   5
ATOM      5  C   UNL A   1      42.807  20.412  26.387  1.00  0.00     0.261 C 
BRANCH   5   6
ATOM      6  O   UNL A   1      41.848  21.447  26.043  1.00  0.00    -0.458 OA
BRANCH   6   7
ATOM      7  C   UNL A   1      41.026  21.871  27.057  1.00  0.00     0.372 C 
ATOM      8  O   UNL A   1      40.824  21.201  28.070  1.00  0.00    -0.244 OA
BRANCH   7   9
ATOM      9  C   UNL A   1      40.357  23.333  26.851  1.00  0.00     0.216 C 
ATOM     10  C   UNL A   1      40.335  24.194  28.136  1.00  0.00     0.098 C 
BRANCH   9  11
ATOM     11  N   UNL A   1      41.239  23.968  25.833  1.00  0.00    -0.331 N 
ATOM     12  C   UNL A   1      41.486  25.392  25.923  1.00  0.00     0.332 C 
ATOM     13  H   UNL A   1      42.144  23.501  25.886  1.00  0.00     0.347 HD
ATOM     14  H   UNL A   1      40.728  23.858  24.957  1.00  0.00     0.347 HD
ENDBRANCH   9  11
BRANCH   9  15
ATOM     15  C   UNL A   1      38.906  23.101  26.335  1.00  0.00     0.025 A 
ATOM     16  C   UNL A   1      37.934  24.082  26.072  1.00  0.00     0.011 A 
ATOM     17  C   UNL A   1      38.539  21.798  26.007  1.00  0.00     0.031 A 
ATOM     18  C   UNL A   1      36.675  23.757  25.528  1.00  0.00     0.002 A 
ATOM     19  C   UNL A   1      37.358  21.493  25.348  1.00  0.00     0.041 A 
ATOM     20  C   UNL A   1      36.388  22.451  25.143  1.00  0.00     0.020 A 
ATOM     21  Cl  UNL A   1      37.272  19.934  24.667  1.00  0.00    -0.084 Cl
ENDBRANCH   9  15
ENDBRANCH   7   9
ENDBRANCH   6   7
ENDBRANCH   5   6
ENDBRANCH   4   5
ENDBRANCH   3   4
ENDBRANCH   2   3
ENDBRANCH   1   2
BRANCH   1  22
ATOM     22  O   UNL A   1      46.057  23.803  24.203  1.00  0.00    -0.376 OA
BRANCH  22  23
ATOM     23  C   UNL A   1      46.986  24.764  24.666  1.00  0.00     0.202 C 
BRANCH  23  24
ATOM     24  C   UNL A   1      46.616  25.811  25.734  1.00  0.00     0.261 C 
BRANCH  24  25
ATOM     25  O   UNL A   1      45.267  25.830  26.229  1.00  0.00    -0.460 OA
BRANCH  25  26
ATOM     26  C   UNL A   1      45.032  25.232  27.424  1.00  0.00     0.338 C 
ATOM     27  O   UNL A   1      45.564  24.225  27.841  1.00  0.00    -0.246 OA
BRANCH  26  28
ATOM     28  C   UNL A   1      44.185  26.150  28.242  1.00  0.00     0.060 A 
ATOM     29  C   UNL A   1      44.347  27.532  28.083  1.00  0.00     0.016 A 
ATOM     30  C   UNL A   1      43.249  25.660  29.160  1.00  0.00     0.016 A 
ATOM     31  C   UNL A   1      43.621  28.421  28.887  1.00  0.00     0.010 A 
ATOM     32  C   UNL A   1      42.537  26.553  29.978  1.00  0.00     0.010 A 
ATOM     33  C   UNL A   1      42.748  27.937  29.877  1.00  0.00    -0.014 A 
BRANCH  33  34
ATOM     34  C   UNL A   1      42.292  28.874  30.947  1.00  0.00     0.031 A 
ATOM     35  C   UNL A   1      43.196  29.078  32.126  1.00  0.00     0.074 A 
ATOM     36  C   UNL A   1      41.148  29.578  30.872  1.00  0.00     0.049 A 
ATOM     37  N   UNL A   1      43.055  29.883  33.144  1.00  0.00    -0.248 NA
ATOM     38  C   UNL A   1      44.392  28.223  32.189  1.00  0.00     0.031 C 
ATOM     39  C   UNL A   1      40.128  29.381  29.863  1.00  0.00     0.029 A 
ATOM     40  N   UNL A   1      40.651  30.610  31.633  1.00  0.00    -0.354 N 
ATOM     41  C   UNL A   1      44.124  29.612  33.985  1.00  0.00     0.074 A 
ATOM     42  C   UNL A   1      44.901  28.561  33.363  1.00  0.00     0.031 C 
ATOM     43  C   UNL A   1      39.205  30.351  29.948  1.00  0.00     0.029 A 
ATOM     44  C   UNL A   1      39.491  31.162  31.128  1.00  0.00     0.049 A 
ATOM     45  H   UNL A   1      41.081  30.926  32.459  1.00  0.00     0.167 HD
ATOM     46  C   UNL A   1      44.421  30.181  35.176  1.00  0.00     0.037 A 
ATOM     47  C   UNL A   1      38.722  32.172  31.586  1.00  0.00     0.037 A 
ATOM     48  C   UNL A   1      43.626  31.206  35.799  1.00  0.00     0.049 A 
ATOM     49  C   UNL A   1      39.088  32.802  32.904  1.00  0.00     0.074 A 
ATOM     50  C   UNL A   1      43.846  31.846  37.006  1.00  0.00     0.029 A 
ATOM     51  N   UNL A   1      42.455  31.734  35.275  1.00  0.00    -0.354 N 
ATOM     52  N   UNL A   1      40.117  32.552  33.680  1.00  0.00    -0.248 NA
ATOM     53  C   UNL A   1      38.169  33.817  33.436  1.00  0.00     0.031 C 
ATOM     54  C   UNL A   1      42.781  32.724  37.235  1.00  0.00     0.029 A 
ATOM     55  C   UNL A   1      41.932  32.683  36.142  1.00  0.00     0.049 A 
ATOM     56  H   UNL A   1      42.053  31.474  34.415  1.00  0.00     0.167 HD
ATOM     57  C   UNL A   1      39.966  33.373  34.791  1.00  0.00     0.074 A 
ATOM     58  C   UNL A   1      38.771  34.159  34.567  1.00  0.00     0.031 C 
ATOM     59  C   UNL A   1      40.737  33.455  35.905  1.00  0.00     0.037 A 
BRANCH  46  60
ATOM     60  C   UNL A   1      45.634  29.663  35.894  1.00  0.00     0.058 A 
ATOM     61  C   UNL A   1      45.555  28.605  36.813  1.00  0.00     0.135 A 
ATOM     62  C   UNL A   1      46.894  30.238  35.662  1.00  0.00     0.135 A 
ATOM     63  F   UNL A   1      44.370  28.040  37.096  1.00  0.00    -0.206 F 
ATOM     64  C   UNL A   1      46.679  28.151  37.496  1.00  0.00     0.059 A 
ATOM     65  C   UNL A   1      48.037  29.778  36.309  1.00  0.00     0.059 A 
ATOM     66  F   UNL A   1      47.024  31.262  34.804  1.00  0.00    -0.206 F 
ATOM     67  C   UNL A   1      47.915  28.743  37.235  1.00  0.00     0.060 A 
BRANCH  67  68
ATOM     68  S   UNL A   1      49.363  28.133  38.121  1.00  0.00     0.124 S 
ATOM     69  O   UNL A   1      49.837  27.087  37.221  1.00  0.00    -0.237 OA
ATOM     70  O   UNL A   1      50.200  29.325  38.205  1.00  0.00    -0.237 OA
ATOM     71  O   UNL A   1      48.813  27.666  39.390  1.00  0.00    -0.744 OA
ENDBRANCH  67  68
ENDBRANCH  46  60
BRANCH  47  72
ATOM     72  C   UNL A   1      37.504  32.618  30.843  1.00  0.00     0.058 A 
ATOM     73  C   UNL A   1      37.548  33.713  29.964  1.00  0.00     0.135 A 
ATOM     74  C   UNL A   1      36.263  31.981  31.013  1.00  0.00     0.135 A 
ATOM     75  F   UNL A   1      38.701  34.377  29.778  1.00  0.00    -0.206 F 
ATOM     76  C   UNL A   1      36.414  34.167  29.295  1.00  0.00     0.059 A 
ATOM     77  C   UNL A   1      35.125  32.388  30.323  1.00  0.00     0.059 A 
ATOM     78  F   UNL A   1      36.154  30.932  31.842  1.00  0.00    -0.206 F 
ATOM     79  C   UNL A   1      35.206  33.492  29.476  1.00  0.00     0.060 A 
BRANCH  79  80
ATOM     80  S   UNL A   1      33.749  34.051  28.565  1.00  0.00     0.124 S 
ATOM     81  O   UNL A   1      34.336  34.997  27.624  1.00  0.00    -0.237 OA
ATOM     82  O   UNL A   1      33.251  32.805  27.990  1.00  0.00    -0.237 OA
ATOM     83  O   UNL A   1      32.907  34.634  29.605  1.00  0.00    -0.744 OA
ENDBRANCH  79  80
ENDBRANCH  47  72
BRANCH  59  84
ATOM     84  C   UNL A   1      40.327  34.461  36.947  1.00  0.00     0.058 A 
ATOM     85  C   UNL A   1      40.818  35.776  36.947  1.00  0.00     0.135 A 
ATOM     86  C   UNL A   1      39.418  34.101  37.956  1.00  0.00     0.135 A 
ATOM     87  F   UNL A   1      41.693  36.172  36.009  1.00  0.00    -0.206 F 
ATOM     88  C   UNL A   1      40.459  36.686  37.936  1.00  0.00     0.059 A 
ATOM     89  C   UNL A   1      39.017  35.006  38.934  1.00  0.00     0.059 A 
ATOM     90  F   UNL A   1      38.906  32.862  37.996  1.00  0.00    -0.206 F 
ATOM     91  C   UNL A   1      39.560  36.289  38.929  1.00  0.00     0.060 A 
BRANCH  91  92
ATOM     92  S   UNL A   1      39.107  37.475  40.212  1.00  0.00     0.124 S 
ATOM     93  O   UNL A   1      40.408  38.029  40.572  1.00  0.00    -0.237 OA
ATOM     94  O   UNL A   1      38.207  38.377  39.501  1.00  0.00    -0.237 OA
ATOM     95  O   UNL A   1      38.475  36.644  41.233  1.00  0.00    -0.744 OA
ENDBRANCH  91  92
ENDBRANCH  59  84
ENDBRANCH  33  34
ENDBRANCH  26  28
ENDBRANCH  25  26
ENDBRANCH  24  25
ENDBRANCH  23  24
ENDBRANCH  22  23
ENDBRANCH   1  22
TORSDOF 22
ENDMDL
