MODEL 1
REMARK VINA RESULT:     -10.5      0.000      0.000
REMARK SMILES C[C@]12CCC(=O)N1[C@@H](C(=O)N1C[C@H](O)C[C@@H]1C(=O)OCCOCCOCCOC(=O)c1ccc(-c3c4nc(c(-c5c(F)cc(S(=O)(=O)[O-])cc5F)c5ccc([nH]5)c(-c5c(F)cc(S(=O)(=O)[O-])cc5F)c5nc(c(-c6c(F)cc(S(=O)(=O)[O-])cc6F)c6ccc3[nH]6)C=C5)C=C4)cc1)CS2
REMARK SMILES IDX 24 1 23 2 22 3 21 4 20 5 19 6 17 7 18 8 16 9 11 10 12 11
REMARK SMILES IDX 13 12 15 13 9 14 10 15 8 16 1 17 2 18 3 19 7 20 98 21 4 22
REMARK SMILES IDX 5 23 97 24 6 25 14 26 25 28 26 29 27 30 28 31 29 32 30 33
REMARK SMILES IDX 31 34 32 35 96 36 33 37 95 38 34 39 35 40 36 41 89 42 37 43
REMARK SMILES IDX 94 44 88 45 90 46 38 47 93 48 87 49 86 50 39 52 73 53 52 54
REMARK SMILES IDX 72 55 53 56 56 57 71 58 91 59 54 60 55 61 70 63 92 64 57 65
REMARK SMILES IDX 40 66 41 67 50 68 42 69 43 70 49 71 51 72 44 73 45 74 46 75
REMARK SMILES IDX 47 76 48 77 74 78 75 79 84 80 76 81 77 82 83 83 85 84 78 85
REMARK SMILES IDX 79 86 80 87 81 88 82 89 58 90 59 91 68 92 60 93 61 94 67 95
REMARK SMILES IDX 69 96 62 97 63 98 64 99 65 100 66 101
REMARK H PARENT 14 27 90 51 56 62
REMARK Flexibility Score: inf
ROOT
ATOM      1  C   UNL A   1      35.391  32.375  29.134  1.00  0.00     0.188 C 
ENDROOT
BRANCH   1   2
ATOM      2  C   UNL A   1      35.370  31.709  27.742  1.00  0.00     0.188 C 
BRANCH   2   3
ATOM      3  O   UNL A   1      34.849  30.392  27.649  1.00  0.00    -0.376 OA
BRANCH   3   4
ATOM      4  C   UNL A   1      33.585  30.238  27.022  1.00  0.00     0.202 C 
BRANCH   4   5
ATOM      5  C   UNL A   1      33.531  29.175  25.923  1.00  0.00     0.261 C 
BRANCH   5   6
ATOM      6  O   UNL A   1      33.065  29.709  24.665  1.00  0.00    -0.462 OA
BRANCH   6   7
ATOM      7  C   UNL A   1      32.918  28.832  23.622  1.00  0.00     0.329 C 
ATOM      8  O   UNL A   1      33.246  29.054  22.465  1.00  0.00    -0.250 OA
BRANCH   7   9
ATOM      9  C   UNL A   1      32.170  27.569  24.110  1.00  0.00     0.197 C 
ATOM     10  N   UNL A   1      32.231  26.380  23.239  1.00  0.00    -0.324 N 
ATOM     11  C   UNL A   1      31.066  26.320  22.365  1.00  0.00     0.152 C 
ATOM     12  C   UNL A   1      30.217  27.540  22.726  1.00  0.00     0.136 C 
ATOM     13  C   UNL A   1      30.678  27.911  24.136  1.00  0.00     0.070 C 
BRANCH  10  14
ATOM     14  C   UNL A   1      33.363  25.685  22.888  1.00  0.00     0.247 C 
ATOM     15  O   UNL A   1      33.991  26.036  21.882  1.00  0.00    -0.272 OA
BRANCH  14  16
ATOM     16  C   UNL A   1      34.024  24.681  23.873  1.00  0.00     0.186 C 
ATOM     17  C   UNL A   1      36.349  22.625  24.986  1.00  0.00     0.047 C 
ATOM     18  C   UNL A   1      34.824  22.613  24.883  1.00  0.00     0.087 C 
ATOM     19  C   UNL A   1      34.268  21.194  24.868  1.00  0.00     0.049 C 
ATOM     20  N   UNL A   1      34.288  23.252  23.686  1.00  0.00    -0.315 N 
ATOM     21  S   UNL A   1      34.149  23.592  26.284  1.00  0.00    -0.131 SA
ATOM     22  C   UNL A   1      33.063  21.264  23.950  1.00  0.00     0.103 C 
ATOM     23  C   UNL A   1      33.347  22.442  23.059  1.00  0.00     0.224 C 
ATOM     24  C   UNL A   1      33.282  24.738  25.189  1.00  0.00     0.107 C 
ATOM     25  O   UNL A   1      32.724  22.690  22.051  1.00  0.00    -0.275 OA
ENDBRANCH  14  16
ENDBRANCH  10  14
BRANCH  12  26
ATOM     26  O   UNL A   1      30.443  28.631  21.838  1.00  0.00    -0.391 OA
ATOM     27  H   UNL A   1      30.396  29.464  22.332  1.00  0.00     0.211 HD
ENDBRANCH  12  26
ENDBRANCH   7   9
ENDBRANCH   6   7
ENDBRANCH   5   6
ENDBRANCH   4   5
ENDBRANCH   3   4
ENDBRANCH   2   3
ENDBRANCH   1   2
BRANCH   1  28
ATOM     28  O   UNL A   1      34.323  33.250  29.465  1.00  0.00    -0.376 OA
BRANCH  28  29
ATOM     29  C   UNL A   1      34.199  34.411  28.646  1.00  0.00     0.202 C 
BRANCH  29  30
ATOM     30  C   UNL A   1      33.287  35.513  29.199  1.00  0.00     0.261 C 
BRANCH  30  31
ATOM     31  O   UNL A   1      32.510  35.054  30.325  1.00  0.00    -0.460 OA
BRANCH  31  32
ATOM     32  C   UNL A   1      32.735  35.752  31.468  1.00  0.00     0.338 C 
ATOM     33  O   UNL A   1      32.139  36.766  31.798  1.00  0.00    -0.246 OA
BRANCH  32  34
ATOM     34  C   UNL A   1      33.798  35.137  32.313  1.00  0.00     0.060 A 
ATOM     35  C   UNL A   1      35.063  35.703  32.460  1.00  0.00     0.016 A 
ATOM     36  C   UNL A   1      33.566  33.878  32.864  1.00  0.00     0.016 A 
ATOM     37  C   UNL A   1      36.125  34.964  33.007  1.00  0.00     0.010 A 
ATOM     38  C   UNL A   1      34.603  33.179  33.497  1.00  0.00     0.010 A 
ATOM     39  C   UNL A   1      35.922  33.675  33.513  1.00  0.00    -0.014 A 
BRANCH  39  40
ATOM     40  C   UNL A   1      37.051  32.779  33.941  1.00  0.00     0.031 A 
ATOM     41  C   UNL A   1      37.678  32.995  35.305  1.00  0.00     0.074 A 
ATOM     42  C   UNL A   1      37.527  31.766  33.185  1.00  0.00     0.049 A 
ATOM     43  N   UNL A   1      38.847  32.617  35.759  1.00  0.00    -0.248 NA
ATOM     44  C   UNL A   1      36.879  33.753  36.283  1.00  0.00     0.031 C 
ATOM     45  C   UNL A   1      36.982  31.313  31.906  1.00  0.00     0.029 A 
ATOM     46  N   UNL A   1      38.600  30.923  33.395  1.00  0.00    -0.354 N 
ATOM     47  C   UNL A   1      38.959  33.168  37.034  1.00  0.00     0.074 A 
ATOM     48  C   UNL A   1      37.731  33.891  37.288  1.00  0.00     0.031 C 
ATOM     49  C   UNL A   1      37.696  30.265  31.465  1.00  0.00     0.029 A 
ATOM     50  C   UNL A   1      38.826  30.043  32.360  1.00  0.00     0.049 A 
ATOM     51  H   UNL A   1      39.153  30.949  34.209  1.00  0.00     0.167 HD
ATOM     52  C   UNL A   1      39.992  33.086  37.907  1.00  0.00     0.037 A 
ATOM     53  C   UNL A   1      39.855  29.204  32.114  1.00  0.00     0.037 A 
ATOM     54  C   UNL A   1      41.175  32.295  37.686  1.00  0.00     0.049 A 
ATOM     55  C   UNL A   1      41.026  29.168  33.065  1.00  0.00     0.074 A 
ATOM     56  C   UNL A   1      42.301  32.183  38.485  1.00  0.00     0.029 A 
ATOM     57  N   UNL A   1      41.368  31.449  36.606  1.00  0.00    -0.354 N 
ATOM     58  N   UNL A   1      41.197  29.817  34.191  1.00  0.00    -0.248 NA
ATOM     59  C   UNL A   1      42.161  28.309  32.692  1.00  0.00     0.031 C 
ATOM     60  C   UNL A   1      43.185  31.285  37.876  1.00  0.00     0.029 A 
ATOM     61  C   UNL A   1      42.589  30.805  36.721  1.00  0.00     0.049 A 
ATOM     62  H   UNL A   1      40.732  31.324  35.866  1.00  0.00     0.167 HD
ATOM     63  C   UNL A   1      42.445  29.428  34.670  1.00  0.00     0.074 A 
ATOM     64  C   UNL A   1      42.980  28.475  33.721  1.00  0.00     0.031 C 
ATOM     65  C   UNL A   1      43.095  29.832  35.789  1.00  0.00     0.037 A 
BRANCH  52  66
ATOM     66  C   UNL A   1      39.918  33.905  39.167  1.00  0.00     0.058 A 
ATOM     67  C   UNL A   1      39.306  33.431  40.338  1.00  0.00     0.135 A 
ATOM     68  C   UNL A   1      40.517  35.177  39.214  1.00  0.00     0.135 A 
ATOM     69  F   UNL A   1      38.700  32.233  40.345  1.00  0.00    -0.206 F 
ATOM     70  C   UNL A   1      39.275  34.194  41.502  1.00  0.00     0.059 A 
ATOM     71  C   UNL A   1      40.521  35.945  40.374  1.00  0.00     0.059 A 
ATOM     72  F   UNL A   1      41.116  35.680  38.122  1.00  0.00    -0.206 F 
ATOM     73  C   UNL A   1      39.886  35.450  41.511  1.00  0.00     0.060 A 
BRANCH  73  74
ATOM     74  S   UNL A   1      39.846  36.422  43.031  1.00  0.00     0.124 S 
ATOM     75  O   UNL A   1      39.507  37.746  42.521  1.00  0.00    -0.237 OA
ATOM     76  O   UNL A   1      38.803  35.754  43.803  1.00  0.00    -0.237 OA
ATOM     77  O   UNL A   1      41.199  36.283  43.561  1.00  0.00    -0.744 OA
ENDBRANCH  73  74
ENDBRANCH  52  66
BRANCH  53  78
ATOM     78  C   UNL A   1      39.887  28.389  30.863  1.00  0.00     0.058 A 
ATOM     79  C   UNL A   1      39.138  27.208  30.741  1.00  0.00     0.135 A 
ATOM     80  C   UNL A   1      40.710  28.748  29.783  1.00  0.00     0.135 A 
ATOM     81  F   UNL A   1      38.352  26.805  31.752  1.00  0.00    -0.206 F 
ATOM     82  C   UNL A   1      39.224  26.400  29.609  1.00  0.00     0.059 A 
ATOM     83  C   UNL A   1      40.784  27.978  28.627  1.00  0.00     0.059 A 
ATOM     84  F   UNL A   1      41.449  29.867  29.841  1.00  0.00    -0.206 F 
ATOM     85  C   UNL A   1      40.054  26.794  28.558  1.00  0.00     0.060 A 
BRANCH  85  86
ATOM     86  S   UNL A   1      40.162  25.746  27.091  1.00  0.00     0.124 S 
ATOM     87  O   UNL A   1      38.774  25.334  26.923  1.00  0.00    -0.237 OA
ATOM     88  O   UNL A   1      40.681  26.669  26.086  1.00  0.00    -0.237 OA
ATOM     89  O   UNL A   1      41.088  24.693  27.500  1.00  0.00    -0.744 OA
ENDBRANCH  85  86
ENDBRANCH  53  78
BRANCH  65  90
ATOM     90  C   UNL A   1      44.423  29.196  36.091  1.00  0.00     0.058 A 
ATOM     91  C   UNL A   1      45.636  29.794  35.714  1.00  0.00     0.135 A 
ATOM     92  C   UNL A   1      44.484  27.992  36.811  1.00  0.00     0.135 A 
ATOM     93  F   UNL A   1      45.634  30.943  35.019  1.00  0.00    -0.206 F 
ATOM     94  C   UNL A   1      46.861  29.210  36.019  1.00  0.00     0.059 A 
ATOM     95  C   UNL A   1      45.697  27.402  37.151  1.00  0.00     0.059 A 
ATOM     96  F   UNL A   1      43.354  27.383  37.206  1.00  0.00    -0.206 F 
ATOM     97  C   UNL A   1      46.881  28.014  36.740  1.00  0.00     0.060 A 
BRANCH  97  98
ATOM     98  S   UNL A   1      48.477  27.280  37.161  1.00  0.00     0.124 S 
ATOM     99  O   UNL A   1      48.241  26.824  38.527  1.00  0.00    -0.237 OA
ATOM    100  O   UNL A   1      48.614  26.229  36.157  1.00  0.00    -0.237 OA
ATOM    101  O   UNL A   1      49.410  28.394  37.023  1.00  0.00    -0.744 OA
ENDBRANCH  97  98
ENDBRANCH  65  90
ENDBRANCH  39  40
ENDBRANCH  32  34
ENDBRANCH  31  32
ENDBRANCH  30  31
ENDBRANCH  29  30
ENDBRANCH  28  29
ENDBRANCH   1  28
TORSDOF 23
ENDMDL
MODEL 2
REMARK VINA RESULT:     -10.2      2.620      9.515
REMARK SMILES C[C@]12CCC(=O)N1[C@@H](C(=O)N1C[C@H](O)C[C@@H]1C(=O)OCCOCCOCCOC(=O)c1ccc(-c3c4nc(c(-c5c(F)cc(S(=O)(=O)[O-])cc5F)c5ccc([nH]5)c(-c5c(F)cc(S(=O)(=O)[O-])cc5F)c5nc(c(-c6c(F)cc(S(=O)(=O)[O-])cc6F)c6ccc3[nH]6)C=C5)C=C4)cc1)CS2
REMARK SMILES IDX 24 1 23 2 22 3 21 4 20 5 19 6 17 7 18 8 16 9 11 10 12 11
REMARK SMILES IDX 13 12 15 13 9 14 10 15 8 16 1 17 2 18 3 19 7 20 98 21 4 22
REMARK SMILES IDX 5 23 97 24 6 25 14 26 25 28 26 29 27 30 28 31 29 32 30 33
REMARK SMILES IDX 31 34 32 35 96 36 33 37 95 38 34 39 35 40 36 41 89 42 37 43
REMARK SMILES IDX 94 44 88 45 90 46 38 47 93 48 87 49 86 50 39 52 73 53 52 54
REMARK SMILES IDX 72 55 53 56 56 57 71 58 91 59 54 60 55 61 70 63 92 64 57 65
REMARK SMILES IDX 40 66 41 67 50 68 42 69 43 70 49 71 51 72 44 73 45 74 46 75
REMARK SMILES IDX 47 76 48 77 74 78 75 79 84 80 76 81 77 82 83 83 85 84 78 85
REMARK SMILES IDX 79 86 80 87 81 88 82 89 58 90 59 91 68 92 60 93 61 94 67 95
REMARK SMILES IDX 69 96 62 97 63 98 64 99 65 100 66 101
REMARK H PARENT 14 27 90 51 56 62
REMARK Flexibility Score: inf
ROOT
ATOM      1  C   UNL A   1      41.914  20.562  26.069  1.00  0.00     0.188 C 
ENDROOT
BRANCH   1   2
ATOM      2  C   UNL A   1      40.837  20.939  27.108  1.00  0.00     0.188 C 
BRANCH   2   3
ATOM      3  O   UNL A   1      39.695  21.645  26.647  1.00  0.00    -0.376 OA
BRANCH   3   4
ATOM      4  C   UNL A   1      39.653  23.041  26.894  1.00  0.00     0.202 C 
BRANCH   4   5
ATOM      5  C   UNL A   1      38.344  23.730  26.505  1.00  0.00     0.261 C 
BRANCH   5   6
ATOM      6  O   UNL A   1      37.682  23.071  25.403  1.00  0.00    -0.462 OA
BRANCH   6   7
ATOM      7  C   UNL A   1      36.360  23.364  25.193  1.00  0.00     0.329 C 
ATOM      8  O   UNL A   1      35.742  24.262  25.746  1.00  0.00    -0.250 OA
BRANCH   7   9
ATOM      9  C   UNL A   1      35.744  22.314  24.238  1.00  0.00     0.197 C 
ATOM     10  N   UNL A   1      34.343  22.528  23.828  1.00  0.00    -0.324 N 
ATOM     11  C   UNL A   1      33.433  21.782  24.690  1.00  0.00     0.152 C 
ATOM     12  C   UNL A   1      34.325  21.045  25.689  1.00  0.00     0.136 C 
ATOM     13  C   UNL A   1      35.689  20.989  25.001  1.00  0.00     0.070 C 
BRANCH  10  14
ATOM     14  C   UNL A   1      33.857  23.596  23.114  1.00  0.00     0.247 C 
ATOM     15  O   UNL A   1      33.673  23.467  21.898  1.00  0.00    -0.272 OA
BRANCH  14  16
ATOM     16  C   UNL A   1      33.261  24.837  23.834  1.00  0.00     0.186 C 
ATOM     17  C   UNL A   1      32.051  26.571  26.365  1.00  0.00     0.047 C 
ATOM     18  C   UNL A   1      31.687  26.367  24.894  1.00  0.00     0.087 C 
ATOM     19  C   UNL A   1      30.214  26.652  24.629  1.00  0.00     0.049 C 
ATOM     20  N   UNL A   1      31.917  25.016  24.391  1.00  0.00    -0.315 N 
ATOM     21  S   UNL A   1      32.780  27.441  23.881  1.00  0.00    -0.131 SA
ATOM     22  C   UNL A   1      29.818  25.661  23.552  1.00  0.00     0.103 C 
ATOM     23  C   UNL A   1      30.806  24.536  23.706  1.00  0.00     0.224 C 
ATOM     24  C   UNL A   1      33.444  26.046  22.945  1.00  0.00     0.107 C 
ATOM     25  O   UNL A   1      30.686  23.457  23.172  1.00  0.00    -0.275 OA
ENDBRANCH  14  16
ENDBRANCH  10  14
BRANCH  12  26
ATOM     26  O   UNL A   1      34.434  21.743  26.927  1.00  0.00    -0.391 OA
ATOM     27  H   UNL A   1      33.547  21.929  27.271  1.00  0.00     0.211 HD
ENDBRANCH  12  26
ENDBRANCH   7   9
ENDBRANCH   6   7
ENDBRANCH   5   6
ENDBRANCH   4   5
ENDBRANCH   3   4
ENDBRANCH   2   3
ENDBRANCH   1   2
BRANCH   1  28
ATOM     28  O   UNL A   1      42.603  21.618  25.417  1.00  0.00    -0.376 OA
BRANCH  28  29
ATOM     29  C   UNL A   1      43.817  22.038  26.034  1.00  0.00     0.202 C 
BRANCH  29  30
ATOM     30  C   UNL A   1      44.038  23.555  26.092  1.00  0.00     0.261 C 
BRANCH  30  31
ATOM     31  O   UNL A   1      42.869  24.251  26.574  1.00  0.00    -0.460 OA
BRANCH  31  32
ATOM     32  C   UNL A   1      42.757  25.522  26.111  1.00  0.00     0.338 C 
ATOM     33  O   UNL A   1      43.082  25.891  24.992  1.00  0.00    -0.246 OA
BRANCH  32  34
ATOM     34  C   UNL A   1      42.168  26.447  27.120  1.00  0.00     0.060 A 
ATOM     35  C   UNL A   1      42.601  27.763  27.277  1.00  0.00     0.016 A 
ATOM     36  C   UNL A   1      41.248  25.938  28.034  1.00  0.00     0.016 A 
ATOM     37  C   UNL A   1      42.248  28.507  28.414  1.00  0.00     0.010 A 
ATOM     38  C   UNL A   1      40.818  26.717  29.118  1.00  0.00     0.010 A 
ATOM     39  C   UNL A   1      41.368  27.989  29.372  1.00  0.00    -0.014 A 
BRANCH  39  40
ATOM     40  C   UNL A   1      41.101  28.669  30.687  1.00  0.00     0.031 A 
ATOM     41  C   UNL A   1      39.941  29.641  30.784  1.00  0.00     0.074 A 
ATOM     42  C   UNL A   1      41.824  28.441  31.805  1.00  0.00     0.049 A 
ATOM     43  N   UNL A   1      39.716  30.591  31.656  1.00  0.00    -0.248 NA
ATOM     44  C   UNL A   1      38.903  29.531  29.744  1.00  0.00     0.031 C 
ATOM     45  C   UNL A   1      42.893  27.455  31.955  1.00  0.00     0.029 A 
ATOM     46  N   UNL A   1      41.761  29.042  33.046  1.00  0.00    -0.354 N 
ATOM     47  C   UNL A   1      38.566  31.247  31.220  1.00  0.00     0.074 A 
ATOM     48  C   UNL A   1      38.131  30.574  30.014  1.00  0.00     0.031 C 
ATOM     49  C   UNL A   1      43.360  27.494  33.214  1.00  0.00     0.029 A 
ATOM     50  C   UNL A   1      42.716  28.589  33.931  1.00  0.00     0.049 A 
ATOM     51  H   UNL A   1      41.097  29.730  33.277  1.00  0.00     0.167 HD
ATOM     52  C   UNL A   1      37.938  32.316  31.767  1.00  0.00     0.037 A 
ATOM     53  C   UNL A   1      43.085  29.041  35.148  1.00  0.00     0.037 A 
ATOM     54  C   UNL A   1      38.323  32.928  33.012  1.00  0.00     0.049 A 
ATOM     55  C   UNL A   1      42.417  30.268  35.718  1.00  0.00     0.074 A 
ATOM     56  C   UNL A   1      37.783  34.044  33.630  1.00  0.00     0.029 A 
ATOM     57  N   UNL A   1      39.317  32.451  33.852  1.00  0.00    -0.354 N 
ATOM     58  N   UNL A   1      41.436  30.982  35.221  1.00  0.00    -0.248 NA
ATOM     59  C   UNL A   1      42.931  30.772  37.002  1.00  0.00     0.031 C 
ATOM     60  C   UNL A   1      38.467  34.255  34.833  1.00  0.00     0.029 A 
ATOM     61  C   UNL A   1      39.401  33.244  34.984  1.00  0.00     0.049 A 
ATOM     62  H   UNL A   1      39.881  31.665  33.670  1.00  0.00     0.167 HD
ATOM     63  C   UNL A   1      41.203  32.001  36.140  1.00  0.00     0.074 A 
ATOM     64  C   UNL A   1      42.132  31.804  37.231  1.00  0.00     0.031 C 
ATOM     65  C   UNL A   1      40.306  33.016  36.080  1.00  0.00     0.037 A 
BRANCH  52  66
ATOM     66  C   UNL A   1      36.792  32.927  31.007  1.00  0.00     0.058 A 
ATOM     67  C   UNL A   1      35.452  32.662  31.325  1.00  0.00     0.135 A 
ATOM     68  C   UNL A   1      37.048  33.836  29.965  1.00  0.00     0.135 A 
ATOM     69  F   UNL A   1      35.149  31.786  32.297  1.00  0.00    -0.206 F 
ATOM     70  C   UNL A   1      34.407  33.262  30.628  1.00  0.00     0.059 A 
ATOM     71  C   UNL A   1      36.020  34.467  29.272  1.00  0.00     0.059 A 
ATOM     72  F   UNL A   1      38.313  34.126  29.618  1.00  0.00    -0.206 F 
ATOM     73  C   UNL A   1      34.701  34.164  29.602  1.00  0.00     0.060 A 
BRANCH  73  74
ATOM     74  S   UNL A   1      33.334  34.942  28.715  1.00  0.00     0.124 S 
ATOM     75  O   UNL A   1      32.532  35.465  29.816  1.00  0.00    -0.237 OA
ATOM     76  O   UNL A   1      34.019  35.941  27.900  1.00  0.00    -0.237 OA
ATOM     77  O   UNL A   1      32.735  33.837  27.973  1.00  0.00    -0.744 OA
ENDBRANCH  73  74
ENDBRANCH  52  66
BRANCH  53  78
ATOM     78  C   UNL A   1      44.214  28.398  35.886  1.00  0.00     0.058 A 
ATOM     79  C   UNL A   1      43.988  27.362  36.806  1.00  0.00     0.135 A 
ATOM     80  C   UNL A   1      45.536  28.843  35.723  1.00  0.00     0.135 A 
ATOM     81  F   UNL A   1      42.741  26.913  37.017  1.00  0.00    -0.206 F 
ATOM     82  C   UNL A   1      45.024  26.812  37.557  1.00  0.00     0.059 A 
ATOM     83  C   UNL A   1      46.593  28.284  36.434  1.00  0.00     0.059 A 
ATOM     84  F   UNL A   1      45.813  29.831  34.858  1.00  0.00    -0.206 F 
ATOM     85  C   UNL A   1      46.324  27.283  37.365  1.00  0.00     0.060 A 
BRANCH  85  86
ATOM     86  S   UNL A   1      47.667  26.567  38.338  1.00  0.00     0.124 S 
ATOM     87  O   UNL A   1      48.106  25.479  37.473  1.00  0.00    -0.237 OA
ATOM     88  O   UNL A   1      48.590  27.689  38.471  1.00  0.00    -0.237 OA
ATOM     89  O   UNL A   1      47.003  26.161  39.574  1.00  0.00    -0.744 OA
ENDBRANCH  85  86
ENDBRANCH  53  78
BRANCH  65  90
ATOM     90  C   UNL A   1      40.234  33.952  37.255  1.00  0.00     0.058 A 
ATOM     91  C   UNL A   1      39.414  33.691  38.364  1.00  0.00     0.135 A 
ATOM     92  C   UNL A   1      41.035  35.105  37.290  1.00  0.00     0.135 A 
ATOM     93  F   UNL A   1      38.625  32.605  38.378  1.00  0.00    -0.206 F 
ATOM     94  C   UNL A   1      39.373  34.551  39.457  1.00  0.00     0.059 A 
ATOM     95  C   UNL A   1      41.030  35.966  38.383  1.00  0.00     0.059 A 
ATOM     96  F   UNL A   1      41.846  35.397  36.260  1.00  0.00    -0.206 F 
ATOM     97  C   UNL A   1      40.186  35.686  39.457  1.00  0.00     0.060 A 
BRANCH  97  98
ATOM     98  S   UNL A   1      40.151  36.779  40.894  1.00  0.00     0.124 S 
ATOM     99  O   UNL A   1      40.624  38.035  40.322  1.00  0.00    -0.237 OA
ATOM    100  O   UNL A   1      38.742  36.749  41.277  1.00  0.00    -0.237 OA
ATOM    101  O   UNL A   1      41.062  36.135  41.835  1.00  0.00    -0.744 OA
ENDBRANCH  97  98
ENDBRANCH  65  90
ENDBRANCH  39  40
ENDBRANCH  32  34
ENDBRANCH  31  32
ENDBRANCH  30  31
ENDBRANCH  29  30
ENDBRANCH  28  29
ENDBRANCH   1  28
TORSDOF 23
ENDMDL
MODEL 3
REMARK VINA RESULT:     -10.2      2.485      9.618
REMARK SMILES C[C@]12CCC(=O)N1[C@@H](C(=O)N1C[C@H](O)C[C@@H]1C(=O)OCCOCCOCCOC(=O)c1ccc(-c3c4nc(c(-c5c(F)cc(S(=O)(=O)[O-])cc5F)c5ccc([nH]5)c(-c5c(F)cc(S(=O)(=O)[O-])cc5F)c5nc(c(-c6c(F)cc(S(=O)(=O)[O-])cc6F)c6ccc3[nH]6)C=C5)C=C4)cc1)CS2
REMARK SMILES IDX 24 1 23 2 22 3 21 4 20 5 19 6 17 7 18 8 16 9 11 10 12 11
REMARK SMILES IDX 13 12 15 13 9 14 10 15 8 16 1 17 2 18 3 19 7 20 98 21 4 22
REMARK SMILES IDX 5 23 97 24 6 25 14 26 25 28 26 29 27 30 28 31 29 32 30 33
REMARK SMILES IDX 31 34 32 35 96 36 33 37 95 38 34 39 35 40 36 41 89 42 37 43
REMARK SMILES IDX 94 44 88 45 90 46 38 47 93 48 87 49 86 50 39 52 73 53 52 54
REMARK SMILES IDX 72 55 53 56 56 57 71 58 91 59 54 60 55 61 70 63 92 64 57 65
REMARK SMILES IDX 40 66 41 67 50 68 42 69 43 70 49 71 51 72 44 73 45 74 46 75
REMARK SMILES IDX 47 76 48 77 74 78 75 79 84 80 76 81 77 82 83 83 85 84 78 85
REMARK SMILES IDX 79 86 80 87 81 88 82 89 58 90 59 91 68 92 60 93 61 94 67 95
REMARK SMILES IDX 69 96 62 97 63 98 64 99 65 100 66 101
REMARK H PARENT 14 27 90 51 56 62
REMARK Flexibility Score: inf
ROOT
ATOM      1  C   UNL A   1      39.917  22.632  26.974  1.00  0.00     0.188 C 
ENDROOT
BRANCH   1   2
ATOM      2  C   UNL A   1      38.733  22.339  26.028  1.00  0.00     0.188 C 
BRANCH   2   3
ATOM      3  O   UNL A   1      38.661  21.047  25.444  1.00  0.00    -0.376 OA
BRANCH   3   4
ATOM      4  C   UNL A   1      37.397  20.624  24.957  1.00  0.00     0.202 C 
BRANCH   4   5
ATOM      5  C   UNL A   1      36.251  21.611  25.184  1.00  0.00     0.261 C 
BRANCH   5   6
ATOM      6  O   UNL A   1      35.678  22.082  23.945  1.00  0.00    -0.462 OA
BRANCH   6   7
ATOM      7  C   UNL A   1      34.907  23.214  23.995  1.00  0.00     0.329 C 
ATOM      8  O   UNL A   1      34.926  24.039  24.896  1.00  0.00    -0.250 OA
BRANCH   7   9
ATOM      9  C   UNL A   1      33.930  23.227  22.795  1.00  0.00     0.197 C 
ATOM     10  N   UNL A   1      32.990  24.362  22.714  1.00  0.00    -0.324 N 
ATOM     11  C   UNL A   1      31.710  24.017  23.319  1.00  0.00     0.152 C 
ATOM     12  C   UNL A   1      31.856  22.570  23.793  1.00  0.00     0.136 C 
ATOM     13  C   UNL A   1      33.007  22.017  22.953  1.00  0.00     0.070 C 
BRANCH  10  14
ATOM     14  C   UNL A   1      33.324  25.687  22.573  1.00  0.00     0.247 C 
ATOM     15  O   UNL A   1      33.703  26.093  21.468  1.00  0.00    -0.272 OA
BRANCH  14  16
ATOM     16  C   UNL A   1      32.955  26.726  23.667  1.00  0.00     0.186 C 
ATOM     17  C   UNL A   1      31.430  27.871  26.358  1.00  0.00     0.047 C 
ATOM     18  C   UNL A   1      31.742  28.401  24.958  1.00  0.00     0.087 C 
ATOM     19  C   UNL A   1      30.775  29.501  24.539  1.00  0.00     0.049 C 
ATOM     20  N   UNL A   1      31.674  27.400  23.898  1.00  0.00    -0.315 N 
ATOM     21  S   UNL A   1      33.484  28.986  24.944  1.00  0.00    -0.131 SA
ATOM     22  C   UNL A   1      30.596  29.306  23.046  1.00  0.00     0.103 C 
ATOM     23  C   UNL A   1      30.918  27.854  22.823  1.00  0.00     0.224 C 
ATOM     24  C   UNL A   1      33.951  27.863  23.609  1.00  0.00     0.107 C 
ATOM     25  O   UNL A   1      30.679  27.262  21.795  1.00  0.00    -0.275 OA
ENDBRANCH  14  16
ENDBRANCH  10  14
BRANCH  12  26
ATOM     26  O   UNL A   1      32.183  22.491  25.178  1.00  0.00    -0.391 OA
ATOM     27  H   UNL A   1      31.382  22.300  25.689  1.00  0.00     0.211 HD
ENDBRANCH  12  26
ENDBRANCH   7   9
ENDBRANCH   6   7
ENDBRANCH   5   6
ENDBRANCH   4   5
ENDBRANCH   3   4
ENDBRANCH   2   3
ENDBRANCH   1   2
BRANCH   1  28
ATOM     28  O   UNL A   1      40.894  21.617  27.145  1.00  0.00    -0.376 OA
BRANCH  28  29
ATOM     29  C   UNL A   1      41.973  21.634  26.214  1.00  0.00     0.202 C 
BRANCH  29  30
ATOM     30  C   UNL A   1      42.402  23.024  25.727  1.00  0.00     0.261 C 
BRANCH  30  31
ATOM     31  O   UNL A   1      42.923  23.834  26.803  1.00  0.00    -0.460 OA
BRANCH  31  32
ATOM     32  C   UNL A   1      43.185  25.117  26.447  1.00  0.00     0.338 C 
ATOM     33  O   UNL A   1      43.825  25.454  25.462  1.00  0.00    -0.246 OA
BRANCH  32  34
ATOM     34  C   UNL A   1      42.587  26.105  27.390  1.00  0.00     0.060 A 
ATOM     35  C   UNL A   1      43.066  27.408  27.517  1.00  0.00     0.016 A 
ATOM     36  C   UNL A   1      41.605  25.669  28.276  1.00  0.00     0.016 A 
ATOM     37  C   UNL A   1      42.689  28.211  28.605  1.00  0.00     0.010 A 
ATOM     38  C   UNL A   1      41.157  26.508  29.307  1.00  0.00     0.010 A 
ATOM     39  C   UNL A   1      41.745  27.767  29.539  1.00  0.00    -0.014 A 
BRANCH  39  40
ATOM     40  C   UNL A   1      41.444  28.509  30.812  1.00  0.00     0.031 A 
ATOM     41  C   UNL A   1      40.274  29.473  30.836  1.00  0.00     0.074 A 
ATOM     42  C   UNL A   1      42.146  28.346  31.954  1.00  0.00     0.049 A 
ATOM     43  N   UNL A   1      40.021  30.463  31.653  1.00  0.00    -0.248 NA
ATOM     44  C   UNL A   1      39.259  29.300  29.782  1.00  0.00     0.031 C 
ATOM     45  C   UNL A   1      43.221  27.380  32.176  1.00  0.00     0.029 A 
ATOM     46  N   UNL A   1      42.052  29.008  33.162  1.00  0.00    -0.354 N 
ATOM     47  C   UNL A   1      38.875  31.084  31.161  1.00  0.00     0.074 A 
ATOM     48  C   UNL A   1      38.472  30.347  29.982  1.00  0.00     0.031 C 
ATOM     49  C   UNL A   1      43.661  27.488  33.440  1.00  0.00     0.029 A 
ATOM     50  C   UNL A   1      42.992  28.610  34.087  1.00  0.00     0.049 A 
ATOM     51  H   UNL A   1      41.376  29.700  33.344  1.00  0.00     0.167 HD
ATOM     52  C   UNL A   1      38.225  32.172  31.640  1.00  0.00     0.037 A 
ATOM     53  C   UNL A   1      43.331  29.127  35.288  1.00  0.00     0.037 A 
ATOM     54  C   UNL A   1      38.578  32.851  32.860  1.00  0.00     0.049 A 
ATOM     55  C   UNL A   1      42.640  30.375  35.781  1.00  0.00     0.074 A 
ATOM     56  C   UNL A   1      38.015  33.991  33.410  1.00  0.00     0.029 A 
ATOM     57  N   UNL A   1      39.559  32.428  33.743  1.00  0.00    -0.354 N 
ATOM     58  N   UNL A   1      41.663  31.052  35.228  1.00  0.00    -0.248 NA
ATOM     59  C   UNL A   1      43.122  30.948  37.047  1.00  0.00     0.031 C 
ATOM     60  C   UNL A   1      38.671  34.270  34.614  1.00  0.00     0.029 A 
ATOM     61  C   UNL A   1      39.611  33.277  34.835  1.00  0.00     0.049 A 
ATOM     62  H   UNL A   1      40.134  31.639  33.613  1.00  0.00     0.167 HD
ATOM     63  C   UNL A   1      41.400  32.114  36.089  1.00  0.00     0.074 A 
ATOM     64  C   UNL A   1      42.309  31.982  37.208  1.00  0.00     0.031 C 
ATOM     65  C   UNL A   1      40.496  33.115  35.960  1.00  0.00     0.037 A 
BRANCH  52  66
ATOM     66  C   UNL A   1      37.090  32.733  30.826  1.00  0.00     0.058 A 
ATOM     67  C   UNL A   1      37.294  33.650  29.784  1.00  0.00     0.135 A 
ATOM     68  C   UNL A   1      35.773  32.302  31.069  1.00  0.00     0.135 A 
ATOM     69  F   UNL A   1      38.527  34.112  29.522  1.00  0.00    -0.206 F 
ATOM     70  C   UNL A   1      36.232  34.133  29.024  1.00  0.00     0.059 A 
ATOM     71  C   UNL A   1      34.701  32.751  30.304  1.00  0.00     0.059 A 
ATOM     72  F   UNL A   1      35.521  31.426  32.055  1.00  0.00    -0.206 F 
ATOM     73  C   UNL A   1      34.939  33.678  29.291  1.00  0.00     0.060 A 
BRANCH  73  74
ATOM     74  S   UNL A   1      33.575  34.305  28.289  1.00  0.00     0.124 S 
ATOM     75  O   UNL A   1      32.736  34.936  29.302  1.00  0.00    -0.237 OA
ATOM     76  O   UNL A   1      34.253  35.216  27.372  1.00  0.00    -0.237 OA
ATOM     77  O   UNL A   1      33.019  33.103  27.676  1.00  0.00    -0.744 OA
ENDBRANCH  73  74
ENDBRANCH  52  66
BRANCH  53  78
ATOM     78  C   UNL A   1      44.450  28.534  36.080  1.00  0.00     0.058 A 
ATOM     79  C   UNL A   1      44.216  27.537  37.039  1.00  0.00     0.135 A 
ATOM     80  C   UNL A   1      45.769  28.991  35.929  1.00  0.00     0.135 A 
ATOM     81  F   UNL A   1      42.970  27.079  37.241  1.00  0.00    -0.206 F 
ATOM     82  C   UNL A   1      45.241  27.036  37.838  1.00  0.00     0.059 A 
ATOM     83  C   UNL A   1      46.816  28.479  36.689  1.00  0.00     0.059 A 
ATOM     84  F   UNL A   1      46.054  29.944  35.027  1.00  0.00    -0.206 F 
ATOM     85  C   UNL A   1      46.538  27.517  37.657  1.00  0.00     0.060 A 
BRANCH  85  86
ATOM     86  S   UNL A   1      47.867  26.864  38.693  1.00  0.00     0.124 S 
ATOM     87  O   UNL A   1      47.305  25.588  39.118  1.00  0.00    -0.237 OA
ATOM     88  O   UNL A   1      48.984  26.790  37.757  1.00  0.00    -0.237 OA
ATOM     89  O   UNL A   1      48.001  27.874  39.739  1.00  0.00    -0.744 OA
ENDBRANCH  85  86
ENDBRANCH  53  78
BRANCH  65  90
ATOM     90  C   UNL A   1      40.390  34.108  37.084  1.00  0.00     0.058 A 
ATOM     91  C   UNL A   1      41.185  35.264  37.131  1.00  0.00     0.135 A 
ATOM     92  C   UNL A   1      39.444  33.923  38.104  1.00  0.00     0.135 A 
ATOM     93  F   UNL A   1      42.109  35.487  36.183  1.00  0.00    -0.206 F 
ATOM     94  C   UNL A   1      41.063  36.189  38.163  1.00  0.00     0.059 A 
ATOM     95  C   UNL A   1      39.285  34.847  39.132  1.00  0.00     0.059 A 
ATOM     96  F   UNL A   1      38.650  32.839  38.102  1.00  0.00    -0.206 F 
ATOM     97  C   UNL A   1      40.108  35.972  39.159  1.00  0.00     0.060 A 
BRANCH  97  98
ATOM     98  S   UNL A   1      39.933  37.195  40.476  1.00  0.00     0.124 S 
ATOM     99  O   UNL A   1      40.818  38.258  40.012  1.00  0.00    -0.237 OA
ATOM    100  O   UNL A   1      38.505  37.498  40.435  1.00  0.00    -0.237 OA
ATOM    101  O   UNL A   1      40.381  36.480  41.667  1.00  0.00    -0.744 OA
ENDBRANCH  97  98
ENDBRANCH  65  90
ENDBRANCH  39  40
ENDBRANCH  32  34
ENDBRANCH  31  32
ENDBRANCH  30  31
ENDBRANCH  29  30
ENDBRANCH  28  29
ENDBRANCH   1  28
TORSDOF 23
ENDMDL
