MODEL 1
REMARK VINA RESULT:      -9.4      0.000      0.000
REMARK SMILES CC[C@H]1SC[C@H](C(=O)OCCOCCOCCOC(=O)c2ccc(-c3c4nc(c(-c5c(F)cc(S(=O)(=O)[O-])cc5F)c5ccc([nH]5)c(-c5c(F)cc(S(=O)(=O)[O-])cc5F)c5nc(c(-c6c(F)cc(S(=O)(=O)[O-])cc6F)c6ccc3[nH]6)C=C5)C=C4)cc2)N1C(=O)C[C@@H]1CSCC[NH2+]1
REMARK SMILES IDX 13 1 12 2 11 3 10 4 9 5 7 6 8 7 6 8 3 9 4 10 87 11 5 12 2 13
REMARK SMILES IDX 1 14 88 15 89 16 90 17 91 18 92 19 96 20 93 21 95 22 94 25
REMARK SMILES IDX 14 26 15 27 16 28 17 29 18 30 19 31 20 32 21 33 22 34 86 35
REMARK SMILES IDX 23 36 85 37 24 38 25 39 26 40 79 41 27 42 84 43 78 44 80 45
REMARK SMILES IDX 28 46 83 47 77 48 76 49 29 51 63 52 42 53 62 54 43 55 46 56
REMARK SMILES IDX 61 57 81 58 44 59 45 60 60 62 82 63 47 64 30 65 31 66 40 67
REMARK SMILES IDX 32 68 33 69 39 70 41 71 34 72 35 73 36 74 37 75 38 76 64 77
REMARK SMILES IDX 65 78 74 79 66 80 67 81 73 82 75 83 68 84 69 85 70 86 71 87
REMARK SMILES IDX 72 88 48 89 49 90 58 91 50 92 51 93 57 94 59 95 52 96 53 97
REMARK SMILES IDX 54 98 55 99 56 100
REMARK H PARENT 96 23 96 24 80 50 46 61
REMARK Flexibility Score: inf
ROOT
ATOM      1  C   UNL A   1      40.319  20.545  26.031  1.00  0.00     0.188 C 
ENDROOT
BRANCH   1   2
ATOM      2  O   UNL A   1      39.206  21.437  26.046  1.00  0.00    -0.376 OA
BRANCH   2   3
ATOM      3  C   UNL A   1      39.349  22.710  26.653  1.00  0.00     0.202 C 
BRANCH   3   4
ATOM      4  C   UNL A   1      38.471  23.814  26.056  1.00  0.00     0.261 C 
BRANCH   4   5
ATOM      5  O   UNL A   1      37.062  23.705  26.340  1.00  0.00    -0.462 OA
BRANCH   5   6
ATOM      6  C   UNL A   1      36.266  23.254  25.327  1.00  0.00     0.329 C 
ATOM      7  O   UNL A   1      36.676  22.803  24.267  1.00  0.00    -0.250 OA
BRANCH   6   8
ATOM      8  C   UNL A   1      34.785  23.526  25.640  1.00  0.00     0.206 C 
ATOM      9  C   UNL A   1      33.157  23.201  23.801  1.00  0.00     0.144 C 
ATOM     10  S   UNL A   1      33.942  24.810  23.490  1.00  0.00    -0.134 SA
ATOM     11  N   UNL A   1      33.815  22.619  24.974  1.00  0.00    -0.316 N 
ATOM     12  C   UNL A   1      34.542  24.965  25.183  1.00  0.00     0.109 C 
BRANCH   9  13
ATOM     13  C   UNL A   1      31.649  23.434  24.002  1.00  0.00     0.033 C 
ATOM     14  C   UNL A   1      31.123  24.782  23.511  1.00  0.00     0.007 C 
ENDBRANCH   9  13
BRANCH  11  15
ATOM     15  C   UNL A   1      33.565  21.368  25.527  1.00  0.00     0.230 C 
ATOM     16  O   UNL A   1      33.450  21.247  26.749  1.00  0.00    -0.275 OA
BRANCH  15  17
ATOM     17  C   UNL A   1      33.605  20.123  24.635  1.00  0.00     0.166 C 
BRANCH  17  18
ATOM     18  C   UNL A   1      32.561  18.981  24.717  1.00  0.00     0.201 C 
ATOM     19  C   UNL A   1      32.738  17.903  25.794  1.00  0.00     0.135 C 
ATOM     20  N   UNL A   1      32.153  18.416  23.410  1.00  0.00    -0.342 N 
ATOM     21  S   UNL A   1      33.979  16.643  25.397  1.00  0.00    -0.150 SA
ATOM     22  C   UNL A   1      33.105  17.443  22.865  1.00  0.00     0.271 C 
ATOM     23  H   UNL A   1      32.058  19.182  22.744  1.00  0.00     0.346 HD
ATOM     24  H   UNL A   1      31.275  17.920  23.562  1.00  0.00     0.346 HD
ATOM     25  C   UNL A   1      33.332  16.215  23.751  1.00  0.00     0.131 C 
ENDBRANCH  17  18
ENDBRANCH  15  17
ENDBRANCH  11  15
ENDBRANCH   6   8
ENDBRANCH   5   6
ENDBRANCH   4   5
ENDBRANCH   3   4
ENDBRANCH   2   3
ENDBRANCH   1   2
BRANCH   1  26
ATOM     26  C   UNL A   1      41.662  21.021  26.594  1.00  0.00     0.188 C 
BRANCH  26  27
ATOM     27  O   UNL A   1      42.662  21.021  25.572  1.00  0.00    -0.376 OA
BRANCH  27  28
ATOM     28  C   UNL A   1      43.262  22.301  25.376  1.00  0.00     0.202 C 
BRANCH  28  29
ATOM     29  C   UNL A   1      43.032  23.208  26.591  1.00  0.00     0.261 C 
BRANCH  29  30
ATOM     30  O   UNL A   1      42.420  24.475  26.283  1.00  0.00    -0.460 OA
BRANCH  30  31
ATOM     31  C   UNL A   1      43.187  25.564  26.486  1.00  0.00     0.338 C 
ATOM     32  O   UNL A   1      44.223  25.856  25.904  1.00  0.00    -0.246 OA
BRANCH  31  33
ATOM     33  C   UNL A   1      42.530  26.456  27.453  1.00  0.00     0.060 A 
ATOM     34  C   UNL A   1      43.075  27.724  27.654  1.00  0.00     0.016 A 
ATOM     35  C   UNL A   1      41.478  26.011  28.248  1.00  0.00     0.016 A 
ATOM     36  C   UNL A   1      42.671  28.503  28.735  1.00  0.00     0.010 A 
ATOM     37  C   UNL A   1      41.025  26.824  29.294  1.00  0.00     0.010 A 
ATOM     38  C   UNL A   1      41.656  28.050  29.585  1.00  0.00    -0.014 A 
BRANCH  38  39
ATOM     39  C   UNL A   1      41.325  28.789  30.835  1.00  0.00     0.031 A 
ATOM     40  C   UNL A   1      40.147  29.730  30.845  1.00  0.00     0.074 A 
ATOM     41  C   UNL A   1      42.039  28.614  31.964  1.00  0.00     0.049 A 
ATOM     42  N   UNL A   1      39.794  30.613  31.744  1.00  0.00    -0.248 NA
ATOM     43  C   UNL A   1      39.250  29.672  29.679  1.00  0.00     0.031 C 
ATOM     44  C   UNL A   1      43.151  27.678  32.131  1.00  0.00     0.029 A 
ATOM     45  N   UNL A   1      41.930  29.224  33.190  1.00  0.00    -0.354 N 
ATOM     46  C   UNL A   1      38.673  31.254  31.228  1.00  0.00     0.074 A 
ATOM     47  C   UNL A   1      38.402  30.658  29.938  1.00  0.00     0.031 C 
ATOM     48  C   UNL A   1      43.615  27.768  33.388  1.00  0.00     0.029 A 
ATOM     49  C   UNL A   1      42.885  28.819  34.093  1.00  0.00     0.049 A 
ATOM     50  H   UNL A   1      41.235  29.888  33.402  1.00  0.00     0.167 HD
ATOM     51  C   UNL A   1      37.938  32.250  31.778  1.00  0.00     0.037 A 
ATOM     52  C   UNL A   1      43.172  29.272  35.330  1.00  0.00     0.037 A 
ATOM     53  C   UNL A   1      38.178  32.809  33.083  1.00  0.00     0.049 A 
ATOM     54  C   UNL A   1      42.377  30.413  35.904  1.00  0.00     0.074 A 
ATOM     55  C   UNL A   1      37.489  33.821  33.728  1.00  0.00     0.029 A 
ATOM     56  N   UNL A   1      39.178  32.392  33.949  1.00  0.00    -0.354 N 
ATOM     57  N   UNL A   1      41.366  31.062  35.376  1.00  0.00    -0.248 NA
ATOM     58  C   UNL A   1      42.774  30.897  37.233  1.00  0.00     0.031 C 
ATOM     59  C   UNL A   1      38.092  34.036  34.974  1.00  0.00     0.029 A 
ATOM     60  C   UNL A   1      39.131  33.131  35.119  1.00  0.00     0.049 A 
ATOM     61  H   UNL A   1      39.826  31.674  33.760  1.00  0.00     0.167 HD
ATOM     62  C   UNL A   1      40.999  32.022  36.313  1.00  0.00     0.074 A 
ATOM     63  C   UNL A   1      41.887  31.860  37.447  1.00  0.00     0.031 C 
ATOM     64  C   UNL A   1      40.019  32.956  36.241  1.00  0.00     0.037 A 
BRANCH  51  65
ATOM     65  C   UNL A   1      36.828  32.830  30.946  1.00  0.00     0.058 A 
ATOM     66  C   UNL A   1      35.486  32.468  31.137  1.00  0.00     0.135 A 
ATOM     67  C   UNL A   1      37.118  33.770  29.944  1.00  0.00     0.135 A 
ATOM     68  F   UNL A   1      35.157  31.559  32.069  1.00  0.00    -0.206 F 
ATOM     69  C   UNL A   1      34.472  32.993  30.341  1.00  0.00     0.059 A 
ATOM     70  C   UNL A   1      36.118  34.327  29.152  1.00  0.00     0.059 A 
ATOM     71  F   UNL A   1      38.385  34.150  29.718  1.00  0.00    -0.206 F 
ATOM     72  C   UNL A   1      34.800  33.917  29.346  1.00  0.00     0.060 A 
BRANCH  72  73
ATOM     73  S   UNL A   1      33.479  34.577  28.306  1.00  0.00     0.124 S 
ATOM     74  O   UNL A   1      32.650  35.263  29.292  1.00  0.00    -0.237 OA
ATOM     75  O   UNL A   1      34.208  35.439  27.381  1.00  0.00    -0.237 OA
ATOM     76  O   UNL A   1      32.888  33.383  27.711  1.00  0.00    -0.744 OA
ENDBRANCH  72  73
ENDBRANCH  51  65
BRANCH  52  77
ATOM     77  C   UNL A   1      44.297  28.671  36.094  1.00  0.00     0.058 A 
ATOM     78  C   UNL A   1      45.601  29.171  35.971  1.00  0.00     0.135 A 
ATOM     79  C   UNL A   1      44.088  27.595  36.973  1.00  0.00     0.135 A 
ATOM     80  F   UNL A   1      45.854  30.186  35.131  1.00  0.00    -0.206 F 
ATOM     81  C   UNL A   1      46.660  28.626  36.691  1.00  0.00     0.059 A 
ATOM     82  C   UNL A   1      45.125  27.051  37.722  1.00  0.00     0.059 A 
ATOM     83  F   UNL A   1      42.856  27.085  37.128  1.00  0.00    -0.206 F 
ATOM     84  C   UNL A   1      46.411  27.569  37.568  1.00  0.00     0.060 A 
BRANCH  84  85
ATOM     85  S   UNL A   1      47.779  26.909  38.547  1.00  0.00     0.124 S 
ATOM     86  O   UNL A   1      48.691  28.047  38.578  1.00  0.00    -0.237 OA
ATOM     87  O   UNL A   1      47.124  26.581  39.810  1.00  0.00    -0.237 OA
ATOM     88  O   UNL A   1      48.226  25.761  37.765  1.00  0.00    -0.744 OA
ENDBRANCH  84  85
ENDBRANCH  52  77
BRANCH  64  89
ATOM     89  C   UNL A   1      39.832  33.856  37.430  1.00  0.00     0.058 A 
ATOM     90  C   UNL A   1      39.001  33.495  38.502  1.00  0.00     0.135 A 
ATOM     91  C   UNL A   1      40.528  35.072  37.517  1.00  0.00     0.135 A 
ATOM     92  F   UNL A   1      38.309  32.346  38.464  1.00  0.00    -0.206 F 
ATOM     93  C   UNL A   1      38.850  34.321  39.611  1.00  0.00     0.059 A 
ATOM     94  C   UNL A   1      40.409  35.903  38.626  1.00  0.00     0.059 A 
ATOM     95  F   UNL A   1      41.344  35.456  36.523  1.00  0.00    -0.206 F 
ATOM     96  C   UNL A   1      39.557  35.524  39.664  1.00  0.00     0.060 A 
BRANCH  96  97
ATOM     97  S   UNL A   1      39.376  36.577  41.120  1.00  0.00     0.124 S 
ATOM     98  O   UNL A   1      40.735  36.578  41.651  1.00  0.00    -0.237 OA
ATOM     99  O   UNL A   1      38.921  37.839  40.543  1.00  0.00    -0.237 OA
ATOM    100  O   UNL A   1      38.386  35.871  41.927  1.00  0.00    -0.744 OA
ENDBRANCH  96  97
ENDBRANCH  64  89
ENDBRANCH  38  39
ENDBRANCH  31  33
ENDBRANCH  30  31
ENDBRANCH  29  30
ENDBRANCH  28  29
ENDBRANCH  27  28
ENDBRANCH  26  27
ENDBRANCH   1  26
TORSDOF 24
ENDMDL
MODEL 2
REMARK VINA RESULT:      -9.2      6.094     12.131
REMARK SMILES CC[C@H]1SC[C@H](C(=O)OCCOCCOCCOC(=O)c2ccc(-c3c4nc(c(-c5c(F)cc(S(=O)(=O)[O-])cc5F)c5ccc([nH]5)c(-c5c(F)cc(S(=O)(=O)[O-])cc5F)c5nc(c(-c6c(F)cc(S(=O)(=O)[O-])cc6F)c6ccc3[nH]6)C=C5)C=C4)cc2)N1C(=O)C[C@@H]1CSCC[NH2+]1
REMARK SMILES IDX 13 1 12 2 11 3 10 4 9 5 7 6 8 7 6 8 3 9 4 10 87 11 5 12 2 13
REMARK SMILES IDX 1 14 88 15 89 16 90 17 91 18 92 19 96 20 93 21 95 22 94 25
REMARK SMILES IDX 14 26 15 27 16 28 17 29 18 30 19 31 20 32 21 33 22 34 86 35
REMARK SMILES IDX 23 36 85 37 24 38 25 39 26 40 79 41 27 42 84 43 78 44 80 45
REMARK SMILES IDX 28 46 83 47 77 48 76 49 29 51 63 52 42 53 62 54 43 55 46 56
REMARK SMILES IDX 61 57 81 58 44 59 45 60 60 62 82 63 47 64 30 65 31 66 40 67
REMARK SMILES IDX 32 68 33 69 39 70 41 71 34 72 35 73 36 74 37 75 38 76 64 77
REMARK SMILES IDX 65 78 74 79 66 80 67 81 73 82 75 83 68 84 69 85 70 86 71 87
REMARK SMILES IDX 72 88 48 89 49 90 58 91 50 92 51 93 57 94 59 95 52 96 53 97
REMARK SMILES IDX 54 98 55 99 56 100
REMARK H PARENT 96 23 96 24 80 50 46 61
REMARK Flexibility Score: inf
ROOT
ATOM      1  C   UNL A   1      35.553  31.143  28.255  1.00  0.00     0.188 C 
ENDROOT
BRANCH   1   2
ATOM      2  O   UNL A   1      35.003  30.273  27.267  1.00  0.00    -0.376 OA
BRANCH   2   3
ATOM      3  C   UNL A   1      33.840  29.524  27.576  1.00  0.00     0.202 C 
BRANCH   3   4
ATOM      4  C   UNL A   1      33.360  28.586  26.464  1.00  0.00     0.261 C 
BRANCH   4   5
ATOM      5  O   UNL A   1      31.930  28.508  26.296  1.00  0.00    -0.462 OA
BRANCH   5   6
ATOM      6  C   UNL A   1      31.396  29.218  25.259  1.00  0.00     0.329 C 
ATOM      7  O   UNL A   1      31.272  30.434  25.239  1.00  0.00    -0.250 OA
BRANCH   6   8
ATOM      8  C   UNL A   1      30.839  28.270  24.184  1.00  0.00     0.206 C 
ATOM      9  C   UNL A   1      32.350  26.500  23.338  1.00  0.00     0.144 C 
ATOM     10  S   UNL A   1      32.854  28.027  22.493  1.00  0.00    -0.134 SA
ATOM     11  N   UNL A   1      31.290  26.858  24.283  1.00  0.00    -0.316 N 
ATOM     12  C   UNL A   1      31.300  28.866  22.854  1.00  0.00     0.109 C 
BRANCH   9  13
ATOM     13  C   UNL A   1      31.897  25.488  22.270  1.00  0.00     0.033 C 
ATOM     14  C   UNL A   1      32.603  25.600  20.919  1.00  0.00     0.007 C 
ENDBRANCH   9  13
BRANCH  11  15
ATOM     15  C   UNL A   1      30.656  26.003  25.179  1.00  0.00     0.230 C 
ATOM     16  O   UNL A   1      29.424  25.982  25.241  1.00  0.00    -0.275 OA
BRANCH  15  17
ATOM     17  C   UNL A   1      31.489  25.221  26.200  1.00  0.00     0.166 C 
BRANCH  17  18
ATOM     18  C   UNL A   1      31.205  23.747  26.582  1.00  0.00     0.201 C 
ATOM     19  C   UNL A   1      32.281  22.969  27.351  1.00  0.00     0.135 C 
ATOM     20  N   UNL A   1      30.575  22.938  25.513  1.00  0.00    -0.342 N 
ATOM     21  S   UNL A   1      33.647  22.365  26.324  1.00  0.00    -0.150 SA
ATOM     22  C   UNL A   1      31.522  22.445  24.510  1.00  0.00     0.271 C 
ATOM     23  H   UNL A   1      29.877  23.513  25.043  1.00  0.00     0.346 HD
ATOM     24  H   UNL A   1      30.165  22.119  25.963  1.00  0.00     0.346 HD
ATOM     25  C   UNL A   1      32.623  21.538  25.068  1.00  0.00     0.131 C 
ENDBRANCH  17  18
ENDBRANCH  15  17
ENDBRANCH  11  15
ENDBRANCH   6   8
ENDBRANCH   5   6
ENDBRANCH   4   5
ENDBRANCH   3   4
ENDBRANCH   2   3
ENDBRANCH   1   2
BRANCH   1  26
ATOM     26  C   UNL A   1      35.383  32.656  28.091  1.00  0.00     0.188 C 
BRANCH  26  27
ATOM     27  O   UNL A   1      36.209  33.357  29.023  1.00  0.00    -0.376 OA
BRANCH  27  28
ATOM     28  C   UNL A   1      35.505  33.779  30.190  1.00  0.00     0.202 C 
BRANCH  28  29
ATOM     29  C   UNL A   1      35.977  33.006  31.427  1.00  0.00     0.261 C 
BRANCH  29  30
ATOM     30  O   UNL A   1      37.342  32.552  31.364  1.00  0.00    -0.460 OA
BRANCH  30  31
ATOM     31  C   UNL A   1      37.586  31.346  31.913  1.00  0.00     0.338 C 
ATOM     32  O   UNL A   1      36.987  30.824  32.843  1.00  0.00    -0.246 OA
BRANCH  31  33
ATOM     33  C   UNL A   1      38.631  30.656  31.142  1.00  0.00     0.060 A 
ATOM     34  C   UNL A   1      39.678  30.057  31.842  1.00  0.00     0.016 A 
ATOM     35  C   UNL A   1      38.657  30.708  29.751  1.00  0.00     0.016 A 
ATOM     36  C   UNL A   1      40.822  29.631  31.173  1.00  0.00     0.010 A 
ATOM     37  C   UNL A   1      39.778  30.217  29.073  1.00  0.00     0.010 A 
ATOM     38  C   UNL A   1      40.896  29.729  29.779  1.00  0.00    -0.014 A 
BRANCH  38  39
ATOM     39  C   UNL A   1      42.168  29.432  29.063  1.00  0.00     0.031 A 
ATOM     40  C   UNL A   1      42.390  28.053  28.496  1.00  0.00     0.074 A 
ATOM     41  C   UNL A   1      43.111  30.378  28.887  1.00  0.00     0.049 A 
ATOM     42  N   UNL A   1      43.482  27.518  28.013  1.00  0.00    -0.248 NA
ATOM     43  C   UNL A   1      41.224  27.154  28.478  1.00  0.00     0.031 C 
ATOM     44  C   UNL A   1      43.003  31.776  29.305  1.00  0.00     0.029 A 
ATOM     45  N   UNL A   1      44.354  30.299  28.307  1.00  0.00    -0.354 N 
ATOM     46  C   UNL A   1      43.151  26.206  27.690  1.00  0.00     0.074 A 
ATOM     47  C   UNL A   1      41.756  26.027  28.029  1.00  0.00     0.031 C 
ATOM     48  C   UNL A   1      44.127  32.425  28.959  1.00  0.00     0.029 A 
ATOM     49  C   UNL A   1      45.063  31.475  28.363  1.00  0.00     0.049 A 
ATOM     50  H   UNL A   1      44.704  29.478  27.890  1.00  0.00     0.167 HD
ATOM     51  C   UNL A   1      43.939  25.239  27.161  1.00  0.00     0.037 A 
ATOM     52  C   UNL A   1      46.338  31.750  28.019  1.00  0.00     0.037 A 
ATOM     53  C   UNL A   1      45.313  25.432  26.779  1.00  0.00     0.049 A 
ATOM     54  C   UNL A   1      47.213  30.650  27.481  1.00  0.00     0.074 A 
ATOM     55  C   UNL A   1      46.195  24.514  26.235  1.00  0.00     0.029 A 
ATOM     56  N   UNL A   1      46.002  26.631  26.886  1.00  0.00    -0.354 N 
ATOM     57  N   UNL A   1      46.911  29.394  27.249  1.00  0.00    -0.248 NA
ATOM     58  C   UNL A   1      48.607  30.999  27.176  1.00  0.00     0.031 C 
ATOM     59  C   UNL A   1      47.427  25.151  26.041  1.00  0.00     0.029 A 
ATOM     60  C   UNL A   1      47.300  26.476  26.428  1.00  0.00     0.049 A 
ATOM     61  H   UNL A   1      45.624  27.471  27.236  1.00  0.00     0.167 HD
ATOM     62  C   UNL A   1      48.074  28.808  26.760  1.00  0.00     0.074 A 
ATOM     63  C   UNL A   1      49.081  29.848  26.716  1.00  0.00     0.031 C 
ATOM     64  C   UNL A   1      48.290  27.522  26.385  1.00  0.00     0.037 A 
BRANCH  51  65
ATOM     65  C   UNL A   1      43.341  23.868  27.007  1.00  0.00     0.058 A 
ATOM     66  C   UNL A   1      43.258  22.966  28.080  1.00  0.00     0.135 A 
ATOM     67  C   UNL A   1      42.839  23.455  25.763  1.00  0.00     0.135 A 
ATOM     68  F   UNL A   1      43.742  23.303  29.285  1.00  0.00    -0.206 F 
ATOM     69  C   UNL A   1      42.727  21.691  27.915  1.00  0.00     0.059 A 
ATOM     70  C   UNL A   1      42.281  22.193  25.581  1.00  0.00     0.059 A 
ATOM     71  F   UNL A   1      42.896  24.278  24.704  1.00  0.00    -0.206 F 
ATOM     72  C   UNL A   1      42.248  21.311  26.660  1.00  0.00     0.060 A 
BRANCH  72  73
ATOM     73  S   UNL A   1      41.579  19.646  26.453  1.00  0.00     0.124 S 
ATOM     74  O   UNL A   1      40.159  19.927  26.261  1.00  0.00    -0.237 OA
ATOM     75  O   UNL A   1      42.293  19.164  25.276  1.00  0.00    -0.237 OA
ATOM     76  O   UNL A   1      41.923  18.984  27.707  1.00  0.00    -0.744 OA
ENDBRANCH  72  73
ENDBRANCH  51  65
BRANCH  52  77
ATOM     77  C   UNL A   1      46.878  33.121  28.216  1.00  0.00     0.058 A 
ATOM     78  C   UNL A   1      46.785  34.085  27.203  1.00  0.00     0.135 A 
ATOM     79  C   UNL A   1      47.482  33.499  29.426  1.00  0.00     0.135 A 
ATOM     80  F   UNL A   1      46.231  33.767  26.023  1.00  0.00    -0.206 F 
ATOM     81  C   UNL A   1      47.274  35.376  27.379  1.00  0.00     0.059 A 
ATOM     82  C   UNL A   1      47.955  34.790  29.636  1.00  0.00     0.059 A 
ATOM     83  F   UNL A   1      47.589  32.612  30.428  1.00  0.00    -0.206 F 
ATOM     84  C   UNL A   1      47.853  35.720  28.602  1.00  0.00     0.060 A 
BRANCH  84  85
ATOM     85  S   UNL A   1      48.427  37.415  28.847  1.00  0.00     0.124 S 
ATOM     86  O   UNL A   1      48.888  37.370  30.231  1.00  0.00    -0.237 OA
ATOM     87  O   UNL A   1      49.469  37.539  27.832  1.00  0.00    -0.237 OA
ATOM     88  O   UNL A   1      47.229  38.212  28.605  1.00  0.00    -0.744 OA
ENDBRANCH  84  85
ENDBRANCH  52  77
BRANCH  64  89
ATOM     89  C   UNL A   1      49.656  27.174  25.866  1.00  0.00     0.058 A 
ATOM     90  C   UNL A   1      49.996  27.347  24.516  1.00  0.00     0.135 A 
ATOM     91  C   UNL A   1      50.650  26.705  26.739  1.00  0.00     0.135 A 
ATOM     92  F   UNL A   1      49.079  27.787  23.639  1.00  0.00    -0.206 F 
ATOM     93  C   UNL A   1      51.269  27.046  24.044  1.00  0.00     0.059 A 
ATOM     94  C   UNL A   1      51.937  26.418  26.294  1.00  0.00     0.059 A 
ATOM     95  F   UNL A   1      50.379  26.534  28.043  1.00  0.00    -0.206 F 
ATOM     96  C   UNL A   1      52.233  26.580  24.941  1.00  0.00     0.060 A 
BRANCH  96  97
ATOM     97  S   UNL A   1      53.892  26.218  24.325  1.00  0.00     0.124 S 
ATOM     98  O   UNL A   1      53.648  26.069  22.895  1.00  0.00    -0.237 OA
ATOM     99  O   UNL A   1      54.641  27.408  24.720  1.00  0.00    -0.237 OA
ATOM    100  O   UNL A   1      54.256  24.994  25.033  1.00  0.00    -0.744 OA
ENDBRANCH  96  97
ENDBRANCH  64  89
ENDBRANCH  38  39
ENDBRANCH  31  33
ENDBRANCH  30  31
ENDBRANCH  29  30
ENDBRANCH  28  29
ENDBRANCH  27  28
ENDBRANCH  26  27
ENDBRANCH   1  26
TORSDOF 24
ENDMDL
MODEL 3
REMARK VINA RESULT:      -9.1      1.476      3.431
REMARK SMILES CC[C@H]1SC[C@H](C(=O)OCCOCCOCCOC(=O)c2ccc(-c3c4nc(c(-c5c(F)cc(S(=O)(=O)[O-])cc5F)c5ccc([nH]5)c(-c5c(F)cc(S(=O)(=O)[O-])cc5F)c5nc(c(-c6c(F)cc(S(=O)(=O)[O-])cc6F)c6ccc3[nH]6)C=C5)C=C4)cc2)N1C(=O)C[C@@H]1CSCC[NH2+]1
REMARK SMILES IDX 13 1 12 2 11 3 10 4 9 5 7 6 8 7 6 8 3 9 4 10 87 11 5 12 2 13
REMARK SMILES IDX 1 14 88 15 89 16 90 17 91 18 92 19 96 20 93 21 95 22 94 25
REMARK SMILES IDX 14 26 15 27 16 28 17 29 18 30 19 31 20 32 21 33 22 34 86 35
REMARK SMILES IDX 23 36 85 37 24 38 25 39 26 40 79 41 27 42 84 43 78 44 80 45
REMARK SMILES IDX 28 46 83 47 77 48 76 49 29 51 63 52 42 53 62 54 43 55 46 56
REMARK SMILES IDX 61 57 81 58 44 59 45 60 60 62 82 63 47 64 30 65 31 66 40 67
REMARK SMILES IDX 32 68 33 69 39 70 41 71 34 72 35 73 36 74 37 75 38 76 64 77
REMARK SMILES IDX 65 78 74 79 66 80 67 81 73 82 75 83 68 84 69 85 70 86 71 87
REMARK SMILES IDX 72 88 48 89 49 90 58 91 50 92 51 93 57 94 59 95 52 96 53 97
REMARK SMILES IDX 54 98 55 99 56 100
REMARK H PARENT 96 23 96 24 80 50 46 61
REMARK Flexibility Score: inf
ROOT
ATOM      1  C   UNL A   1      39.304  20.534  25.543  1.00  0.00     0.188 C 
ENDROOT
BRANCH   1   2
ATOM      2  O   UNL A   1      38.103  21.283  25.359  1.00  0.00    -0.376 OA
BRANCH   2   3
ATOM      3  C   UNL A   1      37.961  22.532  26.013  1.00  0.00     0.202 C 
BRANCH   3   4
ATOM      4  C   UNL A   1      37.437  23.669  25.131  1.00  0.00     0.261 C 
BRANCH   4   5
ATOM      5  O   UNL A   1      36.038  23.592  24.790  1.00  0.00    -0.462 OA
BRANCH   5   6
ATOM      6  C   UNL A   1      35.732  23.036  23.581  1.00  0.00     0.329 C 
ATOM      7  O   UNL A   1      36.516  22.915  22.651  1.00  0.00    -0.250 OA
BRANCH   6   8
ATOM      8  C   UNL A   1      34.229  22.719  23.497  1.00  0.00     0.206 C 
ATOM      9  C   UNL A   1      32.792  23.535  25.342  1.00  0.00     0.144 C 
ATOM     10  S   UNL A   1      33.618  22.047  25.978  1.00  0.00    -0.134 SA
ATOM     11  N   UNL A   1      33.323  23.783  24.000  1.00  0.00    -0.316 N 
ATOM     12  C   UNL A   1      34.046  21.451  24.331  1.00  0.00     0.109 C 
BRANCH   9  13
ATOM     13  C   UNL A   1      31.273  23.285  25.359  1.00  0.00     0.033 C 
ATOM     14  C   UNL A   1      30.644  23.161  26.746  1.00  0.00     0.007 C 
ENDBRANCH   9  13
BRANCH  11  15
ATOM     15  C   UNL A   1      33.009  24.855  23.170  1.00  0.00     0.230 C 
ATOM     16  O   UNL A   1      32.493  24.650  22.069  1.00  0.00    -0.275 OA
BRANCH  15  17
ATOM     17  C   UNL A   1      33.460  26.268  23.554  1.00  0.00     0.166 C 
BRANCH  17  18
ATOM     18  C   UNL A   1      32.612  27.227  24.426  1.00  0.00     0.201 C 
ATOM     19  C   UNL A   1      31.132  26.892  24.656  1.00  0.00     0.135 C 
ATOM     20  N   UNL A   1      32.833  28.668  24.163  1.00  0.00    -0.342 N 
ATOM     21  S   UNL A   1      30.044  27.309  23.268  1.00  0.00    -0.150 SA
ATOM     22  C   UNL A   1      32.111  29.171  22.991  1.00  0.00     0.271 C 
ATOM     23  H   UNL A   1      33.831  28.818  24.016  1.00  0.00     0.346 HD
ATOM     24  H   UNL A   1      32.478  29.176  24.973  1.00  0.00     0.346 HD
ATOM     25  C   UNL A   1      30.588  29.035  23.079  1.00  0.00     0.131 C 
ENDBRANCH  17  18
ENDBRANCH  15  17
ENDBRANCH  11  15
ENDBRANCH   6   8
ENDBRANCH   5   6
ENDBRANCH   4   5
ENDBRANCH   3   4
ENDBRANCH   2   3
ENDBRANCH   1   2
BRANCH   1  26
ATOM     26  C   UNL A   1      40.402  21.099  26.447  1.00  0.00     0.188 C 
BRANCH  26  27
ATOM     27  O   UNL A   1      41.687  20.920  25.847  1.00  0.00    -0.376 OA
BRANCH  27  28
ATOM     28  C   UNL A   1      42.423  22.137  25.725  1.00  0.00     0.202 C 
BRANCH  28  29
ATOM     29  C   UNL A   1      41.709  23.286  26.446  1.00  0.00     0.261 C 
BRANCH  29  30
ATOM     30  O   UNL A   1      42.025  24.598  25.940  1.00  0.00    -0.460 OA
BRANCH  30  31
ATOM     31  C   UNL A   1      42.982  25.270  26.608  1.00  0.00     0.338 C 
ATOM     32  O   UNL A   1      44.190  25.209  26.428  1.00  0.00    -0.246 OA
BRANCH  31  33
ATOM     33  C   UNL A   1      42.356  26.221  27.540  1.00  0.00     0.060 A 
ATOM     34  C   UNL A   1      42.957  27.468  27.709  1.00  0.00     0.016 A 
ATOM     35  C   UNL A   1      41.276  25.850  28.335  1.00  0.00     0.016 A 
ATOM     36  C   UNL A   1      42.579  28.297  28.762  1.00  0.00     0.010 A 
ATOM     37  C   UNL A   1      40.850  26.713  29.351  1.00  0.00     0.010 A 
ATOM     38  C   UNL A   1      41.534  27.917  29.613  1.00  0.00    -0.014 A 
BRANCH  38  39
ATOM     39  C   UNL A   1      41.225  28.709  30.836  1.00  0.00     0.031 A 
ATOM     40  C   UNL A   1      40.066  29.674  30.816  1.00  0.00     0.074 A 
ATOM     41  C   UNL A   1      41.941  28.560  31.968  1.00  0.00     0.049 A 
ATOM     42  N   UNL A   1      39.736  30.596  31.684  1.00  0.00    -0.248 NA
ATOM     43  C   UNL A   1      39.163  29.591  29.657  1.00  0.00     0.031 C 
ATOM     44  C   UNL A   1      43.035  27.609  32.164  1.00  0.00     0.029 A 
ATOM     45  N   UNL A   1      41.851  29.217  33.171  1.00  0.00    -0.354 N 
ATOM     46  C   UNL A   1      38.626  31.240  31.149  1.00  0.00     0.074 A 
ATOM     47  C   UNL A   1      38.336  30.603  29.883  1.00  0.00     0.031 C 
ATOM     48  C   UNL A   1      43.507  27.736  33.415  1.00  0.00     0.029 A 
ATOM     49  C   UNL A   1      42.801  28.826  34.084  1.00  0.00     0.049 A 
ATOM     50  H   UNL A   1      41.170  29.903  33.361  1.00  0.00     0.167 HD
ATOM     51  C   UNL A   1      37.914  32.271  31.665  1.00  0.00     0.037 A 
ATOM     52  C   UNL A   1      43.104  29.318  35.302  1.00  0.00     0.037 A 
ATOM     53  C   UNL A   1      38.172  32.872  32.947  1.00  0.00     0.049 A 
ATOM     54  C   UNL A   1      42.335  30.496  35.837  1.00  0.00     0.074 A 
ATOM     55  C   UNL A   1      37.507  33.921  33.558  1.00  0.00     0.029 A 
ATOM     56  N   UNL A   1      39.167  32.467  33.824  1.00  0.00    -0.354 N 
ATOM     57  N   UNL A   1      41.335  31.146  35.290  1.00  0.00    -0.248 NA
ATOM     58  C   UNL A   1      42.748  31.021  37.146  1.00  0.00     0.031 C 
ATOM     59  C   UNL A   1      38.120  34.169  34.792  1.00  0.00     0.029 A 
ATOM     60  C   UNL A   1      39.141  33.250  34.966  1.00  0.00     0.049 A 
ATOM     61  H   UNL A   1      39.799  31.730  33.659  1.00  0.00     0.167 HD
ATOM     62  C   UNL A   1      40.992  32.147  36.193  1.00  0.00     0.074 A 
ATOM     63  C   UNL A   1      41.882  32.009  37.328  1.00  0.00     0.031 C 
ATOM     64  C   UNL A   1      40.031  33.097  36.090  1.00  0.00     0.037 A 
BRANCH  51  65
ATOM     65  C   UNL A   1      36.812  32.843  30.817  1.00  0.00     0.058 A 
ATOM     66  C   UNL A   1      37.056  33.812  29.832  1.00  0.00     0.135 A 
ATOM     67  C   UNL A   1      35.489  32.405  30.994  1.00  0.00     0.135 A 
ATOM     68  F   UNL A   1      38.299  34.279  29.637  1.00  0.00    -0.206 F 
ATOM     69  C   UNL A   1      36.021  34.352  29.074  1.00  0.00     0.059 A 
ATOM     70  C   UNL A   1      34.443  32.913  30.230  1.00  0.00     0.059 A 
ATOM     71  F   UNL A   1      35.201  31.482  31.923  1.00  0.00    -0.206 F 
ATOM     72  C   UNL A   1      34.717  33.901  29.286  1.00  0.00     0.060 A 
BRANCH  72  73
ATOM     73  S   UNL A   1      33.380  34.623  28.310  1.00  0.00     0.124 S 
ATOM     74  O   UNL A   1      34.128  35.364  27.298  1.00  0.00    -0.237 OA
ATOM     75  O   UNL A   1      32.666  33.444  27.832  1.00  0.00    -0.237 OA
ATOM     76  O   UNL A   1      32.657  35.440  29.278  1.00  0.00    -0.744 OA
ENDBRANCH  72  73
ENDBRANCH  51  65
BRANCH  52  77
ATOM     77  C   UNL A   1      44.220  28.723  36.083  1.00  0.00     0.058 A 
ATOM     78  C   UNL A   1      44.002  27.633  36.937  1.00  0.00     0.135 A 
ATOM     79  C   UNL A   1      45.529  29.222  35.979  1.00  0.00     0.135 A 
ATOM     80  F   UNL A   1      42.766  27.131  37.082  1.00  0.00    -0.206 F 
ATOM     81  C   UNL A   1      45.041  27.058  37.663  1.00  0.00     0.059 A 
ATOM     82  C   UNL A   1      46.588  28.648  36.674  1.00  0.00     0.059 A 
ATOM     83  F   UNL A   1      45.789  30.261  35.170  1.00  0.00    -0.206 F 
ATOM     84  C   UNL A   1      46.332  27.570  37.522  1.00  0.00     0.060 A 
BRANCH  84  85
ATOM     85  S   UNL A   1      47.686  26.778  38.417  1.00  0.00     0.124 S 
ATOM     86  O   UNL A   1      47.179  26.792  39.785  1.00  0.00    -0.237 OA
ATOM     87  O   UNL A   1      47.757  25.469  37.776  1.00  0.00    -0.237 OA
ATOM     88  O   UNL A   1      48.820  27.658  38.153  1.00  0.00    -0.744 OA
ENDBRANCH  84  85
ENDBRANCH  52  77
BRANCH  64  89
ATOM     89  C   UNL A   1      39.869  34.044  37.246  1.00  0.00     0.058 A 
ATOM     90  C   UNL A   1      40.525  35.284  37.278  1.00  0.00     0.135 A 
ATOM     91  C   UNL A   1      39.011  33.726  38.311  1.00  0.00     0.135 A 
ATOM     92  F   UNL A   1      41.361  35.632  36.288  1.00  0.00    -0.206 F 
ATOM     93  C   UNL A   1      40.354  36.167  38.339  1.00  0.00     0.059 A 
ATOM     94  C   UNL A   1      38.808  34.603  39.371  1.00  0.00     0.059 A 
ATOM     95  F   UNL A   1      38.351  32.557  38.321  1.00  0.00    -0.206 F 
ATOM     96  C   UNL A   1      39.494  35.818  39.382  1.00  0.00     0.060 A 
BRANCH  96  97
ATOM     97  S   UNL A   1      39.255  36.983  40.742  1.00  0.00     0.124 S 
ATOM     98  O   UNL A   1      38.633  36.132  41.751  1.00  0.00    -0.237 OA
ATOM     99  O   UNL A   1      40.621  37.413  41.031  1.00  0.00    -0.237 OA
ATOM    100  O   UNL A   1      38.392  38.007  40.162  1.00  0.00    -0.744 OA
ENDBRANCH  96  97
ENDBRANCH  64  89
ENDBRANCH  38  39
ENDBRANCH  31  33
ENDBRANCH  30  31
ENDBRANCH  29  30
ENDBRANCH  28  29
ENDBRANCH  27  28
ENDBRANCH  26  27
ENDBRANCH   1  26
TORSDOF 24
ENDMDL
