MODEL 1
REMARK VINA RESULT:     -11.3      0.000      0.000
REMARK SMILES Cc1c(C(=O)OCCOCCOCCOC(=O)c2ccc(-c3c4nc(c(-c5c(F)cc(S(=O)(=O)[O-])cc5F)c5ccc([nH]5)c(-c5c(F)cc(S(=O)(=O)[O-])cc5F)c5nc(c(-c6c(F)cc(S(=O)(=O)[O-])cc6F)c6ccc3[nH]6)C=C5)C=C4)cc2)cccc1-n1c(C)cc(/C=C2/C(=O)NC(=S)N=C2O)c1C
REMARK SMILES IDX 10 1 9 2 8 3 7 4 6 5 4 6 5 7 3 8 1 9 2 10 87 11 84 12 86 13
REMARK SMILES IDX 85 14 88 15 89 16 103 17 90 18 91 19 92 20 104 21 93 22
REMARK SMILES IDX 94 23 95 24 101 25 96 26 97 27 100 28 98 29 99 31 102 32
REMARK SMILES IDX 11 34 12 35 13 36 14 37 15 38 16 39 17 40 18 41 19 42 83 43
REMARK SMILES IDX 20 44 82 45 21 46 22 47 23 48 76 49 24 50 81 51 75 52 77 53
REMARK SMILES IDX 25 54 80 55 74 56 73 57 26 59 60 60 39 61 59 62 40 63 43 64
REMARK SMILES IDX 58 65 78 66 41 67 42 68 57 70 79 71 44 72 27 73 28 74 37 75
REMARK SMILES IDX 29 76 30 77 36 78 38 79 31 80 32 81 33 82 34 83 35 84 61 85
REMARK SMILES IDX 62 86 71 87 63 88 64 89 70 90 72 91 65 92 66 93 67 94 68 95
REMARK SMILES IDX 69 96 45 97 46 98 55 99 47 100 48 101 54 102 56 103 49 104
REMARK SMILES IDX 50 105 51 106 52 107 53 108
REMARK H PARENT 97 30 102 33 77 58 43 69
REMARK Flexibility Score: inf
ROOT
ATOM      1  C   UNL A   1      35.831  32.454  29.680  1.00  0.00     0.188 C 
ENDROOT
BRANCH   1   2
ATOM      2  O   UNL A   1      34.600  31.986  29.091  1.00  0.00    -0.376 OA
BRANCH   2   3
ATOM      3  C   UNL A   1      34.492  31.328  27.816  1.00  0.00     0.202 C 
BRANCH   3   4
ATOM      4  C   UNL A   1      33.956  29.775  27.440  1.00  0.00     0.261 C 
BRANCH   4   5
ATOM      5  O   UNL A   1      32.452  29.126  26.653  1.00  0.00    -0.460 OA
BRANCH   5   6
ATOM      6  C   UNL A   1      31.596  29.272  25.453  1.00  0.00     0.338 C 
ATOM      7  O   UNL A   1      31.051  30.273  24.977  1.00  0.00    -0.246 OA
BRANCH   6   8
ATOM      8  C   UNL A   1      31.254  28.234  24.476  1.00  0.00     0.065 A 
ATOM      9  C   UNL A   1      33.683  27.868  24.239  1.00  0.00     0.047 C 
ATOM     10  C   UNL A   1      32.271  27.368  24.186  1.00  0.00    -0.012 A 
ATOM     11  C   UNL A   1      31.873  26.057  23.878  1.00  0.00     0.049 A 
ATOM     12  C   UNL A   1      29.884  27.779  24.411  1.00  0.00     0.016 A 
ATOM     13  C   UNL A   1      30.550  25.596  23.769  1.00  0.00     0.027 A 
ATOM     14  C   UNL A   1      29.531  26.482  24.030  1.00  0.00     0.003 A 
BRANCH  11  15
ATOM     15  N   UNL A   1      32.879  25.163  23.552  1.00  0.00    -0.318 N 
ATOM     16  C   UNL A   1      33.171  24.746  22.270  1.00  0.00     0.020 A 
ATOM     17  C   UNL A   1      33.356  24.266  24.485  1.00  0.00     0.027 A 
ATOM     18  C   UNL A   1      32.554  25.368  21.055  1.00  0.00     0.065 C 
ATOM     19  C   UNL A   1      34.026  23.673  22.402  1.00  0.00     0.031 A 
ATOM     20  C   UNL A   1      34.186  23.408  23.795  1.00  0.00    -0.003 A 
ATOM     21  C   UNL A   1      32.880  24.345  25.910  1.00  0.00     0.065 C 
BRANCH  20  22
ATOM     22  C   UNL A   1      34.914  22.310  24.321  1.00  0.00     0.029 C 
ATOM     23  C   UNL A   1      34.514  21.056  24.593  1.00  0.00     0.102 C 
ATOM     24  C   UNL A   1      35.594  20.114  24.954  1.00  0.00     0.262 C 
ATOM     25  C   UNL A   1      33.194  20.430  24.479  1.00  0.00     0.226 C 
ATOM     26  O   UNL A   1      36.711  20.444  25.335  1.00  0.00    -0.269 OA
ATOM     27  N   UNL A   1      35.251  18.800  24.790  1.00  0.00    -0.297 N 
ATOM     28  N   UNL A   1      32.951  19.173  24.390  1.00  0.00    -0.184 NA
ATOM     29  C   UNL A   1      34.013  18.313  24.448  1.00  0.00     0.203 C 
ATOM     30  H   UNL A   1      35.964  18.137  24.931  1.00  0.00     0.172 HD
ATOM     31  S   UNL A   1      33.878  16.660  24.202  1.00  0.00    -0.038 S 
BRANCH  25  32
ATOM     32  O   UNL A   1      32.135  21.240  24.537  1.00  0.00    -0.493 OA
ATOM     33  H   UNL A   1      32.249  22.166  24.447  1.00  0.00     0.295 HD
ENDBRANCH  25  32
ENDBRANCH  20  22
ENDBRANCH  11  15
ENDBRANCH   6   8
ENDBRANCH   5   6
ENDBRANCH   4   5
ENDBRANCH   3   4
ENDBRANCH   2   3
ENDBRANCH   1   2
BRANCH   1  34
ATOM     34  C   UNL A   1      36.541  33.707  29.179  1.00  0.00     0.188 C 
BRANCH  34  35
ATOM     35  O   UNL A   1      37.872  33.390  28.837  1.00  0.00    -0.376 OA
BRANCH  35  36
ATOM     36  C   UNL A   1      38.885  33.754  29.737  1.00  0.00     0.202 C 
BRANCH  36  37
ATOM     37  C   UNL A   1      39.726  34.939  29.250  1.00  0.00     0.261 C 
BRANCH  37  38
ATOM     38  O   UNL A   1      41.161  34.740  29.377  1.00  0.00    -0.460 OA
BRANCH  38  39
ATOM     39  C   UNL A   1      42.019  35.382  28.496  1.00  0.00     0.338 C 
ATOM     40  O   UNL A   1      41.977  36.593  28.324  1.00  0.00    -0.246 OA
BRANCH  39  41
ATOM     41  C   UNL A   1      43.127  34.477  28.047  1.00  0.00     0.060 A 
ATOM     42  C   UNL A   1      43.633  34.169  26.773  1.00  0.00     0.016 A 
ATOM     43  C   UNL A   1      43.640  33.741  29.042  1.00  0.00     0.016 A 
ATOM     44  C   UNL A   1      44.433  32.952  26.482  1.00  0.00     0.010 A 
ATOM     45  C   UNL A   1      44.140  32.503  28.678  1.00  0.00     0.010 A 
ATOM     46  C   UNL A   1      44.670  31.959  27.437  1.00  0.00    -0.014 A 
BRANCH  46  47
ATOM     47  C   UNL A   1      45.502  30.390  27.208  1.00  0.00     0.031 A 
ATOM     48  C   UNL A   1      44.912  28.664  27.196  1.00  0.00     0.074 A 
ATOM     49  C   UNL A   1      46.843  30.399  27.088  1.00  0.00     0.049 A 
ATOM     50  N   UNL A   1      45.454  27.667  27.874  1.00  0.00    -0.248 NA
ATOM     51  C   UNL A   1      43.576  28.084  26.664  1.00  0.00     0.031 C 
ATOM     52  C   UNL A   1      47.706  29.276  26.738  1.00  0.00     0.029 A 
ATOM     53  N   UNL A   1      47.725  31.455  27.315  1.00  0.00    -0.354 N 
ATOM     54  C   UNL A   1      44.571  26.557  27.828  1.00  0.00     0.074 A 
ATOM     55  C   UNL A   1      43.336  26.970  27.308  1.00  0.00     0.031 C 
ATOM     56  C   UNL A   1      48.972  29.603  27.044  1.00  0.00     0.029 A 
ATOM     57  C   UNL A   1      48.929  30.875  27.744  1.00  0.00     0.049 A 
ATOM     58  H   UNL A   1      47.540  32.415  27.197  1.00  0.00     0.167 HD
ATOM     59  C   UNL A   1      44.911  25.247  27.936  1.00  0.00     0.037 A 
ATOM     60  C   UNL A   1      49.365  31.120  29.012  1.00  0.00     0.037 A 
ATOM     61  C   UNL A   1      46.327  25.170  28.103  1.00  0.00     0.049 A 
ATOM     62  C   UNL A   1      49.413  29.863  29.866  1.00  0.00     0.074 A 
ATOM     63  C   UNL A   1      47.382  25.241  27.214  1.00  0.00     0.029 A 
ATOM     64  N   UNL A   1      46.802  25.598  29.312  1.00  0.00    -0.354 N 
ATOM     65  N   UNL A   1      49.018  28.677  29.476  1.00  0.00    -0.248 NA
ATOM     66  C   UNL A   1      49.886  29.854  31.250  1.00  0.00     0.031 C 
ATOM     67  C   UNL A   1      48.493  25.794  27.920  1.00  0.00     0.029 A 
ATOM     68  C   UNL A   1      48.115  25.991  29.238  1.00  0.00     0.049 A 
ATOM     69  H   UNL A   1      46.266  25.621  30.137  1.00  0.00     0.167 HD
ATOM     70  C   UNL A   1      49.112  27.795  30.518  1.00  0.00     0.074 A 
ATOM     71  C   UNL A   1      49.676  28.575  31.603  1.00  0.00     0.031 C 
ATOM     72  C   UNL A   1      48.700  26.497  30.462  1.00  0.00     0.037 A 
BRANCH  59  73
ATOM     73  C   UNL A   1      43.948  24.158  27.487  1.00  0.00     0.058 A 
ATOM     74  C   UNL A   1      43.219  23.434  28.443  1.00  0.00     0.135 A 
ATOM     75  C   UNL A   1      43.832  23.683  26.153  1.00  0.00     0.135 A 
ATOM     76  F   UNL A   1      43.238  23.795  29.733  1.00  0.00    -0.206 F 
ATOM     77  C   UNL A   1      42.493  22.283  28.123  1.00  0.00     0.059 A 
ATOM     78  C   UNL A   1      43.156  22.497  25.819  1.00  0.00     0.059 A 
ATOM     79  F   UNL A   1      44.455  24.318  25.143  1.00  0.00    -0.206 F 
ATOM     80  C   UNL A   1      42.487  21.801  26.817  1.00  0.00     0.060 A 
BRANCH  80  81
ATOM     81  S   UNL A   1      41.640  20.240  26.474  1.00  0.00     0.124 S 
ATOM     82  O   UNL A   1      41.836  19.496  27.715  1.00  0.00    -0.237 OA
ATOM     83  O   UNL A   1      40.277  20.687  26.213  1.00  0.00    -0.237 OA
ATOM     84  O   UNL A   1      42.360  19.705  25.321  1.00  0.00    -0.744 OA
ENDBRANCH  80  81
ENDBRANCH  59  73
BRANCH  60  85
ATOM     85  C   UNL A   1      49.081  32.530  29.451  1.00  0.00     0.058 A 
ATOM     86  C   UNL A   1      49.917  33.554  28.944  1.00  0.00     0.135 A 
ATOM     87  C   UNL A   1      47.862  32.941  30.010  1.00  0.00     0.135 A 
ATOM     88  F   UNL A   1      51.110  33.244  28.408  1.00  0.00    -0.206 F 
ATOM     89  C   UNL A   1      49.503  34.880  28.842  1.00  0.00     0.059 A 
ATOM     90  C   UNL A   1      47.440  34.281  29.953  1.00  0.00     0.059 A 
ATOM     91  F   UNL A   1      47.000  32.034  30.493  1.00  0.00    -0.206 F 
ATOM     92  C   UNL A   1      48.240  35.227  29.307  1.00  0.00     0.060 A 
BRANCH  92  93
ATOM     93  S   UNL A   1      47.625  36.880  28.883  1.00  0.00     0.124 S 
ATOM     94  O   UNL A   1      48.259  37.126  27.594  1.00  0.00    -0.237 OA
ATOM     95  O   UNL A   1      46.180  36.655  28.842  1.00  0.00    -0.237 OA
ATOM     96  O   UNL A   1      48.103  37.706  29.987  1.00  0.00    -0.744 OA
ENDBRANCH  92  93
ENDBRANCH  60  85
BRANCH  72  97
ATOM     97  C   UNL A   1      48.808  25.551  31.623  1.00  0.00     0.058 A 
ATOM     98  C   UNL A   1      47.840  25.542  32.631  1.00  0.00     0.135 A 
ATOM     99  C   UNL A   1      49.967  24.770  31.851  1.00  0.00     0.135 A 
ATOM    100  F   UNL A   1      46.722  26.276  32.507  1.00  0.00    -0.206 F 
ATOM    101  C   UNL A   1      48.000  24.791  33.792  1.00  0.00     0.059 A 
ATOM    102  C   UNL A   1      50.184  24.080  33.034  1.00  0.00     0.059 A 
ATOM    103  F   UNL A   1      50.920  24.631  30.916  1.00  0.00    -0.206 F 
ATOM    104  C   UNL A   1      49.181  24.073  33.988  1.00  0.00     0.060 A 
BRANCH 104 105
ATOM    105  S   UNL A   1      49.399  23.115  35.495  1.00  0.00     0.124 S 
ATOM    106  O   UNL A   1      49.735  24.139  36.479  1.00  0.00    -0.237 OA
ATOM    107  O   UNL A   1      48.080  22.508  35.639  1.00  0.00    -0.237 OA
ATOM    108  O   UNL A   1      50.482  22.197  35.159  1.00  0.00    -0.744 OA
ENDBRANCH 104 105
ENDBRANCH  72  97
ENDBRANCH  46  47
ENDBRANCH  39  41
ENDBRANCH  38  39
ENDBRANCH  37  38
ENDBRANCH  36  37
ENDBRANCH  35  36
ENDBRANCH  34  35
ENDBRANCH   1  34
TORSDOF 23
ENDMDL
MODEL 2
REMARK VINA RESULT:     -10.4      5.847     11.674
REMARK SMILES Cc1c(C(=O)OCCOCCOCCOC(=O)c2ccc(-c3c4nc(c(-c5c(F)cc(S(=O)(=O)[O-])cc5F)c5ccc([nH]5)c(-c5c(F)cc(S(=O)(=O)[O-])cc5F)c5nc(c(-c6c(F)cc(S(=O)(=O)[O-])cc6F)c6ccc3[nH]6)C=C5)C=C4)cc2)cccc1-n1c(C)cc(/C=C2/C(=O)NC(=S)N=C2O)c1C
REMARK SMILES IDX 10 1 9 2 8 3 7 4 6 5 4 6 5 7 3 8 1 9 2 10 87 11 84 12 86 13
REMARK SMILES IDX 85 14 88 15 89 16 103 17 90 18 91 19 92 20 104 21 93 22
REMARK SMILES IDX 94 23 95 24 101 25 96 26 97 27 100 28 98 29 99 31 102 32
REMARK SMILES IDX 11 34 12 35 13 36 14 37 15 38 16 39 17 40 18 41 19 42 83 43
REMARK SMILES IDX 20 44 82 45 21 46 22 47 23 48 76 49 24 50 81 51 75 52 77 53
REMARK SMILES IDX 25 54 80 55 74 56 73 57 26 59 60 60 39 61 59 62 40 63 43 64
REMARK SMILES IDX 58 65 78 66 41 67 42 68 57 70 79 71 44 72 27 73 28 74 37 75
REMARK SMILES IDX 29 76 30 77 36 78 38 79 31 80 32 81 33 82 34 83 35 84 61 85
REMARK SMILES IDX 62 86 71 87 63 88 64 89 70 90 72 91 65 92 66 93 67 94 68 95
REMARK SMILES IDX 69 96 45 97 46 98 55 99 47 100 48 101 54 102 56 103 49 104
REMARK SMILES IDX 50 105 51 106 52 107 53 108
REMARK H PARENT 97 30 102 33 77 58 43 69
REMARK Flexibility Score: inf
ROOT
ATOM      1  C   UNL A   1      45.042  22.817  26.383  1.00  0.00     0.188 C 
ENDROOT
BRANCH   1   2
ATOM      2  O   UNL A   1      44.956  23.998  27.207  1.00  0.00    -0.376 OA
BRANCH   2   3
ATOM      3  C   UNL A   1      45.225  24.042  28.619  1.00  0.00     0.202 C 
BRANCH   3   4
ATOM      4  C   UNL A   1      44.219  23.693  29.926  1.00  0.00     0.261 C 
BRANCH   4   5
ATOM      5  O   UNL A   1      44.267  24.117  31.691  1.00  0.00    -0.460 OA
BRANCH   5   6
ATOM      6  C   UNL A   1      44.544  23.546  33.031  1.00  0.00     0.338 C 
ATOM      7  O   UNL A   1      45.325  22.653  33.373  1.00  0.00    -0.246 OA
BRANCH   6   8
ATOM      8  C   UNL A   1      43.989  23.986  34.314  1.00  0.00     0.065 A 
ATOM      9  C   UNL A   1      45.593  25.859  34.195  1.00  0.00     0.047 C 
ATOM     10  C   UNL A   1      44.289  25.277  34.652  1.00  0.00    -0.012 A 
ATOM     11  C   UNL A   1      43.306  25.946  35.398  1.00  0.00     0.049 A 
ATOM     12  C   UNL A   1      42.747  23.399  34.761  1.00  0.00     0.016 A 
ATOM     13  C   UNL A   1      42.108  25.390  35.880  1.00  0.00     0.027 A 
ATOM     14  C   UNL A   1      41.829  24.081  35.563  1.00  0.00     0.003 A 
BRANCH  11  15
ATOM     15  N   UNL A   1      43.592  27.246  35.780  1.00  0.00    -0.318 N 
ATOM     16  C   UNL A   1      44.026  27.616  37.036  1.00  0.00     0.020 A 
ATOM     17  C   UNL A   1      43.034  28.317  35.113  1.00  0.00     0.027 A 
ATOM     18  C   UNL A   1      44.425  26.621  38.081  1.00  0.00     0.065 C 
ATOM     19  C   UNL A   1      43.926  28.990  37.085  1.00  0.00     0.031 A 
ATOM     20  C   UNL A   1      43.356  29.434  35.855  1.00  0.00    -0.003 A 
ATOM     21  C   UNL A   1      42.213  28.081  33.874  1.00  0.00     0.065 C 
BRANCH  20  22
ATOM     22  C   UNL A   1      43.005  30.780  35.576  1.00  0.00     0.029 C 
ATOM     23  C   UNL A   1      41.838  31.425  35.751  1.00  0.00     0.102 C 
ATOM     24  C   UNL A   1      41.887  32.885  35.530  1.00  0.00     0.262 C 
ATOM     25  C   UNL A   1      40.545  30.940  36.240  1.00  0.00     0.226 C 
ATOM     26  O   UNL A   1      42.766  33.469  34.907  1.00  0.00    -0.269 OA
ATOM     27  N   UNL A   1      40.858  33.561  36.125  1.00  0.00    -0.297 N 
ATOM     28  N   UNL A   1      39.599  31.654  36.733  1.00  0.00    -0.184 NA
ATOM     29  C   UNL A   1      39.781  33.010  36.775  1.00  0.00     0.203 C 
ATOM     30  H   UNL A   1      40.893  34.544  36.084  1.00  0.00     0.172 HD
ATOM     31  S   UNL A   1      38.708  34.063  37.518  1.00  0.00    -0.038 S 
BRANCH  25  32
ATOM     32  O   UNL A   1      40.298  29.636  36.101  1.00  0.00    -0.493 OA
ATOM     33  H   UNL A   1      41.008  29.025  36.075  1.00  0.00     0.295 HD
ENDBRANCH  25  32
ENDBRANCH  20  22
ENDBRANCH  11  15
ENDBRANCH   6   8
ENDBRANCH   5   6
ENDBRANCH   4   5
ENDBRANCH   3   4
ENDBRANCH   2   3
ENDBRANCH   1   2
BRANCH   1  34
ATOM     34  C   UNL A   1      43.841  22.282  25.611  1.00  0.00     0.188 C 
BRANCH  34  35
ATOM     35  O   UNL A   1      42.669  22.467  26.372  1.00  0.00    -0.376 OA
BRANCH  35  36
ATOM     36  C   UNL A   1      41.549  21.684  26.053  1.00  0.00     0.202 C 
BRANCH  36  37
ATOM     37  C   UNL A   1      40.506  21.640  27.175  1.00  0.00     0.261 C 
BRANCH  37  38
ATOM     38  O   UNL A   1      40.266  22.926  27.811  1.00  0.00    -0.460 OA
BRANCH  38  39
ATOM     39  C   UNL A   1      39.543  23.897  27.135  1.00  0.00     0.338 C 
ATOM     40  O   UNL A   1      38.335  23.797  26.963  1.00  0.00    -0.246 OA
BRANCH  39  41
ATOM     41  C   UNL A   1      40.351  25.143  26.926  1.00  0.00     0.060 A 
ATOM     42  C   UNL A   1      40.870  25.745  25.767  1.00  0.00     0.016 A 
ATOM     43  C   UNL A   1      40.749  25.709  28.074  1.00  0.00     0.016 A 
ATOM     44  C   UNL A   1      41.987  26.723  25.783  1.00  0.00     0.010 A 
ATOM     45  C   UNL A   1      41.948  26.397  28.020  1.00  0.00     0.010 A 
ATOM     46  C   UNL A   1      42.682  27.056  26.950  1.00  0.00    -0.014 A 
BRANCH  46  47
ATOM     47  C   UNL A   1      44.118  28.113  27.111  1.00  0.00     0.031 A 
ATOM     48  C   UNL A   1      45.912  27.783  27.065  1.00  0.00     0.074 A 
ATOM     49  C   UNL A   1      43.915  29.412  27.397  1.00  0.00     0.049 A 
ATOM     50  N   UNL A   1      46.790  28.214  27.954  1.00  0.00    -0.248 NA
ATOM     51  C   UNL A   1      46.703  26.762  26.207  1.00  0.00     0.031 C 
ATOM     52  C   UNL A   1      44.911  30.479  27.415  1.00  0.00     0.029 A 
ATOM     53  N   UNL A   1      42.733  30.038  27.789  1.00  0.00    -0.354 N 
ATOM     54  C   UNL A   1      48.019  27.539  27.737  1.00  0.00     0.074 A 
ATOM     55  C   UNL A   1      47.814  26.481  26.840  1.00  0.00     0.031 C 
ATOM     56  C   UNL A   1      44.389  31.536  28.058  1.00  0.00     0.029 A 
ATOM     57  C   UNL A   1      43.110  31.116  28.605  1.00  0.00     0.049 A 
ATOM     58  H   UNL A   1      41.816  29.776  27.543  1.00  0.00     0.167 HD
ATOM     59  C   UNL A   1      49.259  27.995  28.050  1.00  0.00     0.037 A 
ATOM     60  C   UNL A   1      42.754  31.104  29.921  1.00  0.00     0.037 A 
ATOM     61  C   UNL A   1      49.120  29.289  28.639  1.00  0.00     0.049 A 
ATOM     62  C   UNL A   1      43.956  31.049  30.851  1.00  0.00     0.074 A 
ATOM     63  C   UNL A   1      48.928  30.547  28.103  1.00  0.00     0.029 A 
ATOM     64  N   UNL A   1      48.579  29.309  29.895  1.00  0.00    -0.354 N 
ATOM     65  N   UNL A   1      45.201  30.950  30.460  1.00  0.00    -0.248 NA
ATOM     66  C   UNL A   1      43.841  31.070  32.309  1.00  0.00     0.031 C 
ATOM     67  C   UNL A   1      48.189  31.306  29.062  1.00  0.00     0.029 A 
ATOM     68  C   UNL A   1      47.999  30.519  30.184  1.00  0.00     0.049 A 
ATOM     69  H   UNL A   1      48.603  28.546  30.517  1.00  0.00     0.167 HD
ATOM     70  C   UNL A   1      46.018  30.831  31.551  1.00  0.00     0.074 A 
ATOM     71  C   UNL A   1      45.122  30.928  32.687  1.00  0.00     0.031 C 
ATOM     72  C   UNL A   1      47.365  30.628  31.481  1.00  0.00     0.037 A 
BRANCH  59  73
ATOM     73  C   UNL A   1      50.496  27.366  27.424  1.00  0.00     0.058 A 
ATOM     74  C   UNL A   1      51.016  27.887  26.231  1.00  0.00     0.135 A 
ATOM     75  C   UNL A   1      51.100  26.159  27.870  1.00  0.00     0.135 A 
ATOM     76  F   UNL A   1      50.537  29.029  25.719  1.00  0.00    -0.206 F 
ATOM     77  C   UNL A   1      52.002  27.231  25.488  1.00  0.00     0.059 A 
ATOM     78  C   UNL A   1      52.050  25.454  27.112  1.00  0.00     0.059 A 
ATOM     79  F   UNL A   1      50.711  25.583  29.022  1.00  0.00    -0.206 F 
ATOM     80  C   UNL A   1      52.496  26.002  25.916  1.00  0.00     0.060 A 
BRANCH  80  81
ATOM     81  S   UNL A   1      53.678  25.128  24.861  1.00  0.00     0.124 S 
ATOM     82  O   UNL A   1      53.407  23.728  25.175  1.00  0.00    -0.237 OA
ATOM     83  O   UNL A   1      53.275  25.567  23.530  1.00  0.00    -0.237 OA
ATOM     84  O   UNL A   1      54.975  25.618  25.320  1.00  0.00    -0.744 OA
ENDBRANCH  80  81
ENDBRANCH  59  73
BRANCH  60  85
ATOM     85  C   UNL A   1      41.386  30.519  30.137  1.00  0.00     0.058 A 
ATOM     86  C   UNL A   1      41.311  29.173  30.571  1.00  0.00     0.135 A 
ATOM     87  C   UNL A   1      40.226  31.290  30.297  1.00  0.00     0.135 A 
ATOM     88  F   UNL A   1      42.375  28.363  30.437  1.00  0.00    -0.206 F 
ATOM     89  C   UNL A   1      40.218  28.670  31.272  1.00  0.00     0.059 A 
ATOM     90  C   UNL A   1      39.095  30.791  30.967  1.00  0.00     0.059 A 
ATOM     91  F   UNL A   1      40.217  32.581  29.933  1.00  0.00    -0.206 F 
ATOM     92  C   UNL A   1      39.130  29.502  31.508  1.00  0.00     0.060 A 
BRANCH  92  93
ATOM     93  S   UNL A   1      37.871  28.913  32.673  1.00  0.00     0.124 S 
ATOM     94  O   UNL A   1      36.631  29.301  32.012  1.00  0.00    -0.237 OA
ATOM     95  O   UNL A   1      38.147  27.477  32.703  1.00  0.00    -0.237 OA
ATOM     96  O   UNL A   1      38.185  29.641  33.898  1.00  0.00    -0.744 OA
ENDBRANCH  92  93
ENDBRANCH  60  85
BRANCH  72  97
ATOM     97  C   UNL A   1      48.238  30.495  32.695  1.00  0.00     0.058 A 
ATOM     98  C   UNL A   1      48.203  29.337  33.478  1.00  0.00     0.135 A 
ATOM     99  C   UNL A   1      48.984  31.583  33.208  1.00  0.00     0.135 A 
ATOM    100  F   UNL A   1      47.497  28.267  33.079  1.00  0.00    -0.206 F 
ATOM    101  C   UNL A   1      48.881  29.254  34.691  1.00  0.00     0.059 A 
ATOM    102  C   UNL A   1      49.600  31.551  34.451  1.00  0.00     0.059 A 
ATOM    103  F   UNL A   1      49.163  32.711  32.503  1.00  0.00    -0.206 F 
ATOM    104  C   UNL A   1      49.567  30.370  35.172  1.00  0.00     0.060 A 
BRANCH 104 105
ATOM    105  S   UNL A   1      50.429  30.272  36.748  1.00  0.00     0.124 S 
ATOM    106  O   UNL A   1      51.088  31.571  36.834  1.00  0.00    -0.237 OA
ATOM    107  O   UNL A   1      49.317  30.064  37.668  1.00  0.00    -0.237 OA
ATOM    108  O   UNL A   1      51.325  29.132  36.574  1.00  0.00    -0.744 OA
ENDBRANCH 104 105
ENDBRANCH  72  97
ENDBRANCH  46  47
ENDBRANCH  39  41
ENDBRANCH  38  39
ENDBRANCH  37  38
ENDBRANCH  36  37
ENDBRANCH  35  36
ENDBRANCH  34  35
ENDBRANCH   1  34
TORSDOF 23
ENDMDL
MODEL 3
REMARK VINA RESULT:     -10.4      9.325     12.855
REMARK SMILES Cc1c(C(=O)OCCOCCOCCOC(=O)c2ccc(-c3c4nc(c(-c5c(F)cc(S(=O)(=O)[O-])cc5F)c5ccc([nH]5)c(-c5c(F)cc(S(=O)(=O)[O-])cc5F)c5nc(c(-c6c(F)cc(S(=O)(=O)[O-])cc6F)c6ccc3[nH]6)C=C5)C=C4)cc2)cccc1-n1c(C)cc(/C=C2/C(=O)NC(=S)N=C2O)c1C
REMARK SMILES IDX 10 1 9 2 8 3 7 4 6 5 4 6 5 7 3 8 1 9 2 10 87 11 84 12 86 13
REMARK SMILES IDX 85 14 88 15 89 16 103 17 90 18 91 19 92 20 104 21 93 22
REMARK SMILES IDX 94 23 95 24 101 25 96 26 97 27 100 28 98 29 99 31 102 32
REMARK SMILES IDX 11 34 12 35 13 36 14 37 15 38 16 39 17 40 18 41 19 42 83 43
REMARK SMILES IDX 20 44 82 45 21 46 22 47 23 48 76 49 24 50 81 51 75 52 77 53
REMARK SMILES IDX 25 54 80 55 74 56 73 57 26 59 60 60 39 61 59 62 40 63 43 64
REMARK SMILES IDX 58 65 78 66 41 67 42 68 57 70 79 71 44 72 27 73 28 74 37 75
REMARK SMILES IDX 29 76 30 77 36 78 38 79 31 80 32 81 33 82 34 83 35 84 61 85
REMARK SMILES IDX 62 86 71 87 63 88 64 89 70 90 72 91 65 92 66 93 67 94 68 95
REMARK SMILES IDX 69 96 45 97 46 98 55 99 47 100 48 101 54 102 56 103 49 104
REMARK SMILES IDX 50 105 51 106 52 107 53 108
REMARK H PARENT 97 30 102 33 77 58 43 69
REMARK Flexibility Score: inf
ROOT
ATOM      1  C   UNL A   1      39.472  29.324  27.971  1.00  0.00     0.188 C 
ENDROOT
BRANCH   1   2
ATOM      2  O   UNL A   1      38.102  28.898  28.120  1.00  0.00    -0.376 OA
BRANCH   2   3
ATOM      3  C   UNL A   1      36.951  29.746  27.959  1.00  0.00     0.202 C 
BRANCH   3   4
ATOM      4  C   UNL A   1      35.351  29.348  27.611  1.00  0.00     0.261 C 
BRANCH   4   5
ATOM      5  O   UNL A   1      34.464  28.950  26.076  1.00  0.00    -0.460 OA
BRANCH   5   6
ATOM      6  C   UNL A   1      33.116  28.960  25.460  1.00  0.00     0.338 C 
ATOM      7  O   UNL A   1      32.513  29.864  24.872  1.00  0.00    -0.246 OA
BRANCH   6   8
ATOM      8  C   UNL A   1      32.190  27.832  25.336  1.00  0.00     0.065 A 
ATOM      9  C   UNL A   1      33.728  26.953  23.617  1.00  0.00     0.047 C 
ATOM     10  C   UNL A   1      32.704  26.741  24.692  1.00  0.00    -0.012 A 
ATOM     11  C   UNL A   1      32.218  25.500  25.131  1.00  0.00     0.049 A 
ATOM     12  C   UNL A   1      31.187  27.652  26.361  1.00  0.00     0.016 A 
ATOM     13  C   UNL A   1      31.216  25.296  26.096  1.00  0.00     0.027 A 
ATOM     14  C   UNL A   1      30.680  26.400  26.716  1.00  0.00     0.003 A 
BRANCH  11  15
ATOM     15  N   UNL A   1      32.699  24.377  24.478  1.00  0.00    -0.318 N 
ATOM     16  C   UNL A   1      32.069  23.757  23.419  1.00  0.00     0.020 A 
ATOM     17  C   UNL A   1      33.575  23.517  25.106  1.00  0.00     0.027 A 
ATOM     18  C   UNL A   1      30.881  24.347  22.724  1.00  0.00     0.065 C 
ATOM     19  C   UNL A   1      32.710  22.549  23.248  1.00  0.00     0.031 A 
ATOM     20  C   UNL A   1      33.693  22.424  24.273  1.00  0.00    -0.003 A 
ATOM     21  C   UNL A   1      34.124  23.867  26.463  1.00  0.00     0.065 C 
BRANCH  20  22
ATOM     22  C   UNL A   1      34.486  21.266  24.485  1.00  0.00     0.029 C 
ATOM     23  C   UNL A   1      34.135  20.045  24.926  1.00  0.00     0.102 C 
ATOM     24  C   UNL A   1      35.192  19.016  24.839  1.00  0.00     0.262 C 
ATOM     25  C   UNL A   1      32.838  19.528  25.371  1.00  0.00     0.226 C 
ATOM     26  O   UNL A   1      36.390  19.252  24.727  1.00  0.00    -0.269 OA
ATOM     27  N   UNL A   1      34.711  17.736  24.860  1.00  0.00    -0.297 N 
ATOM     28  N   UNL A   1      32.483  18.296  25.418  1.00  0.00    -0.184 NA
ATOM     29  C   UNL A   1      33.408  17.352  25.061  1.00  0.00     0.203 C 
ATOM     30  H   UNL A   1      35.366  17.016  24.715  1.00  0.00     0.172 HD
ATOM     31  S   UNL A   1      33.057  15.718  24.929  1.00  0.00    -0.038 S 
BRANCH  25  32
ATOM     32  O   UNL A   1      31.960  20.420  25.835  1.00  0.00    -0.493 OA
ATOM     33  H   UNL A   1      31.319  20.789  25.259  1.00  0.00     0.295 HD
ENDBRANCH  25  32
ENDBRANCH  20  22
ENDBRANCH  11  15
ENDBRANCH   6   8
ENDBRANCH   5   6
ENDBRANCH   4   5
ENDBRANCH   3   4
ENDBRANCH   2   3
ENDBRANCH   1   2
BRANCH   1  34
ATOM     34  C   UNL A   1      40.555  28.391  27.440  1.00  0.00     0.188 C 
BRANCH  34  35
ATOM     35  O   UNL A   1      41.721  28.528  28.220  1.00  0.00    -0.376 OA
BRANCH  35  36
ATOM     36  C   UNL A   1      42.347  29.784  28.251  1.00  0.00     0.202 C 
BRANCH  36  37
ATOM     37  C   UNL A   1      42.174  30.508  29.590  1.00  0.00     0.261 C 
BRANCH  37  38
ATOM     38  O   UNL A   1      42.794  29.828  30.716  1.00  0.00    -0.460 OA
BRANCH  38  39
ATOM     39  C   UNL A   1      42.003  29.095  31.589  1.00  0.00     0.338 C 
ATOM     40  O   UNL A   1      41.352  28.130  31.212  1.00  0.00    -0.246 OA
BRANCH  39  41
ATOM     41  C   UNL A   1      42.284  29.451  33.019  1.00  0.00     0.060 A 
ATOM     42  C   UNL A   1      41.911  28.844  34.230  1.00  0.00     0.016 A 
ATOM     43  C   UNL A   1      42.899  30.633  33.155  1.00  0.00     0.016 A 
ATOM     44  C   UNL A   1      41.913  29.552  35.535  1.00  0.00     0.010 A 
ATOM     45  C   UNL A   1      42.625  31.322  34.323  1.00  0.00     0.010 A 
ATOM     46  C   UNL A   1      42.197  30.916  35.653  1.00  0.00    -0.014 A 
BRANCH  46  47
ATOM     47  C   UNL A   1      42.119  31.932  37.125  1.00  0.00     0.031 A 
ATOM     48  C   UNL A   1      42.990  31.862  38.727  1.00  0.00     0.074 A 
ATOM     49  C   UNL A   1      41.207  32.920  37.161  1.00  0.00     0.049 A 
ATOM     50  N   UNL A   1      42.412  31.929  39.913  1.00  0.00    -0.248 NA
ATOM     51  C   UNL A   1      44.453  31.448  39.035  1.00  0.00     0.031 C 
ATOM     52  C   UNL A   1      41.072  33.962  38.175  1.00  0.00     0.029 A 
ATOM     53  N   UNL A   1      40.153  33.158  36.280  1.00  0.00    -0.354 N 
ATOM     54  C   UNL A   1      43.367  31.572  40.901  1.00  0.00     0.074 A 
ATOM     55  C   UNL A   1      44.500  31.032  40.275  1.00  0.00     0.031 C 
ATOM     56  C   UNL A   1      39.866  34.536  38.034  1.00  0.00     0.029 A 
ATOM     57  C   UNL A   1      39.141  33.772  37.035  1.00  0.00     0.049 A 
ATOM     58  H   UNL A   1      40.124  32.939  35.321  1.00  0.00     0.167 HD
ATOM     59  C   UNL A   1      43.374  31.967  42.200  1.00  0.00     0.037 A 
ATOM     60  C   UNL A   1      37.960  33.115  37.214  1.00  0.00     0.037 A 
ATOM     61  C   UNL A   1      42.247  32.818  42.410  1.00  0.00     0.049 A 
ATOM     62  C   UNL A   1      37.699  32.770  38.672  1.00  0.00     0.074 A 
ATOM     63  C   UNL A   1      42.014  34.151  42.136  1.00  0.00     0.029 A 
ATOM     64  N   UNL A   1      41.029  32.195  42.400  1.00  0.00    -0.354 N 
ATOM     65  N   UNL A   1      38.530  33.002  39.657  1.00  0.00    -0.248 NA
ATOM     66  C   UNL A   1      36.481  32.103  39.131  1.00  0.00     0.031 C 
ATOM     67  C   UNL A   1      40.613  34.294  41.892  1.00  0.00     0.029 A 
ATOM     68  C   UNL A   1      40.013  33.062  42.083  1.00  0.00     0.049 A 
ATOM     69  H   UNL A   1      40.897  31.240  42.596  1.00  0.00     0.167 HD
ATOM     70  C   UNL A   1      38.024  32.485  40.818  1.00  0.00     0.074 A 
ATOM     71  C   UNL A   1      36.731  31.946  40.442  1.00  0.00     0.031 C 
ATOM     72  C   UNL A   1      38.685  32.488  42.010  1.00  0.00     0.037 A 
BRANCH  59  73
ATOM     73  C   UNL A   1      44.637  31.840  43.040  1.00  0.00     0.058 A 
ATOM     74  C   UNL A   1      44.809  30.726  43.876  1.00  0.00     0.135 A 
ATOM     75  C   UNL A   1      45.619  32.857  43.181  1.00  0.00     0.135 A 
ATOM     76  F   UNL A   1      43.954  29.696  43.824  1.00  0.00    -0.206 F 
ATOM     77  C   UNL A   1      45.825  30.652  44.833  1.00  0.00     0.059 A 
ATOM     78  C   UNL A   1      46.612  32.830  44.173  1.00  0.00     0.059 A 
ATOM     79  F   UNL A   1      45.581  33.958  42.407  1.00  0.00    -0.206 F 
ATOM     80  C   UNL A   1      46.707  31.716  44.999  1.00  0.00     0.060 A 
BRANCH  80  81
ATOM     81  S   UNL A   1      47.925  31.632  46.333  1.00  0.00     0.124 S 
ATOM     82  O   UNL A   1      47.140  31.103  47.445  1.00  0.00    -0.237 OA
ATOM     83  O   UNL A   1      48.921  30.724  45.775  1.00  0.00    -0.237 OA
ATOM     84  O   UNL A   1      48.356  33.018  46.494  1.00  0.00    -0.744 OA
ENDBRANCH  80  81
ENDBRANCH  59  73
BRANCH  60  85
ATOM     85  C   UNL A   1      37.542  32.347  35.990  1.00  0.00     0.058 A 
ATOM     86  C   UNL A   1      36.774  33.034  35.018  1.00  0.00     0.135 A 
ATOM     87  C   UNL A   1      38.148  31.154  35.575  1.00  0.00     0.135 A 
ATOM     88  F   UNL A   1      36.146  34.178  35.343  1.00  0.00    -0.206 F 
ATOM     89  C   UNL A   1      36.746  32.656  33.678  1.00  0.00     0.059 A 
ATOM     90  C   UNL A   1      38.101  30.731  34.234  1.00  0.00     0.059 A 
ATOM     91  F   UNL A   1      38.912  30.452  36.425  1.00  0.00    -0.206 F 
ATOM     92  C   UNL A   1      37.453  31.526  33.285  1.00  0.00     0.060 A 
BRANCH  92  93
ATOM     93  S   UNL A   1      37.641  31.243  31.503  1.00  0.00     0.124 S 
ATOM     94  O   UNL A   1      36.493  30.397  31.201  1.00  0.00    -0.237 OA
ATOM     95  O   UNL A   1      37.574  32.607  30.980  1.00  0.00    -0.237 OA
ATOM     96  O   UNL A   1      38.944  30.593  31.405  1.00  0.00    -0.744 OA
ENDBRANCH  92  93
ENDBRANCH  60  85
BRANCH  72  97
ATOM     97  C   UNL A   1      38.109  31.908  43.269  1.00  0.00     0.058 A 
ATOM     98  C   UNL A   1      38.007  30.523  43.437  1.00  0.00     0.135 A 
ATOM     99  C   UNL A   1      37.478  32.713  44.249  1.00  0.00     0.135 A 
ATOM    100  F   UNL A   1      38.553  29.687  42.540  1.00  0.00    -0.206 F 
ATOM    101  C   UNL A   1      37.334  29.966  44.521  1.00  0.00     0.059 A 
ATOM    102  C   UNL A   1      36.734  32.179  45.291  1.00  0.00     0.059 A 
ATOM    103  F   UNL A   1      37.587  34.050  44.240  1.00  0.00    -0.206 F 
ATOM    104  C   UNL A   1      36.692  30.803  45.435  1.00  0.00     0.060 A 
BRANCH 104 105
ATOM    105  S   UNL A   1      35.807  30.086  46.827  1.00  0.00     0.124 S 
ATOM    106  O   UNL A   1      35.511  28.736  46.358  1.00  0.00    -0.237 OA
ATOM    107  O   UNL A   1      36.810  30.184  47.882  1.00  0.00    -0.237 OA
ATOM    108  O   UNL A   1      34.647  30.959  46.977  1.00  0.00    -0.744 OA
ENDBRANCH 104 105
ENDBRANCH  72  97
ENDBRANCH  46  47
ENDBRANCH  39  41
ENDBRANCH  38  39
ENDBRANCH  37  38
ENDBRANCH  36  37
ENDBRANCH  35  36
ENDBRANCH  34  35
ENDBRANCH   1  34
TORSDOF 23
ENDMDL
