MODEL 1
REMARK VINA RESULT:     -10.3      0.000      0.000
REMARK SMILES C[C@@H](C(=O)OCCOCCOCCOC(=O)c1ccc(-c2c3nc(c(-c4c(F)cc(S(=O)(=O)[O-])cc4F)c4ccc([nH]4)c(-c4c(F)cc(S(=O)(=O)[O-])cc4F)c4nc(c(-c5c(F)cc(S(=O)(=O)[O-])cc5F)c5ccc2[nH]5)C=C4)C=C3)cc1)c1ccc(C[C@H]2CCC[C@@H]2O)cc1
REMARK SMILES IDX 9 1 8 2 7 3 6 4 5 5 3 6 4 7 2 8 1 9 83 10 84 11 95 12 85 13
REMARK SMILES IDX 94 14 86 15 87 16 88 17 89 18 92 19 90 20 91 21 93 22 10 24
REMARK SMILES IDX 11 25 12 26 13 27 14 28 15 29 16 30 17 31 18 32 82 33 19 34
REMARK SMILES IDX 81 35 20 36 21 37 22 38 75 39 23 40 80 41 74 42 76 43 24 44
REMARK SMILES IDX 79 45 73 46 72 47 25 49 59 50 38 51 58 52 39 53 42 54 57 55
REMARK SMILES IDX 77 56 40 57 41 58 56 60 78 61 43 62 26 63 27 64 36 65 28 66
REMARK SMILES IDX 29 67 35 68 37 69 30 70 31 71 32 72 33 73 34 74 60 75 61 76
REMARK SMILES IDX 70 77 62 78 63 79 69 80 71 81 64 82 65 83 66 84 67 85 68 86
REMARK SMILES IDX 44 87 45 88 54 89 46 90 47 91 53 92 55 93 48 94 49 95 50 96
REMARK SMILES IDX 51 97 52 98
REMARK H PARENT 93 23 76 48 42 59
REMARK Flexibility Score: inf
ROOT
ATOM      1  C   UNL A   1      35.694  22.828  23.860  1.00  0.00     0.188 C 
ENDROOT
BRANCH   1   2
ATOM      2  O   UNL A   1      34.504  23.052  24.590  1.00  0.00    -0.376 OA
BRANCH   2   3
ATOM      3  C   UNL A   1      34.469  24.140  25.506  1.00  0.00     0.202 C 
BRANCH   3   4
ATOM      4  C   UNL A   1      33.136  24.631  26.100  1.00  0.00     0.261 C 
BRANCH   4   5
ATOM      5  O   UNL A   1      32.880  26.047  25.968  1.00  0.00    -0.463 OA
BRANCH   5   6
ATOM      6  C   UNL A   1      33.148  26.590  24.746  1.00  0.00     0.313 C 
ATOM      7  O   UNL A   1      33.968  27.488  24.576  1.00  0.00    -0.252 OA
BRANCH   6   8
ATOM      8  C   UNL A   1      32.320  26.013  23.585  1.00  0.00     0.126 C 
ATOM      9  C   UNL A   1      32.996  25.805  22.225  1.00  0.00     0.025 C 
BRANCH   8  10
ATOM     10  C   UNL A   1      30.989  26.740  23.418  1.00  0.00    -0.034 A 
ATOM     11  C   UNL A   1      30.932  27.957  22.730  1.00  0.00     0.005 A 
ATOM     12  C   UNL A   1      29.793  26.224  23.935  1.00  0.00     0.005 A 
ATOM     13  C   UNL A   1      29.716  28.632  22.571  1.00  0.00     0.004 A 
ATOM     14  C   UNL A   1      28.585  26.902  23.784  1.00  0.00     0.004 A 
ATOM     15  C   UNL A   1      28.536  28.130  23.127  1.00  0.00    -0.048 A 
BRANCH  15  16
ATOM     16  C   UNL A   1      27.232  28.892  23.049  1.00  0.00     0.041 C 
BRANCH  16  17
ATOM     17  C   UNL A   1      27.354  30.389  22.719  1.00  0.00     0.022 C 
ATOM     18  C   UNL A   1      27.900  31.294  23.837  1.00  0.00     0.007 C 
ATOM     19  C   UNL A   1      28.234  30.712  21.512  1.00  0.00     0.117 C 
ATOM     20  C   UNL A   1      28.734  32.372  23.135  1.00  0.00     0.003 C 
ATOM     21  C   UNL A   1      28.454  32.209  21.648  1.00  0.00     0.032 C 
BRANCH  19  22
ATOM     22  O   UNL A   1      27.589  30.369  20.302  1.00  0.00    -0.393 OA
ATOM     23  H   UNL A   1      27.651  31.113  19.681  1.00  0.00     0.210 HD
ENDBRANCH  19  22
ENDBRANCH  16  17
ENDBRANCH  15  16
ENDBRANCH   8  10
ENDBRANCH   6   8
ENDBRANCH   5   6
ENDBRANCH   4   5
ENDBRANCH   3   4
ENDBRANCH   2   3
ENDBRANCH   1   2
BRANCH   1  24
ATOM     24  C   UNL A   1      37.005  22.645  24.638  1.00  0.00     0.188 C 
BRANCH  24  25
ATOM     25  O   UNL A   1      37.646  21.396  24.631  1.00  0.00    -0.376 OA
BRANCH  25  26
ATOM     26  C   UNL A   1      38.625  21.073  25.597  1.00  0.00     0.202 C 
BRANCH  26  27
ATOM     27  C   UNL A   1      39.341  19.717  25.734  1.00  0.00     0.261 C 
BRANCH  27  28
ATOM     28  O   UNL A   1      40.407  19.590  26.676  1.00  0.00    -0.460 OA
BRANCH  28  29
ATOM     29  C   UNL A   1      41.659  19.757  26.187  1.00  0.00     0.338 C 
ATOM     30  O   UNL A   1      42.269  18.992  25.457  1.00  0.00    -0.246 OA
BRANCH  29  31
ATOM     31  C   UNL A   1      42.096  21.133  26.516  1.00  0.00     0.060 A 
ATOM     32  C   UNL A   1      42.234  22.061  25.477  1.00  0.00     0.016 A 
ATOM     33  C   UNL A   1      42.363  21.509  27.835  1.00  0.00     0.016 A 
ATOM     34  C   UNL A   1      42.660  23.361  25.755  1.00  0.00     0.010 A 
ATOM     35  C   UNL A   1      42.806  22.809  28.108  1.00  0.00     0.010 A 
ATOM     36  C   UNL A   1      42.975  23.737  27.068  1.00  0.00    -0.014 A 
BRANCH  36  37
ATOM     37  C   UNL A   1      43.655  25.034  27.320  1.00  0.00     0.031 A 
ATOM     38  C   UNL A   1      42.841  26.168  27.880  1.00  0.00     0.074 A 
ATOM     39  C   UNL A   1      44.966  25.209  27.073  1.00  0.00     0.049 A 
ATOM     40  N   UNL A   1      43.198  27.398  28.139  1.00  0.00    -0.248 NA
ATOM     41  C   UNL A   1      41.429  25.872  28.175  1.00  0.00     0.031 C 
ATOM     42  C   UNL A   1      45.867  24.192  26.540  1.00  0.00     0.029 A 
ATOM     43  N   UNL A   1      45.769  26.312  27.242  1.00  0.00    -0.354 N 
ATOM     44  C   UNL A   1      42.053  28.031  28.608  1.00  0.00     0.074 A 
ATOM     45  C   UNL A   1      40.989  27.051  28.587  1.00  0.00     0.031 C 
ATOM     46  C   UNL A   1      47.106  24.708  26.450  1.00  0.00     0.029 A 
ATOM     47  C   UNL A   1      47.076  26.111  26.863  1.00  0.00     0.049 A 
ATOM     48  H   UNL A   1      45.439  27.167  27.602  1.00  0.00     0.167 HD
ATOM     49  C   UNL A   1      41.899  29.314  29.012  1.00  0.00     0.037 A 
ATOM     50  C   UNL A   1      48.120  26.967  26.827  1.00  0.00     0.037 A 
ATOM     51  C   UNL A   1      42.954  30.295  29.011  1.00  0.00     0.049 A 
ATOM     52  C   UNL A   1      47.913  28.407  27.239  1.00  0.00     0.074 A 
ATOM     53  C   UNL A   1      42.890  31.624  29.392  1.00  0.00     0.029 A 
ATOM     54  N   UNL A   1      44.257  30.060  28.599  1.00  0.00    -0.354 N 
ATOM     55  N   UNL A   1      46.827  28.992  27.686  1.00  0.00    -0.248 NA
ATOM     56  C   UNL A   1      49.071  29.307  27.123  1.00  0.00     0.031 C 
ATOM     57  C   UNL A   1      44.140  32.207  29.158  1.00  0.00     0.029 A 
ATOM     58  C   UNL A   1      45.001  31.225  28.694  1.00  0.00     0.049 A 
ATOM     59  H   UNL A   1      44.603  29.194  28.285  1.00  0.00     0.167 HD
ATOM     60  C   UNL A   1      47.175  30.321  27.918  1.00  0.00     0.074 A 
ATOM     61  C   UNL A   1      48.577  30.448  27.584  1.00  0.00     0.031 C 
ATOM     62  C   UNL A   1      46.402  31.342  28.364  1.00  0.00     0.037 A 
BRANCH  49  63
ATOM     63  C   UNL A   1      40.524  29.741  29.446  1.00  0.00     0.058 A 
ATOM     64  C   UNL A   1      40.214  29.987  30.793  1.00  0.00     0.135 A 
ATOM     65  C   UNL A   1      39.505  29.919  28.496  1.00  0.00     0.135 A 
ATOM     66  F   UNL A   1      41.144  29.811  31.745  1.00  0.00    -0.206 F 
ATOM     67  C   UNL A   1      38.934  30.364  31.185  1.00  0.00     0.059 A 
ATOM     68  C   UNL A   1      38.226  30.327  28.863  1.00  0.00     0.059 A 
ATOM     69  F   UNL A   1      39.745  29.693  27.195  1.00  0.00    -0.206 F 
ATOM     70  C   UNL A   1      37.946  30.531  30.213  1.00  0.00     0.060 A 
BRANCH  70  71
ATOM     71  S   UNL A   1      36.291  31.017  30.741  1.00  0.00     0.124 S 
ATOM     72  O   UNL A   1      35.997  30.000  31.747  1.00  0.00    -0.237 OA
ATOM     73  O   UNL A   1      36.510  32.366  31.251  1.00  0.00    -0.237 OA
ATOM     74  O   UNL A   1      35.503  30.930  29.516  1.00  0.00    -0.744 OA
ENDBRANCH  70  71
ENDBRANCH  49  63
BRANCH  50  75
ATOM     75  C   UNL A   1      49.455  26.504  26.350  1.00  0.00     0.058 A 
ATOM     76  C   UNL A   1      50.328  25.801  27.194  1.00  0.00     0.135 A 
ATOM     77  C   UNL A   1      49.894  26.772  25.043  1.00  0.00     0.135 A 
ATOM     78  F   UNL A   1      49.968  25.539  28.461  1.00  0.00    -0.206 F 
ATOM     79  C   UNL A   1      51.589  25.391  26.767  1.00  0.00     0.059 A 
ATOM     80  C   UNL A   1      51.136  26.344  24.583  1.00  0.00     0.059 A 
ATOM     81  F   UNL A   1      49.102  27.441  24.191  1.00  0.00    -0.206 F 
ATOM     82  C   UNL A   1      51.982  25.664  25.457  1.00  0.00     0.060 A 
BRANCH  82  83
ATOM     83  S   UNL A   1      53.600  25.088  24.895  1.00  0.00     0.124 S 
ATOM     84  O   UNL A   1      53.557  23.679  25.267  1.00  0.00    -0.237 OA
ATOM     85  O   UNL A   1      53.548  25.373  23.465  1.00  0.00    -0.237 OA
ATOM     86  O   UNL A   1      54.532  25.914  25.658  1.00  0.00    -0.744 OA
ENDBRANCH  82  83
ENDBRANCH  50  75
BRANCH  62  87
ATOM     87  C   UNL A   1      47.053  32.689  28.554  1.00  0.00     0.058 A 
ATOM     88  C   UNL A   1      47.052  33.665  27.545  1.00  0.00     0.135 A 
ATOM     89  C   UNL A   1      47.629  33.031  29.790  1.00  0.00     0.135 A 
ATOM     90  F   UNL A   1      46.518  33.394  26.344  1.00  0.00    -0.206 F 
ATOM     91  C   UNL A   1      47.618  34.921  27.745  1.00  0.00     0.059 A 
ATOM     92  C   UNL A   1      48.173  34.291  30.023  1.00  0.00     0.059 A 
ATOM     93  F   UNL A   1      47.647  32.142  30.796  1.00  0.00    -0.206 F 
ATOM     94  C   UNL A   1      48.173  35.227  28.991  1.00  0.00     0.060 A 
BRANCH  94  95
ATOM     95  S   UNL A   1      48.870  36.872  29.249  1.00  0.00     0.124 S 
ATOM     96  O   UNL A   1      50.189  36.555  29.784  1.00  0.00    -0.237 OA
ATOM     97  O   UNL A   1      48.851  37.434  27.902  1.00  0.00    -0.237 OA
ATOM     98  O   UNL A   1      47.943  37.491  30.192  1.00  0.00    -0.744 OA
ENDBRANCH  94  95
ENDBRANCH  62  87
ENDBRANCH  36  37
ENDBRANCH  29  31
ENDBRANCH  28  29
ENDBRANCH  27  28
ENDBRANCH  26  27
ENDBRANCH  25  26
ENDBRANCH  24  25
ENDBRANCH   1  24
TORSDOF 24
ENDMDL
MODEL 2
REMARK VINA RESULT:     -10.1      5.834      8.683
REMARK SMILES C[C@@H](C(=O)OCCOCCOCCOC(=O)c1ccc(-c2c3nc(c(-c4c(F)cc(S(=O)(=O)[O-])cc4F)c4ccc([nH]4)c(-c4c(F)cc(S(=O)(=O)[O-])cc4F)c4nc(c(-c5c(F)cc(S(=O)(=O)[O-])cc5F)c5ccc2[nH]5)C=C4)C=C3)cc1)c1ccc(C[C@H]2CCC[C@@H]2O)cc1
REMARK SMILES IDX 9 1 8 2 7 3 6 4 5 5 3 6 4 7 2 8 1 9 83 10 84 11 95 12 85 13
REMARK SMILES IDX 94 14 86 15 87 16 88 17 89 18 92 19 90 20 91 21 93 22 10 24
REMARK SMILES IDX 11 25 12 26 13 27 14 28 15 29 16 30 17 31 18 32 82 33 19 34
REMARK SMILES IDX 81 35 20 36 21 37 22 38 75 39 23 40 80 41 74 42 76 43 24 44
REMARK SMILES IDX 79 45 73 46 72 47 25 49 59 50 38 51 58 52 39 53 42 54 57 55
REMARK SMILES IDX 77 56 40 57 41 58 56 60 78 61 43 62 26 63 27 64 36 65 28 66
REMARK SMILES IDX 29 67 35 68 37 69 30 70 31 71 32 72 33 73 34 74 60 75 61 76
REMARK SMILES IDX 70 77 62 78 63 79 69 80 71 81 64 82 65 83 66 84 67 85 68 86
REMARK SMILES IDX 44 87 45 88 54 89 46 90 47 91 53 92 55 93 48 94 49 95 50 96
REMARK SMILES IDX 51 97 52 98
REMARK H PARENT 93 23 76 48 42 59
REMARK Flexibility Score: inf
ROOT
ATOM      1  C   UNL A   1      40.672  21.477  27.279  1.00  0.00     0.188 C 
ENDROOT
BRANCH   1   2
ATOM      2  O   UNL A   1      39.688  22.493  27.306  1.00  0.00    -0.376 OA
BRANCH   2   3
ATOM      3  C   UNL A   1      38.979  22.777  26.107  1.00  0.00     0.202 C 
BRANCH   3   4
ATOM      4  C   UNL A   1      37.492  22.408  25.959  1.00  0.00     0.261 C 
BRANCH   4   5
ATOM      5  O   UNL A   1      36.558  23.494  26.143  1.00  0.00    -0.463 OA
BRANCH   5   6
ATOM      6  C   UNL A   1      35.248  23.139  26.276  1.00  0.00     0.313 C 
ATOM      7  O   UNL A   1      34.758  22.764  27.337  1.00  0.00    -0.252 OA
BRANCH   6   8
ATOM      8  C   UNL A   1      34.423  23.214  24.979  1.00  0.00     0.126 C 
ATOM      9  C   UNL A   1      34.930  22.477  23.735  1.00  0.00     0.025 C 
BRANCH   8  10
ATOM     10  C   UNL A   1      34.035  24.648  24.634  1.00  0.00    -0.034 A 
ATOM     11  C   UNL A   1      33.939  25.049  23.297  1.00  0.00     0.005 A 
ATOM     12  C   UNL A   1      33.760  25.600  25.624  1.00  0.00     0.005 A 
ATOM     13  C   UNL A   1      33.583  26.363  22.969  1.00  0.00     0.004 A 
ATOM     14  C   UNL A   1      33.415  26.911  25.296  1.00  0.00     0.004 A 
ATOM     15  C   UNL A   1      33.352  27.317  23.964  1.00  0.00    -0.048 A 
BRANCH  15  16
ATOM     16  C   UNL A   1      33.062  28.763  23.630  1.00  0.00     0.041 C 
BRANCH  16  17
ATOM     17  C   UNL A   1      31.628  29.063  23.163  1.00  0.00     0.022 C 
ATOM     18  C   UNL A   1      30.896  27.928  22.426  1.00  0.00     0.007 C 
ATOM     19  C   UNL A   1      30.662  29.473  24.274  1.00  0.00     0.117 C 
ATOM     20  C   UNL A   1      29.424  28.037  22.843  1.00  0.00     0.003 C 
ATOM     21  C   UNL A   1      29.306  29.351  23.601  1.00  0.00     0.032 C 
BRANCH  19  22
ATOM     22  O   UNL A   1      30.925  30.786  24.723  1.00  0.00    -0.393 OA
ATOM     23  H   UNL A   1      31.448  30.750  25.540  1.00  0.00     0.210 HD
ENDBRANCH  19  22
ENDBRANCH  16  17
ENDBRANCH  15  16
ENDBRANCH   8  10
ENDBRANCH   6   8
ENDBRANCH   5   6
ENDBRANCH   4   5
ENDBRANCH   3   4
ENDBRANCH   2   3
ENDBRANCH   1   2
BRANCH   1  24
ATOM     24  C   UNL A   1      41.325  21.130  25.934  1.00  0.00     0.188 C 
BRANCH  24  25
ATOM     25  O   UNL A   1      42.722  21.187  25.806  1.00  0.00    -0.376 OA
BRANCH  25  26
ATOM     26  C   UNL A   1      43.362  22.342  25.305  1.00  0.00     0.202 C 
BRANCH  26  27
ATOM     27  C   UNL A   1      43.537  23.674  26.057  1.00  0.00     0.261 C 
BRANCH  27  28
ATOM     28  O   UNL A   1      42.374  24.404  26.450  1.00  0.00    -0.460 OA
BRANCH  28  29
ATOM     29  C   UNL A   1      42.298  25.685  26.018  1.00  0.00     0.338 C 
ATOM     30  O   UNL A   1      42.378  26.075  24.864  1.00  0.00    -0.246 OA
BRANCH  29  31
ATOM     31  C   UNL A   1      41.887  26.529  27.163  1.00  0.00     0.060 A 
ATOM     32  C   UNL A   1      42.486  27.785  27.322  1.00  0.00     0.016 A 
ATOM     33  C   UNL A   1      40.917  26.092  28.069  1.00  0.00     0.016 A 
ATOM     34  C   UNL A   1      42.129  28.595  28.402  1.00  0.00     0.010 A 
ATOM     35  C   UNL A   1      40.574  26.900  29.159  1.00  0.00     0.010 A 
ATOM     36  C   UNL A   1      41.191  28.148  29.343  1.00  0.00    -0.014 A 
BRANCH  36  37
ATOM     37  C   UNL A   1      41.000  28.904  30.609  1.00  0.00     0.031 A 
ATOM     38  C   UNL A   1      39.886  29.912  30.675  1.00  0.00     0.074 A 
ATOM     39  C   UNL A   1      41.784  28.699  31.683  1.00  0.00     0.049 A 
ATOM     40  N   UNL A   1      39.555  30.720  31.647  1.00  0.00    -0.248 NA
ATOM     41  C   UNL A   1      39.043  30.031  29.475  1.00  0.00     0.031 C 
ATOM     42  C   UNL A   1      42.889  27.747  31.753  1.00  0.00     0.029 A 
ATOM     43  N   UNL A   1      41.765  29.281  32.928  1.00  0.00    -0.354 N 
ATOM     44  C   UNL A   1      38.478  31.457  31.172  1.00  0.00     0.074 A 
ATOM     45  C   UNL A   1      38.220  31.008  29.821  1.00  0.00     0.031 C 
ATOM     46  C   UNL A   1      43.427  27.790  32.985  1.00  0.00     0.029 A 
ATOM     47  C   UNL A   1      42.743  28.815  33.775  1.00  0.00     0.049 A 
ATOM     48  H   UNL A   1      41.110  29.969  33.190  1.00  0.00     0.167 HD
ATOM     49  C   UNL A   1      37.771  32.427  31.800  1.00  0.00     0.037 A 
ATOM     50  C   UNL A   1      43.069  29.189  35.031  1.00  0.00     0.037 A 
ATOM     51  C   UNL A   1      38.043  32.889  33.137  1.00  0.00     0.049 A 
ATOM     52  C   UNL A   1      42.295  30.306  35.695  1.00  0.00     0.074 A 
ATOM     53  C   UNL A   1      37.388  33.877  33.853  1.00  0.00     0.029 A 
ATOM     54  N   UNL A   1      39.055  32.409  33.953  1.00  0.00    -0.354 N 
ATOM     55  N   UNL A   1      41.275  30.993  35.236  1.00  0.00    -0.248 NA
ATOM     56  C   UNL A   1      42.731  30.712  37.040  1.00  0.00     0.031 C 
ATOM     57  C   UNL A   1      38.039  34.031  35.081  1.00  0.00     0.029 A 
ATOM     58  C   UNL A   1      39.059  33.095  35.157  1.00  0.00     0.049 A 
ATOM     59  H   UNL A   1      39.681  31.688  33.713  1.00  0.00     0.167 HD
ATOM     60  C   UNL A   1      40.939  31.898  36.241  1.00  0.00     0.074 A 
ATOM     61  C   UNL A   1      41.850  31.657  37.340  1.00  0.00     0.031 C 
ATOM     62  C   UNL A   1      39.967  32.845  36.250  1.00  0.00     0.037 A 
BRANCH  49  63
ATOM     63  C   UNL A   1      36.663  33.086  31.025  1.00  0.00     0.058 A 
ATOM     64  C   UNL A   1      35.311  32.800  31.275  1.00  0.00     0.135 A 
ATOM     65  C   UNL A   1      36.959  34.028  30.026  1.00  0.00     0.135 A 
ATOM     66  F   UNL A   1      34.972  31.891  32.203  1.00  0.00    -0.206 F 
ATOM     67  C   UNL A   1      34.295  33.401  30.540  1.00  0.00     0.059 A 
ATOM     68  C   UNL A   1      35.957  34.664  29.301  1.00  0.00     0.059 A 
ATOM     69  F   UNL A   1      38.235  34.335  29.743  1.00  0.00    -0.206 F 
ATOM     70  C   UNL A   1      34.628  34.332  29.555  1.00  0.00     0.060 A 
BRANCH  70  71
ATOM     71  S   UNL A   1      33.296  35.099  28.609  1.00  0.00     0.124 S 
ATOM     72  O   UNL A   1      32.733  33.945  27.913  1.00  0.00    -0.237 OA
ATOM     73  O   UNL A   1      32.461  35.675  29.658  1.00  0.00    -0.237 OA
ATOM     74  O   UNL A   1      33.990  36.063  27.762  1.00  0.00    -0.744 OA
ENDBRANCH  70  71
ENDBRANCH  49  63
BRANCH  50  75
ATOM     75  C   UNL A   1      44.203  28.533  35.742  1.00  0.00     0.058 A 
ATOM     76  C   UNL A   1      45.525  28.970  35.566  1.00  0.00     0.135 A 
ATOM     77  C   UNL A   1      43.991  27.441  36.599  1.00  0.00     0.135 A 
ATOM     78  F   UNL A   1      45.787  29.994  34.739  1.00  0.00    -0.206 F 
ATOM     79  C   UNL A   1      46.595  28.344  36.202  1.00  0.00     0.059 A 
ATOM     80  C   UNL A   1      45.040  26.820  37.272  1.00  0.00     0.059 A 
ATOM     81  F   UNL A   1      42.748  26.979  36.805  1.00  0.00    -0.206 F 
ATOM     82  C   UNL A   1      46.340  27.272  37.057  1.00  0.00     0.060 A 
BRANCH  82  83
ATOM     83  S   UNL A   1      47.728  26.495  37.915  1.00  0.00     0.124 S 
ATOM     84  O   UNL A   1      47.369  25.084  37.838  1.00  0.00    -0.237 OA
ATOM     85  O   UNL A   1      48.865  26.910  37.099  1.00  0.00    -0.237 OA
ATOM     86  O   UNL A   1      47.672  27.088  39.248  1.00  0.00    -0.744 OA
ENDBRANCH  82  83
ENDBRANCH  50  75
BRANCH  62  87
ATOM     87  C   UNL A   1      39.805  33.677  37.498  1.00  0.00     0.058 A 
ATOM     88  C   UNL A   1      40.468  34.903  37.665  1.00  0.00     0.135 A 
ATOM     89  C   UNL A   1      38.920  33.271  38.511  1.00  0.00     0.135 A 
ATOM     90  F   UNL A   1      41.327  35.340  36.730  1.00  0.00    -0.206 F 
ATOM     91  C   UNL A   1      40.278  35.685  38.801  1.00  0.00     0.059 A 
ATOM     92  C   UNL A   1      38.691  34.051  39.641  1.00  0.00     0.059 A 
ATOM     93  F   UNL A   1      38.249  32.114  38.400  1.00  0.00    -0.206 F 
ATOM     94  C   UNL A   1      39.383  35.252  39.783  1.00  0.00     0.060 A 
BRANCH  94  95
ATOM     95  S   UNL A   1      39.117  36.294  41.234  1.00  0.00     0.124 S 
ATOM     96  O   UNL A   1      38.864  37.594  40.622  1.00  0.00    -0.237 OA
ATOM     97  O   UNL A   1      37.967  35.658  41.868  1.00  0.00    -0.237 OA
ATOM     98  O   UNL A   1      40.373  36.181  41.970  1.00  0.00    -0.744 OA
ENDBRANCH  94  95
ENDBRANCH  62  87
ENDBRANCH  36  37
ENDBRANCH  29  31
ENDBRANCH  28  29
ENDBRANCH  27  28
ENDBRANCH  26  27
ENDBRANCH  25  26
ENDBRANCH  24  25
ENDBRANCH   1  24
TORSDOF 24
ENDMDL
MODEL 3
REMARK VINA RESULT:     -10.0      6.306      9.561
REMARK SMILES C[C@@H](C(=O)OCCOCCOCCOC(=O)c1ccc(-c2c3nc(c(-c4c(F)cc(S(=O)(=O)[O-])cc4F)c4ccc([nH]4)c(-c4c(F)cc(S(=O)(=O)[O-])cc4F)c4nc(c(-c5c(F)cc(S(=O)(=O)[O-])cc5F)c5ccc2[nH]5)C=C4)C=C3)cc1)c1ccc(C[C@H]2CCC[C@@H]2O)cc1
REMARK SMILES IDX 9 1 8 2 7 3 6 4 5 5 3 6 4 7 2 8 1 9 83 10 84 11 95 12 85 13
REMARK SMILES IDX 94 14 86 15 87 16 88 17 89 18 92 19 90 20 91 21 93 22 10 24
REMARK SMILES IDX 11 25 12 26 13 27 14 28 15 29 16 30 17 31 18 32 82 33 19 34
REMARK SMILES IDX 81 35 20 36 21 37 22 38 75 39 23 40 80 41 74 42 76 43 24 44
REMARK SMILES IDX 79 45 73 46 72 47 25 49 59 50 38 51 58 52 39 53 42 54 57 55
REMARK SMILES IDX 77 56 40 57 41 58 56 60 78 61 43 62 26 63 27 64 36 65 28 66
REMARK SMILES IDX 29 67 35 68 37 69 30 70 31 71 32 72 33 73 34 74 60 75 61 76
REMARK SMILES IDX 70 77 62 78 63 79 69 80 71 81 64 82 65 83 66 84 67 85 68 86
REMARK SMILES IDX 44 87 45 88 54 89 46 90 47 91 53 92 55 93 48 94 49 95 50 96
REMARK SMILES IDX 51 97 52 98
REMARK H PARENT 93 23 76 48 42 59
REMARK Flexibility Score: inf
ROOT
ATOM      1  C   UNL A   1      40.732  21.647  27.520  1.00  0.00     0.188 C 
ENDROOT
BRANCH   1   2
ATOM      2  O   UNL A   1      39.932  22.809  27.610  1.00  0.00    -0.376 OA
BRANCH   2   3
ATOM      3  C   UNL A   1      39.336  23.312  26.421  1.00  0.00     0.202 C 
BRANCH   3   4
ATOM      4  C   UNL A   1      37.900  22.920  26.028  1.00  0.00     0.261 C 
BRANCH   4   5
ATOM      5  O   UNL A   1      36.930  23.991  26.061  1.00  0.00    -0.463 OA
BRANCH   5   6
ATOM      6  C   UNL A   1      35.630  23.624  25.875  1.00  0.00     0.313 C 
ATOM      7  O   UNL A   1      34.825  23.515  26.796  1.00  0.00    -0.252 OA
BRANCH   6   8
ATOM      8  C   UNL A   1      35.244  23.325  24.416  1.00  0.00     0.126 C 
ATOM      9  C   UNL A   1      34.564  24.422  23.589  1.00  0.00     0.025 C 
BRANCH   8  10
ATOM     10  C   UNL A   1      34.486  22.007  24.287  1.00  0.00    -0.034 A 
ATOM     11  C   UNL A   1      33.270  21.958  23.597  1.00  0.00     0.005 A 
ATOM     12  C   UNL A   1      34.973  20.815  24.840  1.00  0.00     0.005 A 
ATOM     13  C   UNL A   1      32.567  20.754  23.472  1.00  0.00     0.004 A 
ATOM     14  C   UNL A   1      34.267  19.619  24.723  1.00  0.00     0.004 A 
ATOM     15  C   UNL A   1      33.040  19.580  24.064  1.00  0.00    -0.048 A 
BRANCH  15  16
ATOM     16  C   UNL A   1      32.247  18.292  24.022  1.00  0.00     0.041 C 
BRANCH  16  17
ATOM     17  C   UNL A   1      33.071  16.999  24.139  1.00  0.00     0.022 C 
ATOM     18  C   UNL A   1      34.599  17.151  24.056  1.00  0.00     0.007 C 
ATOM     19  C   UNL A   1      32.842  16.205  25.425  1.00  0.00     0.117 C 
ATOM     20  C   UNL A   1      35.179  16.100  25.010  1.00  0.00     0.003 C 
ATOM     21  C   UNL A   1      34.004  15.226  25.425  1.00  0.00     0.032 C 
BRANCH  19  22
ATOM     22  O   UNL A   1      31.589  15.553  25.408  1.00  0.00    -0.393 OA
ATOM     23  H   UNL A   1      31.122  15.772  24.586  1.00  0.00     0.210 HD
ENDBRANCH  19  22
ENDBRANCH  16  17
ENDBRANCH  15  16
ENDBRANCH   8  10
ENDBRANCH   6   8
ENDBRANCH   5   6
ENDBRANCH   4   5
ENDBRANCH   3   4
ENDBRANCH   2   3
ENDBRANCH   1   2
BRANCH   1  24
ATOM     24  C   UNL A   1      41.305  21.259  26.149  1.00  0.00     0.188 C 
BRANCH  24  25
ATOM     25  O   UNL A   1      42.689  21.082  26.001  1.00  0.00    -0.376 OA
BRANCH  25  26
ATOM     26  C   UNL A   1      43.495  22.083  25.415  1.00  0.00     0.202 C 
BRANCH  26  27
ATOM     27  C   UNL A   1      43.731  23.496  25.981  1.00  0.00     0.261 C 
BRANCH  27  28
ATOM     28  O   UNL A   1      42.602  24.309  26.304  1.00  0.00    -0.460 OA
BRANCH  28  29
ATOM     29  C   UNL A   1      42.681  25.612  25.944  1.00  0.00     0.338 C 
ATOM     30  O   UNL A   1      42.890  26.051  24.824  1.00  0.00    -0.246 OA
BRANCH  29  31
ATOM     31  C   UNL A   1      42.260  26.432  27.103  1.00  0.00     0.060 A 
ATOM     32  C   UNL A   1      42.729  27.748  27.201  1.00  0.00     0.016 A 
ATOM     33  C   UNL A   1      41.408  25.913  28.081  1.00  0.00     0.016 A 
ATOM     34  C   UNL A   1      42.362  28.539  28.291  1.00  0.00     0.010 A 
ATOM     35  C   UNL A   1      41.055  26.704  29.181  1.00  0.00     0.010 A 
ATOM     36  C   UNL A   1      41.545  28.015  29.303  1.00  0.00    -0.014 A 
BRANCH  36  37
ATOM     37  C   UNL A   1      41.360  28.773  30.567  1.00  0.00     0.031 A 
ATOM     38  C   UNL A   1      40.232  29.764  30.645  1.00  0.00     0.074 A 
ATOM     39  C   UNL A   1      42.162  28.585  31.632  1.00  0.00     0.049 A 
ATOM     40  N   UNL A   1      39.902  30.572  31.618  1.00  0.00    -0.248 NA
ATOM     41  C   UNL A   1      39.370  29.865  29.456  1.00  0.00     0.031 C 
ATOM     42  C   UNL A   1      43.282  27.651  31.690  1.00  0.00     0.029 A 
ATOM     43  N   UNL A   1      42.152  29.173  32.874  1.00  0.00    -0.354 N 
ATOM     44  C   UNL A   1      38.807  31.291  31.155  1.00  0.00     0.074 A 
ATOM     45  C   UNL A   1      38.537  30.832  29.810  1.00  0.00     0.031 C 
ATOM     46  C   UNL A   1      43.836  27.708  32.914  1.00  0.00     0.029 A 
ATOM     47  C   UNL A   1      43.149  28.726  33.709  1.00  0.00     0.049 A 
ATOM     48  H   UNL A   1      41.490  29.853  33.142  1.00  0.00     0.167 HD
ATOM     49  C   UNL A   1      38.094  32.253  31.789  1.00  0.00     0.037 A 
ATOM     50  C   UNL A   1      43.486  29.111  34.958  1.00  0.00     0.037 A 
ATOM     51  C   UNL A   1      38.378  32.725  33.119  1.00  0.00     0.049 A 
ATOM     52  C   UNL A   1      42.705  30.219  35.628  1.00  0.00     0.074 A 
ATOM     53  C   UNL A   1      37.718  33.706  33.840  1.00  0.00     0.029 A 
ATOM     54  N   UNL A   1      39.409  32.264  33.924  1.00  0.00    -0.354 N 
ATOM     55  N   UNL A   1      41.668  30.888  35.181  1.00  0.00    -0.248 NA
ATOM     56  C   UNL A   1      43.154  30.638  36.965  1.00  0.00     0.031 C 
ATOM     57  C   UNL A   1      38.385  33.876  35.059  1.00  0.00     0.029 A 
ATOM     58  C   UNL A   1      39.419  32.956  35.124  1.00  0.00     0.049 A 
ATOM     59  H   UNL A   1      40.042  31.551  33.678  1.00  0.00     0.167 HD
ATOM     60  C   UNL A   1      41.333  31.792  36.187  1.00  0.00     0.074 A 
ATOM     61  C   UNL A   1      42.262  31.571  37.273  1.00  0.00     0.031 C 
ATOM     62  C   UNL A   1      40.347  32.724  36.206  1.00  0.00     0.037 A 
BRANCH  49  63
ATOM     63  C   UNL A   1      36.966  32.890  31.027  1.00  0.00     0.058 A 
ATOM     64  C   UNL A   1      37.195  33.730  29.924  1.00  0.00     0.135 A 
ATOM     65  C   UNL A   1      35.633  32.646  31.398  1.00  0.00     0.135 A 
ATOM     66  F   UNL A   1      38.449  34.015  29.541  1.00  0.00    -0.206 F 
ATOM     67  C   UNL A   1      36.145  34.328  29.238  1.00  0.00     0.059 A 
ATOM     68  C   UNL A   1      34.566  33.210  30.705  1.00  0.00     0.059 A 
ATOM     69  F   UNL A   1      35.356  31.856  32.447  1.00  0.00    -0.206 F 
ATOM     70  C   UNL A   1      34.834  34.063  29.636  1.00  0.00     0.060 A 
BRANCH  70  71
ATOM     71  S   UNL A   1      33.483  34.853  28.736  1.00  0.00     0.124 S 
ATOM     72  O   UNL A   1      32.455  34.934  29.768  1.00  0.00    -0.237 OA
ATOM     73  O   UNL A   1      34.078  36.123  28.333  1.00  0.00    -0.237 OA
ATOM     74  O   UNL A   1      33.206  33.919  27.648  1.00  0.00    -0.744 OA
ENDBRANCH  70  71
ENDBRANCH  49  63
BRANCH  50  75
ATOM     75  C   UNL A   1      44.641  28.475  35.656  1.00  0.00     0.058 A 
ATOM     76  C   UNL A   1      44.467  27.350  36.476  1.00  0.00     0.135 A 
ATOM     77  C   UNL A   1      45.940  28.991  35.532  1.00  0.00     0.135 A 
ATOM     78  F   UNL A   1      43.242  26.829  36.649  1.00  0.00    -0.206 F 
ATOM     79  C   UNL A   1      45.534  26.767  37.156  1.00  0.00     0.059 A 
ATOM     80  C   UNL A   1      47.028  28.407  36.174  1.00  0.00     0.059 A 
ATOM     81  F   UNL A   1      46.166  30.067  34.762  1.00  0.00    -0.206 F 
ATOM     82  C   UNL A   1      46.813  27.301  36.994  1.00  0.00     0.060 A 
BRANCH  82  83
ATOM     83  S   UNL A   1      48.199  26.511  37.842  1.00  0.00     0.124 S 
ATOM     84  O   UNL A   1      49.278  27.458  37.586  1.00  0.00    -0.237 OA
ATOM     85  O   UNL A   1      47.720  26.446  39.219  1.00  0.00    -0.237 OA
ATOM     86  O   UNL A   1      48.316  25.223  37.164  1.00  0.00    -0.744 OA
ENDBRANCH  82  83
ENDBRANCH  50  75
BRANCH  62  87
ATOM     87  C   UNL A   1      40.189  33.560  37.451  1.00  0.00     0.058 A 
ATOM     88  C   UNL A   1      40.951  34.718  37.671  1.00  0.00     0.135 A 
ATOM     89  C   UNL A   1      39.214  33.230  38.408  1.00  0.00     0.135 A 
ATOM     90  F   UNL A   1      41.899  35.080  36.792  1.00  0.00    -0.206 F 
ATOM     91  C   UNL A   1      40.768  35.507  38.804  1.00  0.00     0.059 A 
ATOM     92  C   UNL A   1      38.992  34.021  39.531  1.00  0.00     0.059 A 
ATOM     93  F   UNL A   1      38.447  32.141  38.244  1.00  0.00    -0.206 F 
ATOM     94  C   UNL A   1      39.782  35.152  39.728  1.00  0.00     0.060 A 
BRANCH  94  95
ATOM     95  S   UNL A   1      39.529  36.205  41.173  1.00  0.00     0.124 S 
ATOM     96  O   UNL A   1      38.522  37.141  40.685  1.00  0.00    -0.237 OA
ATOM     97  O   UNL A   1      39.072  35.250  42.178  1.00  0.00    -0.237 OA
ATOM     98  O   UNL A   1      40.851  36.775  41.415  1.00  0.00    -0.744 OA
ENDBRANCH  94  95
ENDBRANCH  62  87
ENDBRANCH  36  37
ENDBRANCH  29  31
ENDBRANCH  28  29
ENDBRANCH  27  28
ENDBRANCH  26  27
ENDBRANCH  25  26
ENDBRANCH  24  25
ENDBRANCH   1  24
TORSDOF 24
ENDMDL
