MODEL 1
REMARK VINA RESULT:     -11.5      0.000      0.000
REMARK SMILES C[C@@H]1C(C(=O)OCCOCCOCCOC(=O)c2ccc(-c3c4nc(c(-c5c(F)cc(S(=O)(=O)[O-])cc5F)c5ccc([nH]5)c(-c5c(F)cc(S(=O)(=O)[O-])cc5F)c5nc(c(-c6c(F)cc(S(=O)(=O)[O-])cc6F)c6ccc3[nH]6)C=C5)C=C4)cc2)=NC2=C1C(=O)C[C@H](c1ccccc1)C2
REMARK SMILES IDX 11 1 10 2 9 3 8 4 7 5 6 6 4 7 5 8 3 9 1 10 2 11 86 12 84 13
REMARK SMILES IDX 85 14 87 15 97 16 88 17 89 18 90 19 91 20 92 21 96 22 93 23
REMARK SMILES IDX 95 24 94 25 12 26 13 27 14 28 15 29 16 30 17 31 18 32 19 33
REMARK SMILES IDX 83 34 20 35 82 36 21 37 22 38 23 39 76 40 24 41 81 42 75 43
REMARK SMILES IDX 77 44 25 45 80 46 74 47 73 48 26 50 60 51 39 52 59 53 40 54
REMARK SMILES IDX 43 55 58 56 78 57 41 58 42 59 57 61 79 62 44 63 27 64 28 65
REMARK SMILES IDX 37 66 29 67 30 68 36 69 38 70 31 71 32 72 33 73 34 74 35 75
REMARK SMILES IDX 61 76 62 77 71 78 63 79 64 80 70 81 72 82 65 83 66 84 67 85
REMARK SMILES IDX 68 86 69 87 45 88 46 89 55 90 47 91 48 92 54 93 56 94 49 95
REMARK SMILES IDX 50 96 51 97 52 98 53 99
REMARK H PARENT 77 49 43 60
REMARK Flexibility Score: inf
ROOT
ATOM      1  C   UNL A   1      41.411  20.117  27.351  1.00  0.00     0.188 C 
ENDROOT
BRANCH   1   2
ATOM      2  C   UNL A   1      41.704  21.310  26.475  1.00  0.00     0.188 C 
BRANCH   2   3
ATOM      3  O   UNL A   1      40.564  22.008  26.012  1.00  0.00    -0.376 OA
BRANCH   3   4
ATOM      4  C   UNL A   1      39.301  21.398  26.279  1.00  0.00     0.202 C 
BRANCH   4   5
ATOM      5  C   UNL A   1      38.038  21.691  25.419  1.00  0.00     0.261 C 
BRANCH   5   6
ATOM      6  O   UNL A   1      36.858  22.144  26.125  1.00  0.00    -0.459 OA
BRANCH   6   7
ATOM      7  C   UNL A   1      36.063  23.099  25.589  1.00  0.00     0.353 C 
ATOM      8  O   UNL A   1      36.426  24.141  25.110  1.00  0.00    -0.245 OA
BRANCH   7   9
ATOM      9  C   UNL A   1      34.620  22.542  25.495  1.00  0.00     0.133 C 
ATOM     10  C   UNL A   1      34.307  20.189  24.736  1.00  0.00     0.020 C 
ATOM     11  C   UNL A   1      34.179  21.654  24.339  1.00  0.00     0.078 C 
ATOM     12  C   UNL A   1      32.764  22.098  24.432  1.00  0.00     0.026 C 
ATOM     13  N   UNL A   1      33.669  22.885  26.330  1.00  0.00    -0.249 NA
ATOM     14  C   UNL A   1      32.510  22.616  25.632  1.00  0.00     0.049 C 
ATOM     15  C   UNL A   1      31.834  22.419  23.341  1.00  0.00     0.161 C 
ATOM     16  C   UNL A   1      31.195  23.283  25.906  1.00  0.00     0.065 C 
ATOM     17  O   UNL A   1      31.789  21.685  22.358  1.00  0.00    -0.294 OA
ATOM     18  C   UNL A   1      31.005  23.717  23.453  1.00  0.00     0.089 C 
ATOM     19  C   UNL A   1      31.013  24.408  24.862  1.00  0.00     0.033 C 
BRANCH  19  20
ATOM     20  C   UNL A   1      32.013  25.561  25.080  1.00  0.00    -0.044 A 
ATOM     21  C   UNL A   1      32.911  25.952  24.064  1.00  0.00     0.004 A 
ATOM     22  C   UNL A   1      32.106  26.255  26.289  1.00  0.00     0.004 A 
ATOM     23  C   UNL A   1      33.720  27.083  24.173  1.00  0.00     0.000 A 
ATOM     24  C   UNL A   1      32.934  27.383  26.412  1.00  0.00     0.000 A 
ATOM     25  C   UNL A   1      33.712  27.818  25.344  1.00  0.00     0.000 A 
ENDBRANCH  19  20
ENDBRANCH   7   9
ENDBRANCH   6   7
ENDBRANCH   5   6
ENDBRANCH   4   5
ENDBRANCH   3   4
ENDBRANCH   2   3
ENDBRANCH   1   2
BRANCH   1  26
ATOM     26  O   UNL A   1      42.417  19.110  27.304  1.00  0.00    -0.376 OA
BRANCH  26  27
ATOM     27  C   UNL A   1      42.671  18.531  26.033  1.00  0.00     0.202 C 
BRANCH  27  28
ATOM     28  C   UNL A   1      44.133  18.490  25.625  1.00  0.00     0.261 C 
BRANCH  28  29
ATOM     29  O   UNL A   1      44.761  19.764  25.643  1.00  0.00    -0.460 OA
BRANCH  29  30
ATOM     30  C   UNL A   1      44.670  20.425  24.468  1.00  0.00     0.338 C 
ATOM     31  O   UNL A   1      44.531  19.949  23.349  1.00  0.00    -0.246 OA
BRANCH  30  32
ATOM     32  C   UNL A   1      44.933  21.838  24.701  1.00  0.00     0.060 A 
ATOM     33  C   UNL A   1      45.796  22.153  25.752  1.00  0.00     0.016 A 
ATOM     34  C   UNL A   1      44.089  22.785  24.100  1.00  0.00     0.016 A 
ATOM     35  C   UNL A   1      45.641  23.374  26.358  1.00  0.00     0.010 A 
ATOM     36  C   UNL A   1      43.922  23.993  24.718  1.00  0.00     0.010 A 
ATOM     37  C   UNL A   1      44.632  24.223  25.890  1.00  0.00    -0.014 A 
BRANCH  37  38
ATOM     38  C   UNL A   1      44.361  25.412  26.651  1.00  0.00     0.031 A 
ATOM     39  C   UNL A   1      45.392  26.442  26.454  1.00  0.00     0.074 A 
ATOM     40  C   UNL A   1      43.266  25.529  27.421  1.00  0.00     0.049 A 
ATOM     41  N   UNL A   1      46.344  26.738  27.273  1.00  0.00    -0.248 NA
ATOM     42  C   UNL A   1      45.540  27.034  25.116  1.00  0.00     0.031 C 
ATOM     43  C   UNL A   1      42.098  24.648  27.496  1.00  0.00     0.029 A 
ATOM     44  N   UNL A   1      42.939  26.538  28.264  1.00  0.00    -0.354 N 
ATOM     45  C   UNL A   1      47.042  27.765  26.658  1.00  0.00     0.074 A 
ATOM     46  C   UNL A   1      46.667  27.730  25.270  1.00  0.00     0.031 C 
ATOM     47  C   UNL A   1      41.105  25.286  28.160  1.00  0.00     0.029 A 
ATOM     48  C   UNL A   1      41.609  26.555  28.659  1.00  0.00     0.049 A 
ATOM     49  H   UNL A   1      43.593  27.207  28.573  1.00  0.00     0.167 HD
ATOM     50  C   UNL A   1      47.617  28.740  27.411  1.00  0.00     0.037 A 
ATOM     51  C   UNL A   1      40.980  27.593  29.271  1.00  0.00     0.037 A 
ATOM     52  C   UNL A   1      47.770  28.310  28.785  1.00  0.00     0.049 A 
ATOM     53  C   UNL A   1      42.045  28.416  29.917  1.00  0.00     0.074 A 
ATOM     54  C   UNL A   1      48.387  27.233  29.396  1.00  0.00     0.029 A 
ATOM     55  N   UNL A   1      46.887  28.811  29.714  1.00  0.00    -0.354 N 
ATOM     56  N   UNL A   1      42.761  27.996  30.925  1.00  0.00    -0.248 NA
ATOM     57  C   UNL A   1      42.653  29.485  29.133  1.00  0.00     0.031 C 
ATOM     58  C   UNL A   1      47.510  26.852  30.454  1.00  0.00     0.029 A 
ATOM     59  C   UNL A   1      46.451  27.760  30.483  1.00  0.00     0.049 A 
ATOM     60  H   UNL A   1      46.616  29.752  29.811  1.00  0.00     0.167 HD
ATOM     61  C   UNL A   1      44.057  28.408  30.641  1.00  0.00     0.074 A 
ATOM     62  C   UNL A   1      43.914  29.391  29.567  1.00  0.00     0.031 C 
ATOM     63  C   UNL A   1      45.138  27.701  31.087  1.00  0.00     0.037 A 
BRANCH  50  64
ATOM     64  C   UNL A   1      47.628  30.195  27.009  1.00  0.00     0.058 A 
ATOM     65  C   UNL A   1      48.821  30.928  27.160  1.00  0.00     0.135 A 
ATOM     66  C   UNL A   1      46.466  30.965  26.769  1.00  0.00     0.135 A 
ATOM     67  F   UNL A   1      49.985  30.299  27.391  1.00  0.00    -0.206 F 
ATOM     68  C   UNL A   1      48.843  32.322  27.166  1.00  0.00     0.059 A 
ATOM     69  C   UNL A   1      46.475  32.351  26.716  1.00  0.00     0.059 A 
ATOM     70  F   UNL A   1      45.245  30.430  26.670  1.00  0.00    -0.206 F 
ATOM     71  C   UNL A   1      47.659  33.023  26.960  1.00  0.00     0.060 A 
BRANCH  71  72
ATOM     72  S   UNL A   1      47.661  34.818  27.069  1.00  0.00     0.124 S 
ATOM     73  O   UNL A   1      46.321  35.077  27.582  1.00  0.00    -0.237 OA
ATOM     74  O   UNL A   1      48.761  35.058  27.996  1.00  0.00    -0.237 OA
ATOM     75  O   UNL A   1      47.905  35.237  25.693  1.00  0.00    -0.744 OA
ENDBRANCH  71  72
ENDBRANCH  50  64
BRANCH  51  76
ATOM     76  C   UNL A   1      39.623  28.131  28.961  1.00  0.00     0.058 A 
ATOM     77  C   UNL A   1      38.614  28.146  29.943  1.00  0.00     0.135 A 
ATOM     78  C   UNL A   1      39.369  28.903  27.808  1.00  0.00     0.135 A 
ATOM     79  F   UNL A   1      38.764  27.442  31.075  1.00  0.00    -0.206 F 
ATOM     80  C   UNL A   1      37.469  28.943  29.828  1.00  0.00     0.059 A 
ATOM     81  C   UNL A   1      38.231  29.694  27.667  1.00  0.00     0.059 A 
ATOM     82  F   UNL A   1      40.264  28.996  26.816  1.00  0.00    -0.206 F 
ATOM     83  C   UNL A   1      37.302  29.740  28.696  1.00  0.00     0.060 A 
BRANCH  83  84
ATOM     84  S   UNL A   1      35.951  30.941  28.634  1.00  0.00     0.124 S 
ATOM     85  O   UNL A   1      35.637  31.116  30.048  1.00  0.00    -0.237 OA
ATOM     86  O   UNL A   1      36.580  32.080  27.973  1.00  0.00    -0.237 OA
ATOM     87  O   UNL A   1      34.928  30.258  27.847  1.00  0.00    -0.744 OA
ENDBRANCH  83  84
ENDBRANCH  51  76
BRANCH  63  88
ATOM     88  C   UNL A   1      44.914  26.648  32.142  1.00  0.00     0.058 A 
ATOM     89  C   UNL A   1      44.842  26.895  33.525  1.00  0.00     0.135 A 
ATOM     90  C   UNL A   1      44.651  25.337  31.716  1.00  0.00     0.135 A 
ATOM     91  F   UNL A   1      44.956  28.139  34.011  1.00  0.00    -0.206 F 
ATOM     92  C   UNL A   1      44.598  25.871  34.445  1.00  0.00     0.059 A 
ATOM     93  C   UNL A   1      44.371  24.308  32.610  1.00  0.00     0.059 A 
ATOM     94  F   UNL A   1      44.630  25.047  30.405  1.00  0.00    -0.206 F 
ATOM     95  C   UNL A   1      44.374  24.577  33.976  1.00  0.00     0.060 A 
BRANCH  95  96
ATOM     96  S   UNL A   1      44.051  23.252  35.160  1.00  0.00     0.124 S 
ATOM     97  O   UNL A   1      44.977  23.576  36.240  1.00  0.00    -0.237 OA
ATOM     98  O   UNL A   1      42.635  23.431  35.462  1.00  0.00    -0.237 OA
ATOM     99  O   UNL A   1      44.371  22.040  34.409  1.00  0.00    -0.744 OA
ENDBRANCH  95  96
ENDBRANCH  63  88
ENDBRANCH  37  38
ENDBRANCH  30  32
ENDBRANCH  29  30
ENDBRANCH  28  29
ENDBRANCH  27  28
ENDBRANCH  26  27
ENDBRANCH   1  26
TORSDOF 21
ENDMDL
MODEL 2
REMARK VINA RESULT:     -11.2      1.199      1.948
REMARK SMILES C[C@@H]1C(C(=O)OCCOCCOCCOC(=O)c2ccc(-c3c4nc(c(-c5c(F)cc(S(=O)(=O)[O-])cc5F)c5ccc([nH]5)c(-c5c(F)cc(S(=O)(=O)[O-])cc5F)c5nc(c(-c6c(F)cc(S(=O)(=O)[O-])cc6F)c6ccc3[nH]6)C=C5)C=C4)cc2)=NC2=C1C(=O)C[C@H](c1ccccc1)C2
REMARK SMILES IDX 11 1 10 2 9 3 8 4 7 5 6 6 4 7 5 8 3 9 1 10 2 11 86 12 84 13
REMARK SMILES IDX 85 14 87 15 97 16 88 17 89 18 90 19 91 20 92 21 96 22 93 23
REMARK SMILES IDX 95 24 94 25 12 26 13 27 14 28 15 29 16 30 17 31 18 32 19 33
REMARK SMILES IDX 83 34 20 35 82 36 21 37 22 38 23 39 76 40 24 41 81 42 75 43
REMARK SMILES IDX 77 44 25 45 80 46 74 47 73 48 26 50 60 51 39 52 59 53 40 54
REMARK SMILES IDX 43 55 58 56 78 57 41 58 42 59 57 61 79 62 44 63 27 64 28 65
REMARK SMILES IDX 37 66 29 67 30 68 36 69 38 70 31 71 32 72 33 73 34 74 35 75
REMARK SMILES IDX 61 76 62 77 71 78 63 79 64 80 70 81 72 82 65 83 66 84 67 85
REMARK SMILES IDX 68 86 69 87 45 88 46 89 55 90 47 91 48 92 54 93 56 94 49 95
REMARK SMILES IDX 50 96 51 97 52 98 53 99
REMARK H PARENT 77 49 43 60
REMARK Flexibility Score: inf
ROOT
ATOM      1  C   UNL A   1      40.344  21.373  26.364  1.00  0.00     0.188 C 
ENDROOT
BRANCH   1   2
ATOM      2  C   UNL A   1      39.020  21.532  25.660  1.00  0.00     0.188 C 
BRANCH   2   3
ATOM      3  O   UNL A   1      38.060  22.303  26.356  1.00  0.00    -0.376 OA
BRANCH   3   4
ATOM      4  C   UNL A   1      36.850  22.587  25.652  1.00  0.00     0.202 C 
BRANCH   4   5
ATOM      5  C   UNL A   1      35.491  22.791  26.383  1.00  0.00     0.261 C 
BRANCH   5   6
ATOM      6  O   UNL A   1      34.442  23.451  25.637  1.00  0.00    -0.459 OA
BRANCH   6   7
ATOM      7  C   UNL A   1      33.148  23.101  25.818  1.00  0.00     0.353 C 
ATOM      8  O   UNL A   1      32.670  22.634  26.818  1.00  0.00    -0.245 OA
BRANCH   7   9
ATOM      9  C   UNL A   1      32.329  23.600  24.600  1.00  0.00     0.133 C 
ATOM     10  C   UNL A   1      32.283  22.187  22.547  1.00  0.00     0.020 C 
ATOM     11  C   UNL A   1      32.847  23.456  23.175  1.00  0.00     0.078 C 
ATOM     12  C   UNL A   1      32.103  24.650  22.698  1.00  0.00     0.026 C 
ATOM     13  N   UNL A   1      31.208  24.268  24.721  1.00  0.00    -0.249 NA
ATOM     14  C   UNL A   1      31.095  24.938  23.520  1.00  0.00     0.049 C 
ATOM     15  C   UNL A   1      32.559  25.706  21.784  1.00  0.00     0.161 C 
ATOM     16  C   UNL A   1      30.304  26.198  23.336  1.00  0.00     0.065 C 
ATOM     17  O   UNL A   1      33.181  25.394  20.773  1.00  0.00    -0.294 OA
ATOM     18  C   UNL A   1      32.294  27.174  22.183  1.00  0.00     0.089 C 
ATOM     19  C   UNL A   1      31.294  27.384  23.374  1.00  0.00     0.033 C 
BRANCH  19  20
ATOM     20  C   UNL A   1      31.898  27.583  24.779  1.00  0.00    -0.044 A 
ATOM     21  C   UNL A   1      33.294  27.554  24.985  1.00  0.00     0.004 A 
ATOM     22  C   UNL A   1      31.108  27.771  25.916  1.00  0.00     0.004 A 
ATOM     23  C   UNL A   1      33.878  27.879  26.209  1.00  0.00     0.000 A 
ATOM     24  C   UNL A   1      31.691  28.079  27.156  1.00  0.00     0.000 A 
ATOM     25  C   UNL A   1      33.072  28.169  27.295  1.00  0.00     0.000 A 
ENDBRANCH  19  20
ENDBRANCH   7   9
ENDBRANCH   6   7
ENDBRANCH   5   6
ENDBRANCH   4   5
ENDBRANCH   3   4
ENDBRANCH   2   3
ENDBRANCH   1   2
BRANCH   1  26
ATOM     26  O   UNL A   1      40.892  20.062  26.269  1.00  0.00    -0.376 OA
BRANCH  26  27
ATOM     27  C   UNL A   1      42.270  19.929  26.581  1.00  0.00     0.202 C 
BRANCH  27  28
ATOM     28  C   UNL A   1      43.048  18.993  25.673  1.00  0.00     0.261 C 
BRANCH  28  29
ATOM     29  O   UNL A   1      44.387  19.410  25.445  1.00  0.00    -0.460 OA
BRANCH  29  30
ATOM     30  C   UNL A   1      44.554  20.065  24.275  1.00  0.00     0.338 C 
ATOM     31  O   UNL A   1      44.542  19.596  23.145  1.00  0.00    -0.246 OA
BRANCH  30  32
ATOM     32  C   UNL A   1      44.929  21.444  24.557  1.00  0.00     0.060 A 
ATOM     33  C   UNL A   1      45.768  21.657  25.652  1.00  0.00     0.016 A 
ATOM     34  C   UNL A   1      44.196  22.475  23.948  1.00  0.00     0.016 A 
ATOM     35  C   UNL A   1      45.694  22.872  26.284  1.00  0.00     0.010 A 
ATOM     36  C   UNL A   1      44.107  23.679  24.591  1.00  0.00     0.010 A 
ATOM     37  C   UNL A   1      44.783  23.817  25.797  1.00  0.00    -0.014 A 
BRANCH  37  38
ATOM     38  C   UNL A   1      44.582  25.007  26.579  1.00  0.00     0.031 A 
ATOM     39  C   UNL A   1      45.658  25.990  26.375  1.00  0.00     0.074 A 
ATOM     40  C   UNL A   1      43.510  25.165  27.372  1.00  0.00     0.049 A 
ATOM     41  N   UNL A   1      46.637  26.230  27.179  1.00  0.00    -0.248 NA
ATOM     42  C   UNL A   1      45.808  26.592  25.042  1.00  0.00     0.031 C 
ATOM     43  C   UNL A   1      42.303  24.339  27.459  1.00  0.00     0.029 A 
ATOM     44  N   UNL A   1      43.247  26.176  28.234  1.00  0.00    -0.354 N 
ATOM     45  C   UNL A   1      47.372  27.231  26.564  1.00  0.00     0.074 A 
ATOM     46  C   UNL A   1      46.970  27.233  25.183  1.00  0.00     0.031 C 
ATOM     47  C   UNL A   1      41.354  25.013  28.150  1.00  0.00     0.029 A 
ATOM     48  C   UNL A   1      41.926  26.250  28.655  1.00  0.00     0.049 A 
ATOM     49  H   UNL A   1      43.937  26.809  28.538  1.00  0.00     0.167 HD
ATOM     50  C   UNL A   1      48.006  28.168  27.318  1.00  0.00     0.037 A 
ATOM     51  C   UNL A   1      41.359  27.308  29.292  1.00  0.00     0.037 A 
ATOM     52  C   UNL A   1      48.164  27.713  28.682  1.00  0.00     0.049 A 
ATOM     53  C   UNL A   1      42.474  28.072  29.928  1.00  0.00     0.074 A 
ATOM     54  C   UNL A   1      48.742  26.600  29.268  1.00  0.00     0.029 A 
ATOM     55  N   UNL A   1      47.324  28.241  29.635  1.00  0.00    -0.354 N 
ATOM     56  N   UNL A   1      43.188  27.604  30.917  1.00  0.00    -0.248 NA
ATOM     57  C   UNL A   1      43.117  29.122  29.146  1.00  0.00     0.031 C 
ATOM     58  C   UNL A   1      47.868  26.245  30.338  1.00  0.00     0.029 A 
ATOM     59  C   UNL A   1      46.854  27.202  30.400  1.00  0.00     0.049 A 
ATOM     60  H   UNL A   1      47.100  29.192  29.749  1.00  0.00     0.167 HD
ATOM     61  C   UNL A   1      44.496  27.959  30.612  1.00  0.00     0.074 A 
ATOM     62  C   UNL A   1      44.379  28.962  29.554  1.00  0.00     0.031 C 
ATOM     63  C   UNL A   1      45.551  27.196  31.028  1.00  0.00     0.037 A 
BRANCH  50  64
ATOM     64  C   UNL A   1      48.078  29.626  26.934  1.00  0.00     0.058 A 
ATOM     65  C   UNL A   1      49.310  30.297  27.059  1.00  0.00     0.135 A 
ATOM     66  C   UNL A   1      46.950  30.457  26.739  1.00  0.00     0.135 A 
ATOM     67  F   UNL A   1      50.448  29.607  27.247  1.00  0.00    -0.206 F 
ATOM     68  C   UNL A   1      49.402  31.688  27.082  1.00  0.00     0.059 A 
ATOM     69  C   UNL A   1      47.027  31.841  26.704  1.00  0.00     0.059 A 
ATOM     70  F   UNL A   1      45.701  29.984  26.670  1.00  0.00    -0.206 F 
ATOM     71  C   UNL A   1      48.250  32.449  26.921  1.00  0.00     0.060 A 
BRANCH  71  72
ATOM     72  S   UNL A   1      48.344  34.240  27.052  1.00  0.00     0.124 S 
ATOM     73  O   UNL A   1      47.393  34.501  28.126  1.00  0.00    -0.237 OA
ATOM     74  O   UNL A   1      49.752  34.440  27.380  1.00  0.00    -0.237 OA
ATOM     75  O   UNL A   1      47.944  34.695  25.725  1.00  0.00    -0.744 OA
ENDBRANCH  71  72
ENDBRANCH  50  64
BRANCH  51  76
ATOM     76  C   UNL A   1      40.024  27.913  29.016  1.00  0.00     0.058 A 
ATOM     77  C   UNL A   1      39.057  28.021  30.035  1.00  0.00     0.135 A 
ATOM     78  C   UNL A   1      39.767  28.659  27.846  1.00  0.00     0.135 A 
ATOM     79  F   UNL A   1      39.214  27.348  31.185  1.00  0.00    -0.206 F 
ATOM     80  C   UNL A   1      37.956  28.880  29.936  1.00  0.00     0.059 A 
ATOM     81  C   UNL A   1      38.671  29.510  27.720  1.00  0.00     0.059 A 
ATOM     82  F   UNL A   1      40.625  28.666  26.817  1.00  0.00    -0.206 F 
ATOM     83  C   UNL A   1      37.789  29.645  28.783  1.00  0.00     0.060 A 
BRANCH  83  84
ATOM     84  S   UNL A   1      36.507  30.921  28.730  1.00  0.00     0.124 S 
ATOM     85  O   UNL A   1      37.298  32.139  28.596  1.00  0.00    -0.237 OA
ATOM     86  O   UNL A   1      35.731  30.531  27.558  1.00  0.00    -0.237 OA
ATOM     87  O   UNL A   1      35.819  30.761  30.008  1.00  0.00    -0.744 OA
ENDBRANCH  83  84
ENDBRANCH  51  76
BRANCH  63  88
ATOM     88  C   UNL A   1      45.297  26.140  32.074  1.00  0.00     0.058 A 
ATOM     89  C   UNL A   1      44.836  24.838  31.809  1.00  0.00     0.135 A 
ATOM     90  C   UNL A   1      45.643  26.434  33.402  1.00  0.00     0.135 A 
ATOM     91  F   UNL A   1      44.600  24.431  30.553  1.00  0.00    -0.206 F 
ATOM     92  C   UNL A   1      44.653  23.899  32.828  1.00  0.00     0.059 A 
ATOM     93  C   UNL A   1      45.504  25.505  34.428  1.00  0.00     0.059 A 
ATOM     94  F   UNL A   1      46.159  27.635  33.712  1.00  0.00    -0.206 F 
ATOM     95  C   UNL A   1      44.981  24.247  34.138  1.00  0.00     0.060 A 
BRANCH  95  96
ATOM     96  S   UNL A   1      44.754  23.036  35.458  1.00  0.00     0.124 S 
ATOM     97  O   UNL A   1      44.235  21.884  34.729  1.00  0.00    -0.237 OA
ATOM     98  O   UNL A   1      46.103  22.893  35.995  1.00  0.00    -0.237 OA
ATOM     99  O   UNL A   1      43.801  23.686  36.355  1.00  0.00    -0.744 OA
ENDBRANCH  95  96
ENDBRANCH  63  88
ENDBRANCH  37  38
ENDBRANCH  30  32
ENDBRANCH  29  30
ENDBRANCH  28  29
ENDBRANCH  27  28
ENDBRANCH  26  27
ENDBRANCH   1  26
TORSDOF 21
ENDMDL
MODEL 3
REMARK VINA RESULT:     -11.0      2.144      3.145
REMARK SMILES C[C@@H]1C(C(=O)OCCOCCOCCOC(=O)c2ccc(-c3c4nc(c(-c5c(F)cc(S(=O)(=O)[O-])cc5F)c5ccc([nH]5)c(-c5c(F)cc(S(=O)(=O)[O-])cc5F)c5nc(c(-c6c(F)cc(S(=O)(=O)[O-])cc6F)c6ccc3[nH]6)C=C5)C=C4)cc2)=NC2=C1C(=O)C[C@H](c1ccccc1)C2
REMARK SMILES IDX 11 1 10 2 9 3 8 4 7 5 6 6 4 7 5 8 3 9 1 10 2 11 86 12 84 13
REMARK SMILES IDX 85 14 87 15 97 16 88 17 89 18 90 19 91 20 92 21 96 22 93 23
REMARK SMILES IDX 95 24 94 25 12 26 13 27 14 28 15 29 16 30 17 31 18 32 19 33
REMARK SMILES IDX 83 34 20 35 82 36 21 37 22 38 23 39 76 40 24 41 81 42 75 43
REMARK SMILES IDX 77 44 25 45 80 46 74 47 73 48 26 50 60 51 39 52 59 53 40 54
REMARK SMILES IDX 43 55 58 56 78 57 41 58 42 59 57 61 79 62 44 63 27 64 28 65
REMARK SMILES IDX 37 66 29 67 30 68 36 69 38 70 31 71 32 72 33 73 34 74 35 75
REMARK SMILES IDX 61 76 62 77 71 78 63 79 64 80 70 81 72 82 65 83 66 84 67 85
REMARK SMILES IDX 68 86 69 87 45 88 46 89 55 90 47 91 48 92 54 93 56 94 49 95
REMARK SMILES IDX 50 96 51 97 52 98 53 99
REMARK H PARENT 77 49 43 60
REMARK Flexibility Score: inf
ROOT
ATOM      1  C   UNL A   1      37.859  21.630  25.340  1.00  0.00     0.188 C 
ENDROOT
BRANCH   1   2
ATOM      2  C   UNL A   1      36.691  20.722  25.043  1.00  0.00     0.188 C 
BRANCH   2   3
ATOM      3  O   UNL A   1      35.456  21.380  24.843  1.00  0.00    -0.376 OA
BRANCH   3   4
ATOM      4  C   UNL A   1      34.565  21.400  25.958  1.00  0.00     0.202 C 
BRANCH   4   5
ATOM      5  C   UNL A   1      34.441  22.631  26.902  1.00  0.00     0.261 C 
BRANCH   5   6
ATOM      6  O   UNL A   1      33.749  23.788  26.376  1.00  0.00    -0.459 OA
BRANCH   6   7
ATOM      7  C   UNL A   1      32.400  23.873  26.451  1.00  0.00     0.353 C 
ATOM      8  O   UNL A   1      31.733  23.742  27.443  1.00  0.00    -0.245 OA
BRANCH   7   9
ATOM      9  C   UNL A   1      31.864  24.382  25.089  1.00  0.00     0.133 C 
ATOM     10  C   UNL A   1      31.699  22.761  23.202  1.00  0.00     0.020 C 
ATOM     11  C   UNL A   1      32.483  23.938  23.770  1.00  0.00     0.078 C 
ATOM     12  C   UNL A   1      32.106  25.197  23.077  1.00  0.00     0.026 C 
ATOM     13  N   UNL A   1      30.932  25.298  24.988  1.00  0.00    -0.249 NA
ATOM     14  C   UNL A   1      31.116  25.813  23.721  1.00  0.00     0.049 C 
ATOM     15  C   UNL A   1      32.901  25.992  22.131  1.00  0.00     0.161 C 
ATOM     16  C   UNL A   1      30.679  27.185  23.304  1.00  0.00     0.065 C 
ATOM     17  O   UNL A   1      33.535  25.417  21.252  1.00  0.00    -0.294 OA
ATOM     18  C   UNL A   1      32.959  27.522  22.339  1.00  0.00     0.089 C 
ATOM     19  C   UNL A   1      31.917  28.108  23.356  1.00  0.00     0.033 C 
BRANCH  19  20
ATOM     20  C   UNL A   1      32.396  28.346  24.803  1.00  0.00    -0.044 A 
ATOM     21  C   UNL A   1      31.506  28.792  25.803  1.00  0.00     0.004 A 
ATOM     22  C   UNL A   1      33.726  28.165  25.192  1.00  0.00     0.004 A 
ATOM     23  C   UNL A   1      31.869  28.871  27.148  1.00  0.00     0.000 A 
ATOM     24  C   UNL A   1      34.101  28.264  26.542  1.00  0.00     0.000 A 
ATOM     25  C   UNL A   1      33.168  28.581  27.523  1.00  0.00     0.000 A 
ENDBRANCH  19  20
ENDBRANCH   7   9
ENDBRANCH   6   7
ENDBRANCH   5   6
ENDBRANCH   4   5
ENDBRANCH   3   4
ENDBRANCH   2   3
ENDBRANCH   1   2
BRANCH   1  26
ATOM     26  O   UNL A   1      39.080  20.936  25.577  1.00  0.00    -0.376 OA
BRANCH  26  27
ATOM     27  C   UNL A   1      39.925  21.472  26.584  1.00  0.00     0.202 C 
BRANCH  27  28
ATOM     28  C   UNL A   1      41.053  20.558  27.030  1.00  0.00     0.261 C 
BRANCH  28  29
ATOM     29  O   UNL A   1      42.243  21.255  27.372  1.00  0.00    -0.460 OA
BRANCH  29  30
ATOM     30  C   UNL A   1      42.960  21.653  26.298  1.00  0.00     0.338 C 
ATOM     31  O   UNL A   1      43.387  20.961  25.383  1.00  0.00    -0.246 OA
BRANCH  30  32
ATOM     32  C   UNL A   1      43.315  23.056  26.463  1.00  0.00     0.060 A 
ATOM     33  C   UNL A   1      44.013  23.397  27.623  1.00  0.00     0.016 A 
ATOM     34  C   UNL A   1      42.678  24.007  25.650  1.00  0.00     0.016 A 
ATOM     35  C   UNL A   1      43.876  24.678  28.094  1.00  0.00     0.010 A 
ATOM     36  C   UNL A   1      42.525  25.278  26.132  1.00  0.00     0.010 A 
ATOM     37  C   UNL A   1      43.046  25.558  27.390  1.00  0.00    -0.014 A 
BRANCH  37  38
ATOM     38  C   UNL A   1      42.765  26.831  27.996  1.00  0.00     0.031 A 
ATOM     39  C   UNL A   1      43.828  27.814  27.736  1.00  0.00     0.074 A 
ATOM     40  C   UNL A   1      41.637  27.054  28.691  1.00  0.00     0.049 A 
ATOM     41  N   UNL A   1      44.745  28.186  28.563  1.00  0.00    -0.248 NA
ATOM     42  C   UNL A   1      44.054  28.245  26.348  1.00  0.00     0.031 C 
ATOM     43  C   UNL A   1      40.448  26.207  28.807  1.00  0.00     0.029 A 
ATOM     44  N   UNL A   1      41.292  28.158  29.396  1.00  0.00    -0.354 N 
ATOM     45  C   UNL A   1      45.496  29.123  27.872  1.00  0.00     0.074 A 
ATOM     46  C   UNL A   1      45.188  28.936  26.479  1.00  0.00     0.031 C 
ATOM     47  C   UNL A   1      39.438  26.934  29.342  1.00  0.00     0.029 A 
ATOM     48  C   UNL A   1      39.945  28.243  29.718  1.00  0.00     0.049 A 
ATOM     49  H   UNL A   1      41.946  28.847  29.659  1.00  0.00     0.167 HD
ATOM     50  C   UNL A   1      46.055  30.169  28.537  1.00  0.00     0.037 A 
ATOM     51  C   UNL A   1      39.311  29.355  30.175  1.00  0.00     0.037 A 
ATOM     52  C   UNL A   1      46.131  29.897  29.956  1.00  0.00     0.049 A 
ATOM     53  C   UNL A   1      40.362  30.229  30.776  1.00  0.00     0.074 A 
ATOM     54  C   UNL A   1      46.693  28.888  30.717  1.00  0.00     0.029 A 
ATOM     55  N   UNL A   1      45.215  30.516  30.776  1.00  0.00    -0.354 N 
ATOM     56  N   UNL A   1      41.018  29.915  31.861  1.00  0.00    -0.248 NA
ATOM     57  C   UNL A   1      41.031  31.191  29.908  1.00  0.00     0.031 C 
ATOM     58  C   UNL A   1      45.758  28.645  31.765  1.00  0.00     0.029 A 
ATOM     59  C   UNL A   1      44.719  29.568  31.637  1.00  0.00     0.049 A 
ATOM     60  H   UNL A   1      44.961  31.466  30.752  1.00  0.00     0.167 HD
ATOM     61  C   UNL A   1      42.335  30.270  31.598  1.00  0.00     0.074 A 
ATOM     62  C   UNL A   1      42.266  31.125  30.414  1.00  0.00     0.031 C 
ATOM     63  C   UNL A   1      43.377  29.601  32.176  1.00  0.00     0.037 A 
BRANCH  50  64
ATOM     64  C   UNL A   1      46.118  31.568  27.973  1.00  0.00     0.058 A 
ATOM     65  C   UNL A   1      47.329  32.280  28.067  1.00  0.00     0.135 A 
ATOM     66  C   UNL A   1      44.985  32.338  27.620  1.00  0.00     0.135 A 
ATOM     67  F   UNL A   1      48.469  31.649  28.396  1.00  0.00    -0.206 F 
ATOM     68  C   UNL A   1      47.394  33.664  27.916  1.00  0.00     0.059 A 
ATOM     69  C   UNL A   1      45.038  33.708  27.410  1.00  0.00     0.059 A 
ATOM     70  F   UNL A   1      43.750  31.829  27.554  1.00  0.00    -0.206 F 
ATOM     71  C   UNL A   1      46.236  34.369  27.604  1.00  0.00     0.060 A 
BRANCH  71  72
ATOM     72  S   UNL A   1      46.291  36.164  27.508  1.00  0.00     0.124 S 
ATOM     73  O   UNL A   1      47.652  36.436  27.955  1.00  0.00    -0.237 OA
ATOM     74  O   UNL A   1      46.022  36.395  26.093  1.00  0.00    -0.237 OA
ATOM     75  O   UNL A   1      45.230  36.581  28.419  1.00  0.00    -0.744 OA
ENDBRANCH  71  72
ENDBRANCH  50  64
BRANCH  51  76
ATOM     76  C   UNL A   1      37.983  29.876  29.737  1.00  0.00     0.058 A 
ATOM     77  C   UNL A   1      37.079  30.418  30.672  1.00  0.00     0.135 A 
ATOM     78  C   UNL A   1      37.688  30.128  28.381  1.00  0.00     0.135 A 
ATOM     79  F   UNL A   1      37.276  30.231  31.985  1.00  0.00    -0.206 F 
ATOM     80  C   UNL A   1      36.003  31.229  30.290  1.00  0.00     0.059 A 
ATOM     81  C   UNL A   1      36.616  30.921  27.978  1.00  0.00     0.059 A 
ATOM     82  F   UNL A   1      38.488  29.694  27.397  1.00  0.00    -0.206 F 
ATOM     83  C   UNL A   1      35.799  31.500  28.938  1.00  0.00     0.060 A 
BRANCH  83  84
ATOM     84  S   UNL A   1      34.560  32.722  28.445  1.00  0.00     0.124 S 
ATOM     85  O   UNL A   1      33.618  31.909  27.685  1.00  0.00    -0.237 OA
ATOM     86  O   UNL A   1      34.083  33.217  29.732  1.00  0.00    -0.237 OA
ATOM     87  O   UNL A   1      35.329  33.685  27.660  1.00  0.00    -0.744 OA
ENDBRANCH  83  84
ENDBRANCH  51  76
BRANCH  63  88
ATOM     88  C   UNL A   1      43.078  28.680  33.332  1.00  0.00     0.058 A 
ATOM     89  C   UNL A   1      42.884  29.093  34.662  1.00  0.00     0.135 A 
ATOM     90  C   UNL A   1      42.872  27.320  33.051  1.00  0.00     0.135 A 
ATOM     91  F   UNL A   1      42.937  30.390  34.997  1.00  0.00    -0.206 F 
ATOM     92  C   UNL A   1      42.577  28.184  35.679  1.00  0.00     0.059 A 
ATOM     93  C   UNL A   1      42.531  26.403  34.040  1.00  0.00     0.059 A 
ATOM     94  F   UNL A   1      42.969  26.871  31.789  1.00  0.00    -0.206 F 
ATOM     95  C   UNL A   1      42.412  26.837  35.358  1.00  0.00     0.060 A 
BRANCH  95  96
ATOM     96  S   UNL A   1      42.008  25.660  36.666  1.00  0.00     0.124 S 
ATOM     97  O   UNL A   1      42.167  26.472  37.867  1.00  0.00    -0.237 OA
ATOM     98  O   UNL A   1      40.640  25.273  36.336  1.00  0.00    -0.237 OA
ATOM     99  O   UNL A   1      43.004  24.604  36.492  1.00  0.00    -0.744 OA
ENDBRANCH  95  96
ENDBRANCH  63  88
ENDBRANCH  37  38
ENDBRANCH  30  32
ENDBRANCH  29  30
ENDBRANCH  28  29
ENDBRANCH  27  28
ENDBRANCH  26  27
ENDBRANCH   1  26
TORSDOF 21
ENDMDL
