MODEL 1
REMARK VINA RESULT:      -8.4      0.000      0.000
REMARK SMILES CC1=NN(c2ccc(Cl)c(C(=O)OCCOCCOCCOC(=O)c3ccc(-c4c5nc(c(-c6c(F)cc(S(=O)(=O)[O-])cc6F)c6ccc([nH]6)c(-c6c(F)cc(S(=O)(=O)[O-])cc6F)c6nc(c(-c7c(F)cc(S(=O)(=O)[O-])cc7F)c7ccc4[nH]7)C=C6)C=C5)cc3)c2)C(=O)/C1=C\c1ccccc1Cl
REMARK SMILES IDX 18 1 17 2 16 3 15 4 14 5 13 6 11 7 12 8 10 9 5 10 6 11 91 12
REMARK SMILES IDX 7 13 8 14 9 15 4 16 1 17 2 18 3 19 94 20 92 21 95 22 93 23
REMARK SMILES IDX 96 24 97 25 101 26 98 27 100 28 102 29 99 30 19 31 20 32
REMARK SMILES IDX 21 33 22 34 23 35 24 36 25 37 26 38 90 39 27 40 89 41 28 42
REMARK SMILES IDX 29 43 30 44 83 45 31 46 88 47 82 48 84 49 32 50 87 51 81 52
REMARK SMILES IDX 80 53 33 55 67 56 46 57 66 58 47 59 50 60 65 61 85 62 48 63
REMARK SMILES IDX 49 64 64 66 86 67 51 68 34 69 35 70 44 71 36 72 37 73 43 74
REMARK SMILES IDX 45 75 38 76 39 77 40 78 41 79 42 80 68 81 69 82 78 83 70 84
REMARK SMILES IDX 71 85 77 86 79 87 72 88 73 89 74 90 75 91 76 92 52 93 53 94
REMARK SMILES IDX 62 95 54 96 55 97 61 98 63 99 56 100 57 101 58 102 59 103
REMARK SMILES IDX 60 104
REMARK H PARENT 84 54 50 65
REMARK Flexibility Score: inf
ROOT
ATOM      1  C   UNL A   1      46.185  23.402  25.124  1.00  0.00     0.188 C 
ENDROOT
BRANCH   1   2
ATOM      2  C   UNL A   1      46.962  24.624  25.659  1.00  0.00     0.188 C 
BRANCH   2   3
ATOM      3  O   UNL A   1      46.275  25.823  25.974  1.00  0.00    -0.376 OA
BRANCH   3   4
ATOM      4  C   UNL A   1      46.140  26.834  24.984  1.00  0.00     0.202 C 
BRANCH   4   5
ATOM      5  C   UNL A   1      46.377  28.299  25.350  1.00  0.00     0.261 C 
BRANCH   5   6
ATOM      6  O   UNL A   1      46.299  28.520  26.763  1.00  0.00    -0.460 OA
BRANCH   6   7
ATOM      7  C   UNL A   1      45.163  29.114  27.198  1.00  0.00     0.339 C 
ATOM      8  O   UNL A   1      44.145  29.306  26.555  1.00  0.00    -0.246 OA
BRANCH   7   9
ATOM      9  C   UNL A   1      45.244  29.354  28.649  1.00  0.00     0.080 A 
ATOM     10  C   UNL A   1      44.702  30.838  30.487  1.00  0.00     0.070 A 
ATOM     11  C   UNL A   1      45.515  30.071  31.327  1.00  0.00     0.030 A 
ATOM     12  C   UNL A   1      44.543  30.467  29.151  1.00  0.00     0.045 A 
ATOM     13  C   UNL A   1      46.148  28.923  30.846  1.00  0.00     0.023 A 
ATOM     14  C   UNL A   1      46.032  28.570  29.499  1.00  0.00     0.055 A 
ATOM     15  Cl  UNL A   1      46.934  27.201  28.956  1.00  0.00    -0.083 Cl
BRANCH  10  16
ATOM     16  N   UNL A   1      44.193  32.060  30.944  1.00  0.00    -0.196 N 
ATOM     17  C   UNL A   1      42.625  34.024  33.525  1.00  0.00     0.069 C 
ATOM     18  C   UNL A   1      43.222  33.414  32.299  1.00  0.00     0.071 C 
ATOM     19  N   UNL A   1      43.575  32.154  32.184  1.00  0.00    -0.169 NA
ATOM     20  C   UNL A   1      43.485  34.176  31.062  1.00  0.00     0.065 C 
ATOM     21  C   UNL A   1      44.276  33.251  30.223  1.00  0.00     0.280 C 
ATOM     22  C   UNL A   1      42.953  35.353  30.702  1.00  0.00     0.025 C 
ATOM     23  O   UNL A   1      44.833  33.490  29.166  1.00  0.00    -0.267 OA
BRANCH  22  24
ATOM     24  C   UNL A   1      43.003  35.820  29.306  1.00  0.00    -0.006 A 
ATOM     25  C   UNL A   1      42.061  35.338  28.390  1.00  0.00     0.009 A 
ATOM     26  C   UNL A   1      43.928  36.797  28.880  1.00  0.00     0.048 A 
ATOM     27  C   UNL A   1      42.023  35.843  27.086  1.00  0.00     0.001 A 
ATOM     28  C   UNL A   1      43.881  37.301  27.579  1.00  0.00     0.021 A 
ATOM     29  Cl  UNL A   1      45.145  37.431  29.938  1.00  0.00    -0.084 Cl
ATOM     30  C   UNL A   1      42.923  36.829  26.684  1.00  0.00     0.002 A 
ENDBRANCH  22  24
ENDBRANCH  10  16
ENDBRANCH   7   9
ENDBRANCH   6   7
ENDBRANCH   5   6
ENDBRANCH   4   5
ENDBRANCH   3   4
ENDBRANCH   2   3
ENDBRANCH   1   2
BRANCH   1  31
ATOM     31  O   UNL A   1      45.127  23.546  24.199  1.00  0.00    -0.376 OA
BRANCH  31  32
ATOM     32  C   UNL A   1      43.779  23.490  24.630  1.00  0.00     0.202 C 
BRANCH  32  33
ATOM     33  C   UNL A   1      43.050  24.676  25.274  1.00  0.00     0.261 C 
BRANCH  33  34
ATOM     34  O   UNL A   1      41.836  24.369  25.962  1.00  0.00    -0.460 OA
BRANCH  34  35
ATOM     35  C   UNL A   1      41.984  24.119  27.288  1.00  0.00     0.338 C 
ATOM     36  O   UNL A   1      42.425  23.108  27.805  1.00  0.00    -0.246 OA
BRANCH  35  37
ATOM     37  C   UNL A   1      41.685  25.345  28.046  1.00  0.00     0.060 A 
ATOM     38  C   UNL A   1      42.743  26.206  28.366  1.00  0.00     0.016 A 
ATOM     39  C   UNL A   1      40.388  25.613  28.485  1.00  0.00     0.016 A 
ATOM     40  C   UNL A   1      42.510  27.328  29.156  1.00  0.00     0.010 A 
ATOM     41  C   UNL A   1      40.162  26.727  29.296  1.00  0.00     0.010 A 
ATOM     42  C   UNL A   1      41.228  27.570  29.661  1.00  0.00    -0.014 A 
BRANCH  42  43
ATOM     43  C   UNL A   1      41.031  28.590  30.718  1.00  0.00     0.031 A 
ATOM     44  C   UNL A   1      41.889  28.515  31.952  1.00  0.00     0.074 A 
ATOM     45  C   UNL A   1      40.118  29.567  30.582  1.00  0.00     0.049 A 
ATOM     46  N   UNL A   1      41.850  29.247  33.035  1.00  0.00    -0.248 NA
ATOM     47  C   UNL A   1      42.930  27.474  31.965  1.00  0.00     0.031 C 
ATOM     48  C   UNL A   1      39.258  29.768  29.417  1.00  0.00     0.029 A 
ATOM     49  N   UNL A   1      39.751  30.566  31.449  1.00  0.00    -0.354 N 
ATOM     50  C   UNL A   1      42.856  28.755  33.858  1.00  0.00     0.074 A 
ATOM     51  C   UNL A   1      43.470  27.646  33.163  1.00  0.00     0.031 C 
ATOM     52  C   UNL A   1      38.443  30.811  29.653  1.00  0.00     0.029 A 
ATOM     53  C   UNL A   1      38.703  31.331  30.995  1.00  0.00     0.049 A 
ATOM     54  H   UNL A   1      40.195  30.720  32.313  1.00  0.00     0.167 HD
ATOM     55  C   UNL A   1      43.240  29.194  35.079  1.00  0.00     0.037 A 
ATOM     56  C   UNL A   1      38.016  32.316  31.607  1.00  0.00     0.037 A 
ATOM     57  C   UNL A   1      42.621  30.293  35.773  1.00  0.00     0.049 A 
ATOM     58  C   UNL A   1      38.407  32.734  33.004  1.00  0.00     0.074 A 
ATOM     59  C   UNL A   1      42.940  30.819  37.012  1.00  0.00     0.029 A 
ATOM     60  N   UNL A   1      41.550  31.030  35.290  1.00  0.00    -0.354 N 
ATOM     61  N   UNL A   1      39.376  32.277  33.762  1.00  0.00    -0.248 NA
ATOM     62  C   UNL A   1      37.613  33.804  33.626  1.00  0.00     0.031 C 
ATOM     63  C   UNL A   1      42.035  31.846  37.296  1.00  0.00     0.029 A 
ATOM     64  C   UNL A   1      41.186  31.996  36.212  1.00  0.00     0.049 A 
ATOM     65  H   UNL A   1      41.113  30.888  34.419  1.00  0.00     0.167 HD
ATOM     66  C   UNL A   1      39.328  33.028  34.935  1.00  0.00     0.074 A 
ATOM     67  C   UNL A   1      38.242  33.971  34.782  1.00  0.00     0.031 C 
ATOM     68  C   UNL A   1      40.116  32.945  36.036  1.00  0.00     0.037 A 
BRANCH  55  69
ATOM     69  C   UNL A   1      44.374  28.475  35.753  1.00  0.00     0.058 A 
ATOM     70  C   UNL A   1      45.705  28.891  35.592  1.00  0.00     0.135 A 
ATOM     71  C   UNL A   1      44.125  27.384  36.601  1.00  0.00     0.135 A 
ATOM     72  F   UNL A   1      46.001  29.915  34.776  1.00  0.00    -0.206 F 
ATOM     73  C   UNL A   1      46.752  28.238  36.234  1.00  0.00     0.059 A 
ATOM     74  C   UNL A   1      45.154  26.732  37.272  1.00  0.00     0.059 A 
ATOM     75  F   UNL A   1      42.870  26.945  36.784  1.00  0.00    -0.206 F 
ATOM     76  C   UNL A   1      46.466  27.159  37.074  1.00  0.00     0.060 A 
BRANCH  76  77
ATOM     77  S   UNL A   1      47.835  26.336  37.915  1.00  0.00     0.124 S 
ATOM     78  O   UNL A   1      48.857  27.378  37.895  1.00  0.00    -0.237 OA
ATOM     79  O   UNL A   1      47.262  26.034  39.222  1.00  0.00    -0.237 OA
ATOM     80  O   UNL A   1      48.105  25.177  37.069  1.00  0.00    -0.744 OA
ENDBRANCH  76  77
ENDBRANCH  55  69
BRANCH  56  81
ATOM     81  C   UNL A   1      36.873  32.975  30.919  1.00  0.00     0.058 A 
ATOM     82  C   UNL A   1      35.550  32.700  31.292  1.00  0.00     0.135 A 
ATOM     83  C   UNL A   1      37.082  33.866  29.856  1.00  0.00     0.135 A 
ATOM     84  F   UNL A   1      35.300  31.848  32.297  1.00  0.00    -0.206 F 
ATOM     85  C   UNL A   1      34.471  33.262  30.617  1.00  0.00     0.059 A 
ATOM     86  C   UNL A   1      36.020  34.463  29.182  1.00  0.00     0.059 A 
ATOM     87  F   UNL A   1      38.330  34.170  29.467  1.00  0.00    -0.206 F 
ATOM     88  C   UNL A   1      34.717  34.141  29.559  1.00  0.00     0.060 A 
BRANCH  88  89
ATOM     89  S   UNL A   1      33.310  34.876  28.698  1.00  0.00     0.124 S 
ATOM     90  O   UNL A   1      32.955  33.816  27.762  1.00  0.00    -0.237 OA
ATOM     91  O   UNL A   1      32.369  35.106  29.789  1.00  0.00    -0.237 OA
ATOM     92  O   UNL A   1      33.876  36.082  28.102  1.00  0.00    -0.744 OA
ENDBRANCH  88  89
ENDBRANCH  56  81
BRANCH  68  93
ATOM     93  C   UNL A   1      39.874  33.934  37.143  1.00  0.00     0.058 A 
ATOM     94  C   UNL A   1      39.100  33.615  38.269  1.00  0.00     0.135 A 
ATOM     95  C   UNL A   1      40.480  35.201  37.103  1.00  0.00     0.135 A 
ATOM     96  F   UNL A   1      38.494  32.419  38.355  1.00  0.00    -0.206 F 
ATOM     97  C   UNL A   1      38.915  34.524  39.306  1.00  0.00     0.059 A 
ATOM     98  C   UNL A   1      40.333  36.115  38.140  1.00  0.00     0.059 A 
ATOM     99  F   UNL A   1      41.242  35.553  36.054  1.00  0.00    -0.206 F 
ATOM    100  C   UNL A   1      39.539  35.773  39.233  1.00  0.00     0.060 A 
BRANCH 100 101
ATOM    101  S   UNL A   1      39.322  36.931  40.601  1.00  0.00     0.124 S 
ATOM    102  O   UNL A   1      38.456  36.170  41.496  1.00  0.00    -0.237 OA
ATOM    103  O   UNL A   1      40.692  37.131  41.062  1.00  0.00    -0.237 OA
ATOM    104  O   UNL A   1      38.705  38.092  39.968  1.00  0.00    -0.744 OA
ENDBRANCH 100 101
ENDBRANCH  68  93
ENDBRANCH  42  43
ENDBRANCH  35  37
ENDBRANCH  34  35
ENDBRANCH  33  34
ENDBRANCH  32  33
ENDBRANCH  31  32
ENDBRANCH   1  31
TORSDOF 22
ENDMDL
MODEL 2
REMARK VINA RESULT:      -8.3      1.711      8.275
REMARK SMILES CC1=NN(c2ccc(Cl)c(C(=O)OCCOCCOCCOC(=O)c3ccc(-c4c5nc(c(-c6c(F)cc(S(=O)(=O)[O-])cc6F)c6ccc([nH]6)c(-c6c(F)cc(S(=O)(=O)[O-])cc6F)c6nc(c(-c7c(F)cc(S(=O)(=O)[O-])cc7F)c7ccc4[nH]7)C=C6)C=C5)cc3)c2)C(=O)/C1=C\c1ccccc1Cl
REMARK SMILES IDX 18 1 17 2 16 3 15 4 14 5 13 6 11 7 12 8 10 9 5 10 6 11 91 12
REMARK SMILES IDX 7 13 8 14 9 15 4 16 1 17 2 18 3 19 94 20 92 21 95 22 93 23
REMARK SMILES IDX 96 24 97 25 101 26 98 27 100 28 102 29 99 30 19 31 20 32
REMARK SMILES IDX 21 33 22 34 23 35 24 36 25 37 26 38 90 39 27 40 89 41 28 42
REMARK SMILES IDX 29 43 30 44 83 45 31 46 88 47 82 48 84 49 32 50 87 51 81 52
REMARK SMILES IDX 80 53 33 55 67 56 46 57 66 58 47 59 50 60 65 61 85 62 48 63
REMARK SMILES IDX 49 64 64 66 86 67 51 68 34 69 35 70 44 71 36 72 37 73 43 74
REMARK SMILES IDX 45 75 38 76 39 77 40 78 41 79 42 80 68 81 69 82 78 83 70 84
REMARK SMILES IDX 71 85 77 86 79 87 72 88 73 89 74 90 75 91 76 92 52 93 53 94
REMARK SMILES IDX 62 95 54 96 55 97 61 98 63 99 56 100 57 101 58 102 59 103
REMARK SMILES IDX 60 104
REMARK H PARENT 84 54 50 65
REMARK Flexibility Score: inf
ROOT
ATOM      1  C   UNL A   1      46.508  26.259  24.976  1.00  0.00     0.188 C 
ENDROOT
BRANCH   1   2
ATOM      2  C   UNL A   1      47.940  26.420  25.531  1.00  0.00     0.188 C 
BRANCH   2   3
ATOM      3  O   UNL A   1      48.220  26.107  26.884  1.00  0.00    -0.376 OA
BRANCH   3   4
ATOM      4  C   UNL A   1      47.414  26.665  27.914  1.00  0.00     0.202 C 
BRANCH   4   5
ATOM      5  C   UNL A   1      46.888  25.776  29.040  1.00  0.00     0.261 C 
BRANCH   5   6
ATOM      6  O   UNL A   1      47.630  25.950  30.253  1.00  0.00    -0.460 OA
BRANCH   6   7
ATOM      7  C   UNL A   1      46.886  26.125  31.370  1.00  0.00     0.339 C 
ATOM      8  O   UNL A   1      46.230  25.279  31.953  1.00  0.00    -0.246 OA
BRANCH   7   9
ATOM      9  C   UNL A   1      47.115  27.473  31.920  1.00  0.00     0.080 A 
ATOM     10  C   UNL A   1      46.758  29.854  31.649  1.00  0.00     0.070 A 
ATOM     11  C   UNL A   1      47.656  30.093  32.694  1.00  0.00     0.030 A 
ATOM     12  C   UNL A   1      46.465  28.542  31.275  1.00  0.00     0.045 A 
ATOM     13  C   UNL A   1      48.240  29.029  33.384  1.00  0.00     0.023 A 
ATOM     14  C   UNL A   1      47.988  27.713  32.987  1.00  0.00     0.055 A 
ATOM     15  Cl  UNL A   1      48.834  26.458  33.817  1.00  0.00    -0.083 Cl
BRANCH  10  16
ATOM     16  N   UNL A   1      46.294  30.927  30.877  1.00  0.00    -0.196 N 
ATOM     17  C   UNL A   1      46.623  33.096  28.020  1.00  0.00     0.069 C 
ATOM     18  C   UNL A   1      46.308  32.371  29.287  1.00  0.00     0.071 C 
ATOM     19  N   UNL A   1      47.010  31.373  29.774  1.00  0.00    -0.169 NA
ATOM     20  C   UNL A   1      45.154  32.703  30.144  1.00  0.00     0.065 C 
ATOM     21  C   UNL A   1      45.102  31.605  31.133  1.00  0.00     0.280 C 
ATOM     22  C   UNL A   1      44.446  33.842  30.151  1.00  0.00     0.025 C 
ATOM     23  O   UNL A   1      44.235  31.382  31.959  1.00  0.00    -0.267 OA
BRANCH  22  24
ATOM     24  C   UNL A   1      43.574  34.194  31.286  1.00  0.00    -0.006 A 
ATOM     25  C   UNL A   1      44.127  34.832  32.401  1.00  0.00     0.009 A 
ATOM     26  C   UNL A   1      42.181  33.972  31.250  1.00  0.00     0.048 A 
ATOM     27  C   UNL A   1      43.304  35.269  33.445  1.00  0.00     0.001 A 
ATOM     28  C   UNL A   1      41.363  34.415  32.292  1.00  0.00     0.021 A 
ATOM     29  Cl  UNL A   1      41.413  33.167  29.922  1.00  0.00    -0.084 Cl
ATOM     30  C   UNL A   1      41.925  35.070  33.386  1.00  0.00     0.002 A 
ENDBRANCH  22  24
ENDBRANCH  10  16
ENDBRANCH   7   9
ENDBRANCH   6   7
ENDBRANCH   5   6
ENDBRANCH   4   5
ENDBRANCH   3   4
ENDBRANCH   2   3
ENDBRANCH   1   2
BRANCH   1  31
ATOM     31  O   UNL A   1      45.998  24.995  24.605  1.00  0.00    -0.376 OA
BRANCH  31  32
ATOM     32  C   UNL A   1      44.903  24.426  25.301  1.00  0.00     0.202 C 
BRANCH  32  33
ATOM     33  C   UNL A   1      43.440  24.771  24.996  1.00  0.00     0.261 C 
BRANCH  33  34
ATOM     34  O   UNL A   1      43.017  26.089  25.351  1.00  0.00    -0.460 OA
BRANCH  34  35
ATOM     35  C   UNL A   1      41.743  26.170  25.812  1.00  0.00     0.338 C 
ATOM     36  O   UNL A   1      40.737  25.726  25.287  1.00  0.00    -0.246 OA
BRANCH  35  37
ATOM     37  C   UNL A   1      41.756  26.744  27.167  1.00  0.00     0.060 A 
ATOM     38  C   UNL A   1      40.810  26.285  28.094  1.00  0.00     0.016 A 
ATOM     39  C   UNL A   1      42.651  27.760  27.502  1.00  0.00     0.016 A 
ATOM     40  C   UNL A   1      40.737  26.867  29.356  1.00  0.00     0.010 A 
ATOM     41  C   UNL A   1      42.560  28.357  28.761  1.00  0.00     0.010 A 
ATOM     42  C   UNL A   1      41.582  27.935  29.681  1.00  0.00    -0.014 A 
BRANCH  42  43
ATOM     43  C   UNL A   1      41.324  28.735  30.902  1.00  0.00     0.031 A 
ATOM     44  C   UNL A   1      40.214  29.750  30.871  1.00  0.00     0.074 A 
ATOM     45  C   UNL A   1      42.054  28.557  32.017  1.00  0.00     0.049 A 
ATOM     46  N   UNL A   1      39.852  30.611  31.786  1.00  0.00    -0.248 NA
ATOM     47  C   UNL A   1      39.405  29.800  29.642  1.00  0.00     0.031 C 
ATOM     48  C   UNL A   1      43.126  27.578  32.182  1.00  0.00     0.029 A 
ATOM     49  N   UNL A   1      42.011  29.216  33.220  1.00  0.00    -0.354 N 
ATOM     50  C   UNL A   1      38.777  31.306  31.244  1.00  0.00     0.074 A 
ATOM     51  C   UNL A   1      38.563  30.787  29.911  1.00  0.00     0.031 C 
ATOM     52  C   UNL A   1      43.658  27.717  33.409  1.00  0.00     0.029 A 
ATOM     53  C   UNL A   1      42.985  28.815  34.103  1.00  0.00     0.049 A 
ATOM     54  H   UNL A   1      41.345  29.910  33.432  1.00  0.00     0.167 HD
ATOM     55  C   UNL A   1      38.030  32.283  31.810  1.00  0.00     0.037 A 
ATOM     56  C   UNL A   1      43.312  29.300  35.318  1.00  0.00     0.037 A 
ATOM     57  C   UNL A   1      38.252  32.804  33.133  1.00  0.00     0.049 A 
ATOM     58  C   UNL A   1      42.518  30.446  35.894  1.00  0.00     0.074 A 
ATOM     59  C   UNL A   1      37.547  33.790  33.799  1.00  0.00     0.029 A 
ATOM     60  N   UNL A   1      39.261  32.386  33.989  1.00  0.00    -0.354 N 
ATOM     61  N   UNL A   1      41.488  31.079  35.382  1.00  0.00    -0.248 NA
ATOM     62  C   UNL A   1      42.928  30.942  37.216  1.00  0.00     0.031 C 
ATOM     63  C   UNL A   1      38.154  33.998  35.041  1.00  0.00     0.029 A 
ATOM     64  C   UNL A   1      39.206  33.105  35.170  1.00  0.00     0.049 A 
ATOM     65  H   UNL A   1      39.918  31.682  33.786  1.00  0.00     0.167 HD
ATOM     66  C   UNL A   1      41.109  32.023  36.334  1.00  0.00     0.074 A 
ATOM     67  C   UNL A   1      42.013  31.872  37.454  1.00  0.00     0.031 C 
ATOM     68  C   UNL A   1      40.100  32.928  36.287  1.00  0.00     0.037 A 
BRANCH  55  69
ATOM     69  C   UNL A   1      36.911  32.864  30.993  1.00  0.00     0.058 A 
ATOM     70  C   UNL A   1      35.600  32.372  31.090  1.00  0.00     0.135 A 
ATOM     71  C   UNL A   1      37.143  33.951  30.135  1.00  0.00     0.135 A 
ATOM     72  F   UNL A   1      35.328  31.321  31.880  1.00  0.00    -0.206 F 
ATOM     73  C   UNL A   1      34.561  32.925  30.350  1.00  0.00     0.059 A 
ATOM     74  C   UNL A   1      36.113  34.536  29.405  1.00  0.00     0.059 A 
ATOM     75  F   UNL A   1      38.379  34.455  30.003  1.00  0.00    -0.206 F 
ATOM     76  C   UNL A   1      34.827  34.009  29.511  1.00  0.00     0.060 A 
BRANCH  76  77
ATOM     77  S   UNL A   1      33.462  34.728  28.573  1.00  0.00     0.124 S 
ATOM     78  O   UNL A   1      34.177  35.571  27.620  1.00  0.00    -0.237 OA
ATOM     79  O   UNL A   1      32.812  33.548  28.013  1.00  0.00    -0.237 OA
ATOM     80  O   UNL A   1      32.692  35.442  29.587  1.00  0.00    -0.744 OA
ENDBRANCH  76  77
ENDBRANCH  55  69
BRANCH  56  81
ATOM     81  C   UNL A   1      44.453  28.721  36.075  1.00  0.00     0.058 A 
ATOM     82  C   UNL A   1      45.719  29.324  36.047  1.00  0.00     0.135 A 
ATOM     83  C   UNL A   1      44.308  27.537  36.815  1.00  0.00     0.135 A 
ATOM     84  F   UNL A   1      45.908  30.453  35.347  1.00  0.00    -0.206 F 
ATOM     85  C   UNL A   1      46.809  28.760  36.702  1.00  0.00     0.059 A 
ATOM     86  C   UNL A   1      45.377  26.967  37.500  1.00  0.00     0.059 A 
ATOM     87  F   UNL A   1      43.115  26.926  36.881  1.00  0.00    -0.206 F 
ATOM     88  C   UNL A   1      46.629  27.578  37.424  1.00  0.00     0.060 A 
BRANCH  88  89
ATOM     89  S   UNL A   1      48.047  26.861  38.281  1.00  0.00     0.124 S 
ATOM     90  O   UNL A   1      48.485  25.850  37.325  1.00  0.00    -0.237 OA
ATOM     91  O   UNL A   1      48.926  28.015  38.438  1.00  0.00    -0.237 OA
ATOM     92  O   UNL A   1      47.466  26.350  39.519  1.00  0.00    -0.744 OA
ENDBRANCH  88  89
ENDBRANCH  56  81
BRANCH  68  93
ATOM     93  C   UNL A   1      39.879  33.791  37.498  1.00  0.00     0.058 A 
ATOM     94  C   UNL A   1      40.538  35.019  37.666  1.00  0.00     0.135 A 
ATOM     95  C   UNL A   1      38.944  33.411  38.475  1.00  0.00     0.135 A 
ATOM     96  F   UNL A   1      41.445  35.428  36.763  1.00  0.00    -0.206 F 
ATOM     97  C   UNL A   1      40.296  35.829  38.772  1.00  0.00     0.059 A 
ATOM     98  C   UNL A   1      38.666  34.217  39.574  1.00  0.00     0.059 A 
ATOM     99  F   UNL A   1      38.276  32.252  38.357  1.00  0.00    -0.206 F 
ATOM    100  C   UNL A   1      39.356  35.419  39.721  1.00  0.00     0.060 A 
BRANCH 100 101
ATOM    101  S   UNL A   1      39.023  36.495  41.132  1.00  0.00     0.124 S 
ATOM    102  O   UNL A   1      40.338  36.570  41.760  1.00  0.00    -0.237 OA
ATOM    103  O   UNL A   1      38.555  37.718  40.490  1.00  0.00    -0.237 OA
ATOM    104  O   UNL A   1      38.010  35.762  41.885  1.00  0.00    -0.744 OA
ENDBRANCH 100 101
ENDBRANCH  68  93
ENDBRANCH  42  43
ENDBRANCH  35  37
ENDBRANCH  34  35
ENDBRANCH  33  34
ENDBRANCH  32  33
ENDBRANCH  31  32
ENDBRANCH   1  31
TORSDOF 22
ENDMDL
MODEL 3
REMARK VINA RESULT:      -8.3      6.802     14.418
REMARK SMILES CC1=NN(c2ccc(Cl)c(C(=O)OCCOCCOCCOC(=O)c3ccc(-c4c5nc(c(-c6c(F)cc(S(=O)(=O)[O-])cc6F)c6ccc([nH]6)c(-c6c(F)cc(S(=O)(=O)[O-])cc6F)c6nc(c(-c7c(F)cc(S(=O)(=O)[O-])cc7F)c7ccc4[nH]7)C=C6)C=C5)cc3)c2)C(=O)/C1=C\c1ccccc1Cl
REMARK SMILES IDX 18 1 17 2 16 3 15 4 14 5 13 6 11 7 12 8 10 9 5 10 6 11 91 12
REMARK SMILES IDX 7 13 8 14 9 15 4 16 1 17 2 18 3 19 94 20 92 21 95 22 93 23
REMARK SMILES IDX 96 24 97 25 101 26 98 27 100 28 102 29 99 30 19 31 20 32
REMARK SMILES IDX 21 33 22 34 23 35 24 36 25 37 26 38 90 39 27 40 89 41 28 42
REMARK SMILES IDX 29 43 30 44 83 45 31 46 88 47 82 48 84 49 32 50 87 51 81 52
REMARK SMILES IDX 80 53 33 55 67 56 46 57 66 58 47 59 50 60 65 61 85 62 48 63
REMARK SMILES IDX 49 64 64 66 86 67 51 68 34 69 35 70 44 71 36 72 37 73 43 74
REMARK SMILES IDX 45 75 38 76 39 77 40 78 41 79 42 80 68 81 69 82 78 83 70 84
REMARK SMILES IDX 71 85 77 86 79 87 72 88 73 89 74 90 75 91 76 92 52 93 53 94
REMARK SMILES IDX 62 95 54 96 55 97 61 98 63 99 56 100 57 101 58 102 59 103
REMARK SMILES IDX 60 104
REMARK H PARENT 84 54 50 65
REMARK Flexibility Score: inf
ROOT
ATOM      1  C   UNL A   1      38.268  34.524  31.146  1.00  0.00     0.188 C 
ENDROOT
BRANCH   1   2
ATOM      2  C   UNL A   1      38.674  34.245  32.609  1.00  0.00     0.188 C 
BRANCH   2   3
ATOM      3  O   UNL A   1      38.015  34.911  33.672  1.00  0.00    -0.376 OA
BRANCH   3   4
ATOM      4  C   UNL A   1      37.341  34.149  34.665  1.00  0.00     0.202 C 
BRANCH   4   5
ATOM      5  C   UNL A   1      35.868  33.785  34.481  1.00  0.00     0.261 C 
BRANCH   5   6
ATOM      6  O   UNL A   1      35.395  34.107  33.168  1.00  0.00    -0.460 OA
BRANCH   6   7
ATOM      7  C   UNL A   1      34.479  33.252  32.653  1.00  0.00     0.339 C 
ATOM      8  O   UNL A   1      33.331  33.094  33.031  1.00  0.00    -0.246 OA
BRANCH   7   9
ATOM      9  C   UNL A   1      35.002  32.638  31.420  1.00  0.00     0.080 A 
ATOM     10  C   UNL A   1      36.329  30.854  30.456  1.00  0.00     0.070 A 
ATOM     11  C   UNL A   1      36.259  31.494  29.214  1.00  0.00     0.030 A 
ATOM     12  C   UNL A   1      35.679  31.411  31.557  1.00  0.00     0.045 A 
ATOM     13  C   UNL A   1      35.523  32.670  29.063  1.00  0.00     0.023 A 
ATOM     14  C   UNL A   1      34.907  33.259  30.170  1.00  0.00     0.055 A 
ATOM     15  Cl  UNL A   1      34.110  34.771  29.924  1.00  0.00    -0.083 Cl
BRANCH  10  16
ATOM     16  N   UNL A   1      37.185  29.759  30.623  1.00  0.00    -0.196 N 
ATOM     17  C   UNL A   1      38.618  27.200  32.715  1.00  0.00     0.069 C 
ATOM     18  C   UNL A   1      38.211  28.194  31.677  1.00  0.00     0.071 C 
ATOM     19  N   UNL A   1      37.361  29.176  31.871  1.00  0.00    -0.169 NA
ATOM     20  C   UNL A   1      38.731  28.178  30.295  1.00  0.00     0.065 C 
ATOM     21  C   UNL A   1      37.898  29.168  29.578  1.00  0.00     0.280 C 
ATOM     22  C   UNL A   1      39.835  27.563  29.847  1.00  0.00     0.025 C 
ATOM     23  O   UNL A   1      37.872  29.399  28.383  1.00  0.00    -0.267 OA
BRANCH  22  24
ATOM     24  C   UNL A   1      40.440  27.926  28.553  1.00  0.00    -0.006 A 
ATOM     25  C   UNL A   1      41.272  29.048  28.477  1.00  0.00     0.009 A 
ATOM     26  C   UNL A   1      40.265  27.130  27.401  1.00  0.00     0.048 A 
ATOM     27  C   UNL A   1      41.940  29.353  27.287  1.00  0.00     0.001 A 
ATOM     28  C   UNL A   1      40.940  27.435  26.217  1.00  0.00     0.021 A 
ATOM     29  Cl  UNL A   1      39.235  25.737  27.395  1.00  0.00    -0.084 Cl
ATOM     30  C   UNL A   1      41.783  28.543  26.163  1.00  0.00     0.002 A 
ENDBRANCH  22  24
ENDBRANCH  10  16
ENDBRANCH   7   9
ENDBRANCH   6   7
ENDBRANCH   5   6
ENDBRANCH   4   5
ENDBRANCH   3   4
ENDBRANCH   2   3
ENDBRANCH   1   2
BRANCH   1  31
ATOM     31  O   UNL A   1      38.949  33.924  30.063  1.00  0.00    -0.376 OA
BRANCH  31  32
ATOM     32  C   UNL A   1      40.363  33.864  30.043  1.00  0.00     0.202 C 
BRANCH  32  33
ATOM     33  C   UNL A   1      41.249  35.022  29.567  1.00  0.00     0.261 C 
BRANCH  33  34
ATOM     34  O   UNL A   1      41.109  35.400  28.197  1.00  0.00    -0.460 OA
BRANCH  34  35
ATOM     35  C   UNL A   1      41.943  36.392  27.794  1.00  0.00     0.338 C 
ATOM     36  O   UNL A   1      41.742  37.592  27.841  1.00  0.00    -0.246 OA
BRANCH  35  37
ATOM     37  C   UNL A   1      43.245  35.809  27.431  1.00  0.00     0.060 A 
ATOM     38  C   UNL A   1      43.378  35.208  26.173  1.00  0.00     0.016 A 
ATOM     39  C   UNL A   1      44.303  35.806  28.341  1.00  0.00     0.016 A 
ATOM     40  C   UNL A   1      44.567  34.570  25.830  1.00  0.00     0.010 A 
ATOM     41  C   UNL A   1      45.487  35.146  28.003  1.00  0.00     0.010 A 
ATOM     42  C   UNL A   1      45.612  34.498  26.760  1.00  0.00    -0.014 A 
BRANCH  42  43
ATOM     43  C   UNL A   1      46.758  33.592  26.513  1.00  0.00     0.031 A 
ATOM     44  C   UNL A   1      46.543  32.111  26.659  1.00  0.00     0.074 A 
ATOM     45  C   UNL A   1      47.962  34.074  26.158  1.00  0.00     0.049 A 
ATOM     46  N   UNL A   1      47.408  31.134  26.566  1.00  0.00    -0.248 NA
ATOM     47  C   UNL A   1      45.168  31.673  26.950  1.00  0.00     0.031 C 
ATOM     48  C   UNL A   1      48.282  35.484  25.945  1.00  0.00     0.029 A 
ATOM     49  N   UNL A   1      49.148  33.421  25.933  1.00  0.00    -0.354 N 
ATOM     50  C   UNL A   1      46.684  29.969  26.789  1.00  0.00     0.074 A 
ATOM     51  C   UNL A   1      45.316  30.359  27.049  1.00  0.00     0.031 C 
ATOM     52  C   UNL A   1      49.588  35.594  25.644  1.00  0.00     0.029 A 
ATOM     53  C   UNL A   1      50.201  34.266  25.674  1.00  0.00     0.049 A 
ATOM     54  H   UNL A   1      49.237  32.441  25.954  1.00  0.00     0.167 HD
ATOM     55  C   UNL A   1      47.118  28.687  26.770  1.00  0.00     0.037 A 
ATOM     56  C   UNL A   1      51.512  33.998  25.511  1.00  0.00     0.037 A 
ATOM     57  C   UNL A   1      48.482  28.301  26.520  1.00  0.00     0.049 A 
ATOM     58  C   UNL A   1      51.988  32.567  25.577  1.00  0.00     0.074 A 
ATOM     59  C   UNL A   1      49.022  27.028  26.473  1.00  0.00     0.029 A 
ATOM     60  N   UNL A   1      49.524  29.186  26.282  1.00  0.00    -0.354 N 
ATOM     61  N   UNL A   1      51.290  31.472  25.764  1.00  0.00    -0.248 NA
ATOM     62  C   UNL A   1      53.430  32.336  25.405  1.00  0.00     0.031 C 
ATOM     63  C   UNL A   1      50.397  27.145  26.249  1.00  0.00     0.029 A 
ATOM     64  C   UNL A   1      50.705  28.488  26.104  1.00  0.00     0.049 A 
ATOM     65  H   UNL A   1      49.435  30.165  26.245  1.00  0.00     0.167 HD
ATOM     66  C   UNL A   1      52.204  30.422  25.699  1.00  0.00     0.074 A 
ATOM     67  C   UNL A   1      53.501  31.012  25.447  1.00  0.00     0.031 C 
ATOM     68  C   UNL A   1      51.986  29.089  25.830  1.00  0.00     0.037 A 
BRANCH  55  69
ATOM     69  C   UNL A   1      46.110  27.606  27.041  1.00  0.00     0.058 A 
ATOM     70  C   UNL A   1      45.318  27.067  26.016  1.00  0.00     0.135 A 
ATOM     71  C   UNL A   1      45.964  27.075  28.333  1.00  0.00     0.135 A 
ATOM     72  F   UNL A   1      45.404  27.554  24.767  1.00  0.00    -0.206 F 
ATOM     73  C   UNL A   1      44.401  26.052  26.265  1.00  0.00     0.059 A 
ATOM     74  C   UNL A   1      45.071  26.042  28.599  1.00  0.00     0.059 A 
ATOM     75  F   UNL A   1      46.694  27.558  29.349  1.00  0.00    -0.206 F 
ATOM     76  C   UNL A   1      44.286  25.543  27.560  1.00  0.00     0.060 A 
BRANCH  76  77
ATOM     77  S   UNL A   1      43.105  24.212  27.861  1.00  0.00     0.124 S 
ATOM     78  O   UNL A   1      42.322  24.761  28.963  1.00  0.00    -0.237 OA
ATOM     79  O   UNL A   1      42.413  24.112  26.580  1.00  0.00    -0.237 OA
ATOM     80  O   UNL A   1      43.955  23.074  28.202  1.00  0.00    -0.744 OA
ENDBRANCH  76  77
ENDBRANCH  55  69
BRANCH  56  81
ATOM     81  C   UNL A   1      52.483  35.102  25.284  1.00  0.00     0.058 A 
ATOM     82  C   UNL A   1      52.876  35.463  23.987  1.00  0.00     0.135 A 
ATOM     83  C   UNL A   1      53.059  35.794  26.360  1.00  0.00     0.135 A 
ATOM     84  F   UNL A   1      52.359  34.823  22.928  1.00  0.00    -0.206 F 
ATOM     85  C   UNL A   1      53.828  36.452  23.764  1.00  0.00     0.059 A 
ATOM     86  C   UNL A   1      53.994  36.806  26.161  1.00  0.00     0.059 A 
ATOM     87  F   UNL A   1      52.709  35.493  27.620  1.00  0.00    -0.206 F 
ATOM     88  C   UNL A   1      54.385  37.116  24.859  1.00  0.00     0.060 A 
BRANCH  88  89
ATOM     89  S   UNL A   1      55.610  38.408  24.558  1.00  0.00     0.124 S 
ATOM     90  O   UNL A   1      56.857  37.675  24.738  1.00  0.00    -0.237 OA
ATOM     91  O   UNL A   1      55.299  38.813  23.191  1.00  0.00    -0.237 OA
ATOM     92  O   UNL A   1      55.307  39.402  25.583  1.00  0.00    -0.744 OA
ENDBRANCH  88  89
ENDBRANCH  56  81
BRANCH  68  93
ATOM     93  C   UNL A   1      53.162  28.169  25.650  1.00  0.00     0.058 A 
ATOM     94  C   UNL A   1      53.471  27.593  24.408  1.00  0.00     0.135 A 
ATOM     95  C   UNL A   1      54.028  27.909  26.725  1.00  0.00     0.135 A 
ATOM     96  F   UNL A   1      52.674  27.806  23.348  1.00  0.00    -0.206 F 
ATOM     97  C   UNL A   1      54.585  26.774  24.243  1.00  0.00     0.059 A 
ATOM     98  C   UNL A   1      55.161  27.117  26.578  1.00  0.00     0.059 A 
ATOM     99  F   UNL A   1      53.785  28.445  27.932  1.00  0.00    -0.206 F 
ATOM    100  C   UNL A   1      55.425  26.544  25.335  1.00  0.00     0.060 A 
BRANCH 100 101
ATOM    101  S   UNL A   1      56.886  25.509  25.100  1.00  0.00     0.124 S 
ATOM    102  O   UNL A   1      56.299  24.173  25.069  1.00  0.00    -0.237 OA
ATOM    103  O   UNL A   1      57.418  25.999  23.833  1.00  0.00    -0.237 OA
ATOM    104  O   UNL A   1      57.704  25.807  26.273  1.00  0.00    -0.744 OA
ENDBRANCH 100 101
ENDBRANCH  68  93
ENDBRANCH  42  43
ENDBRANCH  35  37
ENDBRANCH  34  35
ENDBRANCH  33  34
ENDBRANCH  32  33
ENDBRANCH  31  32
ENDBRANCH   1  31
TORSDOF 22
ENDMDL
