MODEL 1
REMARK VINA RESULT:     -10.3      0.000      0.000
REMARK SMILES CCOc1cc2c(cc1OCC)[C@@H](C(=O)OCCOCCOCCOC(=O)c1ccc(-c3c4nc(c(-c5c(F)cc(S(=O)(=O)[O-])cc5F)c5ccc([nH]5)c(-c5c(F)cc(S(=O)(=O)[O-])cc5F)c5nc(c(-c6c(F)cc(S(=O)(=O)[O-])cc6F)c6ccc3[nH]6)C=C5)C=C4)cc1)[C@H](c1ccc(F)cc1Cl)N(C)C2=O
REMARK SMILES IDX 21 1 20 2 19 3 18 4 17 5 16 6 14 7 15 8 13 9 4 10 5 11 9 12
REMARK SMILES IDX 6 13 8 14 7 15 105 16 103 17 106 18 94 19 104 20 3 21 2 22
REMARK SMILES IDX 1 23 10 24 11 25 12 26 95 27 96 28 101 29 97 30 100 31
REMARK SMILES IDX 102 32 98 33 99 34 22 35 23 36 24 37 25 38 26 39 27 40 28 41
REMARK SMILES IDX 29 42 93 43 30 44 92 45 31 46 32 47 33 48 86 49 34 50 91 51
REMARK SMILES IDX 85 52 87 53 35 54 90 55 84 56 83 57 36 59 70 60 49 61 69 62
REMARK SMILES IDX 50 63 53 64 68 65 88 66 51 67 52 68 67 70 89 71 54 72 37 73
REMARK SMILES IDX 38 74 47 75 39 76 40 77 46 78 48 79 41 80 42 81 43 82 44 83
REMARK SMILES IDX 45 84 71 85 72 86 81 87 73 88 74 89 80 90 82 91 75 92 76 93
REMARK SMILES IDX 77 94 78 95 79 96 55 97 56 98 65 99 57 100 58 101 64 102
REMARK SMILES IDX 66 103 59 104 60 105 61 106 62 107 63 108
REMARK H PARENT 87 58 53 69
REMARK Flexibility Score: inf
ROOT
ATOM      1  C   UNL A   1      37.383  21.815  24.771  1.00  0.00     0.188 C 
ENDROOT
BRANCH   1   2
ATOM      2  C   UNL A   1      36.433  20.771  25.357  1.00  0.00     0.188 C 
BRANCH   2   3
ATOM      3  O   UNL A   1      35.080  20.819  24.926  1.00  0.00    -0.376 OA
BRANCH   3   4
ATOM      4  C   UNL A   1      34.065  20.593  25.899  1.00  0.00     0.202 C 
BRANCH   4   5
ATOM      5  C   UNL A   1      34.204  21.292  27.262  1.00  0.00     0.261 C 
BRANCH   5   6
ATOM      6  O   UNL A   1      33.687  22.641  27.334  1.00  0.00    -0.463 OA
BRANCH   6   7
ATOM      7  C   UNL A   1      34.402  23.562  26.647  1.00  0.00     0.316 C 
ATOM      8  O   UNL A   1      35.491  23.992  27.028  1.00  0.00    -0.251 OA
BRANCH   7   9
ATOM      9  C   UNL A   1      33.760  24.117  25.374  1.00  0.00     0.157 C 
ATOM     10  C   UNL A   1      32.300  27.896  26.723  1.00  0.00     0.161 A 
ATOM     11  C   UNL A   1      31.454  26.776  26.676  1.00  0.00     0.064 A 
ATOM     12  C   UNL A   1      33.617  27.809  26.246  1.00  0.00     0.161 A 
ATOM     13  C   UNL A   1      31.933  25.550  26.252  1.00  0.00     0.048 A 
ATOM     14  C   UNL A   1      34.066  26.585  25.754  1.00  0.00     0.056 A 
ATOM     15  C   UNL A   1      33.235  25.467  25.766  1.00  0.00    -0.015 A 
ATOM     16  C   UNL A   1      31.073  24.329  26.319  1.00  0.00     0.254 C 
ATOM     17  N   UNL A   1      31.445  23.274  25.487  1.00  0.00    -0.333 N 
ATOM     18  O   UNL A   1      30.102  24.302  27.069  1.00  0.00    -0.269 OA
ATOM     19  C   UNL A   1      32.611  23.389  24.612  1.00  0.00     0.135 C 
ATOM     20  C   UNL A   1      30.633  22.071  25.443  1.00  0.00     0.147 C 
BRANCH  10  21
ATOM     21  O   UNL A   1      31.774  29.078  27.172  1.00  0.00    -0.490 OA
BRANCH  21  22
ATOM     22  C   UNL A   1      31.508  30.015  26.117  1.00  0.00     0.226 C 
ATOM     23  C   UNL A   1      31.645  31.458  26.582  1.00  0.00     0.049 C 
ENDBRANCH  21  22
ENDBRANCH  10  21
BRANCH  12  24
ATOM     24  O   UNL A   1      34.607  28.743  26.189  1.00  0.00    -0.490 OA
BRANCH  24  25
ATOM     25  C   UNL A   1      35.265  29.180  27.363  1.00  0.00     0.226 C 
ATOM     26  C   UNL A   1      35.154  30.686  27.500  1.00  0.00     0.049 C 
ENDBRANCH  24  25
ENDBRANCH  12  24
BRANCH  19  27
ATOM     27  C   UNL A   1      32.330  24.109  23.243  1.00  0.00    -0.005 A 
ATOM     28  C   UNL A   1      33.290  23.890  22.219  1.00  0.00     0.010 A 
ATOM     29  C   UNL A   1      31.299  25.037  22.936  1.00  0.00     0.049 A 
ATOM     30  C   UNL A   1      33.290  24.621  21.024  1.00  0.00     0.040 A 
ATOM     31  C   UNL A   1      31.313  25.771  21.737  1.00  0.00     0.060 A 
ATOM     32  Cl  UNL A   1      29.914  25.389  23.905  1.00  0.00    -0.084 Cl
ATOM     33  C   UNL A   1      32.312  25.573  20.806  1.00  0.00     0.124 A 
ATOM     34  F   UNL A   1      32.322  26.302  19.682  1.00  0.00    -0.207 F 
ENDBRANCH  19  27
ENDBRANCH   7   9
ENDBRANCH   6   7
ENDBRANCH   5   6
ENDBRANCH   4   5
ENDBRANCH   3   4
ENDBRANCH   2   3
ENDBRANCH   1   2
BRANCH   1  35
ATOM     35  O   UNL A   1      38.073  22.615  25.716  1.00  0.00    -0.376 OA
BRANCH  35  36
ATOM     36  C   UNL A   1      39.351  22.171  26.174  1.00  0.00     0.202 C 
BRANCH  36  37
ATOM     37  C   UNL A   1      40.071  23.017  27.243  1.00  0.00     0.261 C 
BRANCH  37  38
ATOM     38  O   UNL A   1      41.143  23.867  26.774  1.00  0.00    -0.460 OA
BRANCH  38  39
ATOM     39  C   UNL A   1      40.842  25.146  26.441  1.00  0.00     0.338 C 
ATOM     40  O   UNL A   1      40.415  25.526  25.369  1.00  0.00    -0.246 OA
BRANCH  39  41
ATOM     41  C   UNL A   1      40.838  25.981  27.681  1.00  0.00     0.060 A 
ATOM     42  C   UNL A   1      39.697  25.926  28.497  1.00  0.00     0.016 A 
ATOM     43  C   UNL A   1      41.942  26.734  28.097  1.00  0.00     0.016 A 
ATOM     44  C   UNL A   1      39.628  26.670  29.676  1.00  0.00     0.010 A 
ATOM     45  C   UNL A   1      41.871  27.488  29.279  1.00  0.00     0.010 A 
ATOM     46  C   UNL A   1      40.694  27.499  30.049  1.00  0.00    -0.014 A 
BRANCH  46  47
ATOM     47  C   UNL A   1      40.472  28.538  31.095  1.00  0.00     0.031 A 
ATOM     48  C   UNL A   1      41.335  28.493  32.332  1.00  0.00     0.074 A 
ATOM     49  C   UNL A   1      39.588  29.541  30.939  1.00  0.00     0.049 A 
ATOM     50  N   UNL A   1      41.360  29.300  33.362  1.00  0.00    -0.248 NA
ATOM     51  C   UNL A   1      42.305  27.388  32.414  1.00  0.00     0.031 C 
ATOM     52  C   UNL A   1      38.712  29.731  29.783  1.00  0.00     0.029 A 
ATOM     53  N   UNL A   1      39.284  30.598  31.765  1.00  0.00    -0.354 N 
ATOM     54  C   UNL A   1      42.341  28.801  34.212  1.00  0.00     0.074 A 
ATOM     55  C   UNL A   1      42.860  27.599  33.597  1.00  0.00     0.031 C 
ATOM     56  C   UNL A   1      37.970  30.837  29.975  1.00  0.00     0.029 A 
ATOM     57  C   UNL A   1      38.294  31.421  31.278  1.00  0.00     0.049 A 
ATOM     58  H   UNL A   1      39.733  30.752  32.628  1.00  0.00     0.167 HD
ATOM     59  C   UNL A   1      42.785  29.301  35.390  1.00  0.00     0.037 A 
ATOM     60  C   UNL A   1      37.710  32.509  31.823  1.00  0.00     0.037 A 
ATOM     61  C   UNL A   1      42.272  30.496  36.008  1.00  0.00     0.049 A 
ATOM     62  C   UNL A   1      38.175  33.012  33.169  1.00  0.00     0.074 A 
ATOM     63  C   UNL A   1      42.670  31.087  37.194  1.00  0.00     0.029 A 
ATOM     64  N   UNL A   1      41.246  31.276  35.499  1.00  0.00    -0.354 N 
ATOM     65  N   UNL A   1      39.123  32.544  33.945  1.00  0.00    -0.248 NA
ATOM     66  C   UNL A   1      37.493  34.199  33.709  1.00  0.00     0.031 C 
ATOM     67  C   UNL A   1      41.846  32.190  37.432  1.00  0.00     0.029 A 
ATOM     68  C   UNL A   1      40.980  32.328  36.360  1.00  0.00     0.049 A 
ATOM     69  H   UNL A   1      40.776  31.108  34.650  1.00  0.00     0.167 HD
ATOM     70  C   UNL A   1      39.175  33.398  35.045  1.00  0.00     0.074 A 
ATOM     71  C   UNL A   1      38.170  34.418  34.827  1.00  0.00     0.031 C 
ATOM     72  C   UNL A   1      39.983  33.346  36.134  1.00  0.00     0.037 A 
BRANCH  59  73
ATOM     73  C   UNL A   1      43.868  28.538  36.104  1.00  0.00     0.058 A 
ATOM     74  C   UNL A   1      45.225  28.878  35.976  1.00  0.00     0.135 A 
ATOM     75  C   UNL A   1      43.540  27.469  36.953  1.00  0.00     0.135 A 
ATOM     76  F   UNL A   1      45.598  29.878  35.160  1.00  0.00    -0.206 F 
ATOM     77  C   UNL A   1      46.219  28.168  36.642  1.00  0.00     0.059 A 
ATOM     78  C   UNL A   1      44.516  26.765  37.654  1.00  0.00     0.059 A 
ATOM     79  F   UNL A   1      42.260  27.097  37.109  1.00  0.00    -0.206 F 
ATOM     80  C   UNL A   1      45.854  27.114  37.480  1.00  0.00     0.060 A 
BRANCH  80  81
ATOM     81  S   UNL A   1      47.155  26.206  38.340  1.00  0.00     0.124 S 
ATOM     82  O   UNL A   1      46.840  26.500  39.736  1.00  0.00    -0.237 OA
ATOM     83  O   UNL A   1      46.911  24.833  37.911  1.00  0.00    -0.237 OA
ATOM     84  O   UNL A   1      48.384  26.811  37.835  1.00  0.00    -0.744 OA
ENDBRANCH  80  81
ENDBRANCH  59  73
BRANCH  60  85
ATOM     85  C   UNL A   1      36.608  33.207  31.100  1.00  0.00     0.058 A 
ATOM     86  C   UNL A   1      36.869  34.068  30.023  1.00  0.00     0.135 A 
ATOM     87  C   UNL A   1      35.270  33.045  31.493  1.00  0.00     0.135 A 
ATOM     88  F   UNL A   1      38.133  34.273  29.621  1.00  0.00    -0.206 F 
ATOM     89  C   UNL A   1      35.849  34.754  29.371  1.00  0.00     0.059 A 
ATOM     90  C   UNL A   1      34.229  33.696  30.836  1.00  0.00     0.059 A 
ATOM     91  F   UNL A   1      34.962  32.233  32.515  1.00  0.00    -0.206 F 
ATOM     92  C   UNL A   1      34.530  34.557  29.782  1.00  0.00     0.060 A 
BRANCH  92  93
ATOM     93  S   UNL A   1      33.208  35.412  28.895  1.00  0.00     0.124 S 
ATOM     94  O   UNL A   1      32.462  36.018  29.991  1.00  0.00    -0.237 OA
ATOM     95  O   UNL A   1      33.958  36.332  28.046  1.00  0.00    -0.237 OA
ATOM     96  O   UNL A   1      32.526  34.332  28.189  1.00  0.00    -0.744 OA
ENDBRANCH  92  93
ENDBRANCH  60  85
BRANCH  72  97
ATOM     97  C   UNL A   1      39.858  34.449  37.155  1.00  0.00     0.058 A 
ATOM     98  C   UNL A   1      40.561  35.659  37.037  1.00  0.00     0.135 A 
ATOM     99  C   UNL A   1      38.990  34.306  38.251  1.00  0.00     0.135 A 
ATOM    100  F   UNL A   1      41.404  35.853  36.011  1.00  0.00    -0.206 F 
ATOM    101  C   UNL A   1      40.440  36.668  37.989  1.00  0.00     0.059 A 
ATOM    102  C   UNL A   1      38.827  35.315  39.196  1.00  0.00     0.059 A 
ATOM    103  F   UNL A   1      38.277  33.178  38.407  1.00  0.00    -0.206 F 
ATOM    104  C   UNL A   1      39.572  36.486  39.067  1.00  0.00     0.060 A 
BRANCH 104 105
ATOM    105  S   UNL A   1      39.419  37.804  40.292  1.00  0.00     0.124 S 
ATOM    106  O   UNL A   1      40.656  38.549  40.078  1.00  0.00    -0.237 OA
ATOM    107  O   UNL A   1      38.193  38.477  39.874  1.00  0.00    -0.237 OA
ATOM    108  O   UNL A   1      39.330  37.085  41.558  1.00  0.00    -0.744 OA
ENDBRANCH 104 105
ENDBRANCH  72  97
ENDBRANCH  46  47
ENDBRANCH  39  41
ENDBRANCH  38  39
ENDBRANCH  37  38
ENDBRANCH  36  37
ENDBRANCH  35  36
ENDBRANCH   1  35
TORSDOF 25
ENDMDL
MODEL 2
REMARK VINA RESULT:      -9.3      5.386     12.833
REMARK SMILES CCOc1cc2c(cc1OCC)[C@@H](C(=O)OCCOCCOCCOC(=O)c1ccc(-c3c4nc(c(-c5c(F)cc(S(=O)(=O)[O-])cc5F)c5ccc([nH]5)c(-c5c(F)cc(S(=O)(=O)[O-])cc5F)c5nc(c(-c6c(F)cc(S(=O)(=O)[O-])cc6F)c6ccc3[nH]6)C=C5)C=C4)cc1)[C@H](c1ccc(F)cc1Cl)N(C)C2=O
REMARK SMILES IDX 21 1 20 2 19 3 18 4 17 5 16 6 14 7 15 8 13 9 4 10 5 11 9 12
REMARK SMILES IDX 6 13 8 14 7 15 105 16 103 17 106 18 94 19 104 20 3 21 2 22
REMARK SMILES IDX 1 23 10 24 11 25 12 26 95 27 96 28 101 29 97 30 100 31
REMARK SMILES IDX 102 32 98 33 99 34 22 35 23 36 24 37 25 38 26 39 27 40 28 41
REMARK SMILES IDX 29 42 93 43 30 44 92 45 31 46 32 47 33 48 86 49 34 50 91 51
REMARK SMILES IDX 85 52 87 53 35 54 90 55 84 56 83 57 36 59 70 60 49 61 69 62
REMARK SMILES IDX 50 63 53 64 68 65 88 66 51 67 52 68 67 70 89 71 54 72 37 73
REMARK SMILES IDX 38 74 47 75 39 76 40 77 46 78 48 79 41 80 42 81 43 82 44 83
REMARK SMILES IDX 45 84 71 85 72 86 81 87 73 88 74 89 80 90 82 91 75 92 76 93
REMARK SMILES IDX 77 94 78 95 79 96 55 97 56 98 65 99 57 100 58 101 64 102
REMARK SMILES IDX 66 103 59 104 60 105 61 106 62 107 63 108
REMARK H PARENT 87 58 53 69
REMARK Flexibility Score: inf
ROOT
ATOM      1  C   UNL A   1      32.877  34.906  29.252  1.00  0.00     0.188 C 
ENDROOT
BRANCH   1   2
ATOM      2  C   UNL A   1      34.178  34.659  30.016  1.00  0.00     0.188 C 
BRANCH   2   3
ATOM      3  O   UNL A   1      34.495  35.572  31.056  1.00  0.00    -0.376 OA
BRANCH   3   4
ATOM      4  C   UNL A   1      33.822  35.420  32.302  1.00  0.00     0.202 C 
BRANCH   4   5
ATOM      5  C   UNL A   1      34.667  35.066  33.539  1.00  0.00     0.261 C 
BRANCH   5   6
ATOM      6  O   UNL A   1      35.199  33.722  33.575  1.00  0.00    -0.463 OA
BRANCH   6   7
ATOM      7  C   UNL A   1      35.847  33.397  34.718  1.00  0.00     0.316 C 
ATOM      8  O   UNL A   1      35.472  33.762  35.833  1.00  0.00    -0.251 OA
BRANCH   7   9
ATOM      9  C   UNL A   1      37.138  32.591  34.568  1.00  0.00     0.157 C 
ATOM     10  C   UNL A   1      39.185  33.562  38.188  1.00  0.00     0.161 A 
ATOM     11  C   UNL A   1      39.464  34.254  36.998  1.00  0.00     0.064 A 
ATOM     12  C   UNL A   1      38.289  32.482  38.184  1.00  0.00     0.161 A 
ATOM     13  C   UNL A   1      38.791  33.947  35.831  1.00  0.00     0.048 A 
ATOM     14  C   UNL A   1      37.669  32.136  36.985  1.00  0.00     0.056 A 
ATOM     15  C   UNL A   1      37.911  32.868  35.824  1.00  0.00    -0.015 A 
ATOM     16  C   UNL A   1      38.993  34.764  34.595  1.00  0.00     0.254 C 
ATOM     17  N   UNL A   1      38.649  34.146  33.393  1.00  0.00    -0.333 N 
ATOM     18  O   UNL A   1      39.444  35.902  34.677  1.00  0.00    -0.269 OA
ATOM     19  C   UNL A   1      38.127  32.780  33.378  1.00  0.00     0.135 C 
ATOM     20  C   UNL A   1      38.868  34.842  32.138  1.00  0.00     0.147 C 
BRANCH  10  21
ATOM     21  O   UNL A   1      39.869  33.925  39.317  1.00  0.00    -0.490 OA
BRANCH  21  22
ATOM     22  C   UNL A   1      39.933  35.348  39.506  1.00  0.00     0.226 C 
ATOM     23  C   UNL A   1      41.364  35.867  39.472  1.00  0.00     0.049 C 
ENDBRANCH  21  22
ENDBRANCH  10  21
BRANCH  12  24
ATOM     24  O   UNL A   1      37.866  31.672  39.195  1.00  0.00    -0.490 OA
BRANCH  24  25
ATOM     25  C   UNL A   1      37.301  32.213  40.374  1.00  0.00     0.226 C 
ATOM     26  C   UNL A   1      35.805  31.972  40.401  1.00  0.00     0.049 C 
ENDBRANCH  24  25
ENDBRANCH  12  24
BRANCH  19  27
ATOM     27  C   UNL A   1      39.231  31.660  33.410  1.00  0.00    -0.005 A 
ATOM     28  C   UNL A   1      38.776  30.336  33.169  1.00  0.00     0.010 A 
ATOM     29  C   UNL A   1      40.602  31.790  33.756  1.00  0.00     0.049 A 
ATOM     30  C   UNL A   1      39.594  29.217  33.368  1.00  0.00     0.040 A 
ATOM     31  C   UNL A   1      41.413  30.660  33.961  1.00  0.00     0.060 A 
ATOM     32  Cl  UNL A   1      41.476  33.268  33.948  1.00  0.00    -0.084 Cl
ATOM     33  C   UNL A   1      40.900  29.390  33.786  1.00  0.00     0.124 A 
ATOM     34  F   UNL A   1      41.681  28.326  34.013  1.00  0.00    -0.207 F 
ENDBRANCH  19  27
ENDBRANCH   7   9
ENDBRANCH   6   7
ENDBRANCH   5   6
ENDBRANCH   4   5
ENDBRANCH   3   4
ENDBRANCH   2   3
ENDBRANCH   1   2
BRANCH   1  35
ATOM     35  O   UNL A   1      32.718  34.163  28.055  1.00  0.00    -0.376 OA
BRANCH  35  36
ATOM     36  C   UNL A   1      33.788  33.315  27.637  1.00  0.00     0.202 C 
BRANCH  36  37
ATOM     37  C   UNL A   1      33.536  31.795  27.604  1.00  0.00     0.261 C 
BRANCH  37  38
ATOM     38  O   UNL A   1      34.282  31.000  28.554  1.00  0.00    -0.460 OA
BRANCH  38  39
ATOM     39  C   UNL A   1      34.732  29.785  28.155  1.00  0.00     0.338 C 
ATOM     40  O   UNL A   1      34.141  29.001  27.440  1.00  0.00    -0.246 OA
BRANCH  39  41
ATOM     41  C   UNL A   1      36.186  29.675  28.487  1.00  0.00     0.060 A 
ATOM     42  C   UNL A   1      37.106  30.131  27.530  1.00  0.00     0.016 A 
ATOM     43  C   UNL A   1      36.654  29.222  29.726  1.00  0.00     0.016 A 
ATOM     44  C   UNL A   1      38.479  30.069  27.776  1.00  0.00     0.010 A 
ATOM     45  C   UNL A   1      38.034  29.153  29.972  1.00  0.00     0.010 A 
ATOM     46  C   UNL A   1      38.956  29.529  28.978  1.00  0.00    -0.014 A 
BRANCH  46  47
ATOM     47  C   UNL A   1      40.393  29.145  29.081  1.00  0.00     0.031 A 
ATOM     48  C   UNL A   1      41.358  30.160  29.643  1.00  0.00     0.074 A 
ATOM     49  C   UNL A   1      40.835  27.915  28.759  1.00  0.00     0.049 A 
ATOM     50  N   UNL A   1      42.643  30.055  29.865  1.00  0.00    -0.248 NA
ATOM     51  C   UNL A   1      40.793  31.470  30.007  1.00  0.00     0.031 C 
ATOM     52  C   UNL A   1      40.013  26.825  28.237  1.00  0.00     0.029 A 
ATOM     53  N   UNL A   1      42.099  27.376  28.829  1.00  0.00    -0.354 N 
ATOM     54  C   UNL A   1      43.039  31.281  30.391  1.00  0.00     0.074 A 
ATOM     55  C   UNL A   1      41.867  32.127  30.416  1.00  0.00     0.031 C 
ATOM     56  C   UNL A   1      40.794  25.748  28.034  1.00  0.00     0.029 A 
ATOM     57  C   UNL A   1      42.176  26.076  28.384  1.00  0.00     0.049 A 
ATOM     58  H   UNL A   1      42.878  27.875  29.167  1.00  0.00     0.167 HD
ATOM     59  C   UNL A   1      44.261  31.667  30.829  1.00  0.00     0.037 A 
ATOM     60  C   UNL A   1      43.239  25.252  28.262  1.00  0.00     0.037 A 
ATOM     61  C   UNL A   1      45.432  30.830  30.805  1.00  0.00     0.049 A 
ATOM     62  C   UNL A   1      44.606  25.726  28.694  1.00  0.00     0.074 A 
ATOM     63  C   UNL A   1      46.711  31.131  31.241  1.00  0.00     0.029 A 
ATOM     64  N   UNL A   1      45.474  29.535  30.312  1.00  0.00    -0.354 N 
ATOM     65  N   UNL A   1      44.957  26.879  29.215  1.00  0.00    -0.248 NA
ATOM     66  C   UNL A   1      45.722  24.782  28.529  1.00  0.00     0.031 C 
ATOM     67  C   UNL A   1      47.538  30.041  30.957  1.00  0.00     0.029 A 
ATOM     68  C   UNL A   1      46.761  29.033  30.409  1.00  0.00     0.049 A 
ATOM     69  H   UNL A   1      44.702  29.044  29.948  1.00  0.00     0.167 HD
ATOM     70  C   UNL A   1      46.324  26.783  29.472  1.00  0.00     0.074 A 
ATOM     71  C   UNL A   1      46.732  25.457  29.060  1.00  0.00     0.031 C 
ATOM     72  C   UNL A   1      47.163  27.708  30.004  1.00  0.00     0.037 A 
BRANCH  59  73
ATOM     73  C   UNL A   1      44.400  33.072  31.349  1.00  0.00     0.058 A 
ATOM     74  C   UNL A   1      44.428  34.183  30.489  1.00  0.00     0.135 A 
ATOM     75  C   UNL A   1      44.477  33.313  32.730  1.00  0.00     0.135 A 
ATOM     76  F   UNL A   1      44.380  34.010  29.158  1.00  0.00    -0.206 F 
ATOM     77  C   UNL A   1      44.554  35.479  30.979  1.00  0.00     0.059 A 
ATOM     78  C   UNL A   1      44.572  34.603  33.243  1.00  0.00     0.059 A 
ATOM     79  F   UNL A   1      44.460  32.289  33.597  1.00  0.00    -0.206 F 
ATOM     80  C   UNL A   1      44.624  35.679  32.358  1.00  0.00     0.060 A 
BRANCH  80  81
ATOM     81  S   UNL A   1      44.784  37.366  32.977  1.00  0.00     0.124 S 
ATOM     82  O   UNL A   1      45.231  38.074  31.781  1.00  0.00    -0.237 OA
ATOM     83  O   UNL A   1      43.425  37.665  33.419  1.00  0.00    -0.237 OA
ATOM     84  O   UNL A   1      45.775  37.247  34.042  1.00  0.00    -0.744 OA
ENDBRANCH  80  81
ENDBRANCH  59  73
BRANCH  60  85
ATOM     85  C   UNL A   1      43.063  23.883  27.697  1.00  0.00     0.058 A 
ATOM     86  C   UNL A   1      43.129  23.648  26.315  1.00  0.00     0.135 A 
ATOM     87  C   UNL A   1      42.799  22.786  28.531  1.00  0.00     0.135 A 
ATOM     88  F   UNL A   1      43.360  24.667  25.472  1.00  0.00    -0.206 F 
ATOM     89  C   UNL A   1      42.926  22.381  25.778  1.00  0.00     0.059 A 
ATOM     90  C   UNL A   1      42.623  21.502  28.021  1.00  0.00     0.059 A 
ATOM     91  F   UNL A   1      42.727  22.953  29.860  1.00  0.00    -0.206 F 
ATOM     92  C   UNL A   1      42.678  21.312  26.641  1.00  0.00     0.060 A 
BRANCH  92  93
ATOM     93  S   UNL A   1      42.468  19.660  25.938  1.00  0.00     0.124 S 
ATOM     94  O   UNL A   1      41.071  19.692  25.524  1.00  0.00    -0.237 OA
ATOM     95  O   UNL A   1      43.454  19.661  24.862  1.00  0.00    -0.237 OA
ATOM     96  O   UNL A   1      42.774  18.778  27.060  1.00  0.00    -0.744 OA
ENDBRANCH  92  93
ENDBRANCH  60  85
BRANCH  72  97
ATOM     97  C   UNL A   1      48.600  27.308  30.224  1.00  0.00     0.058 A 
ATOM     98  C   UNL A   1      49.571  27.426  29.217  1.00  0.00     0.135 A 
ATOM     99  C   UNL A   1      49.020  26.834  31.479  1.00  0.00     0.135 A 
ATOM    100  F   UNL A   1      49.229  27.874  27.998  1.00  0.00    -0.206 F 
ATOM    101  C   UNL A   1      50.894  27.051  29.432  1.00  0.00     0.059 A 
ATOM    102  C   UNL A   1      50.344  26.485  31.727  1.00  0.00     0.059 A 
ATOM    103  F   UNL A   1      48.139  26.717  32.487  1.00  0.00    -0.206 F 
ATOM    104  C   UNL A   1      51.271  26.579  30.691  1.00  0.00     0.060 A 
BRANCH 104 105
ATOM    105  S   UNL A   1      52.991  26.100  30.960  1.00  0.00     0.124 S 
ATOM    106  O   UNL A   1      53.482  25.986  29.590  1.00  0.00    -0.237 OA
ATOM    107  O   UNL A   1      53.512  27.226  31.729  1.00  0.00    -0.237 OA
ATOM    108  O   UNL A   1      52.885  24.844  31.695  1.00  0.00    -0.744 OA
ENDBRANCH 104 105
ENDBRANCH  72  97
ENDBRANCH  46  47
ENDBRANCH  39  41
ENDBRANCH  38  39
ENDBRANCH  37  38
ENDBRANCH  36  37
ENDBRANCH  35  36
ENDBRANCH   1  35
TORSDOF 25
ENDMDL
MODEL 3
REMARK VINA RESULT:      -9.0      6.991     13.727
REMARK SMILES CCOc1cc2c(cc1OCC)[C@@H](C(=O)OCCOCCOCCOC(=O)c1ccc(-c3c4nc(c(-c5c(F)cc(S(=O)(=O)[O-])cc5F)c5ccc([nH]5)c(-c5c(F)cc(S(=O)(=O)[O-])cc5F)c5nc(c(-c6c(F)cc(S(=O)(=O)[O-])cc6F)c6ccc3[nH]6)C=C5)C=C4)cc1)[C@H](c1ccc(F)cc1Cl)N(C)C2=O
REMARK SMILES IDX 21 1 20 2 19 3 18 4 17 5 16 6 14 7 15 8 13 9 4 10 5 11 9 12
REMARK SMILES IDX 6 13 8 14 7 15 105 16 103 17 106 18 94 19 104 20 3 21 2 22
REMARK SMILES IDX 1 23 10 24 11 25 12 26 95 27 96 28 101 29 97 30 100 31
REMARK SMILES IDX 102 32 98 33 99 34 22 35 23 36 24 37 25 38 26 39 27 40 28 41
REMARK SMILES IDX 29 42 93 43 30 44 92 45 31 46 32 47 33 48 86 49 34 50 91 51
REMARK SMILES IDX 85 52 87 53 35 54 90 55 84 56 83 57 36 59 70 60 49 61 69 62
REMARK SMILES IDX 50 63 53 64 68 65 88 66 51 67 52 68 67 70 89 71 54 72 37 73
REMARK SMILES IDX 38 74 47 75 39 76 40 77 46 78 48 79 41 80 42 81 43 82 44 83
REMARK SMILES IDX 45 84 71 85 72 86 81 87 73 88 74 89 80 90 82 91 75 92 76 93
REMARK SMILES IDX 77 94 78 95 79 96 55 97 56 98 65 99 57 100 58 101 64 102
REMARK SMILES IDX 66 103 59 104 60 105 61 106 62 107 63 108
REMARK H PARENT 87 58 53 69
REMARK Flexibility Score: inf
ROOT
ATOM      1  C   UNL A   1      32.962  36.777  32.060  1.00  0.00     0.188 C 
ENDROOT
BRANCH   1   2
ATOM      2  C   UNL A   1      34.411  36.449  32.420  1.00  0.00     0.188 C 
BRANCH   2   3
ATOM      3  O   UNL A   1      34.666  36.053  33.759  1.00  0.00    -0.376 OA
BRANCH   3   4
ATOM      4  C   UNL A   1      34.796  34.661  34.028  1.00  0.00     0.202 C 
BRANCH   4   5
ATOM      5  C   UNL A   1      36.202  34.113  34.331  1.00  0.00     0.261 C 
BRANCH   5   6
ATOM      6  O   UNL A   1      37.284  35.069  34.238  1.00  0.00    -0.463 OA
BRANCH   6   7
ATOM      7  C   UNL A   1      38.502  34.583  34.572  1.00  0.00     0.316 C 
ATOM      8  O   UNL A   1      39.169  33.864  33.828  1.00  0.00    -0.251 OA
BRANCH   7   9
ATOM      9  C   UNL A   1      39.009  34.914  35.978  1.00  0.00     0.157 C 
ATOM     10  C   UNL A   1      43.127  33.824  35.685  1.00  0.00     0.161 A 
ATOM     11  C   UNL A   1      42.186  32.931  36.222  1.00  0.00     0.064 A 
ATOM     12  C   UNL A   1      42.741  35.121  35.315  1.00  0.00     0.161 A 
ATOM     13  C   UNL A   1      40.851  33.281  36.303  1.00  0.00     0.048 A 
ATOM     14  C   UNL A   1      41.406  35.487  35.468  1.00  0.00     0.056 A 
ATOM     15  C   UNL A   1      40.470  34.573  35.948  1.00  0.00    -0.015 A 
ATOM     16  C   UNL A   1      39.827  32.290  36.756  1.00  0.00     0.254 C 
ATOM     17  N   UNL A   1      38.629  32.823  37.229  1.00  0.00    -0.333 N 
ATOM     18  O   UNL A   1      40.070  31.088  36.704  1.00  0.00    -0.269 OA
ATOM     19  C   UNL A   1      38.420  34.270  37.269  1.00  0.00     0.135 C 
ATOM     20  C   UNL A   1      37.601  31.938  37.745  1.00  0.00     0.147 C 
BRANCH  10  21
ATOM     21  O   UNL A   1      44.432  33.413  35.611  1.00  0.00    -0.490 OA
BRANCH  21  22
ATOM     22  C   UNL A   1      45.004  33.116  36.895  1.00  0.00     0.226 C 
ATOM     23  C   UNL A   1      46.496  33.418  36.942  1.00  0.00     0.049 C 
ENDBRANCH  21  22
ENDBRANCH  10  21
BRANCH  12  24
ATOM     24  O   UNL A   1      43.462  36.147  34.781  1.00  0.00    -0.490 OA
BRANCH  24  25
ATOM     25  C   UNL A   1      44.405  35.916  33.751  1.00  0.00     0.226 C 
ATOM     26  C   UNL A   1      45.136  37.199  33.408  1.00  0.00     0.049 C 
ENDBRANCH  24  25
ENDBRANCH  12  24
BRANCH  19  27
ATOM     27  C   UNL A   1      39.011  34.979  38.543  1.00  0.00    -0.005 A 
ATOM     28  C   UNL A   1      39.433  36.323  38.363  1.00  0.00     0.010 A 
ATOM     29  C   UNL A   1      39.276  34.412  39.818  1.00  0.00     0.049 A 
ATOM     30  C   UNL A   1      40.164  37.014  39.338  1.00  0.00     0.040 A 
ATOM     31  C   UNL A   1      40.017  35.111  40.787  1.00  0.00     0.060 A 
ATOM     32  Cl  UNL A   1      38.745  32.870  40.385  1.00  0.00    -0.084 Cl
ATOM     33  C   UNL A   1      40.470  36.391  40.533  1.00  0.00     0.124 A 
ATOM     34  F   UNL A   1      41.197  37.029  41.459  1.00  0.00    -0.207 F 
ENDBRANCH  19  27
ENDBRANCH   7   9
ENDBRANCH   6   7
ENDBRANCH   5   6
ENDBRANCH   4   5
ENDBRANCH   3   4
ENDBRANCH   2   3
ENDBRANCH   1   2
BRANCH   1  35
ATOM     35  O   UNL A   1      32.708  37.002  30.683  1.00  0.00    -0.376 OA
BRANCH  35  36
ATOM     36  C   UNL A   1      33.506  36.307  29.725  1.00  0.00     0.202 C 
BRANCH  36  37
ATOM     37  C   UNL A   1      33.138  34.846  29.398  1.00  0.00     0.261 C 
BRANCH  37  38
ATOM     38  O   UNL A   1      33.814  33.827  30.170  1.00  0.00    -0.460 OA
BRANCH  38  39
ATOM     39  C   UNL A   1      34.491  32.862  29.497  1.00  0.00     0.338 C 
ATOM     40  O   UNL A   1      34.031  32.120  28.653  1.00  0.00    -0.246 OA
BRANCH  39  41
ATOM     41  C   UNL A   1      35.956  33.042  29.739  1.00  0.00     0.060 A 
ATOM     42  C   UNL A   1      36.840  32.309  28.932  1.00  0.00     0.016 A 
ATOM     43  C   UNL A   1      36.470  33.959  30.663  1.00  0.00     0.016 A 
ATOM     44  C   UNL A   1      38.222  32.435  29.094  1.00  0.00     0.010 A 
ATOM     45  C   UNL A   1      37.858  34.081  30.831  1.00  0.00     0.010 A 
ATOM     46  C   UNL A   1      38.741  33.282  30.082  1.00  0.00    -0.014 A 
BRANCH  46  47
ATOM     47  C   UNL A   1      40.171  33.141  30.479  1.00  0.00     0.031 A 
ATOM     48  C   UNL A   1      41.152  34.168  29.967  1.00  0.00     0.074 A 
ATOM     49  C   UNL A   1      40.594  32.182  31.323  1.00  0.00     0.049 A 
ATOM     50  N   UNL A   1      42.435  34.283  30.197  1.00  0.00    -0.248 NA
ATOM     51  C   UNL A   1      40.607  35.207  29.077  1.00  0.00     0.031 C 
ATOM     52  C   UNL A   1      39.755  31.146  31.922  1.00  0.00     0.029 A 
ATOM     53  N   UNL A   1      41.849  31.929  31.828  1.00  0.00    -0.354 N 
ATOM     54  C   UNL A   1      42.849  35.402  29.482  1.00  0.00     0.074 A 
ATOM     55  C   UNL A   1      41.691  35.905  28.778  1.00  0.00     0.031 C 
ATOM     56  C   UNL A   1      40.519  30.368  32.713  1.00  0.00     0.029 A 
ATOM     57  C   UNL A   1      41.906  30.832  32.656  1.00  0.00     0.049 A 
ATOM     58  H   UNL A   1      42.635  32.483  31.615  1.00  0.00     0.167 HD
ATOM     59  C   UNL A   1      44.077  35.972  29.425  1.00  0.00     0.037 A 
ATOM     60  C   UNL A   1      42.955  30.261  33.286  1.00  0.00     0.037 A 
ATOM     61  C   UNL A   1      45.234  35.475  30.122  1.00  0.00     0.049 A 
ATOM     62  C   UNL A   1      44.329  30.874  33.156  1.00  0.00     0.074 A 
ATOM     63  C   UNL A   1      46.517  35.994  30.135  1.00  0.00     0.029 A 
ATOM     64  N   UNL A   1      45.256  34.340  30.919  1.00  0.00    -0.354 N 
ATOM     65  N   UNL A   1      44.698  31.948  32.498  1.00  0.00    -0.248 NA
ATOM     66  C   UNL A   1      45.430  30.200  33.862  1.00  0.00     0.031 C 
ATOM     67  C   UNL A   1      47.327  35.143  30.892  1.00  0.00     0.029 A 
ATOM     68  C   UNL A   1      46.535  34.130  31.408  1.00  0.00     0.049 A 
ATOM     69  H   UNL A   1      44.477  33.770  31.111  1.00  0.00     0.167 HD
ATOM     70  C   UNL A   1      46.062  32.097  32.741  1.00  0.00     0.074 A 
ATOM     71  C   UNL A   1      46.450  31.010  33.615  1.00  0.00     0.031 C 
ATOM     72  C   UNL A   1      46.915  33.049  32.285  1.00  0.00     0.037 A 
BRANCH  59  73
ATOM     73  C   UNL A   1      44.238  37.188  28.554  1.00  0.00     0.058 A 
ATOM     74  C   UNL A   1      43.965  38.482  29.028  1.00  0.00     0.135 A 
ATOM     75  C   UNL A   1      44.701  37.060  27.235  1.00  0.00     0.135 A 
ATOM     76  F   UNL A   1      43.498  38.663  30.274  1.00  0.00    -0.206 F 
ATOM     77  C   UNL A   1      44.119  39.602  28.216  1.00  0.00     0.059 A 
ATOM     78  C   UNL A   1      44.892  38.168  26.416  1.00  0.00     0.059 A 
ATOM     79  F   UNL A   1      44.973  35.847  26.728  1.00  0.00    -0.206 F 
ATOM     80  C   UNL A   1      44.585  39.434  26.911  1.00  0.00     0.060 A 
BRANCH  80  81
ATOM     81  S   UNL A   1      44.783  40.897  25.873  1.00  0.00     0.124 S 
ATOM     82  O   UNL A   1      45.010  41.935  26.873  1.00  0.00    -0.237 OA
ATOM     83  O   UNL A   1      45.937  40.542  25.054  1.00  0.00    -0.237 OA
ATOM     84  O   UNL A   1      43.513  40.983  25.159  1.00  0.00    -0.744 OA
ENDBRANCH  80  81
ENDBRANCH  59  73
BRANCH  60  85
ATOM     85  C   UNL A   1      42.758  29.028  34.101  1.00  0.00     0.058 A 
ATOM     86  C   UNL A   1      42.523  27.782  33.498  1.00  0.00     0.135 A 
ATOM     87  C   UNL A   1      42.776  29.078  35.504  1.00  0.00     0.135 A 
ATOM     88  F   UNL A   1      42.477  27.683  32.161  1.00  0.00    -0.206 F 
ATOM     89  C   UNL A   1      42.298  26.635  34.253  1.00  0.00     0.059 A 
ATOM     90  C   UNL A   1      42.585  27.939  36.281  1.00  0.00     0.059 A 
ATOM     91  F   UNL A   1      42.998  30.242  36.133  1.00  0.00    -0.206 F 
ATOM     92  C   UNL A   1      42.336  26.723  35.646  1.00  0.00     0.060 A 
BRANCH  92  93
ATOM     93  S   UNL A   1      42.095  25.218  36.617  1.00  0.00     0.124 S 
ATOM     94  O   UNL A   1      40.926  25.567  37.414  1.00  0.00    -0.237 OA
ATOM     95  O   UNL A   1      41.884  24.216  35.576  1.00  0.00    -0.237 OA
ATOM     96  O   UNL A   1      43.348  25.092  37.355  1.00  0.00    -0.744 OA
ENDBRANCH  92  93
ENDBRANCH  60  85
BRANCH  72  97
ATOM     97  C   UNL A   1      48.345  32.997  32.760  1.00  0.00     0.058 A 
ATOM     98  C   UNL A   1      49.314  32.201  32.128  1.00  0.00     0.135 A 
ATOM     99  C   UNL A   1      48.761  33.788  33.845  1.00  0.00     0.135 A 
ATOM    100  F   UNL A   1      48.976  31.425  31.086  1.00  0.00    -0.206 F 
ATOM    101  C   UNL A   1      50.630  32.160  32.579  1.00  0.00     0.059 A 
ATOM    102  C   UNL A   1      50.079  33.788  34.291  1.00  0.00     0.059 A 
ATOM    103  F   UNL A   1      47.883  34.584  34.478  1.00  0.00    -0.206 F 
ATOM    104  C   UNL A   1      51.004  32.955  33.663  1.00  0.00     0.060 A 
BRANCH 104 105
ATOM    105  S   UNL A   1      52.715  32.897  34.236  1.00  0.00     0.124 S 
ATOM    106  O   UNL A   1      52.874  31.479  34.544  1.00  0.00    -0.237 OA
ATOM    107  O   UNL A   1      53.451  33.379  33.070  1.00  0.00    -0.237 OA
ATOM    108  O   UNL A   1      52.721  33.794  35.387  1.00  0.00    -0.744 OA
ENDBRANCH 104 105
ENDBRANCH  72  97
ENDBRANCH  46  47
ENDBRANCH  39  41
ENDBRANCH  38  39
ENDBRANCH  37  38
ENDBRANCH  36  37
ENDBRANCH  35  36
ENDBRANCH   1  35
TORSDOF 25
ENDMDL
