MODEL 1
REMARK VINA RESULT:      -9.3      0.000      0.000
REMARK SMILES CCOc1cc(/C=C2/SC(=S)N([C@H](CC)C(=O)OCCOCCOCCOC(=O)c3ccc(-c4c5nc(c(-c6c(F)cc(S(=O)(=O)[O-])cc6F)c6ccc([nH]6)c(-c6c(F)cc(S(=O)(=O)[O-])cc6F)c6nc(c(-c7c(F)cc(S(=O)(=O)[O-])cc7F)c7ccc4[nH]7)C=C6)C=C5)cc3)C2=O)ccc1O
REMARK SMILES IDX 22 1 21 2 20 3 19 4 18 5 16 6 17 7 13 8 12 9 7 10 8 11 9 12
REMARK SMILES IDX 96 13 10 14 97 15 11 16 6 17 4 18 5 19 100 20 99 21 98 22
REMARK SMILES IDX 3 23 2 24 1 25 101 26 14 28 15 29 23 30 24 31 25 32 26 33
REMARK SMILES IDX 27 34 28 35 29 36 30 37 31 38 95 39 32 40 94 41 33 42 34 43
REMARK SMILES IDX 35 44 88 45 36 46 93 47 87 48 89 49 37 50 92 51 86 52 85 53
REMARK SMILES IDX 38 55 72 56 51 57 71 58 52 59 55 60 70 61 90 62 53 63 54 64
REMARK SMILES IDX 69 66 91 67 56 68 39 69 40 70 49 71 41 72 42 73 48 74 50 75
REMARK SMILES IDX 43 76 44 77 45 78 46 79 47 80 73 81 74 82 83 83 75 84 76 85
REMARK SMILES IDX 82 86 84 87 77 88 78 89 79 90 80 91 81 92 57 93 58 94 67 95
REMARK SMILES IDX 59 96 60 97 66 98 68 99 61 100 62 101 63 102 64 103 65 104
REMARK H PARENT 101 27 89 54 55 65
REMARK Flexibility Score: inf
ROOT
ATOM      1  C   UNL A   1      30.376  26.952  23.851  1.00  0.00     0.188 C 
ENDROOT
BRANCH   1   2
ATOM      2  O   UNL A   1      29.830  26.142  24.883  1.00  0.00    -0.376 OA
BRANCH   2   3
ATOM      3  C   UNL A   1      30.429  26.174  26.178  1.00  0.00     0.202 C 
BRANCH   3   4
ATOM      4  C   UNL A   1      31.745  25.417  26.432  1.00  0.00     0.261 C 
BRANCH   4   5
ATOM      5  O   UNL A   1      31.605  24.233  27.245  1.00  0.00    -0.462 OA
BRANCH   5   6
ATOM      6  C   UNL A   1      31.098  23.144  26.620  1.00  0.00     0.329 C 
ATOM      7  O   UNL A   1      29.896  22.928  26.489  1.00  0.00    -0.250 OA
BRANCH   6   8
ATOM      8  C   UNL A   1      32.152  22.211  26.003  1.00  0.00     0.201 C 
BRANCH   8   9
ATOM      9  N   UNL A   1      32.938  23.030  25.072  1.00  0.00    -0.278 N 
ATOM     10  C   UNL A   1      36.231  24.023  24.019  1.00  0.00     0.029 C 
ATOM     11  C   UNL A   1      34.917  23.979  24.264  1.00  0.00     0.081 C 
ATOM     12  S   UNL A   1      33.730  24.564  23.163  1.00  0.00    -0.054 SA
ATOM     13  C   UNL A   1      34.258  23.270  25.390  1.00  0.00     0.266 C 
ATOM     14  C   UNL A   1      32.473  23.564  23.886  1.00  0.00     0.149 C 
ATOM     15  O   UNL A   1      34.813  22.911  26.416  1.00  0.00    -0.268 OA
ATOM     16  S   UNL A   1      30.985  23.356  23.155  1.00  0.00    -0.052 S 
BRANCH  10  17
ATOM     17  C   UNL A   1      37.210  23.260  24.790  1.00  0.00    -0.020 A 
ATOM     18  C   UNL A   1      38.372  21.158  25.258  1.00  0.00     0.161 A 
ATOM     19  C   UNL A   1      37.429  21.906  24.530  1.00  0.00     0.058 A 
ATOM     20  C   UNL A   1      39.085  21.806  26.273  1.00  0.00     0.157 A 
ATOM     21  C   UNL A   1      38.885  23.169  26.521  1.00  0.00     0.051 A 
ATOM     22  C   UNL A   1      37.954  23.895  25.786  1.00  0.00     0.012 A 
BRANCH  18  23
ATOM     23  O   UNL A   1      38.405  19.868  24.822  1.00  0.00    -0.490 OA
BRANCH  23  24
ATOM     24  C   UNL A   1      37.638  18.827  25.401  1.00  0.00     0.226 C 
ATOM     25  C   UNL A   1      36.347  18.588  24.633  1.00  0.00     0.049 C 
ENDBRANCH  23  24
ENDBRANCH  18  23
BRANCH  20  26
ATOM     26  O   UNL A   1      39.991  21.241  27.122  1.00  0.00    -0.504 OA
ATOM     27  H   UNL A   1      39.860  21.294  28.048  1.00  0.00     0.293 HD
ENDBRANCH  20  26
ENDBRANCH  10  17
ENDBRANCH   8   9
BRANCH   8  28
ATOM     28  C   UNL A   1      31.855  20.824  25.398  1.00  0.00     0.034 C 
ATOM     29  C   UNL A   1      33.032  19.862  25.644  1.00  0.00     0.007 C 
ENDBRANCH   8  28
ENDBRANCH   6   8
ENDBRANCH   5   6
ENDBRANCH   4   5
ENDBRANCH   3   4
ENDBRANCH   2   3
ENDBRANCH   1   2
BRANCH   1  30
ATOM     30  C   UNL A   1      30.786  28.389  24.196  1.00  0.00     0.188 C 
BRANCH  30  31
ATOM     31  O   UNL A   1      32.096  28.742  23.817  1.00  0.00    -0.376 OA
BRANCH  31  32
ATOM     32  C   UNL A   1      33.073  28.924  24.831  1.00  0.00     0.202 C 
BRANCH  32  33
ATOM     33  C   UNL A   1      32.838  29.910  25.995  1.00  0.00     0.261 C 
BRANCH  33  34
ATOM     34  O   UNL A   1      33.662  29.761  27.162  1.00  0.00    -0.460 OA
BRANCH  34  35
ATOM     35  C   UNL A   1      34.432  30.815  27.519  1.00  0.00     0.338 C 
ATOM     36  O   UNL A   1      34.067  31.978  27.626  1.00  0.00    -0.246 OA
BRANCH  35  37
ATOM     37  C   UNL A   1      35.718  30.282  28.034  1.00  0.00     0.060 A 
ATOM     38  C   UNL A   1      35.756  29.751  29.333  1.00  0.00     0.016 A 
ATOM     39  C   UNL A   1      36.863  30.254  27.234  1.00  0.00     0.016 A 
ATOM     40  C   UNL A   1      36.941  29.216  29.841  1.00  0.00     0.010 A 
ATOM     41  C   UNL A   1      38.057  29.743  27.756  1.00  0.00     0.010 A 
ATOM     42  C   UNL A   1      38.110  29.246  29.071  1.00  0.00    -0.014 A 
BRANCH  42  43
ATOM     43  C   UNL A   1      39.413  28.921  29.706  1.00  0.00     0.031 A 
ATOM     44  C   UNL A   1      39.877  29.766  30.865  1.00  0.00     0.074 A 
ATOM     45  C   UNL A   1      40.161  27.883  29.288  1.00  0.00     0.049 A 
ATOM     46  N   UNL A   1      40.983  29.691  31.557  1.00  0.00    -0.248 NA
ATOM     47  C   UNL A   1      38.968  30.840  31.299  1.00  0.00     0.031 C 
ATOM     48  C   UNL A   1      39.811  26.971  28.200  1.00  0.00     0.029 A 
ATOM     49  N   UNL A   1      41.382  27.428  29.727  1.00  0.00    -0.354 N 
ATOM     50  C   UNL A   1      40.913  30.715  32.495  1.00  0.00     0.074 A 
ATOM     51  C   UNL A   1      39.664  31.409  32.272  1.00  0.00     0.031 C 
ATOM     52  C   UNL A   1      40.803  26.078  28.043  1.00  0.00     0.029 A 
ATOM     53  C   UNL A   1      41.873  26.372  28.995  1.00  0.00     0.049 A 
ATOM     54  H   UNL A   1      41.859  27.821  30.492  1.00  0.00     0.167 HD
ATOM     55  C   UNL A   1      41.807  31.042  33.457  1.00  0.00     0.037 A 
ATOM     56  C   UNL A   1      43.060  25.735  29.068  1.00  0.00     0.037 A 
ATOM     57  C   UNL A   1      43.044  30.340  33.684  1.00  0.00     0.049 A 
ATOM     58  C   UNL A   1      44.060  26.151  30.119  1.00  0.00     0.074 A 
ATOM     59  C   UNL A   1      43.992  30.570  34.667  1.00  0.00     0.029 A 
ATOM     60  N   UNL A   1      43.515  29.289  32.914  1.00  0.00    -0.354 N 
ATOM     61  N   UNL A   1      43.959  27.087  31.034  1.00  0.00    -0.248 NA
ATOM     62  C   UNL A   1      45.336  25.420  30.153  1.00  0.00     0.031 C 
ATOM     63  C   UNL A   1      45.066  29.701  34.449  1.00  0.00     0.029 A 
ATOM     64  C   UNL A   1      44.757  28.883  33.374  1.00  0.00     0.049 A 
ATOM     65  H   UNL A   1      43.037  28.889  32.151  1.00  0.00     0.167 HD
ATOM     66  C   UNL A   1      45.144  27.040  31.764  1.00  0.00     0.074 A 
ATOM     67  C   UNL A   1      45.936  25.968  31.201  1.00  0.00     0.031 C 
ATOM     68  C   UNL A   1      45.540  27.813  32.806  1.00  0.00     0.037 A 
BRANCH  55  69
ATOM     69  C   UNL A   1      41.506  32.235  34.324  1.00  0.00     0.058 A 
ATOM     70  C   UNL A   1      41.933  33.529  33.988  1.00  0.00     0.135 A 
ATOM     71  C   UNL A   1      40.717  32.085  35.476  1.00  0.00     0.135 A 
ATOM     72  F   UNL A   1      42.707  33.727  32.909  1.00  0.00    -0.206 F 
ATOM     73  C   UNL A   1      41.598  34.630  34.769  1.00  0.00     0.059 A 
ATOM     74  C   UNL A   1      40.345  33.176  36.255  1.00  0.00     0.059 A 
ATOM     75  F   UNL A   1      40.287  30.869  35.848  1.00  0.00    -0.206 F 
ATOM     76  C   UNL A   1      40.796  34.444  35.897  1.00  0.00     0.060 A 
BRANCH  76  77
ATOM     77  S   UNL A   1      40.338  35.890  36.877  1.00  0.00     0.124 S 
ATOM     78  O   UNL A   1      39.738  36.752  35.864  1.00  0.00    -0.237 OA
ATOM     79  O   UNL A   1      39.413  35.321  37.853  1.00  0.00    -0.237 OA
ATOM     80  O   UNL A   1      41.612  36.352  37.419  1.00  0.00    -0.744 OA
ENDBRANCH  76  77
ENDBRANCH  55  69
BRANCH  56  81
ATOM     81  C   UNL A   1      43.392  24.657  28.094  1.00  0.00     0.058 A 
ATOM     82  C   UNL A   1      44.086  24.928  26.905  1.00  0.00     0.135 A 
ATOM     83  C   UNL A   1      42.989  23.331  28.324  1.00  0.00     0.135 A 
ATOM     84  F   UNL A   1      44.481  26.181  26.629  1.00  0.00    -0.206 F 
ATOM     85  C   UNL A   1      44.346  23.932  25.968  1.00  0.00     0.059 A 
ATOM     86  C   UNL A   1      43.267  22.312  27.419  1.00  0.00     0.059 A 
ATOM     87  F   UNL A   1      42.327  23.014  29.448  1.00  0.00    -0.206 F 
ATOM     88  C   UNL A   1      43.934  22.625  26.236  1.00  0.00     0.060 A 
BRANCH  88  89
ATOM     89  S   UNL A   1      44.301  21.335  25.027  1.00  0.00     0.124 S 
ATOM     90  O   UNL A   1      45.653  20.947  25.412  1.00  0.00    -0.237 OA
ATOM     91  O   UNL A   1      43.253  20.354  25.300  1.00  0.00    -0.237 OA
ATOM     92  O   UNL A   1      44.183  22.028  23.748  1.00  0.00    -0.744 OA
ENDBRANCH  88  89
ENDBRANCH  56  81
BRANCH  68  93
ATOM     93  C   UNL A   1      46.877  27.510  33.432  1.00  0.00     0.058 A 
ATOM     94  C   UNL A   1      47.033  26.509  34.405  1.00  0.00     0.135 A 
ATOM     95  C   UNL A   1      48.028  28.204  33.022  1.00  0.00     0.135 A 
ATOM     96  F   UNL A   1      45.967  25.814  34.835  1.00  0.00    -0.206 F 
ATOM     97  C   UNL A   1      48.272  26.235  34.977  1.00  0.00     0.059 A 
ATOM     98  C   UNL A   1      49.283  27.923  33.555  1.00  0.00     0.059 A 
ATOM     99  F   UNL A   1      47.943  29.161  32.084  1.00  0.00    -0.206 F 
ATOM    100  C   UNL A   1      49.391  26.949  34.546  1.00  0.00     0.060 A 
BRANCH 100 101
ATOM    101  S   UNL A   1      50.994  26.578  35.290  1.00  0.00     0.124 S 
ATOM    102  O   UNL A   1      51.764  27.765  34.935  1.00  0.00    -0.237 OA
ATOM    103  O   UNL A   1      50.658  26.438  36.703  1.00  0.00    -0.237 OA
ATOM    104  O   UNL A   1      51.401  25.343  34.624  1.00  0.00    -0.744 OA
ENDBRANCH 100 101
ENDBRANCH  68  93
ENDBRANCH  42  43
ENDBRANCH  35  37
ENDBRANCH  34  35
ENDBRANCH  33  34
ENDBRANCH  32  33
ENDBRANCH  31  32
ENDBRANCH  30  31
ENDBRANCH   1  30
TORSDOF 26
ENDMDL
MODEL 2
REMARK VINA RESULT:      -9.3      2.999      8.902
REMARK SMILES CCOc1cc(/C=C2/SC(=S)N([C@H](CC)C(=O)OCCOCCOCCOC(=O)c3ccc(-c4c5nc(c(-c6c(F)cc(S(=O)(=O)[O-])cc6F)c6ccc([nH]6)c(-c6c(F)cc(S(=O)(=O)[O-])cc6F)c6nc(c(-c7c(F)cc(S(=O)(=O)[O-])cc7F)c7ccc4[nH]7)C=C6)C=C5)cc3)C2=O)ccc1O
REMARK SMILES IDX 22 1 21 2 20 3 19 4 18 5 16 6 17 7 13 8 12 9 7 10 8 11 9 12
REMARK SMILES IDX 96 13 10 14 97 15 11 16 6 17 4 18 5 19 100 20 99 21 98 22
REMARK SMILES IDX 3 23 2 24 1 25 101 26 14 28 15 29 23 30 24 31 25 32 26 33
REMARK SMILES IDX 27 34 28 35 29 36 30 37 31 38 95 39 32 40 94 41 33 42 34 43
REMARK SMILES IDX 35 44 88 45 36 46 93 47 87 48 89 49 37 50 92 51 86 52 85 53
REMARK SMILES IDX 38 55 72 56 51 57 71 58 52 59 55 60 70 61 90 62 53 63 54 64
REMARK SMILES IDX 69 66 91 67 56 68 39 69 40 70 49 71 41 72 42 73 48 74 50 75
REMARK SMILES IDX 43 76 44 77 45 78 46 79 47 80 73 81 74 82 83 83 75 84 76 85
REMARK SMILES IDX 82 86 84 87 77 88 78 89 79 90 80 91 81 92 57 93 58 94 67 95
REMARK SMILES IDX 59 96 60 97 66 98 68 99 61 100 62 101 63 102 64 103 65 104
REMARK H PARENT 101 27 89 54 55 65
REMARK Flexibility Score: inf
ROOT
ATOM      1  C   UNL A   1      35.480  30.485  27.586  1.00  0.00     0.188 C 
ENDROOT
BRANCH   1   2
ATOM      2  O   UNL A   1      34.197  29.892  27.444  1.00  0.00    -0.376 OA
BRANCH   2   3
ATOM      3  C   UNL A   1      33.494  30.050  26.212  1.00  0.00     0.202 C 
BRANCH   3   4
ATOM      4  C   UNL A   1      32.518  28.956  25.741  1.00  0.00     0.261 C 
BRANCH   4   5
ATOM      5  O   UNL A   1      32.758  27.655  26.317  1.00  0.00    -0.462 OA
BRANCH   5   6
ATOM      6  C   UNL A   1      31.684  27.050  26.875  1.00  0.00     0.329 C 
ATOM      7  O   UNL A   1      30.935  27.594  27.683  1.00  0.00    -0.250 OA
BRANCH   6   8
ATOM      8  C   UNL A   1      31.411  25.626  26.363  1.00  0.00     0.201 C 
BRANCH   8   9
ATOM      9  N   UNL A   1      31.915  25.578  24.984  1.00  0.00    -0.278 N 
ATOM     10  C   UNL A   1      34.186  23.990  22.692  1.00  0.00     0.029 C 
ATOM     11  C   UNL A   1      33.375  24.859  23.306  1.00  0.00     0.081 C 
ATOM     12  S   UNL A   1      32.305  25.910  22.463  1.00  0.00    -0.054 SA
ATOM     13  C   UNL A   1      33.114  24.933  24.765  1.00  0.00     0.266 C 
ATOM     14  C   UNL A   1      31.277  26.105  23.879  1.00  0.00     0.149 C 
ATOM     15  O   UNL A   1      33.826  24.453  25.633  1.00  0.00    -0.268 OA
ATOM     16  S   UNL A   1      29.771  26.823  23.781  1.00  0.00    -0.052 S 
BRANCH  10  17
ATOM     17  C   UNL A   1      34.855  22.895  23.391  1.00  0.00    -0.020 A 
ATOM     18  C   UNL A   1      34.750  20.778  24.612  1.00  0.00     0.161 A 
ATOM     19  C   UNL A   1      34.122  21.844  23.942  1.00  0.00     0.058 A 
ATOM     20  C   UNL A   1      36.144  20.804  24.731  1.00  0.00     0.157 A 
ATOM     21  C   UNL A   1      36.885  21.846  24.159  1.00  0.00     0.051 A 
ATOM     22  C   UNL A   1      36.248  22.887  23.493  1.00  0.00     0.012 A 
BRANCH  18  23
ATOM     23  O   UNL A   1      33.829  19.878  25.057  1.00  0.00    -0.490 OA
BRANCH  23  24
ATOM     24  C   UNL A   1      33.775  18.533  24.616  1.00  0.00     0.226 C 
ATOM     25  C   UNL A   1      32.688  17.751  25.338  1.00  0.00     0.049 C 
ENDBRANCH  23  24
ENDBRANCH  18  23
BRANCH  20  26
ATOM     26  O   UNL A   1      36.924  19.902  25.392  1.00  0.00    -0.504 OA
ATOM     27  H   UNL A   1      36.537  19.308  26.004  1.00  0.00     0.293 HD
ENDBRANCH  20  26
ENDBRANCH  10  17
ENDBRANCH   8   9
BRANCH   8  28
ATOM     28  C   UNL A   1      30.061  24.891  26.480  1.00  0.00     0.034 C 
ATOM     29  C   UNL A   1      30.282  23.383  26.703  1.00  0.00     0.007 C 
ENDBRANCH   8  28
ENDBRANCH   6   8
ENDBRANCH   5   6
ENDBRANCH   4   5
ENDBRANCH   3   4
ENDBRANCH   2   3
ENDBRANCH   1   2
BRANCH   1  30
ATOM     30  C   UNL A   1      35.580  31.838  28.301  1.00  0.00     0.188 C 
BRANCH  30  31
ATOM     31  O   UNL A   1      34.912  32.901  27.661  1.00  0.00    -0.376 OA
BRANCH  31  32
ATOM     32  C   UNL A   1      33.537  33.111  27.944  1.00  0.00     0.202 C 
BRANCH  32  33
ATOM     33  C   UNL A   1      33.003  34.514  28.303  1.00  0.00     0.261 C 
BRANCH  33  34
ATOM     34  O   UNL A   1      32.483  34.702  29.629  1.00  0.00    -0.460 OA
BRANCH  34  35
ATOM     35  C   UNL A   1      33.187  35.501  30.465  1.00  0.00     0.338 C 
ATOM     36  O   UNL A   1      32.813  36.565  30.940  1.00  0.00    -0.246 OA
BRANCH  35  37
ATOM     37  C   UNL A   1      34.369  34.735  30.932  1.00  0.00     0.060 A 
ATOM     38  C   UNL A   1      34.185  33.736  31.901  1.00  0.00     0.016 A 
ATOM     39  C   UNL A   1      35.637  34.958  30.390  1.00  0.00     0.016 A 
ATOM     40  C   UNL A   1      35.269  32.976  32.344  1.00  0.00     0.010 A 
ATOM     41  C   UNL A   1      36.727  34.215  30.858  1.00  0.00     0.010 A 
ATOM     42  C   UNL A   1      36.555  33.240  31.856  1.00  0.00    -0.014 A 
BRANCH  42  43
ATOM     43  C   UNL A   1      37.731  32.617  32.518  1.00  0.00     0.031 A 
ATOM     44  C   UNL A   1      38.422  31.473  31.822  1.00  0.00     0.074 A 
ATOM     45  C   UNL A   1      38.199  33.070  33.695  1.00  0.00     0.049 A 
ATOM     46  N   UNL A   1      39.444  30.758  32.214  1.00  0.00    -0.248 NA
ATOM     47  C   UNL A   1      37.885  31.083  30.508  1.00  0.00     0.031 C 
ATOM     48  C   UNL A   1      37.641  34.188  34.454  1.00  0.00     0.029 A 
ATOM     49  N   UNL A   1      39.249  32.633  34.467  1.00  0.00    -0.354 N 
ATOM     50  C   UNL A   1      39.663  29.825  31.206  1.00  0.00     0.074 A 
ATOM     51  C   UNL A   1      38.656  30.052  30.193  1.00  0.00     0.031 C 
ATOM     52  C   UNL A   1      38.342  34.338  35.592  1.00  0.00     0.029 A 
ATOM     53  C   UNL A   1      39.378  33.307  35.659  1.00  0.00     0.049 A 
ATOM     54  H   UNL A   1      39.853  31.907  34.192  1.00  0.00     0.167 HD
ATOM     55  C   UNL A   1      40.619  28.871  31.131  1.00  0.00     0.037 A 
ATOM     56  C   UNL A   1      40.215  33.098  36.696  1.00  0.00     0.037 A 
ATOM     57  C   UNL A   1      41.628  28.656  32.137  1.00  0.00     0.049 A 
ATOM     58  C   UNL A   1      41.242  31.996  36.608  1.00  0.00     0.074 A 
ATOM     59  C   UNL A   1      42.669  27.744  32.125  1.00  0.00     0.029 A 
ATOM     60  N   UNL A   1      41.715  29.346  33.335  1.00  0.00    -0.354 N 
ATOM     61  N   UNL A   1      41.471  31.155  35.626  1.00  0.00    -0.248 NA
ATOM     62  C   UNL A   1      42.130  31.816  37.766  1.00  0.00     0.031 C 
ATOM     63  C   UNL A   1      43.345  27.836  33.346  1.00  0.00     0.029 A 
ATOM     64  C   UNL A   1      42.768  28.854  34.090  1.00  0.00     0.049 A 
ATOM     65  H   UNL A   1      41.117  30.077  33.612  1.00  0.00     0.167 HD
ATOM     66  C   UNL A   1      42.542  30.365  36.039  1.00  0.00     0.074 A 
ATOM     67  C   UNL A   1      42.930  30.844  37.349  1.00  0.00     0.031 C 
ATOM     68  C   UNL A   1      43.149  29.338  35.394  1.00  0.00     0.037 A 
BRANCH  55  69
ATOM     69  C   UNL A   1      40.609  27.953  29.938  1.00  0.00     0.058 A 
ATOM     70  C   UNL A   1      41.585  28.025  28.933  1.00  0.00     0.135 A 
ATOM     71  C   UNL A   1      39.640  26.941  29.839  1.00  0.00     0.135 A 
ATOM     72  F   UNL A   1      42.522  28.986  28.967  1.00  0.00    -0.206 F 
ATOM     73  C   UNL A   1      41.596  27.133  27.866  1.00  0.00     0.059 A 
ATOM     74  C   UNL A   1      39.649  26.019  28.796  1.00  0.00     0.059 A 
ATOM     75  F   UNL A   1      38.679  26.832  30.769  1.00  0.00    -0.206 F 
ATOM     76  C   UNL A   1      40.627  26.127  27.811  1.00  0.00     0.060 A 
BRANCH  76  77
ATOM     77  S   UNL A   1      40.679  24.954  26.440  1.00  0.00     0.124 S 
ATOM     78  O   UNL A   1      41.477  23.873  27.010  1.00  0.00    -0.237 OA
ATOM     79  O   UNL A   1      39.265  24.656  26.234  1.00  0.00    -0.237 OA
ATOM     80  O   UNL A   1      41.322  25.709  25.369  1.00  0.00    -0.744 OA
ENDBRANCH  76  77
ENDBRANCH  55  69
BRANCH  56  81
ATOM     81  C   UNL A   1      40.100  33.926  37.929  1.00  0.00     0.058 A 
ATOM     82  C   UNL A   1      39.151  33.638  38.922  1.00  0.00     0.135 A 
ATOM     83  C   UNL A   1      40.924  35.048  38.122  1.00  0.00     0.135 A 
ATOM     84  F   UNL A   1      38.329  32.587  38.781  1.00  0.00    -0.206 F 
ATOM     85  C   UNL A   1      39.004  34.444  40.048  1.00  0.00     0.059 A 
ATOM     86  C   UNL A   1      40.819  35.850  39.255  1.00  0.00     0.059 A 
ATOM     87  F   UNL A   1      41.852  35.367  37.207  1.00  0.00    -0.206 F 
ATOM     88  C   UNL A   1      39.845  35.548  40.205  1.00  0.00     0.060 A 
BRANCH  88  89
ATOM     89  S   UNL A   1      39.666  36.572  41.682  1.00  0.00     0.124 S 
ATOM     90  O   UNL A   1      38.628  35.854  42.413  1.00  0.00    -0.237 OA
ATOM     91  O   UNL A   1      41.007  36.515  42.258  1.00  0.00    -0.237 OA
ATOM     92  O   UNL A   1      39.276  37.872  41.146  1.00  0.00    -0.744 OA
ENDBRANCH  88  89
ENDBRANCH  56  81
BRANCH  68  93
ATOM     93  C   UNL A   1      44.320  28.679  36.076  1.00  0.00     0.058 A 
ATOM     94  C   UNL A   1      44.160  27.567  36.919  1.00  0.00     0.135 A 
ATOM     95  C   UNL A   1      45.627  29.143  35.852  1.00  0.00     0.135 A 
ATOM     96  F   UNL A   1      42.933  27.082  37.171  1.00  0.00    -0.206 F 
ATOM     97  C   UNL A   1      45.247  26.964  37.545  1.00  0.00     0.059 A 
ATOM     98  C   UNL A   1      46.732  28.534  36.439  1.00  0.00     0.059 A 
ATOM     99  F   UNL A   1      45.843  30.192  35.043  1.00  0.00    -0.206 F 
ATOM    100  C   UNL A   1      46.530  27.456  37.300  1.00  0.00     0.060 A 
BRANCH 100 101
ATOM    101  S   UNL A   1      47.932  26.660  38.111  1.00  0.00     0.124 S 
ATOM    102  O   UNL A   1      47.339  26.235  39.374  1.00  0.00    -0.237 OA
ATOM    103  O   UNL A   1      48.268  25.590  37.175  1.00  0.00    -0.237 OA
ATOM    104  O   UNL A   1      48.921  27.730  38.210  1.00  0.00    -0.744 OA
ENDBRANCH 100 101
ENDBRANCH  68  93
ENDBRANCH  42  43
ENDBRANCH  35  37
ENDBRANCH  34  35
ENDBRANCH  33  34
ENDBRANCH  32  33
ENDBRANCH  31  32
ENDBRANCH  30  31
ENDBRANCH   1  30
TORSDOF 26
ENDMDL
MODEL 3
REMARK VINA RESULT:      -9.2      3.197      4.928
REMARK SMILES CCOc1cc(/C=C2/SC(=S)N([C@H](CC)C(=O)OCCOCCOCCOC(=O)c3ccc(-c4c5nc(c(-c6c(F)cc(S(=O)(=O)[O-])cc6F)c6ccc([nH]6)c(-c6c(F)cc(S(=O)(=O)[O-])cc6F)c6nc(c(-c7c(F)cc(S(=O)(=O)[O-])cc7F)c7ccc4[nH]7)C=C6)C=C5)cc3)C2=O)ccc1O
REMARK SMILES IDX 22 1 21 2 20 3 19 4 18 5 16 6 17 7 13 8 12 9 7 10 8 11 9 12
REMARK SMILES IDX 96 13 10 14 97 15 11 16 6 17 4 18 5 19 100 20 99 21 98 22
REMARK SMILES IDX 3 23 2 24 1 25 101 26 14 28 15 29 23 30 24 31 25 32 26 33
REMARK SMILES IDX 27 34 28 35 29 36 30 37 31 38 95 39 32 40 94 41 33 42 34 43
REMARK SMILES IDX 35 44 88 45 36 46 93 47 87 48 89 49 37 50 92 51 86 52 85 53
REMARK SMILES IDX 38 55 72 56 51 57 71 58 52 59 55 60 70 61 90 62 53 63 54 64
REMARK SMILES IDX 69 66 91 67 56 68 39 69 40 70 49 71 41 72 42 73 48 74 50 75
REMARK SMILES IDX 43 76 44 77 45 78 46 79 47 80 73 81 74 82 83 83 75 84 76 85
REMARK SMILES IDX 82 86 84 87 77 88 78 89 79 90 80 91 81 92 57 93 58 94 67 95
REMARK SMILES IDX 59 96 60 97 66 98 68 99 61 100 62 101 63 102 64 103 65 104
REMARK H PARENT 101 27 89 54 55 65
REMARK Flexibility Score: inf
ROOT
ATOM      1  C   UNL A   1      35.398  30.551  27.587  1.00  0.00     0.188 C 
ENDROOT
BRANCH   1   2
ATOM      2  O   UNL A   1      34.103  29.965  27.583  1.00  0.00    -0.376 OA
BRANCH   2   3
ATOM      3  C   UNL A   1      33.145  30.410  26.624  1.00  0.00     0.202 C 
BRANCH   3   4
ATOM      4  C   UNL A   1      32.384  29.381  25.768  1.00  0.00     0.261 C 
BRANCH   4   5
ATOM      5  O   UNL A   1      32.707  28.005  26.061  1.00  0.00    -0.462 OA
BRANCH   5   6
ATOM      6  C   UNL A   1      31.773  27.315  26.757  1.00  0.00     0.329 C 
ATOM      7  O   UNL A   1      31.040  27.819  27.605  1.00  0.00    -0.250 OA
BRANCH   6   8
ATOM      8  C   UNL A   1      31.635  25.838  26.354  1.00  0.00     0.201 C 
BRANCH   8   9
ATOM      9  N   UNL A   1      32.108  25.741  24.967  1.00  0.00    -0.278 N 
ATOM     10  C   UNL A   1      34.302  24.048  22.675  1.00  0.00     0.029 C 
ATOM     11  C   UNL A   1      33.518  24.948  23.279  1.00  0.00     0.081 C 
ATOM     12  S   UNL A   1      32.446  25.991  22.429  1.00  0.00    -0.054 SA
ATOM     13  C   UNL A   1      33.291  25.069  24.741  1.00  0.00     0.266 C 
ATOM     14  C   UNL A   1      31.453  26.245  23.861  1.00  0.00     0.149 C 
ATOM     15  O   UNL A   1      34.014  24.604  25.608  1.00  0.00    -0.268 OA
ATOM     16  S   UNL A   1      29.958  26.985  23.774  1.00  0.00    -0.052 S 
BRANCH  10  17
ATOM     17  C   UNL A   1      34.969  22.963  23.392  1.00  0.00    -0.020 A 
ATOM     18  C   UNL A   1      34.861  20.858  24.632  1.00  0.00     0.161 A 
ATOM     19  C   UNL A   1      34.235  21.913  23.945  1.00  0.00     0.058 A 
ATOM     20  C   UNL A   1      36.253  20.892  24.765  1.00  0.00     0.157 A 
ATOM     21  C   UNL A   1      36.995  21.931  24.192  1.00  0.00     0.051 A 
ATOM     22  C   UNL A   1      36.360  22.963  23.508  1.00  0.00     0.012 A 
BRANCH  18  23
ATOM     23  O   UNL A   1      33.940  19.958  25.076  1.00  0.00    -0.490 OA
BRANCH  23  24
ATOM     24  C   UNL A   1      32.640  19.833  24.525  1.00  0.00     0.226 C 
ATOM     25  C   UNL A   1      32.511  18.579  23.675  1.00  0.00     0.049 C 
ENDBRANCH  23  24
ENDBRANCH  18  23
BRANCH  20  26
ATOM     26  O   UNL A   1      37.031  20.000  25.443  1.00  0.00    -0.504 OA
ATOM     27  H   UNL A   1      37.961  20.009  25.331  1.00  0.00     0.293 HD
ENDBRANCH  20  26
ENDBRANCH  10  17
ENDBRANCH   8   9
BRANCH   8  28
ATOM     28  C   UNL A   1      30.371  24.982  26.565  1.00  0.00     0.034 C 
ATOM     29  C   UNL A   1      30.661  23.501  26.255  1.00  0.00     0.007 C 
ENDBRANCH   8  28
ENDBRANCH   6   8
ENDBRANCH   5   6
ENDBRANCH   4   5
ENDBRANCH   3   4
ENDBRANCH   2   3
ENDBRANCH   1   2
BRANCH   1  30
ATOM     30  C   UNL A   1      35.619  31.818  28.422  1.00  0.00     0.188 C 
BRANCH  30  31
ATOM     31  O   UNL A   1      35.209  33.018  27.804  1.00  0.00    -0.376 OA
BRANCH  31  32
ATOM     32  C   UNL A   1      33.882  33.475  28.018  1.00  0.00     0.202 C 
BRANCH  32  33
ATOM     33  C   UNL A   1      33.603  34.765  28.819  1.00  0.00     0.261 C 
BRANCH  33  34
ATOM     34  O   UNL A   1      32.693  34.670  29.926  1.00  0.00    -0.460 OA
BRANCH  34  35
ATOM     35  C   UNL A   1      33.005  35.360  31.048  1.00  0.00     0.338 C 
ATOM     36  O   UNL A   1      32.347  36.257  31.556  1.00  0.00    -0.246 OA
BRANCH  35  37
ATOM     37  C   UNL A   1      34.129  34.655  31.714  1.00  0.00     0.060 A 
ATOM     38  C   UNL A   1      35.366  35.310  31.822  1.00  0.00     0.016 A 
ATOM     39  C   UNL A   1      33.959  33.385  32.271  1.00  0.00     0.016 A 
ATOM     40  C   UNL A   1      36.437  34.689  32.466  1.00  0.00     0.010 A 
ATOM     41  C   UNL A   1      35.044  32.753  32.890  1.00  0.00     0.010 A 
ATOM     42  C   UNL A   1      36.296  33.390  32.967  1.00  0.00    -0.014 A 
BRANCH  42  43
ATOM     43  C   UNL A   1      37.501  32.640  33.409  1.00  0.00     0.031 A 
ATOM     44  C   UNL A   1      38.148  33.029  34.713  1.00  0.00     0.074 A 
ATOM     45  C   UNL A   1      37.997  31.617  32.689  1.00  0.00     0.049 A 
ATOM     46  N   UNL A   1      39.216  32.542  35.288  1.00  0.00    -0.248 NA
ATOM     47  C   UNL A   1      37.503  34.116  35.468  1.00  0.00     0.031 C 
ATOM     48  C   UNL A   1      37.445  31.122  31.429  1.00  0.00     0.029 A 
ATOM     49  N   UNL A   1      39.091  30.815  32.914  1.00  0.00    -0.354 N 
ATOM     50  C   UNL A   1      39.382  33.270  36.460  1.00  0.00     0.074 A 
ATOM     51  C   UNL A   1      38.315  34.246  36.506  1.00  0.00     0.031 C 
ATOM     52  C   UNL A   1      38.215  30.114  30.982  1.00  0.00     0.029 A 
ATOM     53  C   UNL A   1      39.331  29.912  31.905  1.00  0.00     0.049 A 
ATOM     54  H   UNL A   1      39.649  30.880  33.722  1.00  0.00     0.167 HD
ATOM     55  C   UNL A   1      40.333  33.134  37.413  1.00  0.00     0.037 A 
ATOM     56  C   UNL A   1      40.348  29.043  31.733  1.00  0.00     0.037 A 
ATOM     57  C   UNL A   1      41.387  32.153  37.369  1.00  0.00     0.049 A 
ATOM     58  C   UNL A   1      41.424  28.944  32.787  1.00  0.00     0.074 A 
ATOM     59  C   UNL A   1      42.370  31.908  38.313  1.00  0.00     0.029 A 
ATOM     60  N   UNL A   1      41.607  31.269  36.325  1.00  0.00    -0.354 N 
ATOM     61  N   UNL A   1      41.539  29.603  33.916  1.00  0.00    -0.248 NA
ATOM     62  C   UNL A   1      42.507  27.978  32.547  1.00  0.00     0.031 C 
ATOM     63  C   UNL A   1      43.223  30.922  37.809  1.00  0.00     0.029 A 
ATOM     64  C   UNL A   1      42.733  30.503  36.582  1.00  0.00     0.049 A 
ATOM     65  H   UNL A   1      41.047  31.196  35.518  1.00  0.00     0.167 HD
ATOM     66  C   UNL A   1      42.690  29.115  34.530  1.00  0.00     0.074 A 
ATOM     67  C   UNL A   1      43.222  28.089  33.659  1.00  0.00     0.031 C 
ATOM     68  C   UNL A   1      43.255  29.482  35.708  1.00  0.00     0.037 A 
BRANCH  55  69
ATOM     69  C   UNL A   1      40.310  34.090  38.575  1.00  0.00     0.058 A 
ATOM     70  C   UNL A   1      40.958  35.334  38.532  1.00  0.00     0.135 A 
ATOM     71  C   UNL A   1      39.567  33.779  39.726  1.00  0.00     0.135 A 
ATOM     72  F   UNL A   1      41.700  35.674  37.465  1.00  0.00    -0.206 F 
ATOM     73  C   UNL A   1      40.880  36.231  39.592  1.00  0.00     0.059 A 
ATOM     74  C   UNL A   1      39.450  34.673  40.785  1.00  0.00     0.059 A 
ATOM     75  F   UNL A   1      38.933  32.600  39.822  1.00  0.00    -0.206 F 
ATOM     76  C   UNL A   1      40.116  35.894  40.712  1.00  0.00     0.060 A 
BRANCH  76  77
ATOM     77  S   UNL A   1      39.993  37.087  42.062  1.00  0.00     0.124 S 
ATOM     78  O   UNL A   1      39.542  38.282  41.357  1.00  0.00    -0.237 OA
ATOM     79  O   UNL A   1      39.008  36.460  42.939  1.00  0.00    -0.237 OA
ATOM     80  O   UNL A   1      41.352  37.145  42.590  1.00  0.00    -0.744 OA
ENDBRANCH  76  77
ENDBRANCH  55  69
BRANCH  56  81
ATOM     81  C   UNL A   1      40.426  28.217  30.495  1.00  0.00     0.058 A 
ATOM     82  C   UNL A   1      41.357  28.497  29.482  1.00  0.00     0.135 A 
ATOM     83  C   UNL A   1      39.542  27.145  30.288  1.00  0.00     0.135 A 
ATOM     84  F   UNL A   1      42.214  29.519  29.622  1.00  0.00    -0.206 F 
ATOM     85  C   UNL A   1      41.392  27.762  28.301  1.00  0.00     0.059 A 
ATOM     86  C   UNL A   1      39.581  26.374  29.131  1.00  0.00     0.059 A 
ATOM     87  F   UNL A   1      38.636  26.830  31.226  1.00  0.00    -0.206 F 
ATOM     88  C   UNL A   1      40.500  26.700  28.135  1.00  0.00     0.060 A 
BRANCH  88  89
ATOM     89  S   UNL A   1      40.573  25.735  26.610  1.00  0.00     0.124 S 
ATOM     90  O   UNL A   1      39.267  25.086  26.611  1.00  0.00    -0.237 OA
ATOM     91  O   UNL A   1      40.769  26.772  25.601  1.00  0.00    -0.237 OA
ATOM     92  O   UNL A   1      41.716  24.853  26.824  1.00  0.00    -0.744 OA
ENDBRANCH  88  89
ENDBRANCH  56  81
BRANCH  68  93
ATOM     93  C   UNL A   1      44.498  28.749  36.144  1.00  0.00     0.058 A 
ATOM     94  C   UNL A   1      45.785  29.212  35.824  1.00  0.00     0.135 A 
ATOM     95  C   UNL A   1      44.400  27.588  36.929  1.00  0.00     0.135 A 
ATOM     96  F   UNL A   1      45.938  30.316  35.075  1.00  0.00    -0.206 F 
ATOM     97  C   UNL A   1      46.927  28.529  36.231  1.00  0.00     0.059 A 
ATOM     98  C   UNL A   1      45.529  26.908  37.377  1.00  0.00     0.059 A 
ATOM     99  F   UNL A   1      43.197  27.107  37.280  1.00  0.00    -0.206 F 
ATOM    100  C   UNL A   1      46.789  27.377  37.007  1.00  0.00     0.060 A 
BRANCH 100 101
ATOM    101  S   UNL A   1      48.278  26.506  37.537  1.00  0.00     0.124 S 
ATOM    102  O   UNL A   1      48.593  27.193  38.784  1.00  0.00    -0.237 OA
ATOM    103  O   UNL A   1      47.806  25.131  37.671  1.00  0.00    -0.237 OA
ATOM    104  O   UNL A   1      49.215  26.735  36.440  1.00  0.00    -0.744 OA
ENDBRANCH 100 101
ENDBRANCH  68  93
ENDBRANCH  42  43
ENDBRANCH  35  37
ENDBRANCH  34  35
ENDBRANCH  33  34
ENDBRANCH  32  33
ENDBRANCH  31  32
ENDBRANCH  30  31
ENDBRANCH   1  30
TORSDOF 26
ENDMDL
