MODEL 1
REMARK VINA RESULT:     -10.3      0.000      0.000
REMARK SMILES Cc1ccc2c(c1C)O[C@@H](C(=O)OCCOCCOCCOC(=O)c1ccc(-c3c4nc(c(-c5c(F)cc(S(=O)(=O)[O-])cc5F)c5ccc([nH]5)c(-c5c(F)cc(S(=O)(=O)[O-])cc5F)c5nc(c(-c6c(F)cc(S(=O)(=O)[O-])cc6F)c6ccc3[nH]6)C=C5)C=C4)cc1)CC2=O
REMARK SMILES IDX 19 1 18 2 17 3 16 4 15 5 14 6 13 7 11 8 12 9 10 10 1 11 2 12
REMARK SMILES IDX 3 13 7 14 4 15 6 16 8 17 5 18 9 19 92 20 91 21 93 22 20 23
REMARK SMILES IDX 21 24 22 25 23 26 24 27 25 28 26 29 90 30 27 31 89 32 28 33
REMARK SMILES IDX 29 34 30 35 83 36 31 37 88 38 82 39 84 40 32 41 87 42 81 43
REMARK SMILES IDX 80 44 33 46 67 47 46 48 66 49 47 50 50 51 65 52 85 53 48 54
REMARK SMILES IDX 49 55 64 57 86 58 51 59 34 60 35 61 44 62 36 63 37 64 43 65
REMARK SMILES IDX 45 66 38 67 39 68 40 69 41 70 42 71 68 72 69 73 78 74 70 75
REMARK SMILES IDX 71 76 77 77 79 78 72 79 73 80 74 81 75 82 76 83 52 84 53 85
REMARK SMILES IDX 62 86 54 87 55 88 61 89 63 90 56 91 57 92 58 93 59 94 60 95
REMARK H PARENT 84 45 50 56
REMARK Flexibility Score: inf
ROOT
ATOM      1  O   UNL A   1      34.929  33.400  30.131  1.00  0.00    -0.376 OA
ENDROOT
BRANCH   1   2
ATOM      2  C   UNL A   1      36.153  33.360  29.418  1.00  0.00     0.188 C 
BRANCH   2   3
ATOM      3  C   UNL A   1      36.115  32.767  28.008  1.00  0.00     0.188 C 
BRANCH   3   4
ATOM      4  O   UNL A   1      35.857  31.379  27.899  1.00  0.00    -0.376 OA
BRANCH   4   5
ATOM      5  C   UNL A   1      34.513  30.995  27.623  1.00  0.00     0.202 C 
BRANCH   5   6
ATOM      6  C   UNL A   1      34.210  29.490  27.542  1.00  0.00     0.261 C 
BRANCH   6   7
ATOM      7  O   UNL A   1      33.120  29.109  26.665  1.00  0.00    -0.460 OA
BRANCH   7   8
ATOM      8  C   UNL A   1      32.476  27.955  27.001  1.00  0.00     0.347 C 
ATOM      9  O   UNL A   1      31.633  27.874  27.890  1.00  0.00    -0.248 OA
BRANCH   8  10
ATOM     10  C   UNL A   1      32.936  26.706  26.224  1.00  0.00     0.290 C 
ATOM     11  C   UNL A   1      29.406  29.198  22.098  1.00  0.00     0.045 C 
ATOM     12  C   UNL A   1      29.848  28.150  23.078  1.00  0.00    -0.044 A 
ATOM     13  C   UNL A   1      28.879  27.278  23.617  1.00  0.00     0.005 A 
ATOM     14  C   UNL A   1      31.189  28.048  23.498  1.00  0.00    -0.005 A 
ATOM     15  C   UNL A   1      29.223  26.313  24.562  1.00  0.00     0.016 A 
ATOM     16  C   UNL A   1      31.521  27.061  24.436  1.00  0.00     0.134 A 
ATOM     17  C   UNL A   1      32.268  29.007  23.063  1.00  0.00     0.049 C 
ATOM     18  C   UNL A   1      30.548  26.214  24.971  1.00  0.00     0.060 A 
ATOM     19  O   UNL A   1      32.839  26.986  24.824  1.00  0.00    -0.477 OA
ATOM     20  C   UNL A   1      30.939  25.250  26.016  1.00  0.00     0.170 C 
ATOM     21  C   UNL A   1      32.361  25.328  26.491  1.00  0.00     0.138 C 
ATOM     22  O   UNL A   1      30.151  24.406  26.428  1.00  0.00    -0.294 OA
ENDBRANCH   8  10
ENDBRANCH   7   8
ENDBRANCH   6   7
ENDBRANCH   5   6
ENDBRANCH   4   5
ENDBRANCH   3   4
ENDBRANCH   2   3
ENDBRANCH   1   2
BRANCH   1  23
ATOM     23  C   UNL A   1      34.788  32.424  31.169  1.00  0.00     0.202 C 
BRANCH  23  24
ATOM     24  C   UNL A   1      36.105  31.759  31.632  1.00  0.00     0.261 C 
BRANCH  24  25
ATOM     25  O   UNL A   1      36.340  30.402  31.187  1.00  0.00    -0.460 OA
BRANCH  25  26
ATOM     26  C   UNL A   1      37.197  29.636  31.906  1.00  0.00     0.338 C 
ATOM     27  O   UNL A   1      36.895  28.853  32.792  1.00  0.00    -0.246 OA
BRANCH  26  28
ATOM     28  C   UNL A   1      38.529  29.667  31.237  1.00  0.00     0.060 A 
ATOM     29  C   UNL A   1      38.570  29.737  29.834  1.00  0.00     0.016 A 
ATOM     30  C   UNL A   1      39.721  29.714  31.965  1.00  0.00     0.016 A 
ATOM     31  C   UNL A   1      39.793  29.827  29.159  1.00  0.00     0.010 A 
ATOM     32  C   UNL A   1      40.947  29.765  31.287  1.00  0.00     0.010 A 
ATOM     33  C   UNL A   1      40.993  29.793  29.881  1.00  0.00    -0.014 A 
BRANCH  33  34
ATOM     34  C   UNL A   1      42.283  29.535  29.186  1.00  0.00     0.031 A 
ATOM     35  C   UNL A   1      42.533  28.140  28.675  1.00  0.00     0.074 A 
ATOM     36  C   UNL A   1      43.220  30.486  29.014  1.00  0.00     0.049 A 
ATOM     37  N   UNL A   1      43.608  27.630  28.132  1.00  0.00    -0.248 NA
ATOM     38  C   UNL A   1      41.414  27.191  28.797  1.00  0.00     0.031 C 
ATOM     39  C   UNL A   1      43.088  31.889  29.398  1.00  0.00     0.029 A 
ATOM     40  N   UNL A   1      44.484  30.403  28.475  1.00  0.00    -0.354 N 
ATOM     41  C   UNL A   1      43.295  26.307  27.846  1.00  0.00     0.074 A 
ATOM     42  C   UNL A   1      41.941  26.082  28.301  1.00  0.00     0.031 C 
ATOM     43  C   UNL A   1      44.233  32.531  29.100  1.00  0.00     0.029 A 
ATOM     44  C   UNL A   1      45.193  31.580  28.537  1.00  0.00     0.049 A 
ATOM     45  H   UNL A   1      44.846  29.577  28.080  1.00  0.00     0.167 HD
ATOM     46  C   UNL A   1      44.062  25.361  27.254  1.00  0.00     0.037 A 
ATOM     47  C   UNL A   1      46.474  31.849  28.206  1.00  0.00     0.037 A 
ATOM     48  C   UNL A   1      45.418  25.573  26.823  1.00  0.00     0.049 A 
ATOM     49  C   UNL A   1      47.350  30.751  27.650  1.00  0.00     0.074 A 
ATOM     50  C   UNL A   1      46.279  24.669  26.226  1.00  0.00     0.029 A 
ATOM     51  N   UNL A   1      46.114  26.765  26.952  1.00  0.00    -0.354 N 
ATOM     52  N   UNL A   1      47.044  29.502  27.388  1.00  0.00    -0.248 NA
ATOM     53  C   UNL A   1      48.749  31.097  27.349  1.00  0.00     0.031 C 
ATOM     54  C   UNL A   1      47.514  25.299  26.042  1.00  0.00     0.029 A 
ATOM     55  C   UNL A   1      47.404  26.612  26.467  1.00  0.00     0.049 A 
ATOM     56  H   UNL A   1      45.749  27.595  27.332  1.00  0.00     0.167 HD
ATOM     57  C   UNL A   1      48.199  28.925  26.864  1.00  0.00     0.074 A 
ATOM     58  C   UNL A   1      49.208  29.962  26.839  1.00  0.00     0.031 C 
ATOM     59  C   UNL A   1      48.403  27.652  26.440  1.00  0.00     0.037 A 
BRANCH  46  60
ATOM     60  C   UNL A   1      43.456  24.000  27.057  1.00  0.00     0.058 A 
ATOM     61  C   UNL A   1      42.915  23.607  25.822  1.00  0.00     0.135 A 
ATOM     62  C   UNL A   1      43.457  23.060  28.101  1.00  0.00     0.135 A 
ATOM     63  F   UNL A   1      42.867  24.474  24.799  1.00  0.00    -0.206 F 
ATOM     64  C   UNL A   1      42.382  22.336  25.635  1.00  0.00     0.059 A 
ATOM     65  C   UNL A   1      42.956  21.775  27.928  1.00  0.00     0.059 A 
ATOM     66  F   UNL A   1      43.955  23.387  29.304  1.00  0.00    -0.206 F 
ATOM     67  C   UNL A   1      42.413  21.425  26.692  1.00  0.00     0.060 A 
BRANCH  67  68
ATOM     68  S   UNL A   1      41.735  19.775  26.421  1.00  0.00     0.124 S 
ATOM     69  O   UNL A   1      40.315  20.066  26.252  1.00  0.00    -0.237 OA
ATOM     70  O   UNL A   1      42.442  19.345  25.219  1.00  0.00    -0.237 OA
ATOM     71  O   UNL A   1      42.085  19.056  27.643  1.00  0.00    -0.744 OA
ENDBRANCH  67  68
ENDBRANCH  46  60
BRANCH  47  72
ATOM     72  C   UNL A   1      47.022  33.223  28.393  1.00  0.00     0.058 A 
ATOM     73  C   UNL A   1      46.984  34.164  27.353  1.00  0.00     0.135 A 
ATOM     74  C   UNL A   1      47.599  33.622  29.610  1.00  0.00     0.135 A 
ATOM     75  F   UNL A   1      46.465  33.826  26.162  1.00  0.00    -0.206 F 
ATOM     76  C   UNL A   1      47.495  35.449  27.510  1.00  0.00     0.059 A 
ATOM     77  C   UNL A   1      48.094  34.910  29.800  1.00  0.00     0.059 A 
ATOM     78  F   UNL A   1      47.667  32.761  30.637  1.00  0.00    -0.206 F 
ATOM     79  C   UNL A   1      48.040  35.815  28.742  1.00  0.00     0.060 A 
BRANCH  79  80
ATOM     80  S   UNL A   1      48.640  37.507  28.950  1.00  0.00     0.124 S 
ATOM     81  O   UNL A   1      47.452  38.184  29.456  1.00  0.00    -0.237 OA
ATOM     82  O   UNL A   1      49.728  37.327  29.906  1.00  0.00    -0.237 OA
ATOM     83  O   UNL A   1      49.056  37.885  27.602  1.00  0.00    -0.744 OA
ENDBRANCH  79  80
ENDBRANCH  47  72
BRANCH  59  84
ATOM     84  C   UNL A   1      49.755  27.301  25.876  1.00  0.00     0.058 A 
ATOM     85  C   UNL A   1      50.826  26.920  26.699  1.00  0.00     0.135 A 
ATOM     86  C   UNL A   1      49.960  27.269  24.485  1.00  0.00     0.135 A 
ATOM     87  F   UNL A   1      50.689  26.932  28.035  1.00  0.00    -0.206 F 
ATOM     88  C   UNL A   1      52.056  26.542  26.167  1.00  0.00     0.059 A 
ATOM     89  C   UNL A   1      51.170  26.865  23.930  1.00  0.00     0.059 A 
ATOM     90  F   UNL A   1      48.966  27.608  23.648  1.00  0.00    -0.206 F 
ATOM     91  C   UNL A   1      52.216  26.512  24.780  1.00  0.00     0.060 A 
BRANCH  91  92
ATOM     92  S   UNL A   1      53.807  25.987  24.106  1.00  0.00     0.124 S 
ATOM     93  O   UNL A   1      53.905  24.620  24.611  1.00  0.00    -0.237 OA
ATOM     94  O   UNL A   1      53.593  26.117  22.668  1.00  0.00    -0.237 OA
ATOM     95  O   UNL A   1      54.754  26.936  24.683  1.00  0.00    -0.744 OA
ENDBRANCH  91  92
ENDBRANCH  59  84
ENDBRANCH  33  34
ENDBRANCH  26  28
ENDBRANCH  25  26
ENDBRANCH  24  25
ENDBRANCH  23  24
ENDBRANCH   1  23
TORSDOF 20
ENDMDL
MODEL 2
REMARK VINA RESULT:     -10.2      5.302      7.393
REMARK SMILES Cc1ccc2c(c1C)O[C@@H](C(=O)OCCOCCOCCOC(=O)c1ccc(-c3c4nc(c(-c5c(F)cc(S(=O)(=O)[O-])cc5F)c5ccc([nH]5)c(-c5c(F)cc(S(=O)(=O)[O-])cc5F)c5nc(c(-c6c(F)cc(S(=O)(=O)[O-])cc6F)c6ccc3[nH]6)C=C5)C=C4)cc1)CC2=O
REMARK SMILES IDX 19 1 18 2 17 3 16 4 15 5 14 6 13 7 11 8 12 9 10 10 1 11 2 12
REMARK SMILES IDX 3 13 7 14 4 15 6 16 8 17 5 18 9 19 92 20 91 21 93 22 20 23
REMARK SMILES IDX 21 24 22 25 23 26 24 27 25 28 26 29 90 30 27 31 89 32 28 33
REMARK SMILES IDX 29 34 30 35 83 36 31 37 88 38 82 39 84 40 32 41 87 42 81 43
REMARK SMILES IDX 80 44 33 46 67 47 46 48 66 49 47 50 50 51 65 52 85 53 48 54
REMARK SMILES IDX 49 55 64 57 86 58 51 59 34 60 35 61 44 62 36 63 37 64 43 65
REMARK SMILES IDX 45 66 38 67 39 68 40 69 41 70 42 71 68 72 69 73 78 74 70 75
REMARK SMILES IDX 71 76 77 77 79 78 72 79 73 80 74 81 75 82 76 83 52 84 53 85
REMARK SMILES IDX 62 86 54 87 55 88 61 89 63 90 56 91 57 92 58 93 59 94 60 95
REMARK H PARENT 84 45 50 56
REMARK Flexibility Score: inf
ROOT
ATOM      1  O   UNL A   1      30.791  29.565  24.387  1.00  0.00    -0.376 OA
ENDROOT
BRANCH   1   2
ATOM      2  C   UNL A   1      31.262  28.857  23.253  1.00  0.00     0.188 C 
BRANCH   2   3
ATOM      3  C   UNL A   1      30.544  27.552  22.902  1.00  0.00     0.188 C 
BRANCH   3   4
ATOM      4  O   UNL A   1      29.632  27.040  23.857  1.00  0.00    -0.376 OA
BRANCH   4   5
ATOM      5  C   UNL A   1      30.005  25.837  24.521  1.00  0.00     0.202 C 
BRANCH   5   6
ATOM      6  C   UNL A   1      30.174  25.896  26.049  1.00  0.00     0.261 C 
BRANCH   6   7
ATOM      7  O   UNL A   1      31.450  25.436  26.563  1.00  0.00    -0.460 OA
BRANCH   7   8
ATOM      8  C   UNL A   1      31.503  24.115  26.895  1.00  0.00     0.347 C 
ATOM      9  O   UNL A   1      30.514  23.428  27.136  1.00  0.00    -0.248 OA
BRANCH   8  10
ATOM     10  C   UNL A   1      32.925  23.535  27.025  1.00  0.00     0.290 C 
ATOM     11  C   UNL A   1      33.097  25.321  21.326  1.00  0.00     0.045 C 
ATOM     12  C   UNL A   1      33.120  24.337  22.461  1.00  0.00    -0.044 A 
ATOM     13  C   UNL A   1      32.756  23.000  22.202  1.00  0.00     0.005 A 
ATOM     14  C   UNL A   1      33.453  24.729  23.772  1.00  0.00    -0.005 A 
ATOM     15  C   UNL A   1      32.720  22.052  23.223  1.00  0.00     0.016 A 
ATOM     16  C   UNL A   1      33.428  23.760  24.784  1.00  0.00     0.134 A 
ATOM     17  C   UNL A   1      33.744  26.156  24.162  1.00  0.00     0.049 C 
ATOM     18  C   UNL A   1      33.053  22.441  24.515  1.00  0.00     0.060 A 
ATOM     19  O   UNL A   1      33.761  24.172  26.054  1.00  0.00    -0.477 OA
ATOM     20  C   UNL A   1      32.963  21.485  25.632  1.00  0.00     0.170 C 
ATOM     21  C   UNL A   1      33.197  22.044  27.005  1.00  0.00     0.138 C 
ATOM     22  O   UNL A   1      32.756  20.292  25.432  1.00  0.00    -0.294 OA
ENDBRANCH   8  10
ENDBRANCH   7   8
ENDBRANCH   6   7
ENDBRANCH   5   6
ENDBRANCH   4   5
ENDBRANCH   3   4
ENDBRANCH   2   3
ENDBRANCH   1   2
BRANCH   1  23
ATOM     23  C   UNL A   1      31.538  29.369  25.591  1.00  0.00     0.202 C 
BRANCH  23  24
ATOM     24  C   UNL A   1      33.050  29.677  25.486  1.00  0.00     0.261 C 
BRANCH  24  25
ATOM     25  O   UNL A   1      33.840  29.477  26.681  1.00  0.00    -0.460 OA
BRANCH  25  26
ATOM     26  C   UNL A   1      34.357  30.571  27.294  1.00  0.00     0.338 C 
ATOM     27  O   UNL A   1      33.766  31.613  27.528  1.00  0.00    -0.246 OA
BRANCH  26  28
ATOM     28  C   UNL A   1      35.659  30.191  27.913  1.00  0.00     0.060 A 
ATOM     29  C   UNL A   1      35.641  29.533  29.154  1.00  0.00     0.016 A 
ATOM     30  C   UNL A   1      36.876  30.395  27.257  1.00  0.00     0.016 A 
ATOM     31  C   UNL A   1      36.833  29.104  29.751  1.00  0.00     0.010 A 
ATOM     32  C   UNL A   1      38.072  29.999  27.873  1.00  0.00     0.010 A 
ATOM     33  C   UNL A   1      38.060  29.378  29.135  1.00  0.00    -0.014 A 
BRANCH  33  34
ATOM     34  C   UNL A   1      39.331  29.251  29.900  1.00  0.00     0.031 A 
ATOM     35  C   UNL A   1      40.295  28.172  29.476  1.00  0.00     0.074 A 
ATOM     36  C   UNL A   1      39.635  30.044  30.944  1.00  0.00     0.049 A 
ATOM     37  N   UNL A   1      41.412  27.786  30.034  1.00  0.00    -0.248 NA
ATOM     38  C   UNL A   1      39.943  27.428  28.255  1.00  0.00     0.031 C 
ATOM     39  C   UNL A   1      38.830  31.164  31.424  1.00  0.00     0.029 A 
ATOM     40  N   UNL A   1      40.712  30.012  31.802  1.00  0.00    -0.354 N 
ATOM     41  C   UNL A   1      41.898  26.760  29.233  1.00  0.00     0.074 A 
ATOM     42  C   UNL A   1      40.941  26.562  28.167  1.00  0.00     0.031 C 
ATOM     43  C   UNL A   1      39.432  31.702  32.501  1.00  0.00     0.029 A 
ATOM     44  C   UNL A   1      40.644  30.943  32.812  1.00  0.00     0.049 A 
ATOM     45  H   UNL A   1      41.461  29.381  31.700  1.00  0.00     0.167 HD
ATOM     46  C   UNL A   1      43.040  26.046  29.367  1.00  0.00     0.037 A 
ATOM     47  C   UNL A   1      41.451  31.140  33.876  1.00  0.00     0.037 A 
ATOM     48  C   UNL A   1      43.983  26.221  30.439  1.00  0.00     0.049 A 
ATOM     49  C   UNL A   1      42.663  30.258  34.071  1.00  0.00     0.074 A 
ATOM     50  C   UNL A   1      45.162  25.534  30.666  1.00  0.00     0.029 A 
ATOM     51  N   UNL A   1      43.850  27.140  31.469  1.00  0.00    -0.354 N 
ATOM     52  N   UNL A   1      43.110  29.288  33.309  1.00  0.00    -0.248 NA
ATOM     53  C   UNL A   1      43.478  30.495  35.273  1.00  0.00     0.031 C 
ATOM     54  C   UNL A   1      45.716  26.000  31.862  1.00  0.00     0.029 A 
ATOM     55  C   UNL A   1      44.915  27.020  32.348  1.00  0.00     0.049 A 
ATOM     56  H   UNL A   1      43.110  27.781  31.563  1.00  0.00     0.167 HD
ATOM     57  C   UNL A   1      44.271  28.822  33.921  1.00  0.00     0.074 A 
ATOM     58  C   UNL A   1      44.463  29.621  35.113  1.00  0.00     0.031 C 
ATOM     59  C   UNL A   1      45.104  27.824  33.530  1.00  0.00     0.037 A 
BRANCH  46  60
ATOM     60  C   UNL A   1      43.324  24.990  28.336  1.00  0.00     0.058 A 
ATOM     61  C   UNL A   1      42.932  23.654  28.523  1.00  0.00     0.135 A 
ATOM     62  C   UNL A   1      43.954  25.324  27.126  1.00  0.00     0.135 A 
ATOM     63  F   UNL A   1      42.349  23.276  29.671  1.00  0.00    -0.206 F 
ATOM     64  C   UNL A   1      43.169  22.685  27.555  1.00  0.00     0.059 A 
ATOM     65  C   UNL A   1      44.175  24.377  26.131  1.00  0.00     0.059 A 
ATOM     66  F   UNL A   1      44.355  26.585  26.898  1.00  0.00    -0.206 F 
ATOM     67  C   UNL A   1      43.785  23.057  26.359  1.00  0.00     0.060 A 
BRANCH  67  68
ATOM     68  S   UNL A   1      44.065  21.789  25.107  1.00  0.00     0.124 S 
ATOM     69  O   UNL A   1      45.442  21.396  25.390  1.00  0.00    -0.237 OA
ATOM     70  O   UNL A   1      43.044  20.800  25.437  1.00  0.00    -0.237 OA
ATOM     71  O   UNL A   1      43.864  22.500  23.848  1.00  0.00    -0.744 OA
ENDBRANCH  67  68
ENDBRANCH  46  60
BRANCH  47  72
ATOM     72  C   UNL A   1      41.145  32.220  34.858  1.00  0.00     0.058 A 
ATOM     73  C   UNL A   1      40.275  31.994  35.934  1.00  0.00     0.135 A 
ATOM     74  C   UNL A   1      41.711  33.501  34.737  1.00  0.00     0.135 A 
ATOM     75  F   UNL A   1      39.688  30.796  36.081  1.00  0.00    -0.206 F 
ATOM     76  C   UNL A   1      39.975  32.993  36.855  1.00  0.00     0.059 A 
ATOM     77  C   UNL A   1      41.448  34.509  35.661  1.00  0.00     0.059 A 
ATOM     78  F   UNL A   1      42.547  33.774  33.724  1.00  0.00    -0.206 F 
ATOM     79  C   UNL A   1      40.575  34.246  36.715  1.00  0.00     0.060 A 
BRANCH  79  80
ATOM     80  S   UNL A   1      40.227  35.511  37.957  1.00  0.00     0.124 S 
ATOM     81  O   UNL A   1      39.157  34.887  38.727  1.00  0.00    -0.237 OA
ATOM     82  O   UNL A   1      41.514  35.633  38.635  1.00  0.00    -0.237 OA
ATOM     83  O   UNL A   1      39.836  36.668  37.158  1.00  0.00    -0.744 OA
ENDBRANCH  79  80
ENDBRANCH  47  72
BRANCH  59  84
ATOM     84  C   UNL A   1      46.324  27.550  34.370  1.00  0.00     0.058 A 
ATOM     85  C   UNL A   1      47.539  28.220  34.156  1.00  0.00     0.135 A 
ATOM     86  C   UNL A   1      46.255  26.660  35.457  1.00  0.00     0.135 A 
ATOM     87  F   UNL A   1      47.664  29.080  33.133  1.00  0.00    -0.206 F 
ATOM     88  C   UNL A   1      48.644  28.003  34.973  1.00  0.00     0.059 A 
ATOM     89  C   UNL A   1      47.338  26.451  36.305  1.00  0.00     0.059 A 
ATOM     90  F   UNL A   1      45.114  26.002  35.719  1.00  0.00    -0.206 F 
ATOM     91  C   UNL A   1      48.532  27.120  36.049  1.00  0.00     0.060 A 
BRANCH  91  92
ATOM     92  S   UNL A   1      49.967  26.876  37.119  1.00  0.00     0.124 S 
ATOM     93  O   UNL A   1      50.328  28.252  37.446  1.00  0.00    -0.237 OA
ATOM     94  O   UNL A   1      49.406  26.090  38.214  1.00  0.00    -0.237 OA
ATOM     95  O   UNL A   1      50.915  26.166  36.265  1.00  0.00    -0.744 OA
ENDBRANCH  91  92
ENDBRANCH  59  84
ENDBRANCH  33  34
ENDBRANCH  26  28
ENDBRANCH  25  26
ENDBRANCH  24  25
ENDBRANCH  23  24
ENDBRANCH   1  23
TORSDOF 20
ENDMDL
MODEL 3
REMARK VINA RESULT:     -10.2      1.808      3.192
REMARK SMILES Cc1ccc2c(c1C)O[C@@H](C(=O)OCCOCCOCCOC(=O)c1ccc(-c3c4nc(c(-c5c(F)cc(S(=O)(=O)[O-])cc5F)c5ccc([nH]5)c(-c5c(F)cc(S(=O)(=O)[O-])cc5F)c5nc(c(-c6c(F)cc(S(=O)(=O)[O-])cc6F)c6ccc3[nH]6)C=C5)C=C4)cc1)CC2=O
REMARK SMILES IDX 19 1 18 2 17 3 16 4 15 5 14 6 13 7 11 8 12 9 10 10 1 11 2 12
REMARK SMILES IDX 3 13 7 14 4 15 6 16 8 17 5 18 9 19 92 20 91 21 93 22 20 23
REMARK SMILES IDX 21 24 22 25 23 26 24 27 25 28 26 29 90 30 27 31 89 32 28 33
REMARK SMILES IDX 29 34 30 35 83 36 31 37 88 38 82 39 84 40 32 41 87 42 81 43
REMARK SMILES IDX 80 44 33 46 67 47 46 48 66 49 47 50 50 51 65 52 85 53 48 54
REMARK SMILES IDX 49 55 64 57 86 58 51 59 34 60 35 61 44 62 36 63 37 64 43 65
REMARK SMILES IDX 45 66 38 67 39 68 40 69 41 70 42 71 68 72 69 73 78 74 70 75
REMARK SMILES IDX 71 76 77 77 79 78 72 79 73 80 74 81 75 82 76 83 52 84 53 85
REMARK SMILES IDX 62 86 54 87 55 88 61 89 63 90 56 91 57 92 58 93 59 94 60 95
REMARK H PARENT 84 45 50 56
REMARK Flexibility Score: inf
ROOT
ATOM      1  O   UNL A   1      34.518  31.634  27.498  1.00  0.00    -0.376 OA
ENDROOT
BRANCH   1   2
ATOM      2  C   UNL A   1      33.626  30.569  27.221  1.00  0.00     0.188 C 
BRANCH   2   3
ATOM      3  C   UNL A   1      34.249  29.212  26.882  1.00  0.00     0.188 C 
BRANCH   3   4
ATOM      4  O   UNL A   1      33.411  28.075  26.980  1.00  0.00    -0.376 OA
BRANCH   4   5
ATOM      5  C   UNL A   1      33.432  27.165  25.884  1.00  0.00     0.202 C 
BRANCH   5   6
ATOM      6  C   UNL A   1      33.062  25.701  26.175  1.00  0.00     0.261 C 
BRANCH   6   7
ATOM      7  O   UNL A   1      31.713  25.306  25.820  1.00  0.00    -0.460 OA
BRANCH   7   8
ATOM      8  C   UNL A   1      31.491  23.961  25.776  1.00  0.00     0.347 C 
ATOM      9  O   UNL A   1      31.636  23.210  26.736  1.00  0.00    -0.248 OA
BRANCH   8  10
ATOM     10  C   UNL A   1      31.103  23.414  24.388  1.00  0.00     0.290 C 
ATOM     11  C   UNL A   1      36.371  20.685  25.096  1.00  0.00     0.045 C 
ATOM     12  C   UNL A   1      35.380  21.620  24.463  1.00  0.00    -0.044 A 
ATOM     13  C   UNL A   1      35.864  22.723  23.731  1.00  0.00     0.005 A 
ATOM     14  C   UNL A   1      33.991  21.442  24.621  1.00  0.00    -0.005 A 
ATOM     15  C   UNL A   1      34.993  23.646  23.156  1.00  0.00     0.016 A 
ATOM     16  C   UNL A   1      33.128  22.369  24.022  1.00  0.00     0.134 A 
ATOM     17  C   UNL A   1      33.387  20.359  25.479  1.00  0.00     0.049 C 
ATOM     18  C   UNL A   1      33.624  23.465  23.311  1.00  0.00     0.060 A 
ATOM     19  O   UNL A   1      31.778  22.168  24.192  1.00  0.00    -0.477 OA
ATOM     20  C   UNL A   1      32.672  24.455  22.774  1.00  0.00     0.170 C 
ATOM     21  C   UNL A   1      31.228  24.244  23.125  1.00  0.00     0.138 C 
ATOM     22  O   UNL A   1      33.047  25.365  22.043  1.00  0.00    -0.294 OA
ENDBRANCH   8  10
ENDBRANCH   7   8
ENDBRANCH   6   7
ENDBRANCH   5   6
ENDBRANCH   4   5
ENDBRANCH   3   4
ENDBRANCH   2   3
ENDBRANCH   1   2
BRANCH   1  23
ATOM     23  C   UNL A   1      34.408  32.206  28.806  1.00  0.00     0.202 C 
BRANCH  23  24
ATOM     24  C   UNL A   1      35.467  31.728  29.826  1.00  0.00     0.261 C 
BRANCH  24  25
ATOM     25  O   UNL A   1      36.023  30.409  29.617  1.00  0.00    -0.460 OA
BRANCH  25  26
ATOM     26  C   UNL A   1      36.812  29.888  30.589  1.00  0.00     0.338 C 
ATOM     27  O   UNL A   1      36.430  29.334  31.607  1.00  0.00    -0.246 OA
BRANCH  26  28
ATOM     28  C   UNL A   1      38.209  29.822  30.074  1.00  0.00     0.060 A 
ATOM     29  C   UNL A   1      38.405  29.711  28.687  1.00  0.00     0.016 A 
ATOM     30  C   UNL A   1      39.315  29.951  30.919  1.00  0.00     0.016 A 
ATOM     31  C   UNL A   1      39.697  29.702  28.148  1.00  0.00     0.010 A 
ATOM     32  C   UNL A   1      40.609  29.904  30.382  1.00  0.00     0.010 A 
ATOM     33  C   UNL A   1      40.809  29.751  28.997  1.00  0.00    -0.014 A 
BRANCH  33  34
ATOM     34  C   UNL A   1      42.161  29.394  28.489  1.00  0.00     0.031 A 
ATOM     35  C   UNL A   1      42.417  27.951  28.138  1.00  0.00     0.074 A 
ATOM     36  C   UNL A   1      43.148  30.300  28.347  1.00  0.00     0.049 A 
ATOM     37  N   UNL A   1      43.528  27.365  27.776  1.00  0.00    -0.248 NA
ATOM     38  C   UNL A   1      41.255  27.049  28.208  1.00  0.00     0.031 C 
ATOM     39  C   UNL A   1      43.025  31.735  28.588  1.00  0.00     0.029 A 
ATOM     40  N   UNL A   1      44.462  30.132  27.975  1.00  0.00    -0.354 N 
ATOM     41  C   UNL A   1      43.200  26.030  27.572  1.00  0.00     0.074 A 
ATOM     42  C   UNL A   1      41.794  25.885  27.879  1.00  0.00     0.031 C 
ATOM     43  C   UNL A   1      44.221  32.315  28.374  1.00  0.00     0.029 A 
ATOM     44  C   UNL A   1      45.204  31.290  28.018  1.00  0.00     0.049 A 
ATOM     45  H   UNL A   1      44.836  29.263  27.702  1.00  0.00     0.167 HD
ATOM     46  C   UNL A   1      43.995  25.013  27.164  1.00  0.00     0.037 A 
ATOM     47  C   UNL A   1      46.524  31.493  27.822  1.00  0.00     0.037 A 
ATOM     48  C   UNL A   1      45.399  25.146  26.883  1.00  0.00     0.049 A 
ATOM     49  C   UNL A   1      47.417  30.324  27.476  1.00  0.00     0.074 A 
ATOM     50  C   UNL A   1      46.289  24.168  26.476  1.00  0.00     0.029 A 
ATOM     51  N   UNL A   1      46.121  26.325  26.989  1.00  0.00    -0.354 N 
ATOM     52  N   UNL A   1      47.097  29.065  27.290  1.00  0.00    -0.248 NA
ATOM     53  C   UNL A   1      48.854  30.602  27.316  1.00  0.00     0.031 C 
ATOM     54  C   UNL A   1      47.560  24.744  26.389  1.00  0.00     0.029 A 
ATOM     55  C   UNL A   1      47.451  26.094  26.679  1.00  0.00     0.049 A 
ATOM     56  H   UNL A   1      45.745  27.197  27.247  1.00  0.00     0.167 HD
ATOM     57  C   UNL A   1      48.282  28.410  26.962  1.00  0.00     0.074 A 
ATOM     58  C   UNL A   1      49.326  29.413  26.968  1.00  0.00     0.031 C 
ATOM     59  C   UNL A   1      48.486  27.098  26.680  1.00  0.00     0.037 A 
BRANCH  46  60
ATOM     60  C   UNL A   1      43.365  23.656  27.017  1.00  0.00     0.058 A 
ATOM     61  C   UNL A   1      43.137  22.826  28.126  1.00  0.00     0.135 A 
ATOM     62  C   UNL A   1      42.942  23.197  25.758  1.00  0.00     0.135 A 
ATOM     63  F   UNL A   1      43.544  23.205  29.348  1.00  0.00    -0.206 F 
ATOM     64  C   UNL A   1      42.527  21.584  27.991  1.00  0.00     0.059 A 
ATOM     65  C   UNL A   1      42.304  21.972  25.603  1.00  0.00     0.059 A 
ATOM     66  F   UNL A   1      43.142  23.948  24.663  1.00  0.00    -0.206 F 
ATOM     67  C   UNL A   1      42.109  21.168  26.726  1.00  0.00     0.060 A 
BRANCH  67  68
ATOM     68  S   UNL A   1      41.301  19.562  26.575  1.00  0.00     0.124 S 
ATOM     69  O   UNL A   1      40.024  19.932  25.971  1.00  0.00    -0.237 OA
ATOM     70  O   UNL A   1      42.223  18.833  25.710  1.00  0.00    -0.237 OA
ATOM     71  O   UNL A   1      41.226  19.085  27.953  1.00  0.00    -0.744 OA
ENDBRANCH  67  68
ENDBRANCH  46  60
BRANCH  47  72
ATOM     72  C   UNL A   1      47.098  32.862  27.951  1.00  0.00     0.058 A 
ATOM     73  C   UNL A   1      46.993  33.792  26.906  1.00  0.00     0.135 A 
ATOM     74  C   UNL A   1      47.769  33.268  29.117  1.00  0.00     0.135 A 
ATOM     75  F   UNL A   1      46.383  33.447  25.761  1.00  0.00    -0.206 F 
ATOM     76  C   UNL A   1      47.527  35.072  27.009  1.00  0.00     0.059 A 
ATOM     77  C   UNL A   1      48.289  34.552  29.254  1.00  0.00     0.059 A 
ATOM     78  F   UNL A   1      47.904  32.418  30.146  1.00  0.00    -0.206 F 
ATOM     79  C   UNL A   1      48.166  35.447  28.192  1.00  0.00     0.060 A 
BRANCH  79  80
ATOM     80  S   UNL A   1      48.798  37.134  28.335  1.00  0.00     0.124 S 
ATOM     81  O   UNL A   1      47.750  37.900  27.670  1.00  0.00    -0.237 OA
ATOM     82  O   UNL A   1      48.891  37.301  29.782  1.00  0.00    -0.237 OA
ATOM     83  O   UNL A   1      50.077  37.075  27.634  1.00  0.00    -0.744 OA
ENDBRANCH  79  80
ENDBRANCH  47  72
BRANCH  59  84
ATOM     84  C   UNL A   1      49.881  26.660  26.318  1.00  0.00     0.058 A 
ATOM     85  C   UNL A   1      50.348  26.690  24.994  1.00  0.00     0.135 A 
ATOM     86  C   UNL A   1      50.790  26.280  27.320  1.00  0.00     0.135 A 
ATOM     87  F   UNL A   1      49.524  27.044  23.995  1.00  0.00    -0.206 F 
ATOM     88  C   UNL A   1      51.657  26.339  24.676  1.00  0.00     0.059 A 
ATOM     89  C   UNL A   1      52.111  25.954  27.029  1.00  0.00     0.059 A 
ATOM     90  F   UNL A   1      50.404  26.247  28.606  1.00  0.00    -0.206 F 
ATOM     91  C   UNL A   1      52.533  25.977  25.701  1.00  0.00     0.060 A 
BRANCH  91  92
ATOM     92  S   UNL A   1      54.236  25.556  25.273  1.00  0.00     0.124 S 
ATOM     93  O   UNL A   1      54.258  24.119  25.530  1.00  0.00    -0.237 OA
ATOM     94  O   UNL A   1      54.310  25.950  23.869  1.00  0.00    -0.237 OA
ATOM     95  O   UNL A   1      55.030  26.369  26.190  1.00  0.00    -0.744 OA
ENDBRANCH  91  92
ENDBRANCH  59  84
ENDBRANCH  33  34
ENDBRANCH  26  28
ENDBRANCH  25  26
ENDBRANCH  24  25
ENDBRANCH  23  24
ENDBRANCH   1  23
TORSDOF 20
ENDMDL
