MODEL 1
REMARK VINA RESULT:      -9.4      0.000      0.000
REMARK SMILES CC[C@]1(C(=O)OCCOCCOCCOC(=O)c2ccc(-c3c4nc(c(-c5c(F)cc(S(=O)(=O)[O-])cc5F)c5ccc([nH]5)c(-c5c(F)cc(S(=O)(=O)[O-])cc5F)c5nc(c(-c6c(F)cc(S(=O)(=O)[O-])cc6F)c6ccc3[nH]6)C=C5)C=C4)cc2)CCC[N@@H+](Cc2cc(OC)ccc2F)C1
REMARK SMILES IDX 10 1 9 2 8 3 7 4 6 5 4 6 5 7 3 8 84 9 98 10 85 11 87 12
REMARK SMILES IDX 86 13 2 15 1 16 88 17 89 18 90 19 96 20 91 21 95 22 97 23
REMARK SMILES IDX 94 24 92 25 93 26 11 27 12 28 13 29 14 30 15 31 16 32 17 33
REMARK SMILES IDX 18 34 19 35 83 36 20 37 82 38 21 39 22 40 23 41 76 42 24 43
REMARK SMILES IDX 81 44 75 45 77 46 25 47 80 48 74 49 73 50 26 52 60 53 39 54
REMARK SMILES IDX 59 55 40 56 43 57 58 58 78 59 41 60 42 61 57 63 79 64 44 65
REMARK SMILES IDX 27 66 28 67 37 68 29 69 30 70 36 71 38 72 31 73 32 74 33 75
REMARK SMILES IDX 34 76 35 77 61 78 62 79 71 80 63 81 64 82 70 83 72 84 65 85
REMARK SMILES IDX 66 86 67 87 68 88 69 89 45 90 46 91 55 92 47 93 48 94 54 95
REMARK SMILES IDX 56 96 49 97 50 98 51 99 52 100 53 101
REMARK H PARENT 87 14 77 51 43 62
REMARK Flexibility Score: inf
ROOT
ATOM      1  C   UNL A   1      31.756  28.387  25.642  1.00  0.00     0.188 C 
ENDROOT
BRANCH   1   2
ATOM      2  O   UNL A   1      31.143  28.082  24.399  1.00  0.00    -0.376 OA
BRANCH   2   3
ATOM      3  C   UNL A   1      31.251  26.741  23.931  1.00  0.00     0.202 C 
BRANCH   3   4
ATOM      4  C   UNL A   1      31.594  25.647  24.956  1.00  0.00     0.261 C 
BRANCH   4   5
ATOM      5  O   UNL A   1      32.459  24.593  24.478  1.00  0.00    -0.463 OA
BRANCH   5   6
ATOM      6  C   UNL A   1      31.888  23.358  24.438  1.00  0.00     0.317 C 
ATOM      7  O   UNL A   1      30.834  23.119  23.853  1.00  0.00    -0.251 OA
BRANCH   6   8
ATOM      8  C   UNL A   1      32.648  22.266  25.218  1.00  0.00     0.117 C 
ATOM      9  C   UNL A   1      32.213  20.813  24.923  1.00  0.00     0.030 C 
ATOM     10  C   UNL A   1      34.053  22.457  24.626  1.00  0.00     0.281 C 
ATOM     11  C   UNL A   1      33.292  19.802  25.337  1.00  0.00     0.063 C 
ATOM     12  N   UNL A   1      35.083  21.476  24.974  1.00  0.00    -0.330 N 
ATOM     13  C   UNL A   1      34.653  20.108  24.691  1.00  0.00     0.262 C 
ATOM     14  H   UNL A   1      35.227  21.494  25.983  1.00  0.00     0.348 HD
BRANCH   8  15
ATOM     15  C   UNL A   1      32.499  22.589  26.737  1.00  0.00     0.021 C 
ATOM     16  C   UNL A   1      33.505  23.547  27.363  1.00  0.00     0.005 C 
ENDBRANCH   8  15
BRANCH  12  17
ATOM     17  C   UNL A   1      36.385  21.847  24.369  1.00  0.00     0.302 C 
BRANCH  17  18
ATOM     18  C   UNL A   1      37.478  22.318  25.312  1.00  0.00     0.046 A 
ATOM     19  C   UNL A   1      38.529  21.464  25.676  1.00  0.00     0.059 A 
ATOM     20  C   UNL A   1      37.482  23.613  25.848  1.00  0.00     0.132 A 
ATOM     21  C   UNL A   1      39.562  21.921  26.502  1.00  0.00     0.119 A 
ATOM     22  C   UNL A   1      38.564  24.109  26.566  1.00  0.00     0.043 A 
ATOM     23  F   UNL A   1      36.442  24.436  25.656  1.00  0.00    -0.206 F 
ATOM     24  C   UNL A   1      39.620  23.264  26.879  1.00  0.00     0.049 A 
BRANCH  21  25
ATOM     25  O   UNL A   1      40.481  20.985  26.893  1.00  0.00    -0.497 OA
ATOM     26  C   UNL A   1      41.285  21.399  27.998  1.00  0.00     0.278 C 
ENDBRANCH  21  25
ENDBRANCH  17  18
ENDBRANCH  12  17
ENDBRANCH   6   8
ENDBRANCH   5   6
ENDBRANCH   4   5
ENDBRANCH   3   4
ENDBRANCH   2   3
ENDBRANCH   1   2
BRANCH   1  27
ATOM     27  C   UNL A   1      32.220  29.828  25.856  1.00  0.00     0.188 C 
BRANCH  27  28
ATOM     28  O   UNL A   1      33.601  30.008  26.140  1.00  0.00    -0.376 OA
BRANCH  28  29
ATOM     29  C   UNL A   1      33.929  30.322  27.496  1.00  0.00     0.202 C 
BRANCH  29  30
ATOM     30  C   UNL A   1      35.386  30.754  27.753  1.00  0.00     0.261 C 
BRANCH  30  31
ATOM     31  O   UNL A   1      36.357  29.687  27.744  1.00  0.00    -0.460 OA
BRANCH  31  32
ATOM     32  C   UNL A   1      37.091  29.476  28.862  1.00  0.00     0.338 C 
ATOM     33  O   UNL A   1      36.659  29.313  29.991  1.00  0.00    -0.246 OA
BRANCH  32  34
ATOM     34  C   UNL A   1      38.494  29.196  28.447  1.00  0.00     0.060 A 
ATOM     35  C   UNL A   1      39.411  28.776  29.425  1.00  0.00     0.016 A 
ATOM     36  C   UNL A   1      38.887  29.251  27.106  1.00  0.00     0.016 A 
ATOM     37  C   UNL A   1      40.727  28.455  29.070  1.00  0.00     0.010 A 
ATOM     38  C   UNL A   1      40.203  28.943  26.755  1.00  0.00     0.010 A 
ATOM     39  C   UNL A   1      41.141  28.580  27.738  1.00  0.00    -0.014 A 
BRANCH  39  40
ATOM     40  C   UNL A   1      42.583  28.598  27.384  1.00  0.00     0.031 A 
ATOM     41  C   UNL A   1      43.194  27.302  26.920  1.00  0.00     0.074 A 
ATOM     42  C   UNL A   1      43.350  29.697  27.504  1.00  0.00     0.049 A 
ATOM     43  N   UNL A   1      44.448  26.992  26.732  1.00  0.00    -0.248 NA
ATOM     44  C   UNL A   1      42.251  26.204  26.644  1.00  0.00     0.031 C 
ATOM     45  C   UNL A   1      42.880  31.028  27.879  1.00  0.00     0.029 A 
ATOM     46  N   UNL A   1      44.707  29.852  27.342  1.00  0.00    -0.354 N 
ATOM     47  C   UNL A   1      44.448  25.657  26.340  1.00  0.00     0.074 A 
ATOM     48  C   UNL A   1      43.073  25.214  26.330  1.00  0.00     0.031 C 
ATOM     49  C   UNL A   1      43.935  31.860  27.944  1.00  0.00     0.029 A 
ATOM     50  C   UNL A   1      45.161  31.111  27.662  1.00  0.00     0.049 A 
ATOM     51  H   UNL A   1      45.297  29.131  27.027  1.00  0.00     0.167 HD
ATOM     52  C   UNL A   1      45.501  24.869  26.022  1.00  0.00     0.037 A 
ATOM     53  C   UNL A   1      46.421  31.588  27.755  1.00  0.00     0.037 A 
ATOM     54  C   UNL A   1      46.869  25.310  26.034  1.00  0.00     0.049 A 
ATOM     55  C   UNL A   1      47.589  30.671  27.470  1.00  0.00     0.074 A 
ATOM     56  C   UNL A   1      48.007  24.584  25.733  1.00  0.00     0.029 A 
ATOM     57  N   UNL A   1      47.285  26.589  26.369  1.00  0.00    -0.354 N 
ATOM     58  N   UNL A   1      47.581  29.409  27.113  1.00  0.00    -0.248 NA
ATOM     59  C   UNL A   1      48.940  31.241  27.610  1.00  0.00     0.031 C 
ATOM     60  C   UNL A   1      49.116  25.412  25.929  1.00  0.00     0.029 A 
ATOM     61  C   UNL A   1      48.664  26.670  26.295  1.00  0.00     0.049 A 
ATOM     62  H   UNL A   1      46.687  27.330  26.620  1.00  0.00     0.167 HD
ATOM     63  C   UNL A   1      48.917  29.049  26.943  1.00  0.00     0.074 A 
ATOM     64  C   UNL A   1      49.708  30.222  27.245  1.00  0.00     0.031 C 
ATOM     65  C   UNL A   1      49.438  27.856  26.563  1.00  0.00     0.037 A 
BRANCH  52  66
ATOM     66  C   UNL A   1      45.212  23.438  25.674  1.00  0.00     0.058 A 
ATOM     67  C   UNL A   1      45.425  22.932  24.383  1.00  0.00     0.135 A 
ATOM     68  C   UNL A   1      44.726  22.557  26.654  1.00  0.00     0.135 A 
ATOM     69  F   UNL A   1      45.863  23.739  23.404  1.00  0.00    -0.206 F 
ATOM     70  C   UNL A   1      45.144  21.608  24.068  1.00  0.00     0.059 A 
ATOM     71  C   UNL A   1      44.465  21.221  26.369  1.00  0.00     0.059 A 
ATOM     72  F   UNL A   1      44.498  22.993  27.903  1.00  0.00    -0.206 F 
ATOM     73  C   UNL A   1      44.662  20.760  25.068  1.00  0.00     0.060 A 
BRANCH  73  74
ATOM     74  S   UNL A   1      44.300  19.044  24.644  1.00  0.00     0.124 S 
ATOM     75  O   UNL A   1      44.501  19.054  23.198  1.00  0.00    -0.237 OA
ATOM     76  O   UNL A   1      45.299  18.313  25.418  1.00  0.00    -0.237 OA
ATOM     77  O   UNL A   1      42.919  18.868  25.084  1.00  0.00    -0.744 OA
ENDBRANCH  73  74
ENDBRANCH  52  66
BRANCH  53  78
ATOM     78  C   UNL A   1      46.661  32.999  28.166  1.00  0.00     0.058 A 
ATOM     79  C   UNL A   1      46.747  33.357  29.520  1.00  0.00     0.135 A 
ATOM     80  C   UNL A   1      46.785  34.024  27.214  1.00  0.00     0.135 A 
ATOM     81  F   UNL A   1      46.616  32.418  30.471  1.00  0.00    -0.206 F 
ATOM     82  C   UNL A   1      46.933  34.678  29.918  1.00  0.00     0.059 A 
ATOM     83  C   UNL A   1      46.997  35.348  27.586  1.00  0.00     0.059 A 
ATOM     84  F   UNL A   1      46.709  33.738  25.905  1.00  0.00    -0.206 F 
ATOM     85  C   UNL A   1      47.060  35.667  28.941  1.00  0.00     0.060 A 
BRANCH  85  86
ATOM     86  S   UNL A   1      47.340  37.374  29.467  1.00  0.00     0.124 S 
ATOM     87  O   UNL A   1      47.870  37.974  28.249  1.00  0.00    -0.237 OA
ATOM     88  O   UNL A   1      45.998  37.798  29.856  1.00  0.00    -0.237 OA
ATOM     89  O   UNL A   1      48.289  37.234  30.567  1.00  0.00    -0.744 OA
ENDBRANCH  85  86
ENDBRANCH  53  78
BRANCH  65  90
ATOM     90  C   UNL A   1      50.927  27.754  26.370  1.00  0.00     0.058 A 
ATOM     91  C   UNL A   1      51.783  27.322  27.394  1.00  0.00     0.135 A 
ATOM     92  C   UNL A   1      51.485  27.979  25.100  1.00  0.00     0.135 A 
ATOM     93  F   UNL A   1      51.302  27.096  28.626  1.00  0.00    -0.206 F 
ATOM     94  C   UNL A   1      53.140  27.113  27.165  1.00  0.00     0.059 A 
ATOM     95  C   UNL A   1      52.834  27.755  24.843  1.00  0.00     0.059 A 
ATOM     96  F   UNL A   1      50.707  28.382  24.082  1.00  0.00    -0.206 F 
ATOM     97  C   UNL A   1      53.655  27.323  25.882  1.00  0.00     0.060 A 
BRANCH  97  98
ATOM     98  S   UNL A   1      55.401  26.971  25.579  1.00  0.00     0.124 S 
ATOM     99  O   UNL A   1      55.814  26.402  26.856  1.00  0.00    -0.237 OA
ATOM    100  O   UNL A   1      55.341  26.037  24.458  1.00  0.00    -0.237 OA
ATOM    101  O   UNL A   1      55.961  28.282  25.264  1.00  0.00    -0.744 OA
ENDBRANCH  97  98
ENDBRANCH  65  90
ENDBRANCH  39  40
ENDBRANCH  32  34
ENDBRANCH  31  32
ENDBRANCH  30  31
ENDBRANCH  29  30
ENDBRANCH  28  29
ENDBRANCH  27  28
ENDBRANCH   1  27
TORSDOF 24
ENDMDL
MODEL 2
REMARK VINA RESULT:      -9.1      2.238      8.906
REMARK SMILES CC[C@]1(C(=O)OCCOCCOCCOC(=O)c2ccc(-c3c4nc(c(-c5c(F)cc(S(=O)(=O)[O-])cc5F)c5ccc([nH]5)c(-c5c(F)cc(S(=O)(=O)[O-])cc5F)c5nc(c(-c6c(F)cc(S(=O)(=O)[O-])cc6F)c6ccc3[nH]6)C=C5)C=C4)cc2)CCC[N@@H+](Cc2cc(OC)ccc2F)C1
REMARK SMILES IDX 10 1 9 2 8 3 7 4 6 5 4 6 5 7 3 8 84 9 98 10 85 11 87 12
REMARK SMILES IDX 86 13 2 15 1 16 88 17 89 18 90 19 96 20 91 21 95 22 97 23
REMARK SMILES IDX 94 24 92 25 93 26 11 27 12 28 13 29 14 30 15 31 16 32 17 33
REMARK SMILES IDX 18 34 19 35 83 36 20 37 82 38 21 39 22 40 23 41 76 42 24 43
REMARK SMILES IDX 81 44 75 45 77 46 25 47 80 48 74 49 73 50 26 52 60 53 39 54
REMARK SMILES IDX 59 55 40 56 43 57 58 58 78 59 41 60 42 61 57 63 79 64 44 65
REMARK SMILES IDX 27 66 28 67 37 68 29 69 30 70 36 71 38 72 31 73 32 74 33 75
REMARK SMILES IDX 34 76 35 77 61 78 62 79 71 80 63 81 64 82 70 83 72 84 65 85
REMARK SMILES IDX 66 86 67 87 68 88 69 89 45 90 46 91 55 92 47 93 48 94 54 95
REMARK SMILES IDX 56 96 49 97 50 98 51 99 52 100 53 101
REMARK H PARENT 87 14 77 51 43 62
REMARK Flexibility Score: inf
ROOT
ATOM      1  C   UNL A   1      40.331  22.601  27.459  1.00  0.00     0.188 C 
ENDROOT
BRANCH   1   2
ATOM      2  O   UNL A   1      39.426  23.683  27.307  1.00  0.00    -0.376 OA
BRANCH   2   3
ATOM      3  C   UNL A   1      38.574  23.664  26.165  1.00  0.00     0.202 C 
BRANCH   3   4
ATOM      4  C   UNL A   1      37.795  22.371  25.872  1.00  0.00     0.261 C 
BRANCH   4   5
ATOM      5  O   UNL A   1      36.367  22.525  25.709  1.00  0.00    -0.463 OA
BRANCH   5   6
ATOM      6  C   UNL A   1      35.692  21.373  25.447  1.00  0.00     0.317 C 
ATOM      7  O   UNL A   1      36.248  20.298  25.232  1.00  0.00    -0.251 OA
BRANCH   6   8
ATOM      8  C   UNL A   1      34.157  21.515  25.403  1.00  0.00     0.117 C 
ATOM      9  C   UNL A   1      33.517  22.200  26.632  1.00  0.00     0.030 C 
ATOM     10  C   UNL A   1      34.022  22.480  24.214  1.00  0.00     0.281 C 
ATOM     11  C   UNL A   1      32.112  22.732  26.318  1.00  0.00     0.063 C 
ATOM     12  N   UNL A   1      32.697  23.034  23.927  1.00  0.00    -0.330 N 
ATOM     13  C   UNL A   1      32.106  23.673  25.102  1.00  0.00     0.262 C 
ATOM     14  H   UNL A   1      32.061  22.267  23.708  1.00  0.00     0.348 HD
BRANCH   8  15
ATOM     15  C   UNL A   1      33.563  20.088  25.194  1.00  0.00     0.021 C 
ATOM     16  C   UNL A   1      32.739  19.838  23.937  1.00  0.00     0.005 C 
ENDBRANCH   8  15
BRANCH  12  17
ATOM     17  C   UNL A   1      32.739  23.889  22.717  1.00  0.00     0.302 C 
BRANCH  17  18
ATOM     18  C   UNL A   1      32.562  25.384  22.920  1.00  0.00     0.046 A 
ATOM     19  C   UNL A   1      31.443  26.051  22.400  1.00  0.00     0.059 A 
ATOM     20  C   UNL A   1      33.498  26.148  23.629  1.00  0.00     0.132 A 
ATOM     21  C   UNL A   1      31.259  27.418  22.636  1.00  0.00     0.119 A 
ATOM     22  C   UNL A   1      33.259  27.474  23.972  1.00  0.00     0.043 A 
ATOM     23  F   UNL A   1      34.655  25.606  24.035  1.00  0.00    -0.206 F 
ATOM     24  C   UNL A   1      32.123  28.108  23.488  1.00  0.00     0.049 A 
BRANCH  21  25
ATOM     25  O   UNL A   1      30.200  28.004  21.996  1.00  0.00    -0.497 OA
ATOM     26  C   UNL A   1      29.399  28.824  22.847  1.00  0.00     0.278 C 
ENDBRANCH  21  25
ENDBRANCH  17  18
ENDBRANCH  12  17
ENDBRANCH   6   8
ENDBRANCH   5   6
ENDBRANCH   4   5
ENDBRANCH   3   4
ENDBRANCH   2   3
ENDBRANCH   1   2
BRANCH   1  27
ATOM     27  C   UNL A   1      41.439  22.466  26.413  1.00  0.00     0.188 C 
BRANCH  27  28
ATOM     28  O   UNL A   1      41.440  21.266  25.650  1.00  0.00    -0.376 OA
BRANCH  28  29
ATOM     29  C   UNL A   1      41.591  20.051  26.389  1.00  0.00     0.202 C 
BRANCH  29  30
ATOM     30  C   UNL A   1      42.537  19.001  25.773  1.00  0.00     0.261 C 
BRANCH  30  31
ATOM     31  O   UNL A   1      43.934  19.361  25.763  1.00  0.00    -0.460 OA
BRANCH  31  32
ATOM     32  C   UNL A   1      44.460  19.862  24.620  1.00  0.00     0.338 C 
ATOM     33  O   UNL A   1      44.410  19.348  23.515  1.00  0.00    -0.246 OA
BRANCH  32  34
ATOM     34  C   UNL A   1      44.864  21.272  24.877  1.00  0.00     0.060 A 
ATOM     35  C   UNL A   1      45.287  21.624  26.170  1.00  0.00     0.016 A 
ATOM     36  C   UNL A   1      44.920  22.217  23.849  1.00  0.00     0.016 A 
ATOM     37  C   UNL A   1      45.722  22.926  26.443  1.00  0.00     0.010 A 
ATOM     38  C   UNL A   1      45.342  23.520  24.124  1.00  0.00     0.010 A 
ATOM     39  C   UNL A   1      45.710  23.893  25.430  1.00  0.00    -0.014 A 
BRANCH  39  40
ATOM     40  C   UNL A   1      45.815  25.339  25.751  1.00  0.00     0.031 A 
ATOM     41  C   UNL A   1      47.185  25.962  25.675  1.00  0.00     0.074 A 
ATOM     42  C   UNL A   1      44.761  26.079  26.141  1.00  0.00     0.049 A 
ATOM     43  N   UNL A   1      47.590  27.136  26.078  1.00  0.00    -0.248 NA
ATOM     44  C   UNL A   1      48.240  25.134  25.067  1.00  0.00     0.031 C 
ATOM     45  C   UNL A   1      43.375  25.624  26.200  1.00  0.00     0.029 A 
ATOM     46  N   UNL A   1      44.709  27.378  26.590  1.00  0.00    -0.354 N 
ATOM     47  C   UNL A   1      48.951  27.178  25.797  1.00  0.00     0.074 A 
ATOM     48  C   UNL A   1      49.304  25.909  25.201  1.00  0.00     0.031 C 
ATOM     49  C   UNL A   1      42.610  26.620  26.682  1.00  0.00     0.029 A 
ATOM     50  C   UNL A   1      43.458  27.766  27.012  1.00  0.00     0.049 A 
ATOM     51  H   UNL A   1      45.492  27.973  26.607  1.00  0.00     0.167 HD
ATOM     52  C   UNL A   1      49.830  28.181  26.020  1.00  0.00     0.037 A 
ATOM     53  C   UNL A   1      43.057  28.899  27.630  1.00  0.00     0.037 A 
ATOM     54  C   UNL A   1      49.480  29.442  26.614  1.00  0.00     0.049 A 
ATOM     55  C   UNL A   1      44.069  29.978  27.940  1.00  0.00     0.074 A 
ATOM     56  C   UNL A   1      50.301  30.521  26.887  1.00  0.00     0.029 A 
ATOM     57  N   UNL A   1      48.204  29.792  27.031  1.00  0.00    -0.354 N 
ATOM     58  N   UNL A   1      45.355  30.005  27.682  1.00  0.00    -0.248 NA
ATOM     59  C   UNL A   1      43.576  31.180  28.634  1.00  0.00     0.031 C 
ATOM     60  C   UNL A   1      49.531  31.507  27.511  1.00  0.00     0.029 A 
ATOM     61  C   UNL A   1      48.219  31.065  27.572  1.00  0.00     0.049 A 
ATOM     62  H   UNL A   1      47.407  29.220  26.953  1.00  0.00     0.167 HD
ATOM     63  C   UNL A   1      45.813  31.239  28.140  1.00  0.00     0.074 A 
ATOM     64  C   UNL A   1      44.671  31.927  28.701  1.00  0.00     0.031 C 
ATOM     65  C   UNL A   1      47.066  31.755  28.093  1.00  0.00     0.037 A 
BRANCH  52  66
ATOM     66  C   UNL A   1      51.265  27.936  25.654  1.00  0.00     0.058 A 
ATOM     67  C   UNL A   1      51.752  28.175  24.360  1.00  0.00     0.135 A 
ATOM     68  C   UNL A   1      52.170  27.468  26.621  1.00  0.00     0.135 A 
ATOM     69  F   UNL A   1      50.922  28.598  23.393  1.00  0.00    -0.206 F 
ATOM     70  C   UNL A   1      53.080  27.934  24.029  1.00  0.00     0.059 A 
ATOM     71  C   UNL A   1      53.510  27.247  26.320  1.00  0.00     0.059 A 
ATOM     72  F   UNL A   1      51.755  27.218  27.872  1.00  0.00    -0.206 F 
ATOM     73  C   UNL A   1      53.952  27.469  25.016  1.00  0.00     0.060 A 
BRANCH  73  74
ATOM     74  S   UNL A   1      55.673  27.159  24.572  1.00  0.00     0.124 S 
ATOM     75  O   UNL A   1      56.046  26.141  25.551  1.00  0.00    -0.237 OA
ATOM     76  O   UNL A   1      55.561  26.698  23.191  1.00  0.00    -0.237 OA
ATOM     77  O   UNL A   1      56.310  28.460  24.746  1.00  0.00    -0.744 OA
ENDBRANCH  73  74
ENDBRANCH  52  66
BRANCH  53  78
ATOM     78  C   UNL A   1      41.632  29.070  28.030  1.00  0.00     0.058 A 
ATOM     79  C   UNL A   1      41.248  29.032  29.379  1.00  0.00     0.135 A 
ATOM     80  C   UNL A   1      40.623  29.252  27.071  1.00  0.00     0.135 A 
ATOM     81  F   UNL A   1      42.171  28.841  30.334  1.00  0.00    -0.206 F 
ATOM     82  C   UNL A   1      39.915  29.154  29.763  1.00  0.00     0.059 A 
ATOM     83  C   UNL A   1      39.287  29.402  27.432  1.00  0.00     0.059 A 
ATOM     84  F   UNL A   1      40.935  29.295  25.766  1.00  0.00    -0.206 F 
ATOM     85  C   UNL A   1      38.941  29.341  28.780  1.00  0.00     0.060 A 
BRANCH  85  86
ATOM     86  S   UNL A   1      37.219  29.536  29.292  1.00  0.00     0.124 S 
ATOM     87  O   UNL A   1      37.185  28.747  30.517  1.00  0.00    -0.237 OA
ATOM     88  O   UNL A   1      37.111  30.982  29.460  1.00  0.00    -0.237 OA
ATOM     89  O   UNL A   1      36.471  28.986  28.166  1.00  0.00    -0.744 OA
ENDBRANCH  85  86
ENDBRANCH  53  78
BRANCH  65  90
ATOM     90  C   UNL A   1      47.280  33.161  28.586  1.00  0.00     0.058 A 
ATOM     91  C   UNL A   1      47.118  34.276  27.750  1.00  0.00     0.135 A 
ATOM     92  C   UNL A   1      47.532  33.395  29.948  1.00  0.00     0.135 A 
ATOM     93  F   UNL A   1      46.880  34.108  26.439  1.00  0.00    -0.206 F 
ATOM     94  C   UNL A   1      47.196  35.573  28.247  1.00  0.00     0.059 A 
ATOM     95  C   UNL A   1      47.591  34.682  30.471  1.00  0.00     0.059 A 
ATOM     96  F   UNL A   1      47.682  32.362  30.794  1.00  0.00    -0.206 F 
ATOM     97  C   UNL A   1      47.423  35.767  29.613  1.00  0.00     0.060 A 
BRANCH  97  98
ATOM     98  S   UNL A   1      47.441  37.453  30.260  1.00  0.00     0.124 S 
ATOM     99  O   UNL A   1      48.818  37.577  30.725  1.00  0.00    -0.237 OA
ATOM    100  O   UNL A   1      47.097  38.243  29.082  1.00  0.00    -0.237 OA
ATOM    101  O   UNL A   1      46.424  37.426  31.308  1.00  0.00    -0.744 OA
ENDBRANCH  97  98
ENDBRANCH  65  90
ENDBRANCH  39  40
ENDBRANCH  32  34
ENDBRANCH  31  32
ENDBRANCH  30  31
ENDBRANCH  29  30
ENDBRANCH  28  29
ENDBRANCH  27  28
ENDBRANCH   1  27
TORSDOF 24
ENDMDL
MODEL 3
REMARK VINA RESULT:      -9.0      0.666      7.992
REMARK SMILES CC[C@]1(C(=O)OCCOCCOCCOC(=O)c2ccc(-c3c4nc(c(-c5c(F)cc(S(=O)(=O)[O-])cc5F)c5ccc([nH]5)c(-c5c(F)cc(S(=O)(=O)[O-])cc5F)c5nc(c(-c6c(F)cc(S(=O)(=O)[O-])cc6F)c6ccc3[nH]6)C=C5)C=C4)cc2)CCC[N@@H+](Cc2cc(OC)ccc2F)C1
REMARK SMILES IDX 10 1 9 2 8 3 7 4 6 5 4 6 5 7 3 8 84 9 98 10 85 11 87 12
REMARK SMILES IDX 86 13 2 15 1 16 88 17 89 18 90 19 96 20 91 21 95 22 97 23
REMARK SMILES IDX 94 24 92 25 93 26 11 27 12 28 13 29 14 30 15 31 16 32 17 33
REMARK SMILES IDX 18 34 19 35 83 36 20 37 82 38 21 39 22 40 23 41 76 42 24 43
REMARK SMILES IDX 81 44 75 45 77 46 25 47 80 48 74 49 73 50 26 52 60 53 39 54
REMARK SMILES IDX 59 55 40 56 43 57 58 58 78 59 41 60 42 61 57 63 79 64 44 65
REMARK SMILES IDX 27 66 28 67 37 68 29 69 30 70 36 71 38 72 31 73 32 74 33 75
REMARK SMILES IDX 34 76 35 77 61 78 62 79 71 80 63 81 64 82 70 83 72 84 65 85
REMARK SMILES IDX 66 86 67 87 68 88 69 89 45 90 46 91 55 92 47 93 48 94 54 95
REMARK SMILES IDX 56 96 49 97 50 98 51 99 52 100 53 101
REMARK H PARENT 87 14 77 51 43 62
REMARK Flexibility Score: inf
ROOT
ATOM      1  C   UNL A   1      31.955  28.543  25.887  1.00  0.00     0.188 C 
ENDROOT
BRANCH   1   2
ATOM      2  O   UNL A   1      31.185  28.156  24.760  1.00  0.00    -0.376 OA
BRANCH   2   3
ATOM      3  C   UNL A   1      30.874  26.772  24.627  1.00  0.00     0.202 C 
BRANCH   3   4
ATOM      4  C   UNL A   1      31.381  25.815  25.718  1.00  0.00     0.261 C 
BRANCH   4   5
ATOM      5  O   UNL A   1      32.368  24.849  25.292  1.00  0.00    -0.463 OA
BRANCH   5   6
ATOM      6  C   UNL A   1      31.867  23.631  24.948  1.00  0.00     0.317 C 
ATOM      7  O   UNL A   1      30.885  23.484  24.224  1.00  0.00    -0.251 OA
BRANCH   6   8
ATOM      8  C   UNL A   1      32.605  22.427  25.567  1.00  0.00     0.117 C 
ATOM      9  C   UNL A   1      32.052  21.037  25.178  1.00  0.00     0.030 C 
ATOM     10  C   UNL A   1      33.974  22.587  24.887  1.00  0.00     0.281 C 
ATOM     11  C   UNL A   1      33.087  19.928  25.416  1.00  0.00     0.063 C 
ATOM     12  N   UNL A   1      34.958  21.517  25.065  1.00  0.00    -0.330 N 
ATOM     13  C   UNL A   1      34.416  20.210  24.696  1.00  0.00     0.262 C 
ATOM     14  H   UNL A   1      35.175  21.432  26.058  1.00  0.00     0.348 HD
BRANCH   8  15
ATOM     15  C   UNL A   1      32.587  22.615  27.116  1.00  0.00     0.021 C 
ATOM     16  C   UNL A   1      33.921  22.581  27.851  1.00  0.00     0.005 C 
ENDBRANCH   8  15
BRANCH  12  17
ATOM     17  C   UNL A   1      36.235  21.863  24.396  1.00  0.00     0.302 C 
BRANCH  17  18
ATOM     18  C   UNL A   1      37.364  22.365  25.278  1.00  0.00     0.046 A 
ATOM     19  C   UNL A   1      38.422  21.519  25.640  1.00  0.00     0.059 A 
ATOM     20  C   UNL A   1      37.397  23.682  25.756  1.00  0.00     0.132 A 
ATOM     21  C   UNL A   1      39.487  22.002  26.409  1.00  0.00     0.119 A 
ATOM     22  C   UNL A   1      38.508  24.200  26.412  1.00  0.00     0.043 A 
ATOM     23  F   UNL A   1      36.356  24.505  25.565  1.00  0.00    -0.206 F 
ATOM     24  C   UNL A   1      39.568  23.360  26.724  1.00  0.00     0.049 A 
BRANCH  21  25
ATOM     25  O   UNL A   1      40.413  21.076  26.807  1.00  0.00    -0.497 OA
ATOM     26  C   UNL A   1      40.290  19.820  26.138  1.00  0.00     0.278 C 
ENDBRANCH  21  25
ENDBRANCH  17  18
ENDBRANCH  12  17
ENDBRANCH   6   8
ENDBRANCH   5   6
ENDBRANCH   4   5
ENDBRANCH   3   4
ENDBRANCH   2   3
ENDBRANCH   1   2
BRANCH   1  27
ATOM     27  C   UNL A   1      32.551  29.952  25.874  1.00  0.00     0.188 C 
BRANCH  27  28
ATOM     28  O   UNL A   1      33.938  30.050  26.166  1.00  0.00    -0.376 OA
BRANCH  28  29
ATOM     29  C   UNL A   1      34.275  30.383  27.516  1.00  0.00     0.202 C 
BRANCH  29  30
ATOM     30  C   UNL A   1      35.714  30.887  27.745  1.00  0.00     0.261 C 
BRANCH  30  31
ATOM     31  O   UNL A   1      36.744  29.885  27.634  1.00  0.00    -0.460 OA
BRANCH  31  32
ATOM     32  C   UNL A   1      37.335  29.442  28.770  1.00  0.00     0.338 C 
ATOM     33  O   UNL A   1      36.769  28.965  29.740  1.00  0.00    -0.246 OA
BRANCH  32  34
ATOM     34  C   UNL A   1      38.803  29.371  28.530  1.00  0.00     0.060 A 
ATOM     35  C   UNL A   1      39.257  29.036  27.243  1.00  0.00     0.016 A 
ATOM     36  C   UNL A   1      39.725  29.720  29.522  1.00  0.00     0.016 A 
ATOM     37  C   UNL A   1      40.628  29.006  26.962  1.00  0.00     0.010 A 
ATOM     38  C   UNL A   1      41.094  29.677  29.244  1.00  0.00     0.010 A 
ATOM     39  C   UNL A   1      41.555  29.285  27.974  1.00  0.00    -0.014 A 
BRANCH  39  40
ATOM     40  C   UNL A   1      42.987  28.921  27.821  1.00  0.00     0.031 A 
ATOM     41  C   UNL A   1      43.998  30.023  28.001  1.00  0.00     0.074 A 
ATOM     42  C   UNL A   1      43.394  27.683  27.491  1.00  0.00     0.049 A 
ATOM     43  N   UNL A   1      45.278  30.030  27.744  1.00  0.00    -0.248 NA
ATOM     44  C   UNL A   1      43.483  31.295  28.538  1.00  0.00     0.031 C 
ATOM     45  C   UNL A   1      42.533  26.512  27.348  1.00  0.00     0.029 A 
ATOM     46  N   UNL A   1      44.652  27.215  27.191  1.00  0.00    -0.354 N 
ATOM     47  C   UNL A   1      45.717  31.311  28.061  1.00  0.00     0.074 A 
ATOM     48  C   UNL A   1      44.566  32.056  28.518  1.00  0.00     0.031 C 
ATOM     49  C   UNL A   1      43.284  25.464  26.962  1.00  0.00     0.029 A 
ATOM     50  C   UNL A   1      44.670  25.900  26.785  1.00  0.00     0.049 A 
ATOM     51  H   UNL A   1      45.463  27.767  27.261  1.00  0.00     0.167 HD
ATOM     52  C   UNL A   1      46.966  31.823  27.975  1.00  0.00     0.037 A 
ATOM     53  C   UNL A   1      45.680  25.152  26.290  1.00  0.00     0.037 A 
ATOM     54  C   UNL A   1      48.110  31.082  27.518  1.00  0.00     0.049 A 
ATOM     55  C   UNL A   1      47.053  25.765  26.130  1.00  0.00     0.074 A 
ATOM     56  C   UNL A   1      49.417  31.515  27.390  1.00  0.00     0.029 A 
ATOM     57  N   UNL A   1      48.083  29.757  27.112  1.00  0.00    -0.354 N 
ATOM     58  N   UNL A   1      47.456  26.979  26.420  1.00  0.00    -0.248 NA
ATOM     59  C   UNL A   1      48.109  24.907  25.564  1.00  0.00     0.031 C 
ATOM     60  C   UNL A   1      50.173  30.464  26.863  1.00  0.00     0.029 A 
ATOM     61  C   UNL A   1      49.348  29.360  26.719  1.00  0.00     0.049 A 
ATOM     62  H   UNL A   1      47.283  29.184  27.106  1.00  0.00     0.167 HD
ATOM     63  C   UNL A   1      48.815  27.015  26.116  1.00  0.00     0.074 A 
ATOM     64  C   UNL A   1      49.166  25.707  25.609  1.00  0.00     0.031 C 
ATOM     65  C   UNL A   1      49.693  28.041  26.252  1.00  0.00     0.037 A 
BRANCH  52  66
ATOM     66  C   UNL A   1      47.147  33.266  28.345  1.00  0.00     0.058 A 
ATOM     67  C   UNL A   1      46.993  34.297  27.407  1.00  0.00     0.135 A 
ATOM     68  C   UNL A   1      47.468  33.621  29.666  1.00  0.00     0.135 A 
ATOM     69  F   UNL A   1      46.712  34.009  26.126  1.00  0.00    -0.206 F 
ATOM     70  C   UNL A   1      47.174  35.630  27.757  1.00  0.00     0.059 A 
ATOM     71  C   UNL A   1      47.626  34.950  30.046  1.00  0.00     0.059 A 
ATOM     72  F   UNL A   1      47.633  32.673  30.601  1.00  0.00    -0.206 F 
ATOM     73  C   UNL A   1      47.492  35.946  29.080  1.00  0.00     0.060 A 
BRANCH  73  74
ATOM     74  S   UNL A   1      47.726  37.680  29.520  1.00  0.00     0.124 S 
ATOM     75  O   UNL A   1      48.598  37.568  30.686  1.00  0.00    -0.237 OA
ATOM     76  O   UNL A   1      48.347  38.227  28.317  1.00  0.00    -0.237 OA
ATOM     77  O   UNL A   1      46.372  38.150  29.793  1.00  0.00    -0.744 OA
ENDBRANCH  73  74
ENDBRANCH  52  66
BRANCH  53  78
ATOM     78  C   UNL A   1      45.436  23.742  25.877  1.00  0.00     0.058 A 
ATOM     79  C   UNL A   1      45.395  23.379  24.522  1.00  0.00     0.135 A 
ATOM     80  C   UNL A   1      45.217  22.732  26.828  1.00  0.00     0.135 A 
ATOM     81  F   UNL A   1      45.579  24.311  23.573  1.00  0.00    -0.206 F 
ATOM     82  C   UNL A   1      45.131  22.072  24.123  1.00  0.00     0.059 A 
ATOM     83  C   UNL A   1      44.977  21.413  26.454  1.00  0.00     0.059 A 
ATOM     84  F   UNL A   1      45.245  23.023  28.138  1.00  0.00    -0.206 F 
ATOM     85  C   UNL A   1      44.926  21.094  25.098  1.00  0.00     0.060 A 
BRANCH  85  86
ATOM     86  S   UNL A   1      44.622  19.393  24.570  1.00  0.00     0.124 S 
ATOM     87  O   UNL A   1      44.417  19.562  23.136  1.00  0.00    -0.237 OA
ATOM     88  O   UNL A   1      45.858  18.724  24.964  1.00  0.00    -0.237 OA
ATOM     89  O   UNL A   1      43.439  19.010  25.336  1.00  0.00    -0.744 OA
ENDBRANCH  85  86
ENDBRANCH  53  78
BRANCH  65  90
ATOM     90  C   UNL A   1      51.141  27.791  25.927  1.00  0.00     0.058 A 
ATOM     91  C   UNL A   1      52.042  27.290  26.878  1.00  0.00     0.135 A 
ATOM     92  C   UNL A   1      51.599  27.942  24.607  1.00  0.00     0.135 A 
ATOM     93  F   UNL A   1      51.657  27.129  28.154  1.00  0.00    -0.206 F 
ATOM     94  C   UNL A   1      53.346  26.946  26.532  1.00  0.00     0.059 A 
ATOM     95  C   UNL A   1      52.890  27.583  24.234  1.00  0.00     0.059 A 
ATOM     96  F   UNL A   1      50.773  28.406  23.655  1.00  0.00    -0.206 F 
ATOM     97  C   UNL A   1      53.758  27.086  25.204  1.00  0.00     0.060 A 
BRANCH  97  98
ATOM     98  S   UNL A   1      55.426  26.561  24.751  1.00  0.00     0.124 S 
ATOM     99  O   UNL A   1      55.443  25.184  25.232  1.00  0.00    -0.237 OA
ATOM    100  O   UNL A   1      55.422  26.725  23.301  1.00  0.00    -0.237 OA
ATOM    101  O   UNL A   1      56.284  27.491  25.479  1.00  0.00    -0.744 OA
ENDBRANCH  97  98
ENDBRANCH  65  90
ENDBRANCH  39  40
ENDBRANCH  32  34
ENDBRANCH  31  32
ENDBRANCH  30  31
ENDBRANCH  29  30
ENDBRANCH  28  29
ENDBRANCH  27  28
ENDBRANCH   1  27
TORSDOF 24
ENDMDL
