MODEL 1
REMARK VINA RESULT:     -10.8      0.000      0.000
REMARK SMILES Cc1cccc(C(=O)OCCOCCOCCOC(=O)c2ccc(-c3c4nc(c(-c5c(F)cc(S(=O)(=O)[O-])cc5F)c5ccc([nH]5)c(-c5c(F)cc(S(=O)(=O)[O-])cc5F)c5nc(c(-c6c(F)cc(S(=O)(=O)[O-])cc6F)c6ccc3[nH]6)C=C5)C=C4)cc2)c1NC(=O)Cc1ccccc1
REMARK SMILES IDX 13 1 12 2 11 3 10 4 9 5 7 6 8 7 6 8 1 9 2 10 3 11 87 12 4 13
REMARK SMILES IDX 5 14 88 15 89 16 90 18 91 19 92 20 93 21 97 22 94 23 96 24
REMARK SMILES IDX 95 25 14 26 15 27 16 28 17 29 18 30 19 31 20 32 21 33 22 34
REMARK SMILES IDX 86 35 23 36 85 37 24 38 25 39 26 40 79 41 27 42 84 43 78 44
REMARK SMILES IDX 80 45 28 46 83 47 77 48 76 49 29 51 63 52 42 53 62 54 43 55
REMARK SMILES IDX 46 56 61 57 81 58 44 59 45 60 60 62 82 63 47 64 30 65 31 66
REMARK SMILES IDX 40 67 32 68 33 69 39 70 41 71 34 72 35 73 36 74 37 75 38 76
REMARK SMILES IDX 64 77 65 78 74 79 66 80 67 81 73 82 75 83 68 84 69 85 70 86
REMARK SMILES IDX 71 87 72 88 48 89 49 90 58 91 50 92 51 93 57 94 59 95 52 96
REMARK SMILES IDX 53 97 54 98 55 99 56 100
REMARK H PARENT 88 17 80 50 46 61
REMARK Flexibility Score: inf
ROOT
ATOM      1  C   UNL A   1      36.733  20.554  25.168  1.00  0.00     0.188 C 
ENDROOT
BRANCH   1   2
ATOM      2  O   UNL A   1      35.369  20.298  24.774  1.00  0.00    -0.376 OA
BRANCH   2   3
ATOM      3  C   UNL A   1      34.188  21.041  25.199  1.00  0.00     0.202 C 
BRANCH   3   4
ATOM      4  C   UNL A   1      34.061  22.700  25.114  1.00  0.00     0.261 C 
BRANCH   4   5
ATOM      5  O   UNL A   1      33.248  23.703  26.000  1.00  0.00    -0.460 OA
BRANCH   5   6
ATOM      6  C   UNL A   1      31.991  23.845  26.507  1.00  0.00     0.340 C 
ATOM      7  O   UNL A   1      31.537  23.854  27.645  1.00  0.00    -0.246 OA
BRANCH   6   8
ATOM      8  C   UNL A   1      30.958  24.306  25.622  1.00  0.00     0.083 A 
ATOM      9  C   UNL A   1      30.872  27.482  23.678  1.00  0.00     0.046 C 
ATOM     10  C   UNL A   1      30.720  26.072  24.164  1.00  0.00    -0.027 A 
ATOM     11  C   UNL A   1      30.612  25.153  23.040  1.00  0.00     0.005 A 
ATOM     12  C   UNL A   1      30.844  25.669  25.538  1.00  0.00     0.058 A 
ATOM     13  C   UNL A   1      30.617  23.795  23.199  1.00  0.00     0.001 A 
ATOM     14  C   UNL A   1      30.775  23.378  24.493  1.00  0.00     0.018 A 
BRANCH  12  15
ATOM     15  N   UNL A   1      31.102  26.616  26.617  1.00  0.00    -0.325 N 
ATOM     16  C   UNL A   1      31.895  27.668  27.105  1.00  0.00     0.228 C 
ATOM     17  H   UNL A   1      30.421  26.442  27.306  1.00  0.00     0.169 HD
ATOM     18  O   UNL A   1      31.411  28.125  28.160  1.00  0.00    -0.274 OA
BRANCH  16  19
ATOM     19  C   UNL A   1      33.350  28.179  26.776  1.00  0.00     0.135 C 
BRANCH  19  20
ATOM     20  C   UNL A   1      34.089  29.447  27.517  1.00  0.00    -0.039 A 
ATOM     21  C   UNL A   1      33.643  30.801  27.645  1.00  0.00     0.004 A 
ATOM     22  C   UNL A   1      35.453  29.309  27.809  1.00  0.00     0.004 A 
ATOM     23  C   UNL A   1      34.514  31.916  27.639  1.00  0.00     0.000 A 
ATOM     24  C   UNL A   1      36.313  30.422  27.982  1.00  0.00     0.000 A 
ATOM     25  C   UNL A   1      35.867  31.724  27.790  1.00  0.00     0.000 A 
ENDBRANCH  19  20
ENDBRANCH  16  19
ENDBRANCH  12  15
ENDBRANCH   6   8
ENDBRANCH   5   6
ENDBRANCH   4   5
ENDBRANCH   3   4
ENDBRANCH   2   3
ENDBRANCH   1   2
BRANCH   1  26
ATOM     26  C   UNL A   1      37.414  21.882  24.845  1.00  0.00     0.188 C 
BRANCH  26  27
ATOM     27  O   UNL A   1      37.663  22.611  26.033  1.00  0.00    -0.376 OA
BRANCH  27  28
ATOM     28  C   UNL A   1      38.952  23.168  26.185  1.00  0.00     0.202 C 
BRANCH  28  29
ATOM     29  C   UNL A   1      39.974  22.239  26.879  1.00  0.00     0.261 C 
BRANCH  29  30
ATOM     30  O   UNL A   1      41.142  22.955  27.377  1.00  0.00    -0.460 OA
BRANCH  30  31
ATOM     31  C   UNL A   1      41.332  24.284  27.011  1.00  0.00     0.338 C 
ATOM     32  O   UNL A   1      41.739  24.597  25.910  1.00  0.00    -0.246 OA
BRANCH  31  33
ATOM     33  C   UNL A   1      40.889  25.225  28.116  1.00  0.00     0.060 A 
ATOM     34  C   UNL A   1      39.653  25.764  28.511  1.00  0.00     0.016 A 
ATOM     35  C   UNL A   1      41.904  25.773  28.785  1.00  0.00     0.016 A 
ATOM     36  C   UNL A   1      39.505  26.934  29.474  1.00  0.00     0.010 A 
ATOM     37  C   UNL A   1      41.692  27.014  29.397  1.00  0.00     0.010 A 
ATOM     38  C   UNL A   1      40.579  27.686  29.952  1.00  0.00    -0.014 A 
BRANCH  38  39
ATOM     39  C   UNL A   1      40.754  29.058  31.038  1.00  0.00     0.031 A 
ATOM     40  C   UNL A   1      39.964  30.675  31.077  1.00  0.00     0.074 A 
ATOM     41  C   UNL A   1      40.987  28.634  32.309  1.00  0.00     0.049 A 
ATOM     42  N   UNL A   1      39.204  31.091  32.080  1.00  0.00    -0.248 NA
ATOM     43  C   UNL A   1      39.780  31.738  30.014  1.00  0.00     0.031 C 
ATOM     44  C   UNL A   1      40.614  29.211  33.624  1.00  0.00     0.029 A 
ATOM     45  N   UNL A   1      41.811  27.581  32.695  1.00  0.00    -0.354 N 
ATOM     46  C   UNL A   1      38.306  32.089  31.691  1.00  0.00     0.074 A 
ATOM     47  C   UNL A   1      38.631  32.376  30.331  1.00  0.00     0.031 C 
ATOM     48  C   UNL A   1      41.506  28.811  34.547  1.00  0.00     0.029 A 
ATOM     49  C   UNL A   1      42.528  28.129  33.788  1.00  0.00     0.049 A 
ATOM     50  H   UNL A   1      41.878  26.680  32.305  1.00  0.00     0.167 HD
ATOM     51  C   UNL A   1      37.567  32.804  32.607  1.00  0.00     0.037 A 
ATOM     52  C   UNL A   1      43.741  28.685  33.477  1.00  0.00     0.037 A 
ATOM     53  C   UNL A   1      38.416  32.895  33.775  1.00  0.00     0.049 A 
ATOM     54  C   UNL A   1      43.700  30.220  33.604  1.00  0.00     0.074 A 
ATOM     55  C   UNL A   1      38.554  32.248  34.983  1.00  0.00     0.029 A 
ATOM     56  N   UNL A   1      39.621  33.539  33.534  1.00  0.00    -0.354 N 
ATOM     57  N   UNL A   1      42.626  30.980  33.526  1.00  0.00    -0.248 NA
ATOM     58  C   UNL A   1      44.864  30.993  34.022  1.00  0.00     0.031 C 
ATOM     59  C   UNL A   1      39.964  32.270  35.279  1.00  0.00     0.029 A 
ATOM     60  C   UNL A   1      40.631  32.982  34.284  1.00  0.00     0.049 A 
ATOM     61  H   UNL A   1      39.737  34.292  32.910  1.00  0.00     0.167 HD
ATOM     62  C   UNL A   1      42.920  32.273  33.885  1.00  0.00     0.074 A 
ATOM     63  C   UNL A   1      44.339  32.219  34.187  1.00  0.00     0.031 C 
ATOM     64  C   UNL A   1      42.023  33.312  33.966  1.00  0.00     0.037 A 
BRANCH  51  65
ATOM     65  C   UNL A   1      36.267  33.603  32.445  1.00  0.00     0.058 A 
ATOM     66  C   UNL A   1      35.281  33.263  31.483  1.00  0.00     0.135 A 
ATOM     67  C   UNL A   1      36.036  34.839  33.081  1.00  0.00     0.135 A 
ATOM     68  F   UNL A   1      35.366  32.113  30.797  1.00  0.00    -0.206 F 
ATOM     69  C   UNL A   1      34.180  34.085  31.166  1.00  0.00     0.059 A 
ATOM     70  C   UNL A   1      34.951  35.695  32.768  1.00  0.00     0.059 A 
ATOM     71  F   UNL A   1      36.876  35.254  34.038  1.00  0.00    -0.206 F 
ATOM     72  C   UNL A   1      34.029  35.316  31.797  1.00  0.00     0.060 A 
BRANCH  72  73
ATOM     73  S   UNL A   1      32.639  36.388  31.317  1.00  0.00     0.124 S 
ATOM     74  O   UNL A   1      31.628  36.060  32.319  1.00  0.00    -0.237 OA
ATOM     75  O   UNL A   1      33.218  37.723  31.426  1.00  0.00    -0.237 OA
ATOM     76  O   UNL A   1      32.321  35.964  29.956  1.00  0.00    -0.744 OA
ENDBRANCH  72  73
ENDBRANCH  51  65
BRANCH  52  77
ATOM     77  C   UNL A   1      44.436  27.762  32.488  1.00  0.00     0.058 A 
ATOM     78  C   UNL A   1      44.730  28.350  31.221  1.00  0.00     0.135 A 
ATOM     79  C   UNL A   1      45.249  26.679  32.855  1.00  0.00     0.135 A 
ATOM     80  F   UNL A   1      43.993  29.386  30.785  1.00  0.00    -0.206 F 
ATOM     81  C   UNL A   1      45.887  28.055  30.499  1.00  0.00     0.059 A 
ATOM     82  C   UNL A   1      46.362  26.293  32.073  1.00  0.00     0.059 A 
ATOM     83  F   UNL A   1      45.071  26.068  34.036  1.00  0.00    -0.206 F 
ATOM     84  C   UNL A   1      46.731  27.059  30.963  1.00  0.00     0.060 A 
BRANCH  84  85
ATOM     85  S   UNL A   1      48.362  26.912  30.175  1.00  0.00     0.124 S 
ATOM     86  O   UNL A   1      48.938  25.756  30.870  1.00  0.00    -0.237 OA
ATOM     87  O   UNL A   1      48.012  26.677  28.777  1.00  0.00    -0.237 OA
ATOM     88  O   UNL A   1      49.001  28.186  30.471  1.00  0.00    -0.744 OA
ENDBRANCH  84  85
ENDBRANCH  52  77
BRANCH  64  89
ATOM     89  C   UNL A   1      42.439  34.773  33.761  1.00  0.00     0.058 A 
ATOM     90  C   UNL A   1      42.365  35.739  34.782  1.00  0.00     0.135 A 
ATOM     91  C   UNL A   1      43.066  35.231  32.570  1.00  0.00     0.135 A 
ATOM     92  F   UNL A   1      41.989  35.423  36.028  1.00  0.00    -0.206 F 
ATOM     93  C   UNL A   1      42.708  37.077  34.588  1.00  0.00     0.059 A 
ATOM     94  C   UNL A   1      43.506  36.543  32.389  1.00  0.00     0.059 A 
ATOM     95  F   UNL A   1      43.297  34.419  31.529  1.00  0.00    -0.206 F 
ATOM     96  C   UNL A   1      43.257  37.475  33.379  1.00  0.00     0.060 A 
BRANCH  96  97
ATOM     97  S   UNL A   1      43.634  39.213  33.111  1.00  0.00     0.124 S 
ATOM     98  O   UNL A   1      44.945  39.319  33.745  1.00  0.00    -0.237 OA
ATOM     99  O   UNL A   1      43.626  39.324  31.656  1.00  0.00    -0.237 OA
ATOM    100  O   UNL A   1      42.545  39.904  33.793  1.00  0.00    -0.744 OA
ENDBRANCH  96  97
ENDBRANCH  64  89
ENDBRANCH  38  39
ENDBRANCH  31  33
ENDBRANCH  30  31
ENDBRANCH  29  30
ENDBRANCH  28  29
ENDBRANCH  27  28
ENDBRANCH  26  27
ENDBRANCH   1  26
TORSDOF 23
ENDMDL
MODEL 2
REMARK VINA RESULT:     -10.6      3.773     10.054
REMARK SMILES Cc1cccc(C(=O)OCCOCCOCCOC(=O)c2ccc(-c3c4nc(c(-c5c(F)cc(S(=O)(=O)[O-])cc5F)c5ccc([nH]5)c(-c5c(F)cc(S(=O)(=O)[O-])cc5F)c5nc(c(-c6c(F)cc(S(=O)(=O)[O-])cc6F)c6ccc3[nH]6)C=C5)C=C4)cc2)c1NC(=O)Cc1ccccc1
REMARK SMILES IDX 13 1 12 2 11 3 10 4 9 5 7 6 8 7 6 8 1 9 2 10 3 11 87 12 4 13
REMARK SMILES IDX 5 14 88 15 89 16 90 18 91 19 92 20 93 21 97 22 94 23 96 24
REMARK SMILES IDX 95 25 14 26 15 27 16 28 17 29 18 30 19 31 20 32 21 33 22 34
REMARK SMILES IDX 86 35 23 36 85 37 24 38 25 39 26 40 79 41 27 42 84 43 78 44
REMARK SMILES IDX 80 45 28 46 83 47 77 48 76 49 29 51 63 52 42 53 62 54 43 55
REMARK SMILES IDX 46 56 61 57 81 58 44 59 45 60 60 62 82 63 47 64 30 65 31 66
REMARK SMILES IDX 40 67 32 68 33 69 39 70 41 71 34 72 35 73 36 74 37 75 38 76
REMARK SMILES IDX 64 77 65 78 74 79 66 80 67 81 73 82 75 83 68 84 69 85 70 86
REMARK SMILES IDX 71 87 72 88 48 89 49 90 58 91 50 92 51 93 57 94 59 95 52 96
REMARK SMILES IDX 53 97 54 98 55 99 56 100
REMARK H PARENT 88 17 80 50 46 61
REMARK Flexibility Score: inf
ROOT
ATOM      1  C   UNL A   1      35.254  31.936  28.513  1.00  0.00     0.188 C 
ENDROOT
BRANCH   1   2
ATOM      2  O   UNL A   1      34.714  31.259  27.359  1.00  0.00    -0.376 OA
BRANCH   2   3
ATOM      3  C   UNL A   1      33.965  30.006  27.358  1.00  0.00     0.202 C 
BRANCH   3   4
ATOM      4  C   UNL A   1      32.323  29.913  27.094  1.00  0.00     0.261 C 
BRANCH   4   5
ATOM      5  O   UNL A   1      31.521  29.390  25.855  1.00  0.00    -0.460 OA
BRANCH   5   6
ATOM      6  C   UNL A   1      31.398  28.254  25.112  1.00  0.00     0.340 C 
ATOM      7  O   UNL A   1      30.445  27.679  24.602  1.00  0.00    -0.246 OA
BRANCH   6   8
ATOM      8  C   UNL A   1      32.597  27.668  24.578  1.00  0.00     0.083 A 
ATOM      9  C   UNL A   1      32.954  24.401  22.827  1.00  0.00     0.046 C 
ATOM     10  C   UNL A   1      33.086  25.817  23.299  1.00  0.00    -0.027 A 
ATOM     11  C   UNL A   1      33.595  26.667  22.232  1.00  0.00     0.005 A 
ATOM     12  C   UNL A   1      32.608  26.298  24.566  1.00  0.00     0.058 A 
ATOM     13  C   UNL A   1      33.666  28.028  22.348  1.00  0.00     0.001 A 
ATOM     14  C   UNL A   1      33.180  28.521  23.529  1.00  0.00     0.018 A 
BRANCH  12  15
ATOM     15  N   UNL A   1      31.966  25.430  25.548  1.00  0.00    -0.325 N 
ATOM     16  C   UNL A   1      32.098  24.358  26.446  1.00  0.00     0.228 C 
ATOM     17  H   UNL A   1      31.029  25.725  25.607  1.00  0.00     0.169 HD
ATOM     18  O   UNL A   1      31.054  24.218  27.114  1.00  0.00    -0.274 OA
BRANCH  16  19
ATOM     19  C   UNL A   1      33.127  23.171  26.583  1.00  0.00     0.135 C 
BRANCH  19  20
ATOM     20  C   UNL A   1      33.307  21.954  25.492  1.00  0.00    -0.039 A 
ATOM     21  C   UNL A   1      32.302  21.192  24.817  1.00  0.00     0.004 A 
ATOM     22  C   UNL A   1      34.572  21.355  25.408  1.00  0.00     0.004 A 
ATOM     23  C   UNL A   1      32.448  19.824  24.484  1.00  0.00     0.000 A 
ATOM     24  C   UNL A   1      34.763  20.041  24.910  1.00  0.00     0.000 A 
ATOM     25  C   UNL A   1      33.689  19.236  24.550  1.00  0.00     0.000 A 
ENDBRANCH  19  20
ENDBRANCH  16  19
ENDBRANCH  12  15
ENDBRANCH   6   8
ENDBRANCH   5   6
ENDBRANCH   4   5
ENDBRANCH   3   4
ENDBRANCH   2   3
ENDBRANCH   1   2
BRANCH   1  26
ATOM     26  C   UNL A   1      35.906  33.311  28.390  1.00  0.00     0.188 C 
BRANCH  26  27
ATOM     27  O   UNL A   1      35.285  34.232  29.269  1.00  0.00    -0.376 OA
BRANCH  27  28
ATOM     28  C   UNL A   1      33.873  34.246  29.289  1.00  0.00     0.202 C 
BRANCH  28  29
ATOM     29  C   UNL A   1      33.256  35.327  30.204  1.00  0.00     0.261 C 
BRANCH  29  30
ATOM     30  O   UNL A   1      33.016  34.851  31.561  1.00  0.00    -0.460 OA
BRANCH  30  31
ATOM     31  C   UNL A   1      33.612  35.515  32.629  1.00  0.00     0.338 C 
ATOM     32  O   UNL A   1      33.240  36.612  32.995  1.00  0.00    -0.246 OA
BRANCH  31  33
ATOM     33  C   UNL A   1      34.681  34.656  33.280  1.00  0.00     0.060 A 
ATOM     34  C   UNL A   1      35.127  34.477  34.601  1.00  0.00     0.016 A 
ATOM     35  C   UNL A   1      35.465  34.028  32.403  1.00  0.00     0.016 A 
ATOM     36  C   UNL A   1      36.429  33.778  34.969  1.00  0.00     0.010 A 
ATOM     37  C   UNL A   1      36.762  33.692  32.807  1.00  0.00     0.010 A 
ATOM     38  C   UNL A   1      37.383  33.372  34.036  1.00  0.00    -0.014 A 
BRANCH  38  39
ATOM     39  C   UNL A   1      38.944  32.566  34.119  1.00  0.00     0.031 A 
ATOM     40  C   UNL A   1      39.580  31.081  33.323  1.00  0.00     0.074 A 
ATOM     41  C   UNL A   1      39.945  33.476  34.249  1.00  0.00     0.049 A 
ATOM     42  N   UNL A   1      40.605  31.086  32.484  1.00  0.00    -0.248 NA
ATOM     43  C   UNL A   1      39.031  29.673  33.222  1.00  0.00     0.031 C 
ATOM     44  C   UNL A   1      41.350  33.473  33.770  1.00  0.00     0.029 A 
ATOM     45  N   UNL A   1      39.929  34.620  35.043  1.00  0.00    -0.354 N 
ATOM     46  C   UNL A   1      40.590  29.989  31.616  1.00  0.00     0.074 A 
ATOM     47  C   UNL A   1      39.493  29.184  32.050  1.00  0.00     0.031 C 
ATOM     48  C   UNL A   1      42.093  34.240  34.586  1.00  0.00     0.029 A 
ATOM     49  C   UNL A   1      41.202  34.585  35.668  1.00  0.00     0.049 A 
ATOM     50  H   UNL A   1      39.212  35.286  35.144  1.00  0.00     0.167 HD
ATOM     51  C   UNL A   1      41.659  29.686  30.804  1.00  0.00     0.037 A 
ATOM     52  C   UNL A   1      41.236  33.988  36.900  1.00  0.00     0.037 A 
ATOM     53  C   UNL A   1      42.824  30.103  31.555  1.00  0.00     0.049 A 
ATOM     54  C   UNL A   1      41.974  32.636  36.844  1.00  0.00     0.074 A 
ATOM     55  C   UNL A   1      43.670  31.190  31.597  1.00  0.00     0.029 A 
ATOM     56  N   UNL A   1      42.956  29.454  32.774  1.00  0.00    -0.354 N 
ATOM     57  N   UNL A   1      42.132  31.878  35.778  1.00  0.00    -0.248 NA
ATOM     58  C   UNL A   1      42.756  32.135  37.968  1.00  0.00     0.031 C 
ATOM     59  C   UNL A   1      44.053  31.331  32.978  1.00  0.00     0.029 A 
ATOM     60  C   UNL A   1      43.488  30.298  33.722  1.00  0.00     0.049 A 
ATOM     61  H   UNL A   1      42.704  28.516  32.937  1.00  0.00     0.167 HD
ATOM     62  C   UNL A   1      43.008  30.852  36.038  1.00  0.00     0.074 A 
ATOM     63  C   UNL A   1      43.367  31.066  37.427  1.00  0.00     0.031 C 
ATOM     64  C   UNL A   1      43.437  29.908  35.134  1.00  0.00     0.037 A 
BRANCH  51  65
ATOM     65  C   UNL A   1      41.740  28.852  29.518  1.00  0.00     0.058 A 
ATOM     66  C   UNL A   1      42.767  27.900  29.295  1.00  0.00     0.135 A 
ATOM     67  C   UNL A   1      40.939  29.099  28.385  1.00  0.00     0.135 A 
ATOM     68  F   UNL A   1      43.610  27.561  30.283  1.00  0.00    -0.206 F 
ATOM     69  C   UNL A   1      42.993  27.269  28.054  1.00  0.00     0.059 A 
ATOM     70  C   UNL A   1      41.155  28.495  27.122  1.00  0.00     0.059 A 
ATOM     71  F   UNL A   1      39.909  29.950  28.480  1.00  0.00    -0.206 F 
ATOM     72  C   UNL A   1      42.196  27.586  26.959  1.00  0.00     0.060 A 
BRANCH  72  73
ATOM     73  S   UNL A   1      42.555  26.809  25.353  1.00  0.00     0.124 S 
ATOM     74  O   UNL A   1      43.775  26.057  25.632  1.00  0.00    -0.237 OA
ATOM     75  O   UNL A   1      41.361  26.002  25.119  1.00  0.00    -0.237 OA
ATOM     76  O   UNL A   1      42.720  27.941  24.444  1.00  0.00    -0.744 OA
ENDBRANCH  72  73
ENDBRANCH  51  65
BRANCH  52  77
ATOM     77  C   UNL A   1      40.011  34.449  37.676  1.00  0.00     0.058 A 
ATOM     78  C   UNL A   1      39.158  33.401  38.131  1.00  0.00     0.135 A 
ATOM     79  C   UNL A   1      39.945  35.645  38.407  1.00  0.00     0.135 A 
ATOM     80  F   UNL A   1      39.150  32.224  37.482  1.00  0.00    -0.206 F 
ATOM     81  C   UNL A   1      38.488  33.447  39.354  1.00  0.00     0.059 A 
ATOM     82  C   UNL A   1      39.177  35.744  39.590  1.00  0.00     0.059 A 
ATOM     83  F   UNL A   1      40.721  36.687  38.075  1.00  0.00    -0.206 F 
ATOM     84  C   UNL A   1      38.547  34.607  40.108  1.00  0.00     0.060 A 
BRANCH  84  85
ATOM     85  S   UNL A   1      37.925  34.530  41.814  1.00  0.00     0.124 S 
ATOM     86  O   UNL A   1      38.561  33.310  42.320  1.00  0.00    -0.237 OA
ATOM     87  O   UNL A   1      38.436  35.773  42.387  1.00  0.00    -0.237 OA
ATOM     88  O   UNL A   1      36.482  34.446  41.647  1.00  0.00    -0.744 OA
ENDBRANCH  84  85
ENDBRANCH  52  77
BRANCH  64  89
ATOM     89  C   UNL A   1      43.877  28.504  35.560  1.00  0.00     0.058 A 
ATOM     90  C   UNL A   1      43.057  27.369  35.416  1.00  0.00     0.135 A 
ATOM     91  C   UNL A   1      45.198  28.216  35.999  1.00  0.00     0.135 A 
ATOM     92  F   UNL A   1      41.855  27.436  34.827  1.00  0.00    -0.206 F 
ATOM     93  C   UNL A   1      43.440  26.096  35.838  1.00  0.00     0.059 A 
ATOM     94  C   UNL A   1      45.634  26.932  36.334  1.00  0.00     0.059 A 
ATOM     95  F   UNL A   1      46.137  29.167  36.107  1.00  0.00    -0.206 F 
ATOM     96  C   UNL A   1      44.724  25.891  36.318  1.00  0.00     0.060 A 
BRANCH  96  97
ATOM     97  S   UNL A   1      45.191  24.263  36.923  1.00  0.00     0.124 S 
ATOM     98  O   UNL A   1      46.585  24.191  36.494  1.00  0.00    -0.237 OA
ATOM     99  O   UNL A   1      44.980  24.381  38.362  1.00  0.00    -0.237 OA
ATOM    100  O   UNL A   1      44.269  23.369  36.231  1.00  0.00    -0.744 OA
ENDBRANCH  96  97
ENDBRANCH  64  89
ENDBRANCH  38  39
ENDBRANCH  31  33
ENDBRANCH  30  31
ENDBRANCH  29  30
ENDBRANCH  28  29
ENDBRANCH  27  28
ENDBRANCH  26  27
ENDBRANCH   1  26
TORSDOF 23
ENDMDL
MODEL 3
REMARK VINA RESULT:      -9.7      2.613      3.705
REMARK SMILES Cc1cccc(C(=O)OCCOCCOCCOC(=O)c2ccc(-c3c4nc(c(-c5c(F)cc(S(=O)(=O)[O-])cc5F)c5ccc([nH]5)c(-c5c(F)cc(S(=O)(=O)[O-])cc5F)c5nc(c(-c6c(F)cc(S(=O)(=O)[O-])cc6F)c6ccc3[nH]6)C=C5)C=C4)cc2)c1NC(=O)Cc1ccccc1
REMARK SMILES IDX 13 1 12 2 11 3 10 4 9 5 7 6 8 7 6 8 1 9 2 10 3 11 87 12 4 13
REMARK SMILES IDX 5 14 88 15 89 16 90 18 91 19 92 20 93 21 97 22 94 23 96 24
REMARK SMILES IDX 95 25 14 26 15 27 16 28 17 29 18 30 19 31 20 32 21 33 22 34
REMARK SMILES IDX 86 35 23 36 85 37 24 38 25 39 26 40 79 41 27 42 84 43 78 44
REMARK SMILES IDX 80 45 28 46 83 47 77 48 76 49 29 51 63 52 42 53 62 54 43 55
REMARK SMILES IDX 46 56 61 57 81 58 44 59 45 60 60 62 82 63 47 64 30 65 31 66
REMARK SMILES IDX 40 67 32 68 33 69 39 70 41 71 34 72 35 73 36 74 37 75 38 76
REMARK SMILES IDX 64 77 65 78 74 79 66 80 67 81 73 82 75 83 68 84 69 85 70 86
REMARK SMILES IDX 71 87 72 88 48 89 49 90 58 91 50 92 51 93 57 94 59 95 52 96
REMARK SMILES IDX 53 97 54 98 55 99 56 100
REMARK H PARENT 88 17 80 50 46 61
REMARK Flexibility Score: inf
ROOT
ATOM      1  C   UNL A   1      36.691  21.290  25.545  1.00  0.00     0.188 C 
ENDROOT
BRANCH   1   2
ATOM      2  O   UNL A   1      35.378  21.088  24.983  1.00  0.00    -0.376 OA
BRANCH   2   3
ATOM      3  C   UNL A   1      34.445  22.128  24.562  1.00  0.00     0.202 C 
BRANCH   3   4
ATOM      4  C   UNL A   1      34.083  23.470  25.480  1.00  0.00     0.261 C 
BRANCH   4   5
ATOM      5  O   UNL A   1      32.799  24.365  25.508  1.00  0.00    -0.460 OA
BRANCH   5   6
ATOM      6  C   UNL A   1      31.601  24.469  24.866  1.00  0.00     0.340 C 
ATOM      7  O   UNL A   1      30.522  23.904  24.998  1.00  0.00    -0.246 OA
BRANCH   6   8
ATOM      8  C   UNL A   1      31.399  25.597  23.999  1.00  0.00     0.083 A 
ATOM      9  C   UNL A   1      33.329  28.781  23.915  1.00  0.00     0.046 C 
ATOM     10  C   UNL A   1      32.524  27.562  23.580  1.00  0.00    -0.027 A 
ATOM     11  C   UNL A   1      32.764  27.152  22.204  1.00  0.00     0.005 A 
ATOM     12  C   UNL A   1      31.765  26.803  24.537  1.00  0.00     0.058 A 
ATOM     13  C   UNL A   1      32.273  25.983  21.690  1.00  0.00     0.001 A 
ATOM     14  C   UNL A   1      31.579  25.218  22.588  1.00  0.00     0.018 A 
BRANCH  12  15
ATOM     15  N   UNL A   1      31.676  27.174  25.945  1.00  0.00    -0.325 N 
ATOM     16  C   UNL A   1      31.689  28.202  26.901  1.00  0.00     0.228 C 
ATOM     17  H   UNL A   1      31.553  26.335  26.445  1.00  0.00     0.169 HD
ATOM     18  O   UNL A   1      31.407  27.751  28.030  1.00  0.00    -0.274 OA
BRANCH  16  19
ATOM     19  C   UNL A   1      32.238  29.681  26.906  1.00  0.00     0.135 C 
BRANCH  19  20
ATOM     20  C   UNL A   1      33.807  30.099  27.160  1.00  0.00    -0.039 A 
ATOM     21  C   UNL A   1      34.971  29.268  27.171  1.00  0.00     0.004 A 
ATOM     22  C   UNL A   1      34.047  31.354  27.736  1.00  0.00     0.004 A 
ATOM     23  C   UNL A   1      36.084  29.488  28.017  1.00  0.00     0.000 A 
ATOM     24  C   UNL A   1      35.239  31.654  28.443  1.00  0.00     0.000 A 
ATOM     25  C   UNL A   1      36.209  30.688  28.676  1.00  0.00     0.000 A 
ENDBRANCH  19  20
ENDBRANCH  16  19
ENDBRANCH  12  15
ENDBRANCH   6   8
ENDBRANCH   5   6
ENDBRANCH   4   5
ENDBRANCH   3   4
ENDBRANCH   2   3
ENDBRANCH   1   2
BRANCH   1  26
ATOM     26  C   UNL A   1      37.468  22.582  25.301  1.00  0.00     0.188 C 
BRANCH  26  27
ATOM     27  O   UNL A   1      38.149  22.978  26.478  1.00  0.00    -0.376 OA
BRANCH  27  28
ATOM     28  C   UNL A   1      39.556  22.854  26.476  1.00  0.00     0.202 C 
BRANCH  28  29
ATOM     29  C   UNL A   1      40.071  21.402  26.357  1.00  0.00     0.261 C 
BRANCH  29  30
ATOM     30  O   UNL A   1      41.442  21.247  26.825  1.00  0.00    -0.460 OA
BRANCH  30  31
ATOM     31  C   UNL A   1      42.437  22.063  26.296  1.00  0.00     0.338 C 
ATOM     32  O   UNL A   1      42.795  21.976  25.139  1.00  0.00    -0.246 OA
BRANCH  31  33
ATOM     33  C   UNL A   1      42.912  23.080  27.318  1.00  0.00     0.060 A 
ATOM     34  C   UNL A   1      42.985  23.102  28.722  1.00  0.00     0.016 A 
ATOM     35  C   UNL A   1      43.203  24.269  26.789  1.00  0.00     0.016 A 
ATOM     36  C   UNL A   1      43.219  24.364  29.540  1.00  0.00     0.010 A 
ATOM     37  C   UNL A   1      43.100  25.396  27.613  1.00  0.00     0.010 A 
ATOM     38  C   UNL A   1      43.242  25.649  28.996  1.00  0.00    -0.014 A 
BRANCH  38  39
ATOM     39  C   UNL A   1      43.478  27.270  29.636  1.00  0.00     0.031 A 
ATOM     40  C   UNL A   1      42.419  28.726  29.657  1.00  0.00     0.074 A 
ATOM     41  C   UNL A   1      44.220  27.231  30.775  1.00  0.00     0.049 A 
ATOM     42  N   UNL A   1      41.980  29.292  30.771  1.00  0.00    -0.248 NA
ATOM     43  C   UNL A   1      41.654  29.437  28.559  1.00  0.00     0.031 C 
ATOM     44  C   UNL A   1      44.207  28.082  31.990  1.00  0.00     0.029 A 
ATOM     45  N   UNL A   1      45.334  26.431  31.013  1.00  0.00    -0.354 N 
ATOM     46  C   UNL A   1      40.808  30.029  30.570  1.00  0.00     0.074 A 
ATOM     47  C   UNL A   1      40.575  29.985  29.162  1.00  0.00     0.031 C 
ATOM     48  C   UNL A   1      45.425  28.058  32.556  1.00  0.00     0.029 A 
ATOM     49  C   UNL A   1      46.246  27.335  31.613  1.00  0.00     0.049 A 
ATOM     50  H   UNL A   1      45.457  25.475  30.814  1.00  0.00     0.167 HD
ATOM     51  C   UNL A   1      40.293  30.860  31.539  1.00  0.00     0.037 A 
ATOM     52  C   UNL A   1      47.126  27.939  30.754  1.00  0.00     0.037 A 
ATOM     53  C   UNL A   1      41.450  31.364  32.246  1.00  0.00     0.049 A 
ATOM     54  C   UNL A   1      46.799  29.435  30.581  1.00  0.00     0.074 A 
ATOM     55  C   UNL A   1      42.132  31.082  33.410  1.00  0.00     0.029 A 
ATOM     56  N   UNL A   1      42.329  32.069  31.436  1.00  0.00    -0.354 N 
ATOM     57  N   UNL A   1      45.627  30.004  30.775  1.00  0.00    -0.248 NA
ATOM     58  C   UNL A   1      47.839  30.433  30.355  1.00  0.00     0.031 C 
ATOM     59  C   UNL A   1      43.517  31.362  33.127  1.00  0.00     0.029 A 
ATOM     60  C   UNL A   1      43.630  31.864  31.833  1.00  0.00     0.049 A 
ATOM     61  H   UNL A   1      42.057  32.639  30.681  1.00  0.00     0.167 HD
ATOM     62  C   UNL A   1      45.739  31.373  30.729  1.00  0.00     0.074 A 
ATOM     63  C   UNL A   1      47.150  31.582  30.464  1.00  0.00     0.031 C 
ATOM     64  C   UNL A   1      44.721  32.273  30.943  1.00  0.00     0.037 A 
BRANCH  51  65
ATOM     65  C   UNL A   1      38.876  31.415  31.737  1.00  0.00     0.058 A 
ATOM     66  C   UNL A   1      38.352  32.460  30.935  1.00  0.00     0.135 A 
ATOM     67  C   UNL A   1      38.065  31.086  32.842  1.00  0.00     0.135 A 
ATOM     68  F   UNL A   1      39.013  32.883  29.847  1.00  0.00    -0.206 F 
ATOM     69  C   UNL A   1      37.144  33.132  31.217  1.00  0.00     0.059 A 
ATOM     70  C   UNL A   1      36.859  31.757  33.160  1.00  0.00     0.059 A 
ATOM     71  F   UNL A   1      38.433  30.086  33.654  1.00  0.00    -0.206 F 
ATOM     72  C   UNL A   1      36.408  32.792  32.347  1.00  0.00     0.060 A 
BRANCH  72  73
ATOM     73  S   UNL A   1      34.891  33.724  32.725  1.00  0.00     0.124 S 
ATOM     74  O   UNL A   1      34.471  33.139  33.995  1.00  0.00    -0.237 OA
ATOM     75  O   UNL A   1      35.375  35.099  32.797  1.00  0.00    -0.237 OA
ATOM     76  O   UNL A   1      34.013  33.440  31.593  1.00  0.00    -0.744 OA
ENDBRANCH  72  73
ENDBRANCH  51  65
BRANCH  52  77
ATOM     77  C   UNL A   1      47.622  26.884  29.776  1.00  0.00     0.058 A 
ATOM     78  C   UNL A   1      47.339  27.155  28.405  1.00  0.00     0.135 A 
ATOM     79  C   UNL A   1      48.719  26.041  30.013  1.00  0.00     0.135 A 
ATOM     80  F   UNL A   1      46.298  27.945  28.087  1.00  0.00    -0.206 F 
ATOM     81  C   UNL A   1      48.216  26.828  27.371  1.00  0.00     0.059 A 
ATOM     82  C   UNL A   1      49.555  25.606  28.960  1.00  0.00     0.059 A 
ATOM     83  F   UNL A   1      49.083  25.740  31.268  1.00  0.00    -0.206 F 
ATOM     84  C   UNL A   1      49.356  26.098  27.665  1.00  0.00     0.060 A 
BRANCH  84  85
ATOM     85  S   UNL A   1      50.616  25.953  26.364  1.00  0.00     0.124 S 
ATOM     86  O   UNL A   1      49.799  25.851  25.151  1.00  0.00    -0.237 OA
ATOM     87  O   UNL A   1      51.354  27.205  26.505  1.00  0.00    -0.237 OA
ATOM     88  O   UNL A   1      51.338  24.740  26.721  1.00  0.00    -0.744 OA
ENDBRANCH  84  85
ENDBRANCH  52  77
BRANCH  64  89
ATOM     89  C   UNL A   1      44.714  33.668  30.309  1.00  0.00     0.058 A 
ATOM     90  C   UNL A   1      44.356  33.896  28.966  1.00  0.00     0.135 A 
ATOM     91  C   UNL A   1      44.927  34.854  31.064  1.00  0.00     0.135 A 
ATOM     92  F   UNL A   1      43.928  32.906  28.171  1.00  0.00    -0.206 F 
ATOM     93  C   UNL A   1      44.384  35.159  28.377  1.00  0.00     0.059 A 
ATOM     94  C   UNL A   1      44.864  36.136  30.516  1.00  0.00     0.059 A 
ATOM     95  F   UNL A   1      45.189  34.824  32.378  1.00  0.00    -0.206 F 
ATOM     96  C   UNL A   1      44.663  36.273  29.155  1.00  0.00     0.060 A 
BRANCH  96  97
ATOM     97  S   UNL A   1      44.764  37.890  28.376  1.00  0.00     0.124 S 
ATOM     98  O   UNL A   1      46.091  38.328  28.804  1.00  0.00    -0.237 OA
ATOM     99  O   UNL A   1      44.632  37.575  26.957  1.00  0.00    -0.237 OA
ATOM    100  O   UNL A   1      43.641  38.617  28.958  1.00  0.00    -0.744 OA
ENDBRANCH  96  97
ENDBRANCH  64  89
ENDBRANCH  38  39
ENDBRANCH  31  33
ENDBRANCH  30  31
ENDBRANCH  29  30
ENDBRANCH  28  29
ENDBRANCH  27  28
ENDBRANCH  26  27
ENDBRANCH   1  26
TORSDOF 23
ENDMDL
