MODEL 1
REMARK VINA RESULT:      -9.7      0.000      0.000
REMARK SMILES CC(=O)N[C@@H](Cc1cc(Br)c(O)c(Br)c1)C(=O)OCCOCCOCCOC(=O)c1ccc(-c2c3nc(c(-c4c(F)cc(S(=O)(=O)[O-])cc4F)c4ccc([nH]4)c(-c4c(F)cc(S(=O)(=O)[O-])cc4F)c4nc(c(-c5c(F)cc(S(=O)(=O)[O-])cc5F)c5ccc2[nH]5)C=C4)C=C3)cc1
REMARK SMILES IDX 22 1 21 2 20 3 19 4 18 5 16 6 17 7 5 8 4 9 1 10 2 11 3 12
REMARK SMILES IDX 6 14 7 15 8 16 15 17 9 18 13 19 10 20 11 21 14 22 12 23
REMARK SMILES IDX 23 25 24 26 25 27 26 28 27 29 28 30 29 31 30 32 31 33 95 34
REMARK SMILES IDX 32 35 94 36 33 37 34 38 35 39 88 40 36 41 93 42 87 43 89 44
REMARK SMILES IDX 37 45 92 46 86 47 85 48 38 50 72 51 51 52 71 53 52 54 55 55
REMARK SMILES IDX 70 56 90 57 53 58 54 59 69 61 91 62 56 63 39 64 40 65 49 66
REMARK SMILES IDX 41 67 42 68 48 69 50 70 43 71 44 72 45 73 46 74 47 75 73 76
REMARK SMILES IDX 74 77 83 78 75 79 76 80 82 81 84 82 77 83 78 84 79 85 80 86
REMARK SMILES IDX 81 87 57 88 58 89 67 90 59 91 60 92 66 93 68 94 61 95 62 96
REMARK SMILES IDX 63 97 64 98 65 99
REMARK H PARENT 4 13 12 24 89 49 55 60
REMARK Flexibility Score: inf
ROOT
ATOM      1  C   UNL A   1      34.729  21.740  26.578  1.00  0.00     0.188 C 
ENDROOT
BRANCH   1   2
ATOM      2  O   UNL A   1      33.404  21.590  27.072  1.00  0.00    -0.376 OA
BRANCH   2   3
ATOM      3  C   UNL A   1      32.502  22.686  26.984  1.00  0.00     0.202 C 
BRANCH   3   4
ATOM      4  C   UNL A   1      31.205  22.537  26.172  1.00  0.00     0.261 C 
BRANCH   4   5
ATOM      5  O   UNL A   1      30.833  23.682  25.374  1.00  0.00    -0.462 OA
BRANCH   5   6
ATOM      6  C   UNL A   1      31.118  23.616  24.044  1.00  0.00     0.329 C 
ATOM      7  O   UNL A   1      31.361  22.574  23.443  1.00  0.00    -0.250 OA
BRANCH   6   8
ATOM      8  C   UNL A   1      31.244  24.997  23.358  1.00  0.00     0.196 C 
BRANCH   8   9
ATOM      9  N   UNL A   1      31.709  25.057  21.963  1.00  0.00    -0.343 N 
ATOM     10  C   UNL A   1      33.734  26.411  22.369  1.00  0.00     0.114 C 
ATOM     11  C   UNL A   1      32.769  25.735  21.435  1.00  0.00     0.217 C 
ATOM     12  O   UNL A   1      32.928  25.752  20.217  1.00  0.00    -0.275 OA
ATOM     13  H   UNL A   1      31.180  24.533  21.319  1.00  0.00     0.164 HD
ENDBRANCH   8   9
BRANCH   8  14
ATOM     14  C   UNL A   1      29.874  25.696  23.464  1.00  0.00     0.072 C 
BRANCH  14  15
ATOM     15  C   UNL A   1      30.006  27.203  23.607  1.00  0.00    -0.043 A 
ATOM     16  C   UNL A   1      30.979  27.746  24.459  1.00  0.00     0.023 A 
ATOM     17  C   UNL A   1      29.095  28.063  22.977  1.00  0.00     0.023 A 
ATOM     18  C   UNL A   1      31.016  29.120  24.697  1.00  0.00     0.061 A 
ATOM     19  C   UNL A   1      29.147  29.442  23.205  1.00  0.00     0.061 A 
ATOM     20  Br  UNL A   1      32.300  29.796  25.919  1.00  0.00    -0.047 Br
ATOM     21  C   UNL A   1      30.105  29.974  24.069  1.00  0.00     0.143 A 
ATOM     22  Br  UNL A   1      27.871  30.546  22.339  1.00  0.00    -0.047 Br
BRANCH  21  23
ATOM     23  O   UNL A   1      30.141  31.325  24.295  1.00  0.00    -0.506 OA
ATOM     24  H   UNL A   1      29.833  31.672  25.110  1.00  0.00     0.293 HD
ENDBRANCH  21  23
ENDBRANCH  14  15
ENDBRANCH   8  14
ENDBRANCH   6   8
ENDBRANCH   5   6
ENDBRANCH   4   5
ENDBRANCH   3   4
ENDBRANCH   2   3
ENDBRANCH   1   2
BRANCH   1  25
ATOM     25  C   UNL A   1      35.168  20.916  25.355  1.00  0.00     0.188 C 
BRANCH  25  26
ATOM     26  O   UNL A   1      35.682  21.664  24.283  1.00  0.00    -0.376 OA
BRANCH  26  27
ATOM     27  C   UNL A   1      37.043  22.047  24.313  1.00  0.00     0.202 C 
BRANCH  27  28
ATOM     28  C   UNL A   1      38.088  21.398  25.247  1.00  0.00     0.261 C 
BRANCH  28  29
ATOM     29  O   UNL A   1      38.555  22.150  26.376  1.00  0.00    -0.460 OA
BRANCH  29  30
ATOM     30  C   UNL A   1      39.894  22.222  26.568  1.00  0.00     0.338 C 
ATOM     31  O   UNL A   1      40.722  21.367  26.291  1.00  0.00    -0.246 OA
BRANCH  30  32
ATOM     32  C   UNL A   1      40.216  23.606  26.983  1.00  0.00     0.060 A 
ATOM     33  C   UNL A   1      39.807  24.688  26.186  1.00  0.00     0.016 A 
ATOM     34  C   UNL A   1      40.902  23.831  28.175  1.00  0.00     0.016 A 
ATOM     35  C   UNL A   1      40.085  26.000  26.582  1.00  0.00     0.010 A 
ATOM     36  C   UNL A   1      41.208  25.142  28.552  1.00  0.00     0.010 A 
ATOM     37  C   UNL A   1      40.817  26.232  27.751  1.00  0.00    -0.014 A 
BRANCH  37  38
ATOM     38  C   UNL A   1      41.358  27.578  28.068  1.00  0.00     0.031 A 
ATOM     39  C   UNL A   1      42.844  27.783  27.961  1.00  0.00     0.074 A 
ATOM     40  C   UNL A   1      40.567  28.579  28.496  1.00  0.00     0.049 A 
ATOM     41  N   UNL A   1      43.579  28.777  28.381  1.00  0.00    -0.248 NA
ATOM     42  C   UNL A   1      43.602  26.707  27.301  1.00  0.00     0.031 C 
ATOM     43  C   UNL A   1      39.109  28.530  28.583  1.00  0.00     0.029 A 
ATOM     44  N   UNL A   1      40.891  29.827  28.972  1.00  0.00    -0.354 N 
ATOM     45  C   UNL A   1      44.889  28.435  28.065  1.00  0.00     0.074 A 
ATOM     46  C   UNL A   1      44.848  27.138  27.428  1.00  0.00     0.031 C 
ATOM     47  C   UNL A   1      38.666  29.683  29.114  1.00  0.00     0.029 A 
ATOM     48  C   UNL A   1      39.810  30.530  29.454  1.00  0.00     0.049 A 
ATOM     49  H   UNL A   1      41.807  30.185  28.967  1.00  0.00     0.167 HD
ATOM     50  C   UNL A   1      46.022  29.140  28.290  1.00  0.00     0.037 A 
ATOM     51  C   UNL A   1      39.757  31.694  30.133  1.00  0.00     0.037 A 
ATOM     52  C   UNL A   1      46.052  30.430  28.926  1.00  0.00     0.049 A 
ATOM     53  C   UNL A   1      41.040  32.425  30.452  1.00  0.00     0.074 A 
ATOM     54  C   UNL A   1      47.147  31.233  29.191  1.00  0.00     0.029 A 
ATOM     55  N   UNL A   1      44.938  31.103  29.408  1.00  0.00    -0.354 N 
ATOM     56  N   UNL A   1      42.275  32.097  30.149  1.00  0.00    -0.248 NA
ATOM     57  C   UNL A   1      40.926  33.679  31.211  1.00  0.00     0.031 C 
ATOM     58  C   UNL A   1      46.703  32.362  29.884  1.00  0.00     0.029 A 
ATOM     59  C   UNL A   1      45.323  32.298  29.990  1.00  0.00     0.049 A 
ATOM     60  H   UNL A   1      44.010  30.778  29.343  1.00  0.00     0.167 HD
ATOM     61  C   UNL A   1      43.076  33.121  30.646  1.00  0.00     0.074 A 
ATOM     62  C   UNL A   1      42.190  34.080  31.270  1.00  0.00     0.031 C 
ATOM     63  C   UNL A   1      44.425  33.258  30.587  1.00  0.00     0.037 A 
BRANCH  50  64
ATOM     64  C   UNL A   1      47.328  28.513  27.885  1.00  0.00     0.058 A 
ATOM     65  C   UNL A   1      48.098  27.753  28.780  1.00  0.00     0.135 A 
ATOM     66  C   UNL A   1      47.799  28.649  26.568  1.00  0.00     0.135 A 
ATOM     67  F   UNL A   1      47.705  27.609  30.055  1.00  0.00    -0.206 F 
ATOM     68  C   UNL A   1      49.300  27.173  28.391  1.00  0.00     0.059 A 
ATOM     69  C   UNL A   1      48.983  28.050  26.149  1.00  0.00     0.059 A 
ATOM     70  F   UNL A   1      47.105  29.369  25.672  1.00  0.00    -0.206 F 
ATOM     71  C   UNL A   1      49.734  27.324  27.072  1.00  0.00     0.060 A 
BRANCH  71  72
ATOM     72  S   UNL A   1      51.290  26.554  26.583  1.00  0.00     0.124 S 
ATOM     73  O   UNL A   1      50.941  25.990  25.283  1.00  0.00    -0.237 OA
ATOM     74  O   UNL A   1      52.204  27.692  26.554  1.00  0.00    -0.237 OA
ATOM     75  O   UNL A   1      51.538  25.581  27.641  1.00  0.00    -0.744 OA
ENDBRANCH  71  72
ENDBRANCH  50  64
BRANCH  51  76
ATOM     76  C   UNL A   1      38.447  32.235  30.591  1.00  0.00     0.058 A 
ATOM     77  C   UNL A   1      37.733  33.159  29.814  1.00  0.00     0.135 A 
ATOM     78  C   UNL A   1      37.884  31.847  31.819  1.00  0.00     0.135 A 
ATOM     79  F   UNL A   1      38.235  33.577  28.642  1.00  0.00    -0.206 F 
ATOM     80  C   UNL A   1      36.518  33.688  30.238  1.00  0.00     0.059 A 
ATOM     81  C   UNL A   1      36.657  32.338  32.251  1.00  0.00     0.059 A 
ATOM     82  F   UNL A   1      38.522  30.963  32.602  1.00  0.00    -0.206 F 
ATOM     83  C   UNL A   1      35.984  33.267  31.457  1.00  0.00     0.060 A 
BRANCH  83  84
ATOM     84  S   UNL A   1      34.380  33.918  31.970  1.00  0.00     0.124 S 
ATOM     85  O   UNL A   1      33.773  34.250  30.687  1.00  0.00    -0.237 OA
ATOM     86  O   UNL A   1      33.800  32.779  32.674  1.00  0.00    -0.237 OA
ATOM     87  O   UNL A   1      34.733  35.055  32.815  1.00  0.00    -0.744 OA
ENDBRANCH  83  84
ENDBRANCH  51  76
BRANCH  63  88
ATOM     88  C   UNL A   1      45.038  34.511  31.152  1.00  0.00     0.058 A 
ATOM     89  C   UNL A   1      45.454  34.600  32.489  1.00  0.00     0.135 A 
ATOM     90  C   UNL A   1      45.303  35.606  30.310  1.00  0.00     0.135 A 
ATOM     91  F   UNL A   1      45.220  33.588  33.338  1.00  0.00    -0.206 F 
ATOM     92  C   UNL A   1      46.107  35.731  32.973  1.00  0.00     0.059 A 
ATOM     93  C   UNL A   1      45.979  36.733  30.765  1.00  0.00     0.059 A 
ATOM     94  F   UNL A   1      44.933  35.570  29.020  1.00  0.00    -0.206 F 
ATOM     95  C   UNL A   1      46.374  36.788  32.099  1.00  0.00     0.060 A 
BRANCH  95  96
ATOM     96  S   UNL A   1      47.283  38.218  32.725  1.00  0.00     0.124 S 
ATOM     97  O   UNL A   1      47.831  38.782  31.496  1.00  0.00    -0.237 OA
ATOM     98  O   UNL A   1      46.230  38.999  33.366  1.00  0.00    -0.237 OA
ATOM     99  O   UNL A   1      48.261  37.628  33.635  1.00  0.00    -0.744 OA
ENDBRANCH  95  96
ENDBRANCH  63  88
ENDBRANCH  37  38
ENDBRANCH  30  32
ENDBRANCH  29  30
ENDBRANCH  28  29
ENDBRANCH  27  28
ENDBRANCH  26  27
ENDBRANCH  25  26
ENDBRANCH   1  25
TORSDOF 24
ENDMDL
MODEL 2
REMARK VINA RESULT:      -9.7      1.794      8.457
REMARK SMILES CC(=O)N[C@@H](Cc1cc(Br)c(O)c(Br)c1)C(=O)OCCOCCOCCOC(=O)c1ccc(-c2c3nc(c(-c4c(F)cc(S(=O)(=O)[O-])cc4F)c4ccc([nH]4)c(-c4c(F)cc(S(=O)(=O)[O-])cc4F)c4nc(c(-c5c(F)cc(S(=O)(=O)[O-])cc5F)c5ccc2[nH]5)C=C4)C=C3)cc1
REMARK SMILES IDX 22 1 21 2 20 3 19 4 18 5 16 6 17 7 5 8 4 9 1 10 2 11 3 12
REMARK SMILES IDX 6 14 7 15 8 16 15 17 9 18 13 19 10 20 11 21 14 22 12 23
REMARK SMILES IDX 23 25 24 26 25 27 26 28 27 29 28 30 29 31 30 32 31 33 95 34
REMARK SMILES IDX 32 35 94 36 33 37 34 38 35 39 88 40 36 41 93 42 87 43 89 44
REMARK SMILES IDX 37 45 92 46 86 47 85 48 38 50 72 51 51 52 71 53 52 54 55 55
REMARK SMILES IDX 70 56 90 57 53 58 54 59 69 61 91 62 56 63 39 64 40 65 49 66
REMARK SMILES IDX 41 67 42 68 48 69 50 70 43 71 44 72 45 73 46 74 47 75 73 76
REMARK SMILES IDX 74 77 83 78 75 79 76 80 82 81 84 82 77 83 78 84 79 85 80 86
REMARK SMILES IDX 81 87 57 88 58 89 67 90 59 91 60 92 66 93 68 94 61 95 62 96
REMARK SMILES IDX 63 97 64 98 65 99
REMARK H PARENT 4 13 12 24 89 49 55 60
REMARK Flexibility Score: inf
ROOT
ATOM      1  C   UNL A   1      32.821  21.273  25.315  1.00  0.00     0.188 C 
ENDROOT
BRANCH   1   2
ATOM      2  O   UNL A   1      32.318  20.898  24.039  1.00  0.00    -0.376 OA
BRANCH   2   3
ATOM      3  C   UNL A   1      32.268  21.868  23.000  1.00  0.00     0.202 C 
BRANCH   3   4
ATOM      4  C   UNL A   1      33.272  23.033  23.001  1.00  0.00     0.261 C 
BRANCH   4   5
ATOM      5  O   UNL A   1      32.710  24.341  23.246  1.00  0.00    -0.462 OA
BRANCH   5   6
ATOM      6  C   UNL A   1      33.278  25.072  24.245  1.00  0.00     0.329 C 
ATOM      7  O   UNL A   1      34.090  24.624  25.049  1.00  0.00    -0.250 OA
BRANCH   6   8
ATOM      8  C   UNL A   1      32.714  26.506  24.376  1.00  0.00     0.196 C 
BRANCH   8   9
ATOM      9  N   UNL A   1      31.601  26.914  23.504  1.00  0.00    -0.343 N 
ATOM     10  C   UNL A   1      32.661  28.942  22.576  1.00  0.00     0.114 C 
ATOM     11  C   UNL A   1      31.476  28.031  22.731  1.00  0.00     0.217 C 
ATOM     12  O   UNL A   1      30.412  28.251  22.156  1.00  0.00    -0.275 OA
ATOM     13  H   UNL A   1      30.839  26.291  23.473  1.00  0.00     0.164 HD
ENDBRANCH   8   9
BRANCH   8  14
ATOM     14  C   UNL A   1      32.302  26.712  25.847  1.00  0.00     0.072 C 
BRANCH  14  15
ATOM     15  C   UNL A   1      32.753  28.058  26.388  1.00  0.00    -0.043 A 
ATOM     16  C   UNL A   1      31.907  29.173  26.294  1.00  0.00     0.023 A 
ATOM     17  C   UNL A   1      34.052  28.227  26.889  1.00  0.00     0.023 A 
ATOM     18  C   UNL A   1      32.366  30.436  26.667  1.00  0.00     0.061 A 
ATOM     19  C   UNL A   1      34.502  29.494  27.277  1.00  0.00     0.061 A 
ATOM     20  Br  UNL A   1      31.210  31.924  26.447  1.00  0.00    -0.047 Br
ATOM     21  C   UNL A   1      33.662  30.602  27.163  1.00  0.00     0.143 A 
ATOM     22  Br  UNL A   1      36.278  29.658  27.924  1.00  0.00    -0.047 Br
BRANCH  21  23
ATOM     23  O   UNL A   1      34.116  31.841  27.536  1.00  0.00    -0.506 OA
ATOM     24  H   UNL A   1      33.612  32.605  27.335  1.00  0.00     0.293 HD
ENDBRANCH  21  23
ENDBRANCH  14  15
ENDBRANCH   8  14
ENDBRANCH   6   8
ENDBRANCH   5   6
ENDBRANCH   4   5
ENDBRANCH   3   4
ENDBRANCH   2   3
ENDBRANCH   1   2
BRANCH   1  25
ATOM     25  C   UNL A   1      34.145  20.663  25.806  1.00  0.00     0.188 C 
BRANCH  25  26
ATOM     26  O   UNL A   1      35.103  20.429  24.806  1.00  0.00    -0.376 OA
BRANCH  26  27
ATOM     27  C   UNL A   1      36.440  20.827  25.040  1.00  0.00     0.202 C 
BRANCH  27  28
ATOM     28  C   UNL A   1      36.822  22.075  25.865  1.00  0.00     0.261 C 
BRANCH  28  29
ATOM     29  O   UNL A   1      38.108  22.671  25.645  1.00  0.00    -0.460 OA
BRANCH  29  30
ATOM     30  C   UNL A   1      39.122  22.292  26.460  1.00  0.00     0.338 C 
ATOM     31  O   UNL A   1      39.563  21.161  26.603  1.00  0.00    -0.246 OA
BRANCH  30  32
ATOM     32  C   UNL A   1      39.749  23.518  27.000  1.00  0.00     0.060 A 
ATOM     33  C   UNL A   1      39.400  24.773  26.472  1.00  0.00     0.016 A 
ATOM     34  C   UNL A   1      40.667  23.426  28.044  1.00  0.00     0.016 A 
ATOM     35  C   UNL A   1      39.969  25.940  26.993  1.00  0.00     0.010 A 
ATOM     36  C   UNL A   1      41.260  24.591  28.540  1.00  0.00     0.010 A 
ATOM     37  C   UNL A   1      40.929  25.851  28.007  1.00  0.00    -0.014 A 
BRANCH  37  38
ATOM     38  C   UNL A   1      41.744  27.028  28.401  1.00  0.00     0.031 A 
ATOM     39  C   UNL A   1      41.043  28.181  29.064  1.00  0.00     0.074 A 
ATOM     40  C   UNL A   1      43.060  27.104  28.129  1.00  0.00     0.049 A 
ATOM     41  N   UNL A   1      41.474  29.390  29.305  1.00  0.00    -0.248 NA
ATOM     42  C   UNL A   1      39.658  27.935  29.500  1.00  0.00     0.031 C 
ATOM     43  C   UNL A   1      43.869  26.033  27.549  1.00  0.00     0.029 A 
ATOM     44  N   UNL A   1      43.940  28.149  28.277  1.00  0.00    -0.354 N 
ATOM     45  C   UNL A   1      40.406  30.059  29.892  1.00  0.00     0.074 A 
ATOM     46  C   UNL A   1      39.305  29.125  29.961  1.00  0.00     0.031 C 
ATOM     47  C   UNL A   1      45.120  26.489  27.359  1.00  0.00     0.029 A 
ATOM     48  C   UNL A   1      45.187  27.896  27.752  1.00  0.00     0.049 A 
ATOM     49  H   UNL A   1      43.701  28.996  28.716  1.00  0.00     0.167 HD
ATOM     50  C   UNL A   1      40.351  31.339  30.330  1.00  0.00     0.037 A 
ATOM     51  C   UNL A   1      46.240  28.720  27.567  1.00  0.00     0.037 A 
ATOM     52  C   UNL A   1      41.454  32.261  30.255  1.00  0.00     0.049 A 
ATOM     53  C   UNL A   1      46.131  30.168  27.983  1.00  0.00     0.074 A 
ATOM     54  C   UNL A   1      41.504  33.575  30.682  1.00  0.00     0.029 A 
ATOM     55  N   UNL A   1      42.696  31.969  29.710  1.00  0.00    -0.354 N 
ATOM     56  N   UNL A   1      45.119  30.793  28.539  1.00  0.00    -0.248 NA
ATOM     57  C   UNL A   1      47.301  31.025  27.740  1.00  0.00     0.031 C 
ATOM     58  C   UNL A   1      42.755  34.097  30.341  1.00  0.00     0.029 A 
ATOM     59  C   UNL A   1      43.510  33.087  29.766  1.00  0.00     0.049 A 
ATOM     60  H   UNL A   1      42.959  31.096  29.339  1.00  0.00     0.167 HD
ATOM     61  C   UNL A   1      45.546  32.103  28.745  1.00  0.00     0.074 A 
ATOM     62  C   UNL A   1      46.905  32.182  28.256  1.00  0.00     0.031 C 
ATOM     63  C   UNL A   1      44.873  33.145  29.296  1.00  0.00     0.037 A 
BRANCH  50  64
ATOM     64  C   UNL A   1      39.045  31.830  30.890  1.00  0.00     0.058 A 
ATOM     65  C   UNL A   1      38.078  32.453  30.085  1.00  0.00     0.135 A 
ATOM     66  C   UNL A   1      38.744  31.646  32.250  1.00  0.00     0.135 A 
ATOM     67  F   UNL A   1      38.322  32.674  28.784  1.00  0.00    -0.206 F 
ATOM     68  C   UNL A   1      36.870  32.898  30.613  1.00  0.00     0.059 A 
ATOM     69  C   UNL A   1      37.529  32.053  32.793  1.00  0.00     0.059 A 
ATOM     70  F   UNL A   1      39.634  31.060  33.067  1.00  0.00    -0.206 F 
ATOM     71  C   UNL A   1      36.603  32.690  31.968  1.00  0.00     0.060 A 
BRANCH  71  72
ATOM     72  S   UNL A   1      35.028  33.264  32.633  1.00  0.00     0.124 S 
ATOM     73  O   UNL A   1      35.227  33.067  34.066  1.00  0.00    -0.237 OA
ATOM     74  O   UNL A   1      34.987  34.651  32.185  1.00  0.00    -0.237 OA
ATOM     75  O   UNL A   1      34.051  32.377  32.010  1.00  0.00    -0.744 OA
ENDBRANCH  71  72
ENDBRANCH  50  64
BRANCH  51  76
ATOM     76  C   UNL A   1      47.485  28.210  26.929  1.00  0.00     0.058 A 
ATOM     77  C   UNL A   1      48.550  27.725  27.703  1.00  0.00     0.135 A 
ATOM     78  C   UNL A   1      47.642  28.204  25.532  1.00  0.00     0.135 A 
ATOM     79  F   UNL A   1      48.459  27.725  29.041  1.00  0.00    -0.206 F 
ATOM     80  C   UNL A   1      49.727  27.264  27.121  1.00  0.00     0.059 A 
ATOM     81  C   UNL A   1      48.797  27.721  24.926  1.00  0.00     0.059 A 
ATOM     82  F   UNL A   1      46.655  28.654  24.743  1.00  0.00    -0.206 F 
ATOM     83  C   UNL A   1      49.839  27.261  25.730  1.00  0.00     0.060 A 
BRANCH  83  84
ATOM     84  S   UNL A   1      51.350  26.609  24.985  1.00  0.00     0.124 S 
ATOM     85  O   UNL A   1      52.320  27.640  25.334  1.00  0.00    -0.237 OA
ATOM     86  O   UNL A   1      51.502  25.331  25.674  1.00  0.00    -0.237 OA
ATOM     87  O   UNL A   1      51.013  26.513  23.568  1.00  0.00    -0.744 OA
ENDBRANCH  83  84
ENDBRANCH  51  76
BRANCH  63  88
ATOM     88  C   UNL A   1      45.602  34.452  29.464  1.00  0.00     0.058 A 
ATOM     89  C   UNL A   1      46.373  34.735  30.601  1.00  0.00     0.135 A 
ATOM     90  C   UNL A   1      45.607  35.393  28.419  1.00  0.00     0.135 A 
ATOM     91  F   UNL A   1      46.398  33.875  31.631  1.00  0.00    -0.206 F 
ATOM     92  C   UNL A   1      47.119  35.906  30.700  1.00  0.00     0.059 A 
ATOM     93  C   UNL A   1      46.368  36.556  28.484  1.00  0.00     0.059 A 
ATOM     94  F   UNL A   1      44.894  35.168  27.304  1.00  0.00    -0.206 F 
ATOM     95  C   UNL A   1      47.118  36.806  29.631  1.00  0.00     0.060 A 
BRANCH  95  96
ATOM     96  S   UNL A   1      48.146  38.287  29.746  1.00  0.00     0.124 S 
ATOM     97  O   UNL A   1      48.663  38.183  31.106  1.00  0.00    -0.237 OA
ATOM     98  O   UNL A   1      49.118  38.073  28.679  1.00  0.00    -0.237 OA
ATOM     99  O   UNL A   1      47.200  39.375  29.516  1.00  0.00    -0.744 OA
ENDBRANCH  95  96
ENDBRANCH  63  88
ENDBRANCH  37  38
ENDBRANCH  30  32
ENDBRANCH  29  30
ENDBRANCH  28  29
ENDBRANCH  27  28
ENDBRANCH  26  27
ENDBRANCH  25  26
ENDBRANCH   1  25
TORSDOF 24
ENDMDL
MODEL 3
REMARK VINA RESULT:      -8.6      5.425     12.276
REMARK SMILES CC(=O)N[C@@H](Cc1cc(Br)c(O)c(Br)c1)C(=O)OCCOCCOCCOC(=O)c1ccc(-c2c3nc(c(-c4c(F)cc(S(=O)(=O)[O-])cc4F)c4ccc([nH]4)c(-c4c(F)cc(S(=O)(=O)[O-])cc4F)c4nc(c(-c5c(F)cc(S(=O)(=O)[O-])cc5F)c5ccc2[nH]5)C=C4)C=C3)cc1
REMARK SMILES IDX 22 1 21 2 20 3 19 4 18 5 16 6 17 7 5 8 4 9 1 10 2 11 3 12
REMARK SMILES IDX 6 14 7 15 8 16 15 17 9 18 13 19 10 20 11 21 14 22 12 23
REMARK SMILES IDX 23 25 24 26 25 27 26 28 27 29 28 30 29 31 30 32 31 33 95 34
REMARK SMILES IDX 32 35 94 36 33 37 34 38 35 39 88 40 36 41 93 42 87 43 89 44
REMARK SMILES IDX 37 45 92 46 86 47 85 48 38 50 72 51 51 52 71 53 52 54 55 55
REMARK SMILES IDX 70 56 90 57 53 58 54 59 69 61 91 62 56 63 39 64 40 65 49 66
REMARK SMILES IDX 41 67 42 68 48 69 50 70 43 71 44 72 45 73 46 74 47 75 73 76
REMARK SMILES IDX 74 77 83 78 75 79 76 80 82 81 84 82 77 83 78 84 79 85 80 86
REMARK SMILES IDX 81 87 57 88 58 89 67 90 59 91 60 92 66 93 68 94 61 95 62 96
REMARK SMILES IDX 63 97 64 98 65 99
REMARK H PARENT 4 13 12 24 89 49 55 60
REMARK Flexibility Score: inf
ROOT
ATOM      1  C   UNL A   1      38.197  34.149  35.675  1.00  0.00     0.188 C 
ENDROOT
BRANCH   1   2
ATOM      2  O   UNL A   1      39.532  33.896  35.257  1.00  0.00    -0.376 OA
BRANCH   2   3
ATOM      3  C   UNL A   1      39.951  32.554  35.045  1.00  0.00     0.202 C 
BRANCH   3   4
ATOM      4  C   UNL A   1      41.108  31.980  35.878  1.00  0.00     0.261 C 
BRANCH   4   5
ATOM      5  O   UNL A   1      41.547  30.654  35.508  1.00  0.00    -0.462 OA
BRANCH   5   6
ATOM      6  C   UNL A   1      42.290  29.979  36.428  1.00  0.00     0.329 C 
ATOM      7  O   UNL A   1      42.891  30.514  37.355  1.00  0.00    -0.250 OA
BRANCH   6   8
ATOM      8  C   UNL A   1      42.431  28.466  36.135  1.00  0.00     0.196 C 
BRANCH   8   9
ATOM      9  N   UNL A   1      41.350  27.559  36.551  1.00  0.00    -0.343 N 
ATOM     10  C   UNL A   1      42.775  25.838  37.603  1.00  0.00     0.114 C 
ATOM     11  C   UNL A   1      41.433  26.331  37.141  1.00  0.00     0.217 C 
ATOM     12  O   UNL A   1      40.410  25.672  37.309  1.00  0.00    -0.275 OA
ATOM     13  H   UNL A   1      40.436  27.884  36.379  1.00  0.00     0.164 HD
ENDBRANCH   8   9
BRANCH   8  14
ATOM     14  C   UNL A   1      42.670  28.305  34.621  1.00  0.00     0.072 C 
BRANCH  14  15
ATOM     15  C   UNL A   1      43.848  27.396  34.317  1.00  0.00    -0.043 A 
ATOM     16  C   UNL A   1      45.156  27.900  34.359  1.00  0.00     0.023 A 
ATOM     17  C   UNL A   1      43.639  26.076  33.889  1.00  0.00     0.023 A 
ATOM     18  C   UNL A   1      46.228  27.107  33.952  1.00  0.00     0.061 A 
ATOM     19  C   UNL A   1      44.720  25.279  33.498  1.00  0.00     0.061 A 
ATOM     20  Br  UNL A   1      47.969  27.862  33.953  1.00  0.00    -0.047 Br
ATOM     21  C   UNL A   1      46.017  25.793  33.525  1.00  0.00     0.143 A 
ATOM     22  Br  UNL A   1      44.367  23.511  32.908  1.00  0.00    -0.047 Br
BRANCH  21  23
ATOM     23  O   UNL A   1      47.068  25.008  33.129  1.00  0.00    -0.506 OA
ATOM     24  H   UNL A   1      47.138  24.735  32.234  1.00  0.00     0.293 HD
ENDBRANCH  21  23
ENDBRANCH  14  15
ENDBRANCH   8  14
ENDBRANCH   6   8
ENDBRANCH   5   6
ENDBRANCH   4   5
ENDBRANCH   3   4
ENDBRANCH   2   3
ENDBRANCH   1   2
BRANCH   1  25
ATOM     25  C   UNL A   1      37.064  33.256  35.142  1.00  0.00     0.188 C 
BRANCH  25  26
ATOM     26  O   UNL A   1      36.391  33.752  34.013  1.00  0.00    -0.376 OA
BRANCH  26  27
ATOM     27  C   UNL A   1      34.977  33.768  34.019  1.00  0.00     0.202 C 
BRANCH  27  28
ATOM     28  C   UNL A   1      34.120  33.652  32.739  1.00  0.00     0.261 C 
BRANCH  28  29
ATOM     29  O   UNL A   1      34.238  32.462  31.946  1.00  0.00    -0.460 OA
BRANCH  29  30
ATOM     30  C   UNL A   1      34.602  32.608  30.649  1.00  0.00     0.338 C 
ATOM     31  O   UNL A   1      34.046  33.296  29.805  1.00  0.00    -0.246 OA
BRANCH  30  32
ATOM     32  C   UNL A   1      35.918  31.955  30.473  1.00  0.00     0.060 A 
ATOM     33  C   UNL A   1      36.488  31.233  31.535  1.00  0.00     0.016 A 
ATOM     34  C   UNL A   1      36.576  32.039  29.248  1.00  0.00     0.016 A 
ATOM     35  C   UNL A   1      37.720  30.591  31.370  1.00  0.00     0.010 A 
ATOM     36  C   UNL A   1      37.823  31.426  29.096  1.00  0.00     0.010 A 
ATOM     37  C   UNL A   1      38.410  30.713  30.159  1.00  0.00    -0.014 A 
BRANCH  37  38
ATOM     38  C   UNL A   1      39.823  30.278  30.030  1.00  0.00     0.031 A 
ATOM     39  C   UNL A   1      40.899  31.312  30.217  1.00  0.00     0.074 A 
ATOM     40  C   UNL A   1      40.150  29.015  29.699  1.00  0.00     0.049 A 
ATOM     41  N   UNL A   1      42.175  31.243  29.949  1.00  0.00    -0.248 NA
ATOM     42  C   UNL A   1      40.465  32.607  30.768  1.00  0.00     0.031 C 
ATOM     43  C   UNL A   1      39.210  27.906  29.552  1.00  0.00     0.029 A 
ATOM     44  N   UNL A   1      41.372  28.464  29.393  1.00  0.00    -0.354 N 
ATOM     45  C   UNL A   1      42.694  32.492  30.270  1.00  0.00     0.074 A 
ATOM     46  C   UNL A   1      41.592  33.302  30.741  1.00  0.00     0.031 C 
ATOM     47  C   UNL A   1      39.884  26.814  29.150  1.00  0.00     0.029 A 
ATOM     48  C   UNL A   1      41.293  27.160  28.960  1.00  0.00     0.049 A 
ATOM     49  H   UNL A   1      42.220  28.955  29.475  1.00  0.00     0.167 HD
ATOM     50  C   UNL A   1      43.973  32.924  30.175  1.00  0.00     0.037 A 
ATOM     51  C   UNL A   1      42.239  26.358  28.427  1.00  0.00     0.037 A 
ATOM     52  C   UNL A   1      45.062  32.109  29.703  1.00  0.00     0.049 A 
ATOM     53  C   UNL A   1      43.643  26.885  28.248  1.00  0.00     0.074 A 
ATOM     54  C   UNL A   1      46.397  32.448  29.580  1.00  0.00     0.029 A 
ATOM     55  N   UNL A   1      44.940  30.798  29.267  1.00  0.00    -0.354 N 
ATOM     56  N   UNL A   1      44.127  28.067  28.555  1.00  0.00    -0.248 NA
ATOM     57  C   UNL A   1      44.628  25.976  27.644  1.00  0.00     0.031 C 
ATOM     58  C   UNL A   1      47.072  31.363  29.014  1.00  0.00     0.029 A 
ATOM     59  C   UNL A   1      46.171  30.323  28.850  1.00  0.00     0.049 A 
ATOM     60  H   UNL A   1      44.101  30.282  29.256  1.00  0.00     0.167 HD
ATOM     61  C   UNL A   1      45.477  28.026  28.216  1.00  0.00     0.074 A 
ATOM     62  C   UNL A   1      45.735  26.707  27.682  1.00  0.00     0.031 C 
ATOM     63  C   UNL A   1      46.420  28.994  28.342  1.00  0.00     0.037 A 
BRANCH  50  64
ATOM     64  C   UNL A   1      44.259  34.352  30.549  1.00  0.00     0.058 A 
ATOM     65  C   UNL A   1      44.163  35.398  29.618  1.00  0.00     0.135 A 
ATOM     66  C   UNL A   1      44.604  34.682  31.871  1.00  0.00     0.135 A 
ATOM     67  F   UNL A   1      43.858  35.137  28.337  1.00  0.00    -0.206 F 
ATOM     68  C   UNL A   1      44.423  36.716  29.977  1.00  0.00     0.059 A 
ATOM     69  C   UNL A   1      44.837  35.997  32.260  1.00  0.00     0.059 A 
ATOM     70  F   UNL A   1      44.714  33.720  32.801  1.00  0.00    -0.206 F 
ATOM     71  C   UNL A   1      44.757  37.007  31.302  1.00  0.00     0.060 A 
BRANCH  71  72
ATOM     72  S   UNL A   1      45.080  38.724  31.752  1.00  0.00     0.124 S 
ATOM     73  O   UNL A   1      46.498  38.672  32.096  1.00  0.00    -0.237 OA
ATOM     74  O   UNL A   1      44.752  39.435  30.522  1.00  0.00    -0.237 OA
ATOM     75  O   UNL A   1      44.173  38.960  32.871  1.00  0.00    -0.744 OA
ENDBRANCH  71  72
ENDBRANCH  50  64
BRANCH  51  76
ATOM     76  C   UNL A   1      41.889  24.977  27.990  1.00  0.00     0.058 A 
ATOM     77  C   UNL A   1      41.178  24.752  26.803  1.00  0.00     0.135 A 
ATOM     78  C   UNL A   1      42.250  23.855  28.755  1.00  0.00     0.135 A 
ATOM     79  F   UNL A   1      40.793  25.789  26.045  1.00  0.00    -0.206 F 
ATOM     80  C   UNL A   1      40.827  23.468  26.393  1.00  0.00     0.059 A 
ATOM     81  C   UNL A   1      41.937  22.561  28.352  1.00  0.00     0.059 A 
ATOM     82  F   UNL A   1      42.934  24.013  29.899  1.00  0.00    -0.206 F 
ATOM     83  C   UNL A   1      41.216  22.378  27.173  1.00  0.00     0.060 A 
BRANCH  83  84
ATOM     84  S   UNL A   1      40.802  20.715  26.602  1.00  0.00     0.124 S 
ATOM     85  O   UNL A   1      39.510  20.936  25.963  1.00  0.00    -0.237 OA
ATOM     86  O   UNL A   1      41.914  20.416  25.705  1.00  0.00    -0.237 OA
ATOM     87  O   UNL A   1      40.771  19.934  27.834  1.00  0.00    -0.744 OA
ENDBRANCH  83  84
ENDBRANCH  51  76
BRANCH  63  88
ATOM     88  C   UNL A   1      47.837  28.661  27.958  1.00  0.00     0.058 A 
ATOM     89  C   UNL A   1      48.304  28.796  26.642  1.00  0.00     0.135 A 
ATOM     90  C   UNL A   1      48.766  28.296  28.948  1.00  0.00     0.135 A 
ATOM     91  F   UNL A   1      47.458  29.135  25.657  1.00  0.00    -0.206 F 
ATOM     92  C   UNL A   1      49.641  28.577  26.320  1.00  0.00     0.059 A 
ATOM     93  C   UNL A   1      50.112  28.100  28.654  1.00  0.00     0.059 A 
ATOM     94  F   UNL A   1      48.374  28.160  30.225  1.00  0.00    -0.206 F 
ATOM     95  C   UNL A   1      50.539  28.240  27.335  1.00  0.00     0.060 A 
BRANCH  95  96
ATOM     96  S   UNL A   1      52.282  28.027  26.913  1.00  0.00     0.124 S 
ATOM     97  O   UNL A   1      52.200  27.153  25.748  1.00  0.00    -0.237 OA
ATOM     98  O   UNL A   1      52.707  29.398  26.649  1.00  0.00    -0.237 OA
ATOM     99  O   UNL A   1      52.851  27.420  28.113  1.00  0.00    -0.744 OA
ENDBRANCH  95  96
ENDBRANCH  63  88
ENDBRANCH  37  38
ENDBRANCH  30  32
ENDBRANCH  29  30
ENDBRANCH  28  29
ENDBRANCH  27  28
ENDBRANCH  26  27
ENDBRANCH  25  26
ENDBRANCH   1  25
TORSDOF 24
ENDMDL
