MODEL 1
REMARK VINA RESULT:      -9.8      0.000      0.000
REMARK SMILES Cn1cc(C(=O)NCCc2ccccc2)c(C(=O)OCCOCCOCCOC(=O)c2ccc(-c3c4nc(c(-c5c(F)cc(S(=O)(=O)[O-])cc5F)c5ccc([nH]5)c(-c5c(F)cc(S(=O)(=O)[O-])cc5F)c5nc(c(-c6c(F)cc(S(=O)(=O)[O-])cc6F)c6ccc3[nH]6)C=C5)C=C4)cc2)n1
REMARK SMILES IDX 23 1 22 2 21 3 20 4 19 5 17 6 18 7 16 8 1 9 2 10 3 11 97 12
REMARK SMILES IDX 4 13 5 14 6 15 7 16 8 18 9 19 10 20 11 21 15 22 12 23 14 24
REMARK SMILES IDX 13 25 24 26 25 27 26 28 27 29 28 30 29 31 30 32 31 33 32 34
REMARK SMILES IDX 96 35 33 36 95 37 34 38 35 39 36 40 89 41 37 42 94 43 88 44
REMARK SMILES IDX 90 45 38 46 93 47 87 48 86 49 39 51 73 52 52 53 72 54 53 55
REMARK SMILES IDX 56 56 71 57 91 58 54 59 55 60 70 62 92 63 57 64 40 65 41 66
REMARK SMILES IDX 50 67 42 68 43 69 49 70 51 71 44 72 45 73 46 74 47 75 48 76
REMARK SMILES IDX 74 77 75 78 84 79 76 80 77 81 83 82 85 83 78 84 79 85 80 86
REMARK SMILES IDX 81 87 82 88 58 89 59 90 68 91 60 92 61 93 67 94 69 95 62 96
REMARK SMILES IDX 63 97 64 98 65 99 66 100
REMARK H PARENT 7 17 90 50 56 61
REMARK Flexibility Score: inf
ROOT
ATOM      1  C   UNL A   1      33.018  22.018  24.489  1.00  0.00     0.188 C 
ENDROOT
BRANCH   1   2
ATOM      2  O   UNL A   1      32.887  23.410  24.226  1.00  0.00    -0.376 OA
BRANCH   2   3
ATOM      3  C   UNL A   1      33.182  23.890  22.917  1.00  0.00     0.202 C 
BRANCH   3   4
ATOM      4  C   UNL A   1      33.845  25.261  22.842  1.00  0.00     0.261 C 
BRANCH   4   5
ATOM      5  O   UNL A   1      32.902  26.189  22.300  1.00  0.00    -0.458 OA
BRANCH   5   6
ATOM      6  C   UNL A   1      32.824  27.391  22.931  1.00  0.00     0.359 C 
ATOM      7  O   UNL A   1      33.795  28.053  23.286  1.00  0.00    -0.244 OA
BRANCH   6   8
ATOM      8  C   UNL A   1      31.435  27.858  22.988  1.00  0.00     0.183 A 
ATOM      9  C   UNL A   1      29.083  30.353  22.299  1.00  0.00     0.173 C 
ATOM     10  N   UNL A   1      29.779  29.137  22.650  1.00  0.00    -0.274 N 
ATOM     11  C   UNL A   1      29.226  27.973  23.100  1.00  0.00     0.123 A 
ATOM     12  N   UNL A   1      31.108  29.080  22.527  1.00  0.00    -0.165 NA
ATOM     13  C   UNL A   1      30.276  27.129  23.417  1.00  0.00     0.092 A 
BRANCH  13  14
ATOM     14  C   UNL A   1      30.294  25.797  23.999  1.00  0.00     0.255 C 
ATOM     15  O   UNL A   1      30.050  24.798  23.324  1.00  0.00    -0.269 OA
ATOM     16  N   UNL A   1      30.638  25.572  25.302  1.00  0.00    -0.352 N 
ATOM     17  H   UNL A   1      30.585  24.623  25.560  1.00  0.00     0.163 HD
BRANCH  16  18
ATOM     18  C   UNL A   1      31.066  26.436  26.390  1.00  0.00     0.121 C 
BRANCH  18  19
ATOM     19  C   UNL A   1      32.567  26.745  26.314  1.00  0.00     0.057 C 
BRANCH  19  20
ATOM     20  C   UNL A   1      32.850  28.188  26.674  1.00  0.00    -0.046 A 
ATOM     21  C   UNL A   1      31.849  29.160  26.532  1.00  0.00     0.004 A 
ATOM     22  C   UNL A   1      34.132  28.588  27.076  1.00  0.00     0.004 A 
ATOM     23  C   UNL A   1      32.132  30.507  26.768  1.00  0.00     0.000 A 
ATOM     24  C   UNL A   1      34.415  29.937  27.297  1.00  0.00     0.000 A 
ATOM     25  C   UNL A   1      33.417  30.896  27.139  1.00  0.00     0.000 A 
ENDBRANCH  19  20
ENDBRANCH  18  19
ENDBRANCH  16  18
ENDBRANCH  13  14
ENDBRANCH   6   8
ENDBRANCH   5   6
ENDBRANCH   4   5
ENDBRANCH   3   4
ENDBRANCH   2   3
ENDBRANCH   1   2
BRANCH   1  26
ATOM     26  C   UNL A   1      34.349  21.463  25.040  1.00  0.00     0.188 C 
BRANCH  26  27
ATOM     27  O   UNL A   1      35.545  22.227  24.969  1.00  0.00    -0.376 OA
BRANCH  27  28
ATOM     28  C   UNL A   1      36.660  21.704  24.261  1.00  0.00     0.202 C 
BRANCH  28  29
ATOM     29  C   UNL A   1      37.862  21.245  25.083  1.00  0.00     0.261 C 
BRANCH  29  30
ATOM     30  O   UNL A   1      38.213  22.192  26.102  1.00  0.00    -0.460 OA
BRANCH  30  31
ATOM     31  C   UNL A   1      39.525  22.216  26.430  1.00  0.00     0.338 C 
ATOM     32  O   UNL A   1      40.373  21.382  26.160  1.00  0.00    -0.246 OA
BRANCH  31  33
ATOM     33  C   UNL A   1      39.853  23.511  27.051  1.00  0.00     0.060 A 
ATOM     34  C   UNL A   1      39.266  24.660  26.508  1.00  0.00     0.016 A 
ATOM     35  C   UNL A   1      40.773  23.605  28.098  1.00  0.00     0.016 A 
ATOM     36  C   UNL A   1      39.630  25.916  26.982  1.00  0.00     0.010 A 
ATOM     37  C   UNL A   1      41.151  24.868  28.561  1.00  0.00     0.010 A 
ATOM     38  C   UNL A   1      40.606  26.027  27.982  1.00  0.00    -0.014 A 
BRANCH  38  39
ATOM     39  C   UNL A   1      41.174  27.355  28.305  1.00  0.00     0.031 A 
ATOM     40  C   UNL A   1      42.650  27.574  28.113  1.00  0.00     0.074 A 
ATOM     41  C   UNL A   1      40.388  28.352  28.746  1.00  0.00     0.049 A 
ATOM     42  N   UNL A   1      43.368  28.636  28.365  1.00  0.00    -0.248 NA
ATOM     43  C   UNL A   1      43.416  26.442  27.563  1.00  0.00     0.031 C 
ATOM     44  C   UNL A   1      38.940  28.267  28.938  1.00  0.00     0.029 A 
ATOM     45  N   UNL A   1      40.703  29.632  29.125  1.00  0.00    -0.354 N 
ATOM     46  C   UNL A   1      44.670  28.303  28.007  1.00  0.00     0.074 A 
ATOM     47  C   UNL A   1      44.646  26.935  27.540  1.00  0.00     0.031 C 
ATOM     48  C   UNL A   1      38.496  29.441  29.421  1.00  0.00     0.029 A 
ATOM     49  C   UNL A   1      39.628  30.348  29.592  1.00  0.00     0.049 A 
ATOM     50  H   UNL A   1      41.613  30.002  29.067  1.00  0.00     0.167 HD
ATOM     51  C   UNL A   1      45.782  29.072  28.060  1.00  0.00     0.037 A 
ATOM     52  C   UNL A   1      39.574  31.587  30.120  1.00  0.00     0.037 A 
ATOM     53  C   UNL A   1      45.803  30.430  28.532  1.00  0.00     0.049 A 
ATOM     54  C   UNL A   1      40.838  32.401  30.227  1.00  0.00     0.074 A 
ATOM     55  C   UNL A   1      46.879  31.297  28.614  1.00  0.00     0.029 A 
ATOM     56  N   UNL A   1      44.698  31.116  29.013  1.00  0.00    -0.354 N 
ATOM     57  N   UNL A   1      42.057  32.085  29.858  1.00  0.00    -0.248 NA
ATOM     58  C   UNL A   1      40.719  33.741  30.821  1.00  0.00     0.031 C 
ATOM     59  C   UNL A   1      46.431  32.497  29.178  1.00  0.00     0.029 A 
ATOM     60  C   UNL A   1      45.069  32.390  29.410  1.00  0.00     0.049 A 
ATOM     61  H   UNL A   1      43.785  30.752  29.065  1.00  0.00     0.167 HD
ATOM     62  C   UNL A   1      42.843  33.196  30.150  1.00  0.00     0.074 A 
ATOM     63  C   UNL A   1      41.961  34.194  30.720  1.00  0.00     0.031 C 
ATOM     64  C   UNL A   1      44.174  33.375  29.962  1.00  0.00     0.037 A 
BRANCH  51  65
ATOM     65  C   UNL A   1      47.074  28.454  27.610  1.00  0.00     0.058 A 
ATOM     66  C   UNL A   1      47.462  28.466  26.261  1.00  0.00     0.135 A 
ATOM     67  C   UNL A   1      47.950  27.877  28.542  1.00  0.00     0.135 A 
ATOM     68  F   UNL A   1      46.650  28.987  25.328  1.00  0.00    -0.206 F 
ATOM     69  C   UNL A   1      48.670  27.912  25.850  1.00  0.00     0.059 A 
ATOM     70  C   UNL A   1      49.171  27.335  28.156  1.00  0.00     0.059 A 
ATOM     71  F   UNL A   1      47.620  27.834  29.843  1.00  0.00    -0.206 F 
ATOM     72  C   UNL A   1      49.518  27.348  26.806  1.00  0.00     0.060 A 
BRANCH  72  73
ATOM     73  S   UNL A   1      51.089  26.646  26.259  1.00  0.00     0.124 S 
ATOM     74  O   UNL A   1      51.258  27.289  24.959  1.00  0.00    -0.237 OA
ATOM     75  O   UNL A   1      52.009  27.082  27.305  1.00  0.00    -0.237 OA
ATOM     76  O   UNL A   1      50.824  25.212  26.220  1.00  0.00    -0.744 OA
ENDBRANCH  72  73
ENDBRANCH  51  65
BRANCH  52  77
ATOM     77  C   UNL A   1      38.281  32.135  30.609  1.00  0.00     0.058 A 
ATOM     78  C   UNL A   1      37.470  32.923  29.781  1.00  0.00     0.135 A 
ATOM     79  C   UNL A   1      37.845  31.898  31.922  1.00  0.00     0.135 A 
ATOM     80  F   UNL A   1      37.850  33.185  28.521  1.00  0.00    -0.206 F 
ATOM     81  C   UNL A   1      36.282  33.480  30.244  1.00  0.00     0.059 A 
ATOM     82  C   UNL A   1      36.651  32.425  32.401  1.00  0.00     0.059 A 
ATOM     83  F   UNL A   1      38.583  31.142  32.749  1.00  0.00    -0.206 F 
ATOM     84  C   UNL A   1      35.883  33.229  31.558  1.00  0.00     0.060 A 
BRANCH  84  85
ATOM     85  S   UNL A   1      34.330  33.939  32.147  1.00  0.00     0.124 S 
ATOM     86  O   UNL A   1      34.809  35.053  32.958  1.00  0.00    -0.237 OA
ATOM     87  O   UNL A   1      33.662  34.299  30.901  1.00  0.00    -0.237 OA
ATOM     88  O   UNL A   1      33.718  32.838  32.883  1.00  0.00    -0.744 OA
ENDBRANCH  84  85
ENDBRANCH  52  77
BRANCH  64  89
ATOM     89  C   UNL A   1      44.754  34.709  30.336  1.00  0.00     0.058 A 
ATOM     90  C   UNL A   1      44.766  35.785  29.437  1.00  0.00     0.135 A 
ATOM     91  C   UNL A   1      45.248  34.928  31.632  1.00  0.00     0.135 A 
ATOM     92  F   UNL A   1      44.310  35.625  28.184  1.00  0.00    -0.206 F 
ATOM     93  C   UNL A   1      45.265  37.031  29.804  1.00  0.00     0.059 A 
ATOM     94  C   UNL A   1      45.730  36.172  32.028  1.00  0.00     0.059 A 
ATOM     95  F   UNL A   1      45.248  33.933  32.533  1.00  0.00    -0.206 F 
ATOM     96  C   UNL A   1      45.744  37.215  31.102  1.00  0.00     0.060 A 
BRANCH  96  97
ATOM     97  S   UNL A   1      46.351  38.846  31.585  1.00  0.00     0.124 S 
ATOM     98  O   UNL A   1      46.230  39.586  30.333  1.00  0.00    -0.237 OA
ATOM     99  O   UNL A   1      45.417  39.231  32.640  1.00  0.00    -0.237 OA
ATOM    100  O   UNL A   1      47.715  38.581  32.031  1.00  0.00    -0.744 OA
ENDBRANCH  96  97
ENDBRANCH  64  89
ENDBRANCH  38  39
ENDBRANCH  31  33
ENDBRANCH  30  31
ENDBRANCH  29  30
ENDBRANCH  28  29
ENDBRANCH  27  28
ENDBRANCH  26  27
ENDBRANCH   1  26
TORSDOF 24
ENDMDL
MODEL 2
REMARK VINA RESULT:      -9.8      1.220      2.211
REMARK SMILES Cn1cc(C(=O)NCCc2ccccc2)c(C(=O)OCCOCCOCCOC(=O)c2ccc(-c3c4nc(c(-c5c(F)cc(S(=O)(=O)[O-])cc5F)c5ccc([nH]5)c(-c5c(F)cc(S(=O)(=O)[O-])cc5F)c5nc(c(-c6c(F)cc(S(=O)(=O)[O-])cc6F)c6ccc3[nH]6)C=C5)C=C4)cc2)n1
REMARK SMILES IDX 23 1 22 2 21 3 20 4 19 5 17 6 18 7 16 8 1 9 2 10 3 11 97 12
REMARK SMILES IDX 4 13 5 14 6 15 7 16 8 18 9 19 10 20 11 21 15 22 12 23 14 24
REMARK SMILES IDX 13 25 24 26 25 27 26 28 27 29 28 30 29 31 30 32 31 33 32 34
REMARK SMILES IDX 96 35 33 36 95 37 34 38 35 39 36 40 89 41 37 42 94 43 88 44
REMARK SMILES IDX 90 45 38 46 93 47 87 48 86 49 39 51 73 52 52 53 72 54 53 55
REMARK SMILES IDX 56 56 71 57 91 58 54 59 55 60 70 62 92 63 57 64 40 65 41 66
REMARK SMILES IDX 50 67 42 68 43 69 49 70 51 71 44 72 45 73 46 74 47 75 48 76
REMARK SMILES IDX 74 77 75 78 84 79 76 80 77 81 83 82 85 83 78 84 79 85 80 86
REMARK SMILES IDX 81 87 82 88 58 89 59 90 68 91 60 92 61 93 67 94 69 95 62 96
REMARK SMILES IDX 63 97 64 98 65 99 66 100
REMARK H PARENT 7 17 90 50 56 61
REMARK Flexibility Score: inf
ROOT
ATOM      1  C   UNL A   1      32.442  20.679  24.534  1.00  0.00     0.188 C 
ENDROOT
BRANCH   1   2
ATOM      2  O   UNL A   1      31.460  21.324  25.336  1.00  0.00    -0.376 OA
BRANCH   2   3
ATOM      3  C   UNL A   1      31.869  22.381  26.200  1.00  0.00     0.202 C 
BRANCH   3   4
ATOM      4  C   UNL A   1      30.747  23.174  26.862  1.00  0.00     0.261 C 
BRANCH   4   5
ATOM      5  O   UNL A   1      30.204  24.079  25.897  1.00  0.00    -0.458 OA
BRANCH   5   6
ATOM      6  C   UNL A   1      30.826  25.285  25.799  1.00  0.00     0.359 C 
ATOM      7  O   UNL A   1      31.094  26.007  26.754  1.00  0.00    -0.244 OA
BRANCH   6   8
ATOM      8  C   UNL A   1      31.269  25.530  24.423  1.00  0.00     0.183 A 
ATOM      9  C   UNL A   1      33.589  24.943  21.873  1.00  0.00     0.173 C 
ATOM     10  N   UNL A   1      32.451  25.326  22.675  1.00  0.00    -0.274 N 
ATOM     11  C   UNL A   1      31.354  26.028  22.265  1.00  0.00     0.123 A 
ATOM     12  N   UNL A   1      32.403  24.971  23.962  1.00  0.00    -0.165 NA
ATOM     13  C   UNL A   1      30.587  26.262  23.394  1.00  0.00     0.092 A 
BRANCH  13  14
ATOM     14  C   UNL A   1      29.354  27.010  23.577  1.00  0.00     0.255 C 
ATOM     15  O   UNL A   1      28.299  26.449  23.870  1.00  0.00    -0.269 OA
ATOM     16  N   UNL A   1      29.305  28.373  23.493  1.00  0.00    -0.352 N 
ATOM     17  H   UNL A   1      28.400  28.738  23.619  1.00  0.00     0.163 HD
BRANCH  16  18
ATOM     18  C   UNL A   1      30.307  29.399  23.259  1.00  0.00     0.121 C 
BRANCH  18  19
ATOM     19  C   UNL A   1      30.688  30.129  24.553  1.00  0.00     0.057 C 
BRANCH  19  20
ATOM     20  C   UNL A   1      31.888  29.484  25.215  1.00  0.00    -0.046 A 
ATOM     21  C   UNL A   1      32.841  28.806  24.441  1.00  0.00     0.004 A 
ATOM     22  C   UNL A   1      32.024  29.487  26.610  1.00  0.00     0.004 A 
ATOM     23  C   UNL A   1      33.896  28.126  25.054  1.00  0.00     0.000 A 
ATOM     24  C   UNL A   1      33.072  28.796  27.220  1.00  0.00     0.000 A 
ATOM     25  C   UNL A   1      34.004  28.112  26.442  1.00  0.00     0.000 A 
ENDBRANCH  19  20
ENDBRANCH  18  19
ENDBRANCH  16  18
ENDBRANCH  13  14
ENDBRANCH   6   8
ENDBRANCH   5   6
ENDBRANCH   4   5
ENDBRANCH   3   4
ENDBRANCH   2   3
ENDBRANCH   1   2
BRANCH   1  26
ATOM     26  C   UNL A   1      33.879  20.505  25.071  1.00  0.00     0.188 C 
BRANCH  26  27
ATOM     27  O   UNL A   1      34.951  21.280  24.554  1.00  0.00    -0.376 OA
BRANCH  27  28
ATOM     28  C   UNL A   1      36.256  21.101  25.087  1.00  0.00     0.202 C 
BRANCH  28  29
ATOM     29  C   UNL A   1      36.905  22.298  25.776  1.00  0.00     0.261 C 
BRANCH  29  30
ATOM     30  O   UNL A   1      38.283  22.450  25.409  1.00  0.00    -0.460 OA
BRANCH  30  31
ATOM     31  C   UNL A   1      39.154  22.437  26.445  1.00  0.00     0.338 C 
ATOM     32  O   UNL A   1      39.746  21.475  26.904  1.00  0.00    -0.246 OA
BRANCH  31  33
ATOM     33  C   UNL A   1      39.432  23.819  26.871  1.00  0.00     0.060 A 
ATOM     34  C   UNL A   1      39.995  24.689  25.930  1.00  0.00     0.016 A 
ATOM     35  C   UNL A   1      39.211  24.234  28.186  1.00  0.00     0.016 A 
ATOM     36  C   UNL A   1      40.382  25.970  26.313  1.00  0.00     0.010 A 
ATOM     37  C   UNL A   1      39.616  25.514  28.574  1.00  0.00     0.010 A 
ATOM     38  C   UNL A   1      40.233  26.373  27.647  1.00  0.00    -0.014 A 
BRANCH  38  39
ATOM     39  C   UNL A   1      40.871  27.626  28.108  1.00  0.00     0.031 A 
ATOM     40  C   UNL A   1      42.369  27.744  28.030  1.00  0.00     0.074 A 
ATOM     41  C   UNL A   1      40.129  28.646  28.572  1.00  0.00     0.049 A 
ATOM     42  N   UNL A   1      43.142  28.726  28.409  1.00  0.00    -0.248 NA
ATOM     43  C   UNL A   1      43.089  26.599  27.445  1.00  0.00     0.031 C 
ATOM     44  C   UNL A   1      38.670  28.659  28.663  1.00  0.00     0.029 A 
ATOM     45  N   UNL A   1      40.508  29.867  29.069  1.00  0.00    -0.354 N 
ATOM     46  C   UNL A   1      44.438  28.321  28.113  1.00  0.00     0.074 A 
ATOM     47  C   UNL A   1      44.349  26.996  27.540  1.00  0.00     0.031 C 
ATOM     48  C   UNL A   1      38.277  29.825  29.205  1.00  0.00     0.029 A 
ATOM     49  C   UNL A   1      39.457  30.628  29.519  1.00  0.00     0.049 A 
ATOM     50  H   UNL A   1      41.444  30.169  29.099  1.00  0.00     0.167 HD
ATOM     51  C   UNL A   1      45.596  28.997  28.297  1.00  0.00     0.037 A 
ATOM     52  C   UNL A   1      39.455  31.826  30.136  1.00  0.00     0.037 A 
ATOM     53  C   UNL A   1      45.681  30.312  28.873  1.00  0.00     0.049 A 
ATOM     54  C   UNL A   1      40.763  32.531  30.389  1.00  0.00     0.074 A 
ATOM     55  C   UNL A   1      46.808  31.085  29.091  1.00  0.00     0.029 A 
ATOM     56  N   UNL A   1      44.597  31.044  29.333  1.00  0.00    -0.354 N 
ATOM     57  N   UNL A   1      41.979  32.149  30.076  1.00  0.00    -0.248 NA
ATOM     58  C   UNL A   1      40.699  33.830  31.075  1.00  0.00     0.031 C 
ATOM     59  C   UNL A   1      46.409  32.271  29.716  1.00  0.00     0.029 A 
ATOM     60  C   UNL A   1      45.029  32.253  29.850  1.00  0.00     0.049 A 
ATOM     61  H   UNL A   1      43.659  30.748  29.297  1.00  0.00     0.167 HD
ATOM     62  C   UNL A   1      42.820  33.172  30.503  1.00  0.00     0.074 A 
ATOM     63  C   UNL A   1      41.975  34.191  31.091  1.00  0.00     0.031 C 
ATOM     64  C   UNL A   1      44.171  33.262  30.417  1.00  0.00     0.037 A 
BRANCH  51  65
ATOM     65  C   UNL A   1      46.869  28.316  27.886  1.00  0.00     0.058 A 
ATOM     66  C   UNL A   1      47.417  28.495  26.606  1.00  0.00     0.135 A 
ATOM     67  C   UNL A   1      47.567  27.503  28.792  1.00  0.00     0.135 A 
ATOM     68  F   UNL A   1      46.776  29.244  25.695  1.00  0.00    -0.206 F 
ATOM     69  C   UNL A   1      48.608  27.880  26.235  1.00  0.00     0.059 A 
ATOM     70  C   UNL A   1      48.770  26.895  28.449  1.00  0.00     0.059 A 
ATOM     71  F   UNL A   1      47.081  27.295  30.026  1.00  0.00    -0.206 F 
ATOM     72  C   UNL A   1      49.277  27.081  27.164  1.00  0.00     0.060 A 
BRANCH  72  73
ATOM     73  S   UNL A   1      50.830  26.300  26.673  1.00  0.00     0.124 S 
ATOM     74  O   UNL A   1      50.647  26.175  25.230  1.00  0.00    -0.237 OA
ATOM     75  O   UNL A   1      51.823  27.280  27.102  1.00  0.00    -0.237 OA
ATOM     76  O   UNL A   1      50.829  25.046  27.418  1.00  0.00    -0.744 OA
ENDBRANCH  72  73
ENDBRANCH  51  65
BRANCH  52  77
ATOM     77  C   UNL A   1      38.173  32.435  30.581  1.00  0.00     0.058 A 
ATOM     78  C   UNL A   1      37.425  33.253  29.723  1.00  0.00     0.135 A 
ATOM     79  C   UNL A   1      37.686  32.228  31.881  1.00  0.00     0.135 A 
ATOM     80  F   UNL A   1      37.855  33.488  28.474  1.00  0.00    -0.206 F 
ATOM     81  C   UNL A   1      36.249  33.866  30.145  1.00  0.00     0.059 A 
ATOM     82  C   UNL A   1      36.502  32.812  32.319  1.00  0.00     0.059 A 
ATOM     83  F   UNL A   1      38.363  31.445  32.736  1.00  0.00    -0.206 F 
ATOM     84  C   UNL A   1      35.798  33.642  31.448  1.00  0.00     0.060 A 
BRANCH  84  85
ATOM     85  S   UNL A   1      34.261  34.426  31.983  1.00  0.00     0.124 S 
ATOM     86  O   UNL A   1      33.707  33.407  32.866  1.00  0.00    -0.237 OA
ATOM     87  O   UNL A   1      34.743  35.640  32.634  1.00  0.00    -0.237 OA
ATOM     88  O   UNL A   1      33.542  34.638  30.731  1.00  0.00    -0.744 OA
ENDBRANCH  84  85
ENDBRANCH  52  77
BRANCH  64  89
ATOM     89  C   UNL A   1      44.818  34.517  30.930  1.00  0.00     0.058 A 
ATOM     90  C   UNL A   1      45.367  34.588  32.218  1.00  0.00     0.135 A 
ATOM     91  C   UNL A   1      44.942  35.641  30.098  1.00  0.00     0.135 A 
ATOM     92  F   UNL A   1      45.269  33.542  33.054  1.00  0.00    -0.206 F 
ATOM     93  C   UNL A   1      46.005  35.738  32.672  1.00  0.00     0.059 A 
ATOM     94  C   UNL A   1      45.596  36.793  30.523  1.00  0.00     0.059 A 
ATOM     95  F   UNL A   1      44.443  35.619  28.852  1.00  0.00    -0.206 F 
ATOM     96  C   UNL A   1      46.115  36.836  31.816  1.00  0.00     0.060 A 
BRANCH  96  97
ATOM     97  S   UNL A   1      46.980  38.310  32.397  1.00  0.00     0.124 S 
ATOM     98  O   UNL A   1      47.124  38.024  33.821  1.00  0.00    -0.237 OA
ATOM     99  O   UNL A   1      48.215  38.280  31.618  1.00  0.00    -0.237 OA
ATOM    100  O   UNL A   1      46.063  39.395  32.062  1.00  0.00    -0.744 OA
ENDBRANCH  96  97
ENDBRANCH  64  89
ENDBRANCH  38  39
ENDBRANCH  31  33
ENDBRANCH  30  31
ENDBRANCH  29  30
ENDBRANCH  28  29
ENDBRANCH  27  28
ENDBRANCH  26  27
ENDBRANCH   1  26
TORSDOF 24
ENDMDL
MODEL 3
REMARK VINA RESULT:      -9.7      5.190      9.994
REMARK SMILES Cn1cc(C(=O)NCCc2ccccc2)c(C(=O)OCCOCCOCCOC(=O)c2ccc(-c3c4nc(c(-c5c(F)cc(S(=O)(=O)[O-])cc5F)c5ccc([nH]5)c(-c5c(F)cc(S(=O)(=O)[O-])cc5F)c5nc(c(-c6c(F)cc(S(=O)(=O)[O-])cc6F)c6ccc3[nH]6)C=C5)C=C4)cc2)n1
REMARK SMILES IDX 23 1 22 2 21 3 20 4 19 5 17 6 18 7 16 8 1 9 2 10 3 11 97 12
REMARK SMILES IDX 4 13 5 14 6 15 7 16 8 18 9 19 10 20 11 21 15 22 12 23 14 24
REMARK SMILES IDX 13 25 24 26 25 27 26 28 27 29 28 30 29 31 30 32 31 33 32 34
REMARK SMILES IDX 96 35 33 36 95 37 34 38 35 39 36 40 89 41 37 42 94 43 88 44
REMARK SMILES IDX 90 45 38 46 93 47 87 48 86 49 39 51 73 52 52 53 72 54 53 55
REMARK SMILES IDX 56 56 71 57 91 58 54 59 55 60 70 62 92 63 57 64 40 65 41 66
REMARK SMILES IDX 50 67 42 68 43 69 49 70 51 71 44 72 45 73 46 74 47 75 48 76
REMARK SMILES IDX 74 77 75 78 84 79 76 80 77 81 83 82 85 83 78 84 79 85 80 86
REMARK SMILES IDX 81 87 82 88 58 89 59 90 68 91 60 92 61 93 67 94 69 95 62 96
REMARK SMILES IDX 63 97 64 98 65 99 66 100
REMARK H PARENT 7 17 90 50 56 61
REMARK Flexibility Score: inf
ROOT
ATOM      1  C   UNL A   1      39.594  22.305  26.733  1.00  0.00     0.188 C 
ENDROOT
BRANCH   1   2
ATOM      2  O   UNL A   1      38.811  21.291  26.114  1.00  0.00    -0.376 OA
BRANCH   2   3
ATOM      3  C   UNL A   1      37.841  21.675  25.142  1.00  0.00     0.202 C 
BRANCH   3   4
ATOM      4  C   UNL A   1      37.232  23.061  25.318  1.00  0.00     0.261 C 
BRANCH   4   5
ATOM      5  O   UNL A   1      35.884  23.026  24.841  1.00  0.00    -0.458 OA
BRANCH   5   6
ATOM      6  C   UNL A   1      35.708  23.368  23.536  1.00  0.00     0.359 C 
ATOM      7  O   UNL A   1      36.494  23.094  22.634  1.00  0.00    -0.244 OA
BRANCH   6   8
ATOM      8  C   UNL A   1      34.386  23.968  23.331  1.00  0.00     0.183 A 
ATOM      9  C   UNL A   1      32.228  25.838  21.312  1.00  0.00     0.173 C 
ATOM     10  N   UNL A   1      32.835  25.001  22.320  1.00  0.00    -0.274 N 
ATOM     11  C   UNL A   1      32.224  24.446  23.407  1.00  0.00     0.123 A 
ATOM     12  N   UNL A   1      34.130  24.689  22.222  1.00  0.00    -0.165 NA
ATOM     13  C   UNL A   1      33.216  23.828  24.149  1.00  0.00     0.092 A 
BRANCH  13  14
ATOM     14  C   UNL A   1      33.168  23.138  25.428  1.00  0.00     0.255 C 
ATOM     15  O   UNL A   1      32.956  23.745  26.477  1.00  0.00    -0.269 OA
ATOM     16  N   UNL A   1      33.296  21.782  25.534  1.00  0.00    -0.352 N 
ATOM     17  H   UNL A   1      33.264  21.460  26.464  1.00  0.00     0.163 HD
BRANCH  16  18
ATOM     18  C   UNL A   1      33.468  20.712  24.565  1.00  0.00     0.121 C 
BRANCH  18  19
ATOM     19  C   UNL A   1      32.295  19.724  24.594  1.00  0.00     0.057 C 
BRANCH  19  20
ATOM     20  C   UNL A   1      32.783  18.291  24.585  1.00  0.00    -0.046 A 
ATOM     21  C   UNL A   1      32.613  17.480  25.716  1.00  0.00     0.004 A 
ATOM     22  C   UNL A   1      33.479  17.779  23.480  1.00  0.00     0.004 A 
ATOM     23  C   UNL A   1      33.148  16.191  25.749  1.00  0.00     0.000 A 
ATOM     24  C   UNL A   1      34.023  16.494  23.522  1.00  0.00     0.000 A 
ATOM     25  C   UNL A   1      33.862  15.703  24.658  1.00  0.00     0.000 A 
ENDBRANCH  19  20
ENDBRANCH  18  19
ENDBRANCH  16  18
ENDBRANCH  13  14
ENDBRANCH   6   8
ENDBRANCH   5   6
ENDBRANCH   4   5
ENDBRANCH   3   4
ENDBRANCH   2   3
ENDBRANCH   1   2
BRANCH   1  26
ATOM     26  C   UNL A   1      40.791  21.912  27.627  1.00  0.00     0.188 C 
BRANCH  26  27
ATOM     27  O   UNL A   1      42.125  22.193  27.226  1.00  0.00    -0.376 OA
BRANCH  27  28
ATOM     28  C   UNL A   1      42.391  22.485  25.862  1.00  0.00     0.202 C 
BRANCH  28  29
ATOM     29  C   UNL A   1      43.512  23.476  25.561  1.00  0.00     0.261 C 
BRANCH  29  30
ATOM     30  O   UNL A   1      43.691  24.427  26.620  1.00  0.00    -0.460 OA
BRANCH  30  31
ATOM     31  C   UNL A   1      43.658  25.724  26.234  1.00  0.00     0.338 C 
ATOM     32  O   UNL A   1      43.975  26.183  25.149  1.00  0.00    -0.246 OA
BRANCH  31  33
ATOM     33  C   UNL A   1      43.013  26.532  27.282  1.00  0.00     0.060 A 
ATOM     34  C   UNL A   1      43.380  27.880  27.382  1.00  0.00     0.016 A 
ATOM     35  C   UNL A   1      42.120  25.964  28.194  1.00  0.00     0.016 A 
ATOM     36  C   UNL A   1      42.887  28.657  28.427  1.00  0.00     0.010 A 
ATOM     37  C   UNL A   1      41.640  26.741  29.252  1.00  0.00     0.010 A 
ATOM     38  C   UNL A   1      42.049  28.080  29.390  1.00  0.00    -0.014 A 
BRANCH  38  39
ATOM     39  C   UNL A   1      41.733  28.828  30.627  1.00  0.00     0.031 A 
ATOM     40  C   UNL A   1      40.550  29.757  30.625  1.00  0.00     0.074 A 
ATOM     41  C   UNL A   1      42.477  28.671  31.736  1.00  0.00     0.049 A 
ATOM     42  N   UNL A   1      40.110  30.538  31.576  1.00  0.00    -0.248 NA
ATOM     43  C   UNL A   1      39.758  29.811  29.384  1.00  0.00     0.031 C 
ATOM     44  C   UNL A   1      43.625  27.775  31.865  1.00  0.00     0.029 A 
ATOM     45  N   UNL A   1      42.382  29.276  32.963  1.00  0.00    -0.354 N 
ATOM     46  C   UNL A   1      38.993  31.177  31.051  1.00  0.00     0.074 A 
ATOM     47  C   UNL A   1      38.834  30.709  29.692  1.00  0.00     0.031 C 
ATOM     48  C   UNL A   1      44.141  27.905  33.099  1.00  0.00     0.029 A 
ATOM     49  C   UNL A   1      43.376  28.908  33.836  1.00  0.00     0.049 A 
ATOM     50  H   UNL A   1      41.668  29.913  33.195  1.00  0.00     0.167 HD
ATOM     51  C   UNL A   1      38.172  32.070  31.652  1.00  0.00     0.037 A 
ATOM     52  C   UNL A   1      43.647  29.352  35.079  1.00  0.00     0.037 A 
ATOM     53  C   UNL A   1      38.338  32.539  33.001  1.00  0.00     0.049 A 
ATOM     54  C   UNL A   1      42.755  30.395  35.703  1.00  0.00     0.074 A 
ATOM     55  C   UNL A   1      37.552  33.436  33.704  1.00  0.00     0.029 A 
ATOM     56  N   UNL A   1      39.367  32.157  33.849  1.00  0.00    -0.354 N 
ATOM     57  N   UNL A   1      41.685  30.969  35.206  1.00  0.00    -0.248 NA
ATOM     58  C   UNL A   1      43.106  30.848  37.057  1.00  0.00     0.031 C 
ATOM     59  C   UNL A   1      38.126  33.623  34.966  1.00  0.00     0.029 A 
ATOM     60  C   UNL A   1      39.247  32.813  35.063  1.00  0.00     0.049 A 
ATOM     61  H   UNL A   1      40.077  31.515  33.622  1.00  0.00     0.167 HD
ATOM     62  C   UNL A   1      41.221  31.830  36.197  1.00  0.00     0.074 A 
ATOM     63  C   UNL A   1      42.123  31.697  37.323  1.00  0.00     0.031 C 
ATOM     64  C   UNL A   1      40.146  32.656  36.177  1.00  0.00     0.037 A 
BRANCH  51  65
ATOM     65  C   UNL A   1      37.029  32.613  30.845  1.00  0.00     0.058 A 
ATOM     66  C   UNL A   1      35.746  32.047  30.917  1.00  0.00     0.135 A 
ATOM     67  C   UNL A   1      37.209  33.732  30.018  1.00  0.00     0.135 A 
ATOM     68  F   UNL A   1      35.528  30.962  31.676  1.00  0.00    -0.206 F 
ATOM     69  C   UNL A   1      34.683  32.565  30.184  1.00  0.00     0.059 A 
ATOM     70  C   UNL A   1      36.155  34.279  29.292  1.00  0.00     0.059 A 
ATOM     71  F   UNL A   1      38.418  34.305  29.909  1.00  0.00    -0.206 F 
ATOM     72  C   UNL A   1      34.899  33.682  29.374  1.00  0.00     0.060 A 
BRANCH  72  73
ATOM     73  S   UNL A   1      33.505  34.352  28.440  1.00  0.00     0.124 S 
ATOM     74  O   UNL A   1      34.161  35.383  27.642  1.00  0.00    -0.237 OA
ATOM     75  O   UNL A   1      33.032  33.185  27.702  1.00  0.00    -0.237 OA
ATOM     76  O   UNL A   1      32.605  34.840  29.480  1.00  0.00    -0.744 OA
ENDBRANCH  72  73
ENDBRANCH  51  65
BRANCH  52  77
ATOM     77  C   UNL A   1      44.827  28.830  35.818  1.00  0.00     0.058 A 
ATOM     78  C   UNL A   1      44.708  27.743  36.696  1.00  0.00     0.135 A 
ATOM     79  C   UNL A   1      46.090  29.425  35.676  1.00  0.00     0.135 A 
ATOM     80  F   UNL A   1      43.518  27.148  36.871  1.00  0.00    -0.206 F 
ATOM     81  C   UNL A   1      45.796  27.278  37.428  1.00  0.00     0.059 A 
ATOM     82  C   UNL A   1      47.197  28.963  36.380  1.00  0.00     0.059 A 
ATOM     83  F   UNL A   1      46.255  30.462  34.841  1.00  0.00    -0.206 F 
ATOM     84  C   UNL A   1      47.037  27.898  37.266  1.00  0.00     0.060 A 
BRANCH  84  85
ATOM     85  S   UNL A   1      48.449  27.277  38.206  1.00  0.00     0.124 S 
ATOM     86  O   UNL A   1      49.313  26.783  37.140  1.00  0.00    -0.237 OA
ATOM     87  O   UNL A   1      48.912  28.475  38.898  1.00  0.00    -0.237 OA
ATOM     88  O   UNL A   1      47.856  26.256  39.063  1.00  0.00    -0.744 OA
ENDBRANCH  84  85
ENDBRANCH  52  77
BRANCH  64  89
ATOM     89  C   UNL A   1      39.857  33.449  37.420  1.00  0.00     0.058 A 
ATOM     90  C   UNL A   1      40.521  34.653  37.695  1.00  0.00     0.135 A 
ATOM     91  C   UNL A   1      38.859  33.029  38.313  1.00  0.00     0.135 A 
ATOM     92  F   UNL A   1      41.487  35.096  36.874  1.00  0.00    -0.206 F 
ATOM     93  C   UNL A   1      40.218  35.407  38.825  1.00  0.00     0.059 A 
ATOM     94  C   UNL A   1      38.524  33.778  39.437  1.00  0.00     0.059 A 
ATOM     95  F   UNL A   1      38.187  31.889  38.089  1.00  0.00    -0.206 F 
ATOM     96  C   UNL A   1      39.217  34.961  39.689  1.00  0.00     0.060 A 
BRANCH  96  97
ATOM     97  S   UNL A   1      38.800  35.965  41.131  1.00  0.00     0.124 S 
ATOM     98  O   UNL A   1      40.005  35.830  41.942  1.00  0.00    -0.237 OA
ATOM     99  O   UNL A   1      38.577  37.284  40.544  1.00  0.00    -0.237 OA
ATOM    100  O   UNL A   1      37.606  35.315  41.663  1.00  0.00    -0.744 OA
ENDBRANCH  96  97
ENDBRANCH  64  89
ENDBRANCH  38  39
ENDBRANCH  31  33
ENDBRANCH  30  31
ENDBRANCH  29  30
ENDBRANCH  28  29
ENDBRANCH  27  28
ENDBRANCH  26  27
ENDBRANCH   1  26
TORSDOF 24
ENDMDL
