MODEL 1
REMARK VINA RESULT:     -10.6      0.000      0.000
REMARK SMILES Nc1c(-c2ccccc2)c[nH]c1C(=O)OCCOCCOCCOC(=O)c1ccc(-c2c3nc(c(-c4c(F)cc(S(=O)(=O)[O-])cc4F)c4ccc([nH]4)c(-c4c(F)cc(S(=O)(=O)[O-])cc4F)c4nc(c(-c5c(F)cc(S(=O)(=O)[O-])cc5F)c5ccc2[nH]5)C=C4)C=C3)cc1
REMARK SMILES IDX 20 1 19 2 18 3 17 4 16 5 15 6 13 7 14 8 12 9 2 10 3 11 10 12
REMARK SMILES IDX 11 13 1 15 4 18 5 19 9 20 6 21 8 22 7 23 21 24 22 25 23 26
REMARK SMILES IDX 24 27 25 28 26 29 27 30 28 31 92 32 29 33 91 34 30 35 31 36
REMARK SMILES IDX 32 37 85 38 33 39 90 40 84 41 86 42 34 43 89 44 83 45 82 46
REMARK SMILES IDX 35 48 69 49 48 50 68 51 49 52 52 53 67 54 87 55 50 56 51 57
REMARK SMILES IDX 66 59 88 60 53 61 36 62 37 63 46 64 38 65 39 66 45 67 47 68
REMARK SMILES IDX 40 69 41 70 42 71 43 72 44 73 70 74 71 75 80 76 72 77 73 78
REMARK SMILES IDX 79 79 81 80 74 81 75 82 76 83 77 84 78 85 54 86 55 87 64 88
REMARK SMILES IDX 56 89 57 90 63 91 65 92 58 93 59 94 60 95 61 96 62 97
REMARK H PARENT 11 14 1 16 1 17 86 47 52 58
REMARK Flexibility Score: inf
ROOT
ATOM      1  C   UNL A   1      40.293  21.314  26.401  1.00  0.00     0.188 C 
ENDROOT
BRANCH   1   2
ATOM      2  C   UNL A   1      40.776  19.954  26.954  1.00  0.00     0.188 C 
BRANCH   2   3
ATOM      3  O   UNL A   1      42.093  19.783  27.468  1.00  0.00    -0.376 OA
BRANCH   3   4
ATOM      4  C   UNL A   1      42.624  18.487  27.698  1.00  0.00     0.202 C 
BRANCH   4   5
ATOM      5  C   UNL A   1      43.375  17.736  26.580  1.00  0.00     0.261 C 
BRANCH   5   6
ATOM      6  O   UNL A   1      43.813  18.527  25.468  1.00  0.00    -0.459 OA
BRANCH   6   7
ATOM      7  C   UNL A   1      45.157  18.687  25.337  1.00  0.00     0.357 C 
ATOM      8  O   UNL A   1      45.981  17.775  25.370  1.00  0.00    -0.244 OA
BRANCH   7   9
ATOM      9  C   UNL A   1      45.488  20.049  24.997  1.00  0.00     0.148 A 
ATOM     10  C   UNL A   1      44.870  21.260  25.243  1.00  0.00     0.072 A 
ATOM     11  C   UNL A   1      45.695  22.302  24.737  1.00  0.00     0.023 A 
ATOM     12  C   UNL A   1      46.717  21.695  24.041  1.00  0.00     0.094 A 
ATOM     13  N   UNL A   1      46.597  20.341  24.225  1.00  0.00    -0.353 N 
ATOM     14  H   UNL A   1      47.216  19.670  23.859  1.00  0.00     0.166 HD
BRANCH  10  15
ATOM     15  N   UNL A   1      43.687  21.436  25.854  1.00  0.00    -0.396 N 
ATOM     16  H   UNL A   1      42.853  21.198  25.387  1.00  0.00     0.156 HD
ATOM     17  H   UNL A   1      43.653  21.803  26.767  1.00  0.00     0.156 HD
ENDBRANCH  10  15
BRANCH  11  18
ATOM     18  C   UNL A   1      45.626  23.729  24.988  1.00  0.00    -0.015 A 
ATOM     19  C   UNL A   1      44.354  24.314  25.057  1.00  0.00     0.009 A 
ATOM     20  C   UNL A   1      46.760  24.521  25.177  1.00  0.00     0.009 A 
ATOM     21  C   UNL A   1      44.210  25.676  25.307  1.00  0.00     0.001 A 
ATOM     22  C   UNL A   1      46.614  25.891  25.423  1.00  0.00     0.001 A 
ATOM     23  C   UNL A   1      45.342  26.466  25.488  1.00  0.00     0.000 A 
ENDBRANCH  11  18
ENDBRANCH   7   9
ENDBRANCH   6   7
ENDBRANCH   5   6
ENDBRANCH   4   5
ENDBRANCH   3   4
ENDBRANCH   2   3
ENDBRANCH   1   2
BRANCH   1  24
ATOM     24  O   UNL A   1      40.188  22.342  27.369  1.00  0.00    -0.376 OA
BRANCH  24  25
ATOM     25  C   UNL A   1      41.049  23.466  27.278  1.00  0.00     0.202 C 
BRANCH  25  26
ATOM     26  C   UNL A   1      42.162  23.668  28.309  1.00  0.00     0.261 C 
BRANCH  26  27
ATOM     27  O   UNL A   1      42.312  24.992  28.783  1.00  0.00    -0.460 OA
BRANCH  27  28
ATOM     28  C   UNL A   1      43.414  25.204  29.528  1.00  0.00     0.338 C 
ATOM     29  O   UNL A   1      44.141  24.361  30.026  1.00  0.00    -0.246 OA
BRANCH  28  30
ATOM     30  C   UNL A   1      43.571  26.647  29.697  1.00  0.00     0.060 A 
ATOM     31  C   UNL A   1      43.444  27.160  30.990  1.00  0.00     0.016 A 
ATOM     32  C   UNL A   1      43.450  27.440  28.549  1.00  0.00     0.016 A 
ATOM     33  C   UNL A   1      42.909  28.418  31.128  1.00  0.00     0.010 A 
ATOM     34  C   UNL A   1      42.873  28.669  28.687  1.00  0.00     0.010 A 
ATOM     35  C   UNL A   1      42.516  29.088  29.969  1.00  0.00    -0.014 A 
BRANCH  35  36
ATOM     36  C   UNL A   1      41.691  30.266  30.093  1.00  0.00     0.031 A 
ATOM     37  C   UNL A   1      42.458  31.510  29.895  1.00  0.00     0.074 A 
ATOM     38  C   UNL A   1      40.352  30.151  30.196  1.00  0.00     0.049 A 
ATOM     39  N   UNL A   1      42.807  32.379  30.786  1.00  0.00    -0.248 NA
ATOM     40  C   UNL A   1      43.133  31.683  28.595  1.00  0.00     0.031 C 
ATOM     41  C   UNL A   1      39.541  28.933  30.081  1.00  0.00     0.029 A 
ATOM     42  N   UNL A   1      39.415  31.126  30.301  1.00  0.00    -0.354 N 
ATOM     43  C   UNL A   1      43.508  33.345  30.073  1.00  0.00     0.074 A 
ATOM     44  C   UNL A   1      43.932  32.715  28.856  1.00  0.00     0.031 C 
ATOM     45  C   UNL A   1      38.247  29.276  29.886  1.00  0.00     0.029 A 
ATOM     46  C   UNL A   1      38.123  30.719  29.979  1.00  0.00     0.049 A 
ATOM     47  H   UNL A   1      39.629  32.045  30.582  1.00  0.00     0.167 HD
ATOM     48  C   UNL A   1      43.365  34.668  30.361  1.00  0.00     0.037 A 
ATOM     49  C   UNL A   1      37.082  31.548  29.704  1.00  0.00     0.037 A 
ATOM     50  C   UNL A   1      42.792  34.846  31.675  1.00  0.00     0.049 A 
ATOM     51  C   UNL A   1      37.450  32.890  30.243  1.00  0.00     0.074 A 
ATOM     52  C   UNL A   1      43.150  34.461  32.952  1.00  0.00     0.029 A 
ATOM     53  N   UNL A   1      41.461  35.184  31.740  1.00  0.00    -0.354 N 
ATOM     54  N   UNL A   1      37.596  33.147  31.516  1.00  0.00    -0.248 NA
ATOM     55  C   UNL A   1      38.132  33.812  29.344  1.00  0.00     0.031 C 
ATOM     56  C   UNL A   1      41.923  34.157  33.609  1.00  0.00     0.029 A 
ATOM     57  C   UNL A   1      40.877  34.431  32.726  1.00  0.00     0.049 A 
ATOM     58  H   UNL A   1      41.006  35.851  31.177  1.00  0.00     0.167 HD
ATOM     59  C   UNL A   1      38.703  33.983  31.591  1.00  0.00     0.074 A 
ATOM     60  C   UNL A   1      38.945  34.416  30.216  1.00  0.00     0.031 C 
ATOM     61  C   UNL A   1      39.493  34.009  32.705  1.00  0.00     0.037 A 
BRANCH  48  62
ATOM     62  C   UNL A   1      43.327  35.758  29.308  1.00  0.00     0.058 A 
ATOM     63  C   UNL A   1      44.206  36.851  29.445  1.00  0.00     0.135 A 
ATOM     64  C   UNL A   1      42.304  35.927  28.344  1.00  0.00     0.135 A 
ATOM     65  F   UNL A   1      45.224  36.804  30.319  1.00  0.00    -0.206 F 
ATOM     66  C   UNL A   1      44.019  38.052  28.758  1.00  0.00     0.059 A 
ATOM     67  C   UNL A   1      42.135  37.091  27.609  1.00  0.00     0.059 A 
ATOM     68  F   UNL A   1      41.347  35.020  28.121  1.00  0.00    -0.206 F 
ATOM     69  C   UNL A   1      42.966  38.166  27.857  1.00  0.00     0.060 A 
BRANCH  69  70
ATOM     70  S   UNL A   1      42.645  39.743  27.056  1.00  0.00     0.124 S 
ATOM     71  O   UNL A   1      43.875  39.934  26.296  1.00  0.00    -0.237 OA
ATOM     72  O   UNL A   1      41.447  39.445  26.278  1.00  0.00    -0.237 OA
ATOM     73  O   UNL A   1      42.447  40.655  28.178  1.00  0.00    -0.744 OA
ENDBRANCH  69  70
ENDBRANCH  48  62
BRANCH  49  74
ATOM     74  C   UNL A   1      36.018  31.366  28.676  1.00  0.00     0.058 A 
ATOM     75  C   UNL A   1      36.132  30.387  27.671  1.00  0.00     0.135 A 
ATOM     76  C   UNL A   1      34.744  31.954  28.820  1.00  0.00     0.135 A 
ATOM     77  F   UNL A   1      37.300  29.757  27.477  1.00  0.00    -0.206 F 
ATOM     78  C   UNL A   1      35.041  29.986  26.888  1.00  0.00     0.059 A 
ATOM     79  C   UNL A   1      33.646  31.579  28.045  1.00  0.00     0.059 A 
ATOM     80  F   UNL A   1      34.498  32.852  29.786  1.00  0.00    -0.206 F 
ATOM     81  C   UNL A   1      33.795  30.576  27.096  1.00  0.00     0.060 A 
BRANCH  81  82
ATOM     82  S   UNL A   1      32.346  29.950  26.211  1.00  0.00     0.124 S 
ATOM     83  O   UNL A   1      32.940  29.448  24.977  1.00  0.00    -0.237 OA
ATOM     84  O   UNL A   1      31.835  28.939  27.131  1.00  0.00    -0.237 OA
ATOM     85  O   UNL A   1      31.503  31.133  26.061  1.00  0.00    -0.744 OA
ENDBRANCH  81  82
ENDBRANCH  49  74
BRANCH  61  86
ATOM     86  C   UNL A   1      38.971  33.362  33.963  1.00  0.00     0.058 A 
ATOM     87  C   UNL A   1      39.434  32.140  34.485  1.00  0.00     0.135 A 
ATOM     88  C   UNL A   1      38.078  34.099  34.754  1.00  0.00     0.135 A 
ATOM     89  F   UNL A   1      40.366  31.424  33.838  1.00  0.00    -0.206 F 
ATOM     90  C   UNL A   1      38.998  31.658  35.721  1.00  0.00     0.059 A 
ATOM     91  C   UNL A   1      37.654  33.654  36.001  1.00  0.00     0.059 A 
ATOM     92  F   UNL A   1      37.649  35.302  34.337  1.00  0.00    -0.206 F 
ATOM     93  C   UNL A   1      38.109  32.425  36.475  1.00  0.00     0.060 A 
BRANCH  93  94
ATOM     94  S   UNL A   1      37.602  31.843  38.107  1.00  0.00     0.124 S 
ATOM     95  O   UNL A   1      37.279  30.444  37.849  1.00  0.00    -0.237 OA
ATOM     96  O   UNL A   1      38.796  32.080  38.914  1.00  0.00    -0.237 OA
ATOM     97  O   UNL A   1      36.461  32.696  38.435  1.00  0.00    -0.744 OA
ENDBRANCH  93  94
ENDBRANCH  61  86
ENDBRANCH  35  36
ENDBRANCH  28  30
ENDBRANCH  27  28
ENDBRANCH  26  27
ENDBRANCH  25  26
ENDBRANCH  24  25
ENDBRANCH   1  24
TORSDOF 22
ENDMDL
MODEL 2
REMARK VINA RESULT:     -10.2      3.443      5.724
REMARK SMILES Nc1c(-c2ccccc2)c[nH]c1C(=O)OCCOCCOCCOC(=O)c1ccc(-c2c3nc(c(-c4c(F)cc(S(=O)(=O)[O-])cc4F)c4ccc([nH]4)c(-c4c(F)cc(S(=O)(=O)[O-])cc4F)c4nc(c(-c5c(F)cc(S(=O)(=O)[O-])cc5F)c5ccc2[nH]5)C=C4)C=C3)cc1
REMARK SMILES IDX 20 1 19 2 18 3 17 4 16 5 15 6 13 7 14 8 12 9 2 10 3 11 10 12
REMARK SMILES IDX 11 13 1 15 4 18 5 19 9 20 6 21 8 22 7 23 21 24 22 25 23 26
REMARK SMILES IDX 24 27 25 28 26 29 27 30 28 31 92 32 29 33 91 34 30 35 31 36
REMARK SMILES IDX 32 37 85 38 33 39 90 40 84 41 86 42 34 43 89 44 83 45 82 46
REMARK SMILES IDX 35 48 69 49 48 50 68 51 49 52 52 53 67 54 87 55 50 56 51 57
REMARK SMILES IDX 66 59 88 60 53 61 36 62 37 63 46 64 38 65 39 66 45 67 47 68
REMARK SMILES IDX 40 69 41 70 42 71 43 72 44 73 70 74 71 75 80 76 72 77 73 78
REMARK SMILES IDX 79 79 81 80 74 81 75 82 76 83 77 84 78 85 54 86 55 87 64 88
REMARK SMILES IDX 56 89 57 90 63 91 65 92 58 93 59 94 60 95 61 96 62 97
REMARK H PARENT 11 14 1 16 1 17 86 47 52 58
REMARK Flexibility Score: inf
ROOT
ATOM      1  C   UNL A   1      44.017  19.135  24.958  1.00  0.00     0.188 C 
ENDROOT
BRANCH   1   2
ATOM      2  C   UNL A   1      42.722  19.053  25.798  1.00  0.00     0.188 C 
BRANCH   2   3
ATOM      3  O   UNL A   1      41.704  20.044  25.699  1.00  0.00    -0.376 OA
BRANCH   3   4
ATOM      4  C   UNL A   1      40.734  20.199  26.723  1.00  0.00     0.202 C 
BRANCH   4   5
ATOM      5  C   UNL A   1      39.589  21.221  26.572  1.00  0.00     0.261 C 
BRANCH   5   6
ATOM      6  O   UNL A   1      39.014  21.341  25.264  1.00  0.00    -0.459 OA
BRANCH   6   7
ATOM      7  C   UNL A   1      37.761  20.837  25.111  1.00  0.00     0.357 C 
ATOM      8  O   UNL A   1      37.493  19.646  24.964  1.00  0.00    -0.244 OA
BRANCH   7   9
ATOM      9  C   UNL A   1      36.763  21.861  25.297  1.00  0.00     0.148 A 
ATOM     10  C   UNL A   1      36.453  23.015  24.604  1.00  0.00     0.072 A 
ATOM     11  C   UNL A   1      35.305  23.608  25.198  1.00  0.00     0.023 A 
ATOM     12  C   UNL A   1      35.041  22.896  26.348  1.00  0.00     0.094 A 
ATOM     13  N   UNL A   1      35.908  21.833  26.384  1.00  0.00    -0.353 N 
ATOM     14  H   UNL A   1      35.918  21.144  27.086  1.00  0.00     0.166 HD
BRANCH  10  15
ATOM     15  N   UNL A   1      37.119  23.506  23.546  1.00  0.00    -0.396 N 
ATOM     16  H   UNL A   1      37.030  24.458  23.308  1.00  0.00     0.156 HD
ATOM     17  H   UNL A   1      37.695  22.916  23.009  1.00  0.00     0.156 HD
ENDBRANCH  10  15
BRANCH  11  18
ATOM     18  C   UNL A   1      34.444  24.655  24.682  1.00  0.00    -0.015 A 
ATOM     19  C   UNL A   1      34.194  25.757  25.511  1.00  0.00     0.009 A 
ATOM     20  C   UNL A   1      33.878  24.611  23.406  1.00  0.00     0.009 A 
ATOM     21  C   UNL A   1      33.387  26.805  25.079  1.00  0.00     0.001 A 
ATOM     22  C   UNL A   1      33.062  25.663  22.974  1.00  0.00     0.001 A 
ATOM     23  C   UNL A   1      32.818  26.757  23.809  1.00  0.00     0.000 A 
ENDBRANCH  11  18
ENDBRANCH   7   9
ENDBRANCH   6   7
ENDBRANCH   5   6
ENDBRANCH   4   5
ENDBRANCH   3   4
ENDBRANCH   2   3
ENDBRANCH   1   2
BRANCH   1  24
ATOM     24  O   UNL A   1      44.848  20.240  25.260  1.00  0.00    -0.376 OA
BRANCH  24  25
ATOM     25  C   UNL A   1      44.887  21.341  24.365  1.00  0.00     0.202 C 
BRANCH  25  26
ATOM     26  C   UNL A   1      44.912  22.771  24.906  1.00  0.00     0.261 C 
BRANCH  26  27
ATOM     27  O   UNL A   1      43.790  23.563  24.568  1.00  0.00    -0.460 OA
BRANCH  27  28
ATOM     28  C   UNL A   1      43.036  23.953  25.614  1.00  0.00     0.338 C 
ATOM     29  O   UNL A   1      42.198  23.294  26.205  1.00  0.00    -0.246 OA
BRANCH  28  30
ATOM     30  C   UNL A   1      43.355  25.350  25.901  1.00  0.00     0.060 A 
ATOM     31  C   UNL A   1      44.285  25.602  26.913  1.00  0.00     0.016 A 
ATOM     32  C   UNL A   1      42.455  26.317  25.437  1.00  0.00     0.016 A 
ATOM     33  C   UNL A   1      44.119  26.742  27.662  1.00  0.00     0.010 A 
ATOM     34  C   UNL A   1      42.261  27.425  26.212  1.00  0.00     0.010 A 
ATOM     35  C   UNL A   1      43.027  27.559  27.369  1.00  0.00    -0.014 A 
BRANCH  35  36
ATOM     36  C   UNL A   1      42.658  28.590  28.311  1.00  0.00     0.031 A 
ATOM     37  C   UNL A   1      43.666  29.663  28.390  1.00  0.00     0.074 A 
ATOM     38  C   UNL A   1      41.434  28.589  28.875  1.00  0.00     0.049 A 
ATOM     39  N   UNL A   1      44.496  29.905  29.350  1.00  0.00    -0.248 NA
ATOM     40  C   UNL A   1      43.957  30.404  27.147  1.00  0.00     0.031 C 
ATOM     41  C   UNL A   1      40.302  27.703  28.573  1.00  0.00     0.029 A 
ATOM     42  N   UNL A   1      40.897  29.469  29.757  1.00  0.00    -0.354 N 
ATOM     43  C   UNL A   1      45.214  31.015  28.917  1.00  0.00     0.074 A 
ATOM     44  C   UNL A   1      45.064  31.057  27.491  1.00  0.00     0.031 C 
ATOM     45  C   UNL A   1      39.169  28.240  29.078  1.00  0.00     0.029 A 
ATOM     46  C   UNL A   1      39.507  29.433  29.832  1.00  0.00     0.049 A 
ATOM     47  H   UNL A   1      41.444  30.082  30.300  1.00  0.00     0.167 HD
ATOM     48  C   UNL A   1      45.556  32.007  29.783  1.00  0.00     0.037 A 
ATOM     49  C   UNL A   1      38.724  30.396  30.385  1.00  0.00     0.037 A 
ATOM     50  C   UNL A   1      45.466  31.547  31.149  1.00  0.00     0.049 A 
ATOM     51  C   UNL A   1      39.610  31.219  31.259  1.00  0.00     0.074 A 
ATOM     52  C   UNL A   1      46.048  30.523  31.871  1.00  0.00     0.029 A 
ATOM     53  N   UNL A   1      44.371  31.950  31.878  1.00  0.00    -0.354 N 
ATOM     54  N   UNL A   1      40.186  30.766  32.342  1.00  0.00    -0.248 NA
ATOM     55  C   UNL A   1      40.243  32.388  30.665  1.00  0.00     0.031 C 
ATOM     56  C   UNL A   1      45.029  30.064  32.756  1.00  0.00     0.029 A 
ATOM     57  C   UNL A   1      43.903  30.868  32.577  1.00  0.00     0.049 A 
ATOM     58  H   UNL A   1      43.991  32.857  31.894  1.00  0.00     0.167 HD
ATOM     59  C   UNL A   1      41.463  31.314  32.327  1.00  0.00     0.074 A 
ATOM     60  C   UNL A   1      41.413  32.362  31.311  1.00  0.00     0.031 C 
ATOM     61  C   UNL A   1      42.511  30.675  32.925  1.00  0.00     0.037 A 
BRANCH  48  62
ATOM     62  C   UNL A   1      45.539  33.480  29.423  1.00  0.00     0.058 A 
ATOM     63  C   UNL A   1      46.671  34.259  29.736  1.00  0.00     0.135 A 
ATOM     64  C   UNL A   1      44.388  34.216  29.051  1.00  0.00     0.135 A 
ATOM     65  F   UNL A   1      47.826  33.673  30.091  1.00  0.00    -0.206 F 
ATOM     66  C   UNL A   1      46.632  35.653  29.779  1.00  0.00     0.059 A 
ATOM     67  C   UNL A   1      44.344  35.602  29.031  1.00  0.00     0.059 A 
ATOM     68  F   UNL A   1      43.209  33.648  28.778  1.00  0.00    -0.206 F 
ATOM     69  C   UNL A   1      45.455  36.313  29.444  1.00  0.00     0.060 A 
BRANCH  69  70
ATOM     70  S   UNL A   1      45.357  38.100  29.607  1.00  0.00     0.124 S 
ATOM     71  O   UNL A   1      45.763  38.533  28.276  1.00  0.00    -0.237 OA
ATOM     72  O   UNL A   1      43.951  38.294  29.946  1.00  0.00    -0.237 OA
ATOM     73  O   UNL A   1      46.301  38.391  30.683  1.00  0.00    -0.744 OA
ENDBRANCH  69  70
ENDBRANCH  48  62
BRANCH  49  74
ATOM     74  C   UNL A   1      37.404  30.889  29.898  1.00  0.00     0.058 A 
ATOM     75  C   UNL A   1      36.478  31.487  30.774  1.00  0.00     0.135 A 
ATOM     76  C   UNL A   1      37.134  31.039  28.521  1.00  0.00     0.135 A 
ATOM     77  F   UNL A   1      36.666  31.416  32.100  1.00  0.00    -0.206 F 
ATOM     78  C   UNL A   1      35.379  32.224  30.314  1.00  0.00     0.059 A 
ATOM     79  C   UNL A   1      36.040  31.759  28.040  1.00  0.00     0.059 A 
ATOM     80  F   UNL A   1      37.979  30.568  27.593  1.00  0.00    -0.206 F 
ATOM     81  C   UNL A   1      35.179  32.370  28.941  1.00  0.00     0.060 A 
BRANCH  81  82
ATOM     82  S   UNL A   1      33.863  33.456  28.337  1.00  0.00     0.124 S 
ATOM     83  O   UNL A   1      34.600  34.371  27.472  1.00  0.00    -0.237 OA
ATOM     84  O   UNL A   1      32.973  32.517  27.661  1.00  0.00    -0.237 OA
ATOM     85  O   UNL A   1      33.326  34.050  29.558  1.00  0.00    -0.744 OA
ENDBRANCH  81  82
ENDBRANCH  49  74
BRANCH  61  86
ATOM     86  C   UNL A   1      42.208  29.537  33.866  1.00  0.00     0.058 A 
ATOM     87  C   UNL A   1      42.021  28.200  33.469  1.00  0.00     0.135 A 
ATOM     88  C   UNL A   1      42.274  29.793  35.243  1.00  0.00     0.135 A 
ATOM     89  F   UNL A   1      42.048  27.856  32.173  1.00  0.00    -0.206 F 
ATOM     90  C   UNL A   1      41.868  27.171  34.403  1.00  0.00     0.059 A 
ATOM     91  C   UNL A   1      42.156  28.781  36.190  1.00  0.00     0.059 A 
ATOM     92  F   UNL A   1      42.513  31.039  35.683  1.00  0.00    -0.206 F 
ATOM     93  C   UNL A   1      41.941  27.473  35.763  1.00  0.00     0.060 A 
BRANCH  93  94
ATOM     94  S   UNL A   1      41.822  26.136  36.972  1.00  0.00     0.124 S 
ATOM     95  O   UNL A   1      42.841  26.511  37.947  1.00  0.00    -0.237 OA
ATOM     96  O   UNL A   1      40.439  26.242  37.427  1.00  0.00    -0.237 OA
ATOM     97  O   UNL A   1      42.121  24.939  36.188  1.00  0.00    -0.744 OA
ENDBRANCH  93  94
ENDBRANCH  61  86
ENDBRANCH  35  36
ENDBRANCH  28  30
ENDBRANCH  27  28
ENDBRANCH  26  27
ENDBRANCH  25  26
ENDBRANCH  24  25
ENDBRANCH   1  24
TORSDOF 22
ENDMDL
MODEL 3
REMARK VINA RESULT:     -10.1      7.168     12.465
REMARK SMILES Nc1c(-c2ccccc2)c[nH]c1C(=O)OCCOCCOCCOC(=O)c1ccc(-c2c3nc(c(-c4c(F)cc(S(=O)(=O)[O-])cc4F)c4ccc([nH]4)c(-c4c(F)cc(S(=O)(=O)[O-])cc4F)c4nc(c(-c5c(F)cc(S(=O)(=O)[O-])cc5F)c5ccc2[nH]5)C=C4)C=C3)cc1
REMARK SMILES IDX 20 1 19 2 18 3 17 4 16 5 15 6 13 7 14 8 12 9 2 10 3 11 10 12
REMARK SMILES IDX 11 13 1 15 4 18 5 19 9 20 6 21 8 22 7 23 21 24 22 25 23 26
REMARK SMILES IDX 24 27 25 28 26 29 27 30 28 31 92 32 29 33 91 34 30 35 31 36
REMARK SMILES IDX 32 37 85 38 33 39 90 40 84 41 86 42 34 43 89 44 83 45 82 46
REMARK SMILES IDX 35 48 69 49 48 50 68 51 49 52 52 53 67 54 87 55 50 56 51 57
REMARK SMILES IDX 66 59 88 60 53 61 36 62 37 63 46 64 38 65 39 66 45 67 47 68
REMARK SMILES IDX 40 69 41 70 42 71 43 72 44 73 70 74 71 75 80 76 72 77 73 78
REMARK SMILES IDX 79 79 81 80 74 81 75 82 76 83 77 84 78 85 54 86 55 87 64 88
REMARK SMILES IDX 56 89 57 90 63 91 65 92 58 93 59 94 60 95 61 96 62 97
REMARK H PARENT 11 14 1 16 1 17 86 47 52 58
REMARK Flexibility Score: inf
ROOT
ATOM      1  C   UNL A   1      51.000  19.249  35.785  1.00  0.00     0.188 C 
ENDROOT
BRANCH   1   2
ATOM      2  C   UNL A   1      49.927  20.180  36.396  1.00  0.00     0.188 C 
BRANCH   2   3
ATOM      3  O   UNL A   1      49.919  20.500  37.783  1.00  0.00    -0.376 OA
BRANCH   3   4
ATOM      4  C   UNL A   1      49.731  19.492  38.764  1.00  0.00     0.202 C 
BRANCH   4   5
ATOM      5  C   UNL A   1      48.312  19.055  39.179  1.00  0.00     0.261 C 
BRANCH   5   6
ATOM      6  O   UNL A   1      47.302  19.132  38.164  1.00  0.00    -0.459 OA
BRANCH   6   7
ATOM      7  C   UNL A   1      46.437  20.176  38.256  1.00  0.00     0.357 C 
ATOM      8  O   UNL A   1      46.032  20.665  39.309  1.00  0.00    -0.244 OA
BRANCH   7   9
ATOM      9  C   UNL A   1      46.169  20.745  36.958  1.00  0.00     0.148 A 
ATOM     10  C   UNL A   1      45.661  21.962  36.547  1.00  0.00     0.072 A 
ATOM     11  C   UNL A   1      45.693  22.013  35.127  1.00  0.00     0.023 A 
ATOM     12  C   UNL A   1      46.062  20.757  34.694  1.00  0.00     0.094 A 
ATOM     13  N   UNL A   1      46.370  20.012  35.803  1.00  0.00    -0.353 N 
ATOM     14  H   UNL A   1      46.692  19.082  35.780  1.00  0.00     0.166 HD
BRANCH  10  15
ATOM     15  N   UNL A   1      45.205  22.940  37.347  1.00  0.00    -0.396 N 
ATOM     16  H   UNL A   1      44.240  23.133  37.388  1.00  0.00     0.156 HD
ATOM     17  H   UNL A   1      45.835  23.465  37.892  1.00  0.00     0.156 HD
ENDBRANCH  10  15
BRANCH  11  18
ATOM     18  C   UNL A   1      45.533  23.154  34.247  1.00  0.00    -0.015 A 
ATOM     19  C   UNL A   1      46.470  24.192  34.353  1.00  0.00     0.009 A 
ATOM     20  C   UNL A   1      44.508  23.246  33.303  1.00  0.00     0.009 A 
ATOM     21  C   UNL A   1      46.387  25.313  33.532  1.00  0.00     0.001 A 
ATOM     22  C   UNL A   1      44.422  24.376  32.482  1.00  0.00     0.001 A 
ATOM     23  C   UNL A   1      45.360  25.406  32.597  1.00  0.00     0.000 A 
ENDBRANCH  11  18
ENDBRANCH   7   9
ENDBRANCH   6   7
ENDBRANCH   5   6
ENDBRANCH   4   5
ENDBRANCH   3   4
ENDBRANCH   2   3
ENDBRANCH   1   2
BRANCH   1  24
ATOM     24  O   UNL A   1      51.836  19.863  34.822  1.00  0.00    -0.376 OA
BRANCH  24  25
ATOM     25  C   UNL A   1      51.250  20.437  33.665  1.00  0.00     0.202 C 
BRANCH  25  26
ATOM     26  C   UNL A   1      52.025  21.468  32.842  1.00  0.00     0.261 C 
BRANCH  26  27
ATOM     27  O   UNL A   1      51.308  22.644  32.519  1.00  0.00    -0.460 OA
BRANCH  27  28
ATOM     28  C   UNL A   1      52.048  23.770  32.503  1.00  0.00     0.338 C 
ATOM     29  O   UNL A   1      53.210  23.894  32.847  1.00  0.00    -0.246 OA
BRANCH  28  30
ATOM     30  C   UNL A   1      51.190  24.862  32.046  1.00  0.00     0.060 A 
ATOM     31  C   UNL A   1      49.813  24.717  32.231  1.00  0.00     0.016 A 
ATOM     32  C   UNL A   1      51.744  25.769  31.135  1.00  0.00     0.016 A 
ATOM     33  C   UNL A   1      48.981  25.278  31.292  1.00  0.00     0.010 A 
ATOM     34  C   UNL A   1      50.921  26.286  30.176  1.00  0.00     0.010 A 
ATOM     35  C   UNL A   1      49.571  25.941  30.214  1.00  0.00    -0.014 A 
BRANCH  35  36
ATOM     36  C   UNL A   1      48.751  26.279  29.075  1.00  0.00     0.031 A 
ATOM     37  C   UNL A   1      47.617  27.148  29.439  1.00  0.00     0.074 A 
ATOM     38  C   UNL A   1      49.148  25.950  27.829  1.00  0.00     0.049 A 
ATOM     39  N   UNL A   1      46.365  26.836  29.504  1.00  0.00    -0.248 NA
ATOM     40  C   UNL A   1      47.939  28.454  30.047  1.00  0.00     0.031 C 
ATOM     41  C   UNL A   1      50.428  25.359  27.418  1.00  0.00     0.029 A 
ATOM     42  N   UNL A   1      48.536  26.193  26.643  1.00  0.00    -0.354 N 
ATOM     43  C   UNL A   1      45.733  28.012  29.894  1.00  0.00     0.074 A 
ATOM     44  C   UNL A   1      46.745  28.828  30.500  1.00  0.00     0.031 C 
ATOM     45  C   UNL A   1      50.581  25.513  26.083  1.00  0.00     0.029 A 
ATOM     46  C   UNL A   1      49.373  26.101  25.535  1.00  0.00     0.049 A 
ATOM     47  H   UNL A   1      47.580  26.416  26.572  1.00  0.00     0.167 HD
ATOM     48  C   UNL A   1      44.533  28.371  29.361  1.00  0.00     0.037 A 
ATOM     49  C   UNL A   1      49.097  26.591  24.297  1.00  0.00     0.037 A 
ATOM     50  C   UNL A   1      43.886  27.235  28.747  1.00  0.00     0.049 A 
ATOM     51  C   UNL A   1      47.622  26.811  24.244  1.00  0.00     0.074 A 
ATOM     52  C   UNL A   1      43.478  25.992  29.189  1.00  0.00     0.029 A 
ATOM     53  N   UNL A   1      43.925  27.155  27.374  1.00  0.00    -0.354 N 
ATOM     54  N   UNL A   1      46.741  25.847  24.293  1.00  0.00    -0.248 NA
ATOM     55  C   UNL A   1      47.124  28.124  24.630  1.00  0.00     0.031 C 
ATOM     56  C   UNL A   1      43.728  25.107  28.100  1.00  0.00     0.029 A 
ATOM     57  C   UNL A   1      44.214  25.860  27.030  1.00  0.00     0.049 A 
ATOM     58  H   UNL A   1      43.771  27.899  26.748  1.00  0.00     0.167 HD
ATOM     59  C   UNL A   1      45.720  26.333  25.101  1.00  0.00     0.074 A 
ATOM     60  C   UNL A   1      45.978  27.766  25.217  1.00  0.00     0.031 C 
ATOM     61  C   UNL A   1      44.939  25.486  25.835  1.00  0.00     0.037 A 
BRANCH  48  62
ATOM     62  C   UNL A   1      44.162  29.799  29.012  1.00  0.00     0.058 A 
ATOM     63  C   UNL A   1      45.004  30.515  28.138  1.00  0.00     0.135 A 
ATOM     64  C   UNL A   1      43.200  30.582  29.696  1.00  0.00     0.135 A 
ATOM     65  F   UNL A   1      45.947  29.878  27.425  1.00  0.00    -0.206 F 
ATOM     66  C   UNL A   1      44.963  31.905  28.031  1.00  0.00     0.059 A 
ATOM     67  C   UNL A   1      43.105  31.960  29.560  1.00  0.00     0.059 A 
ATOM     68  F   UNL A   1      42.359  30.084  30.606  1.00  0.00    -0.206 F 
ATOM     69  C   UNL A   1      44.022  32.619  28.764  1.00  0.00     0.060 A 
BRANCH  69  70
ATOM     70  S   UNL A   1      44.036  34.416  28.725  1.00  0.00     0.124 S 
ATOM     71  O   UNL A   1      44.108  34.671  27.291  1.00  0.00    -0.237 OA
ATOM     72  O   UNL A   1      42.770  34.740  29.374  1.00  0.00    -0.237 OA
ATOM     73  O   UNL A   1      45.232  34.758  29.489  1.00  0.00    -0.744 OA
ENDBRANCH  69  70
ENDBRANCH  48  62
BRANCH  49  74
ATOM     74  C   UNL A   1      50.037  27.250  23.347  1.00  0.00     0.058 A 
ATOM     75  C   UNL A   1      49.882  27.116  21.954  1.00  0.00     0.135 A 
ATOM     76  C   UNL A   1      50.938  28.249  23.772  1.00  0.00     0.135 A 
ATOM     77  F   UNL A   1      49.028  26.208  21.457  1.00  0.00    -0.206 F 
ATOM     78  C   UNL A   1      50.544  27.949  21.042  1.00  0.00     0.059 A 
ATOM     79  C   UNL A   1      51.616  29.083  22.883  1.00  0.00     0.059 A 
ATOM     80  F   UNL A   1      51.118  28.511  25.075  1.00  0.00    -0.206 F 
ATOM     81  C   UNL A   1      51.397  28.944  21.519  1.00  0.00     0.060 A 
BRANCH  81  82
ATOM     82  S   UNL A   1      52.125  30.132  20.364  1.00  0.00     0.124 S 
ATOM     83  O   UNL A   1      51.409  31.357  20.699  1.00  0.00    -0.237 OA
ATOM     84  O   UNL A   1      53.537  30.096  20.732  1.00  0.00    -0.237 OA
ATOM     85  O   UNL A   1      51.813  29.566  19.054  1.00  0.00    -0.744 OA
ENDBRANCH  81  82
ENDBRANCH  49  74
BRANCH  61  86
ATOM     86  C   UNL A   1      44.989  24.014  25.515  1.00  0.00     0.058 A 
ATOM     87  C   UNL A   1      46.022  23.145  25.911  1.00  0.00     0.135 A 
ATOM     88  C   UNL A   1      43.858  23.436  24.922  1.00  0.00     0.135 A 
ATOM     89  F   UNL A   1      47.092  23.605  26.576  1.00  0.00    -0.206 F 
ATOM     90  C   UNL A   1      45.947  21.767  25.691  1.00  0.00     0.059 A 
ATOM     91  C   UNL A   1      43.747  22.063  24.721  1.00  0.00     0.059 A 
ATOM     92  F   UNL A   1      42.812  24.206  24.578  1.00  0.00    -0.206 F 
ATOM     93  C   UNL A   1      44.801  21.235  25.098  1.00  0.00     0.060 A 
BRANCH  93  94
ATOM     94  S   UNL A   1      44.666  19.447  24.883  1.00  0.00     0.124 S 
ATOM     95  O   UNL A   1      45.924  18.973  25.449  1.00  0.00    -0.237 OA
ATOM     96  O   UNL A   1      43.465  19.125  25.648  1.00  0.00    -0.237 OA
ATOM     97  O   UNL A   1      44.533  19.286  23.436  1.00  0.00    -0.744 OA
ENDBRANCH  93  94
ENDBRANCH  61  86
ENDBRANCH  35  36
ENDBRANCH  28  30
ENDBRANCH  27  28
ENDBRANCH  26  27
ENDBRANCH  25  26
ENDBRANCH  24  25
ENDBRANCH   1  24
TORSDOF 22
ENDMDL
