MODEL 1
REMARK VINA RESULT:     -10.3      0.000      0.000
REMARK SMILES CCCC[C@H](C(=O)OCCOCCOCCOC(=O)c1ccc(-c2c3nc(c(-c4c(F)cc(S(=O)(=O)[O-])cc4F)c4ccc([nH]4)c(-c4c(F)cc(S(=O)(=O)[O-])cc4F)c4nc(c(-c5c(F)cc(S(=O)(=O)[O-])cc5F)c5ccc2[nH]5)C=C4)C=C3)cc1)N1C(=O)/C(=C/c2ccc(C)cc2)SC1=S
REMARK SMILES IDX 12 1 11 2 10 3 9 4 8 5 6 6 7 7 5 8 4 9 3 10 2 11 1 12 86 13
REMARK SMILES IDX 87 14 99 15 88 16 89 17 98 18 100 19 90 20 91 21 92 22 97 23
REMARK SMILES IDX 93 24 96 25 94 26 95 27 13 28 14 29 15 30 16 31 17 32 18 33
REMARK SMILES IDX 19 34 20 35 21 36 85 37 22 38 84 39 23 40 24 41 25 42 78 43
REMARK SMILES IDX 26 44 83 45 77 46 79 47 27 48 82 49 76 50 75 51 28 53 62 54
REMARK SMILES IDX 41 55 61 56 42 57 45 58 60 59 80 60 43 61 44 62 59 64 81 65
REMARK SMILES IDX 46 66 29 67 30 68 39 69 31 70 32 71 38 72 40 73 33 74 34 75
REMARK SMILES IDX 35 76 36 77 37 78 63 79 64 80 73 81 65 82 66 83 72 84 74 85
REMARK SMILES IDX 67 86 68 87 69 88 70 89 71 90 47 91 48 92 57 93 49 94 50 95
REMARK SMILES IDX 56 96 58 97 51 98 52 99 53 100 54 101 55 102
REMARK H PARENT 79 52 45 63
REMARK Flexibility Score: inf
ROOT
ATOM      1  C   UNL A   1      39.342  22.701  26.756  1.00  0.00     0.188 C 
ENDROOT
BRANCH   1   2
ATOM      2  O   UNL A   1      38.107  22.778  26.051  1.00  0.00    -0.376 OA
BRANCH   2   3
ATOM      3  C   UNL A   1      37.774  21.799  25.082  1.00  0.00     0.202 C 
BRANCH   3   4
ATOM      4  C   UNL A   1      36.398  21.146  25.208  1.00  0.00     0.261 C 
BRANCH   4   5
ATOM      5  O   UNL A   1      35.320  21.849  24.564  1.00  0.00    -0.462 OA
BRANCH   5   6
ATOM      6  C   UNL A   1      34.259  22.182  25.360  1.00  0.00     0.329 C 
ATOM      7  O   UNL A   1      34.352  22.442  26.550  1.00  0.00    -0.250 OA
BRANCH   6   8
ATOM      8  C   UNL A   1      32.946  22.161  24.558  1.00  0.00     0.202 C 
BRANCH   8   9
ATOM      9  C   UNL A   1      32.099  20.952  25.005  1.00  0.00     0.038 C 
BRANCH   9  10
ATOM     10  C   UNL A   1      32.903  19.659  25.194  1.00  0.00     0.002 C 
BRANCH  10  11
ATOM     11  C   UNL A   1      33.270  18.882  23.929  1.00  0.00    -0.003 C 
ATOM     12  C   UNL A   1      32.912  17.406  23.980  1.00  0.00     0.004 C 
ENDBRANCH  10  11
ENDBRANCH   9  10
ENDBRANCH   8   9
BRANCH   8  13
ATOM     13  N   UNL A   1      32.204  23.441  24.626  1.00  0.00    -0.278 N 
ATOM     14  C   UNL A   1      32.482  24.456  23.719  1.00  0.00     0.266 C 
ATOM     15  C   UNL A   1      31.270  23.739  25.599  1.00  0.00     0.149 C 
ATOM     16  O   UNL A   1      33.262  24.392  22.791  1.00  0.00    -0.268 OA
ATOM     17  C   UNL A   1      31.686  25.683  24.042  1.00  0.00     0.081 C 
ATOM     18  S   UNL A   1      30.607  25.338  25.326  1.00  0.00    -0.054 SA
ATOM     19  S   UNL A   1      30.780  22.817  26.902  1.00  0.00    -0.052 S 
ATOM     20  C   UNL A   1      31.852  26.815  23.339  1.00  0.00     0.029 C 
BRANCH  20  21
ATOM     21  C   UNL A   1      31.098  28.089  23.356  1.00  0.00    -0.024 A 
ATOM     22  C   UNL A   1      30.061  28.229  22.418  1.00  0.00     0.008 A 
ATOM     23  C   UNL A   1      31.296  29.130  24.268  1.00  0.00     0.008 A 
ATOM     24  C   UNL A   1      29.192  29.322  22.455  1.00  0.00     0.004 A 
ATOM     25  C   UNL A   1      30.422  30.221  24.314  1.00  0.00     0.004 A 
ATOM     26  C   UNL A   1      29.356  30.314  23.419  1.00  0.00    -0.051 A 
ATOM     27  C   UNL A   1      28.347  31.407  23.564  1.00  0.00     0.044 C 
ENDBRANCH  20  21
ENDBRANCH   8  13
ENDBRANCH   6   8
ENDBRANCH   5   6
ENDBRANCH   4   5
ENDBRANCH   3   4
ENDBRANCH   2   3
ENDBRANCH   1   2
BRANCH   1  28
ATOM     28  C   UNL A   1      40.269  21.496  26.529  1.00  0.00     0.188 C 
BRANCH  28  29
ATOM     29  O   UNL A   1      41.615  21.758  26.890  1.00  0.00    -0.376 OA
BRANCH  29  30
ATOM     30  C   UNL A   1      42.573  21.571  25.862  1.00  0.00     0.202 C 
BRANCH  30  31
ATOM     31  C   UNL A   1      43.079  22.884  25.255  1.00  0.00     0.261 C 
BRANCH  31  32
ATOM     32  O   UNL A   1      42.365  24.069  25.658  1.00  0.00    -0.460 OA
BRANCH  32  33
ATOM     33  C   UNL A   1      43.105  25.175  25.889  1.00  0.00     0.338 C 
ATOM     34  O   UNL A   1      44.097  25.525  25.271  1.00  0.00    -0.246 OA
BRANCH  33  35
ATOM     35  C   UNL A   1      42.415  26.011  26.895  1.00  0.00     0.060 A 
ATOM     36  C   UNL A   1      42.805  27.343  27.017  1.00  0.00     0.016 A 
ATOM     37  C   UNL A   1      41.438  25.492  27.751  1.00  0.00     0.016 A 
ATOM     38  C   UNL A   1      42.256  28.141  28.020  1.00  0.00     0.010 A 
ATOM     39  C   UNL A   1      40.900  26.300  28.771  1.00  0.00     0.010 A 
ATOM     40  C   UNL A   1      41.338  27.625  28.942  1.00  0.00    -0.014 A 
BRANCH  40  41
ATOM     41  C   UNL A   1      41.019  28.439  30.157  1.00  0.00     0.031 A 
ATOM     42  C   UNL A   1      41.935  28.347  31.359  1.00  0.00     0.074 A 
ATOM     43  C   UNL A   1      40.039  29.367  30.144  1.00  0.00     0.049 A 
ATOM     44  N   UNL A   1      41.887  28.993  32.499  1.00  0.00    -0.248 NA
ATOM     45  C   UNL A   1      43.069  27.413  31.257  1.00  0.00     0.031 C 
ATOM     46  C   UNL A   1      39.144  29.640  29.018  1.00  0.00     0.029 A 
ATOM     47  N   UNL A   1      39.658  30.286  31.097  1.00  0.00    -0.354 N 
ATOM     48  C   UNL A   1      42.966  28.531  33.249  1.00  0.00     0.074 A 
ATOM     49  C   UNL A   1      43.640  27.535  32.446  1.00  0.00     0.031 C 
ATOM     50  C   UNL A   1      38.342  30.673  29.332  1.00  0.00     0.029 A 
ATOM     51  C   UNL A   1      38.629  31.113  30.696  1.00  0.00     0.049 A 
ATOM     52  H   UNL A   1      40.082  30.348  31.983  1.00  0.00     0.167 HD
ATOM     53  C   UNL A   1      43.379  28.916  34.481  1.00  0.00     0.037 A 
ATOM     54  C   UNL A   1      37.986  32.100  31.355  1.00  0.00     0.037 A 
ATOM     55  C   UNL A   1      42.750  29.949  35.260  1.00  0.00     0.049 A 
ATOM     56  C   UNL A   1      38.414  32.452  32.760  1.00  0.00     0.074 A 
ATOM     57  C   UNL A   1      43.103  30.414  36.515  1.00  0.00     0.029 A 
ATOM     58  N   UNL A   1      41.646  30.687  34.857  1.00  0.00    -0.354 N 
ATOM     59  N   UNL A   1      39.416  31.978  33.462  1.00  0.00    -0.248 NA
ATOM     60  C   UNL A   1      37.620  33.471  33.462  1.00  0.00     0.031 C 
ATOM     61  C   UNL A   1      42.192  31.410  36.885  1.00  0.00     0.029 A 
ATOM     62  C   UNL A   1      41.294  31.592  35.846  1.00  0.00     0.049 A 
ATOM     63  H   UNL A   1      41.181  30.582  33.996  1.00  0.00     0.167 HD
ATOM     64  C   UNL A   1      39.383  32.655  34.679  1.00  0.00     0.074 A 
ATOM     65  C   UNL A   1      38.277  33.588  34.607  1.00  0.00     0.031 C 
ATOM     66  C   UNL A   1      40.192  32.518  35.761  1.00  0.00     0.037 A 
BRANCH  53  67
ATOM     67  C   UNL A   1      44.557  28.194  35.083  1.00  0.00     0.058 A 
ATOM     68  C   UNL A   1      45.880  28.593  34.841  1.00  0.00     0.135 A 
ATOM     69  C   UNL A   1      44.359  27.105  35.944  1.00  0.00     0.135 A 
ATOM     70  F   UNL A   1      46.140  29.648  34.060  1.00  0.00    -0.206 F 
ATOM     71  C   UNL A   1      46.965  27.913  35.383  1.00  0.00     0.059 A 
ATOM     72  C   UNL A   1      45.429  26.426  36.525  1.00  0.00     0.059 A 
ATOM     73  F   UNL A   1      43.116  26.690  36.232  1.00  0.00    -0.206 F 
ATOM     74  C   UNL A   1      46.730  26.824  36.218  1.00  0.00     0.060 A 
BRANCH  74  75
ATOM     75  S   UNL A   1      48.149  25.954  36.918  1.00  0.00     0.124 S 
ATOM     76  O   UNL A   1      48.248  26.577  38.234  1.00  0.00    -0.237 OA
ATOM     77  O   UNL A   1      47.704  24.564  36.908  1.00  0.00    -0.237 OA
ATOM     78  O   UNL A   1      49.229  26.269  35.989  1.00  0.00    -0.744 OA
ENDBRANCH  74  75
ENDBRANCH  53  67
BRANCH  54  79
ATOM     79  C   UNL A   1      36.843  32.821  30.717  1.00  0.00     0.058 A 
ATOM     80  C   UNL A   1      37.050  33.844  29.777  1.00  0.00     0.135 A 
ATOM     81  C   UNL A   1      35.516  32.527  31.071  1.00  0.00     0.135 A 
ATOM     82  F   UNL A   1      38.298  34.183  29.419  1.00  0.00    -0.206 F 
ATOM     83  C   UNL A   1      35.988  34.558  29.226  1.00  0.00     0.059 A 
ATOM     84  C   UNL A   1      34.437  33.205  30.511  1.00  0.00     0.059 A 
ATOM     85  F   UNL A   1      35.257  31.564  31.968  1.00  0.00    -0.206 F 
ATOM     86  C   UNL A   1      34.683  34.230  29.598  1.00  0.00     0.060 A 
BRANCH  86  87
ATOM     87  S   UNL A   1      33.307  35.135  28.855  1.00  0.00     0.124 S 
ATOM     88  O   UNL A   1      32.563  35.563  30.035  1.00  0.00    -0.237 OA
ATOM     89  O   UNL A   1      33.994  36.191  28.118  1.00  0.00    -0.237 OA
ATOM     90  O   UNL A   1      32.651  34.129  28.027  1.00  0.00    -0.744 OA
ENDBRANCH  86  87
ENDBRANCH  54  79
BRANCH  66  91
ATOM     91  C   UNL A   1      39.927  33.418  36.941  1.00  0.00     0.058 A 
ATOM     92  C   UNL A   1      38.971  33.094  37.916  1.00  0.00     0.135 A 
ATOM     93  C   UNL A   1      40.651  34.610  37.107  1.00  0.00     0.135 A 
ATOM     94  F   UNL A   1      38.248  31.968  37.806  1.00  0.00    -0.206 F 
ATOM     95  C   UNL A   1      38.712  33.940  38.991  1.00  0.00     0.059 A 
ATOM     96  C   UNL A   1      40.430  35.456  38.191  1.00  0.00     0.059 A 
ATOM     97  F   UNL A   1      41.590  34.961  36.214  1.00  0.00    -0.206 F 
ATOM     98  C   UNL A   1      39.442  35.122  39.116  1.00  0.00     0.060 A 
BRANCH  98  99
ATOM     99  S   UNL A   1      39.098  36.214  40.513  1.00  0.00     0.124 S 
ATOM    100  O   UNL A   1      38.077  35.459  41.231  1.00  0.00    -0.237 OA
ATOM    101  O   UNL A   1      40.399  36.305  41.170  1.00  0.00    -0.237 OA
ATOM    102  O   UNL A   1      38.638  37.445  39.876  1.00  0.00    -0.744 OA
ENDBRANCH  98  99
ENDBRANCH  66  91
ENDBRANCH  40  41
ENDBRANCH  33  35
ENDBRANCH  32  33
ENDBRANCH  31  32
ENDBRANCH  30  31
ENDBRANCH  29  30
ENDBRANCH  28  29
ENDBRANCH   1  28
TORSDOF 25
ENDMDL
MODEL 2
REMARK VINA RESULT:     -10.1      0.924      7.935
REMARK SMILES CCCC[C@H](C(=O)OCCOCCOCCOC(=O)c1ccc(-c2c3nc(c(-c4c(F)cc(S(=O)(=O)[O-])cc4F)c4ccc([nH]4)c(-c4c(F)cc(S(=O)(=O)[O-])cc4F)c4nc(c(-c5c(F)cc(S(=O)(=O)[O-])cc5F)c5ccc2[nH]5)C=C4)C=C3)cc1)N1C(=O)/C(=C/c2ccc(C)cc2)SC1=S
REMARK SMILES IDX 12 1 11 2 10 3 9 4 8 5 6 6 7 7 5 8 4 9 3 10 2 11 1 12 86 13
REMARK SMILES IDX 87 14 99 15 88 16 89 17 98 18 100 19 90 20 91 21 92 22 97 23
REMARK SMILES IDX 93 24 96 25 94 26 95 27 13 28 14 29 15 30 16 31 17 32 18 33
REMARK SMILES IDX 19 34 20 35 21 36 85 37 22 38 84 39 23 40 24 41 25 42 78 43
REMARK SMILES IDX 26 44 83 45 77 46 79 47 27 48 82 49 76 50 75 51 28 53 62 54
REMARK SMILES IDX 41 55 61 56 42 57 45 58 60 59 80 60 43 61 44 62 59 64 81 65
REMARK SMILES IDX 46 66 29 67 30 68 39 69 31 70 32 71 38 72 40 73 33 74 34 75
REMARK SMILES IDX 35 76 36 77 37 78 63 79 64 80 73 81 65 82 66 83 72 84 74 85
REMARK SMILES IDX 67 86 68 87 69 88 70 89 71 90 47 91 48 92 57 93 49 94 50 95
REMARK SMILES IDX 56 96 58 97 51 98 52 99 53 100 54 101 55 102
REMARK H PARENT 79 52 45 63
REMARK Flexibility Score: inf
ROOT
ATOM      1  C   UNL A   1      39.252  23.653  27.182  1.00  0.00     0.188 C 
ENDROOT
BRANCH   1   2
ATOM      2  O   UNL A   1      37.959  24.003  26.697  1.00  0.00    -0.376 OA
BRANCH   2   3
ATOM      3  C   UNL A   1      37.499  23.496  25.456  1.00  0.00     0.202 C 
BRANCH   3   4
ATOM      4  C   UNL A   1      36.258  22.606  25.493  1.00  0.00     0.261 C 
BRANCH   4   5
ATOM      5  O   UNL A   1      35.061  23.194  24.953  1.00  0.00    -0.462 OA
BRANCH   5   6
ATOM      6  C   UNL A   1      33.891  22.851  25.572  1.00  0.00     0.329 C 
ATOM      7  O   UNL A   1      33.791  22.624  26.767  1.00  0.00    -0.250 OA
BRANCH   6   8
ATOM      8  C   UNL A   1      32.737  22.773  24.556  1.00  0.00     0.202 C 
BRANCH   8   9
ATOM      9  C   UNL A   1      32.015  21.420  24.713  1.00  0.00     0.038 C 
BRANCH   9  10
ATOM     10  C   UNL A   1      32.429  20.364  23.681  1.00  0.00     0.002 C 
BRANCH  10  11
ATOM     11  C   UNL A   1      33.295  19.207  24.183  1.00  0.00    -0.003 C 
ATOM     12  C   UNL A   1      32.871  18.655  25.534  1.00  0.00     0.004 C 
ENDBRANCH  10  11
ENDBRANCH   9  10
ENDBRANCH   8   9
BRANCH   8  13
ATOM     13  N   UNL A   1      31.816  23.931  24.634  1.00  0.00    -0.278 N 
ATOM     14  C   UNL A   1      31.973  25.005  23.766  1.00  0.00     0.266 C 
ATOM     15  C   UNL A   1      30.819  24.059  25.580  1.00  0.00     0.149 C 
ATOM     16  O   UNL A   1      32.783  25.084  22.865  1.00  0.00    -0.268 OA
ATOM     17  C   UNL A   1      30.999  26.093  24.095  1.00  0.00     0.081 C 
ATOM     18  S   UNL A   1      29.941  25.555  25.329  1.00  0.00    -0.054 SA
ATOM     19  S   UNL A   1      30.426  23.034  26.837  1.00  0.00    -0.052 S 
ATOM     20  C   UNL A   1      31.022  27.260  23.431  1.00  0.00     0.029 C 
BRANCH  20  21
ATOM     21  C   UNL A   1      30.092  28.411  23.457  1.00  0.00    -0.024 A 
ATOM     22  C   UNL A   1      30.543  29.581  24.091  1.00  0.00     0.008 A 
ATOM     23  C   UNL A   1      28.833  28.445  22.850  1.00  0.00     0.008 A 
ATOM     24  C   UNL A   1      29.808  30.768  24.033  1.00  0.00     0.004 A 
ATOM     25  C   UNL A   1      28.098  29.633  22.781  1.00  0.00     0.004 A 
ATOM     26  C   UNL A   1      28.590  30.804  23.358  1.00  0.00    -0.051 A 
ATOM     27  C   UNL A   1      27.868  32.099  23.160  1.00  0.00     0.044 C 
ENDBRANCH  20  21
ENDBRANCH   8  13
ENDBRANCH   6   8
ENDBRANCH   5   6
ENDBRANCH   4   5
ENDBRANCH   3   4
ENDBRANCH   2   3
ENDBRANCH   1   2
BRANCH   1  28
ATOM     28  C   UNL A   1      39.944  22.390  26.647  1.00  0.00     0.188 C 
BRANCH  28  29
ATOM     29  O   UNL A   1      41.311  22.309  27.020  1.00  0.00    -0.376 OA
BRANCH  29  30
ATOM     30  C   UNL A   1      42.221  22.063  25.962  1.00  0.00     0.202 C 
BRANCH  30  31
ATOM     31  C   UNL A   1      43.093  23.275  25.615  1.00  0.00     0.261 C 
BRANCH  31  32
ATOM     32  O   UNL A   1      42.617  24.543  26.108  1.00  0.00    -0.460 OA
BRANCH  32  33
ATOM     33  C   UNL A   1      43.553  25.421  26.528  1.00  0.00     0.338 C 
ATOM     34  O   UNL A   1      44.672  25.564  26.064  1.00  0.00    -0.246 OA
BRANCH  33  35
ATOM     35  C   UNL A   1      42.943  26.330  27.524  1.00  0.00     0.060 A 
ATOM     36  C   UNL A   1      43.362  27.659  27.539  1.00  0.00     0.016 A 
ATOM     37  C   UNL A   1      42.017  25.883  28.470  1.00  0.00     0.016 A 
ATOM     38  C   UNL A   1      42.893  28.526  28.525  1.00  0.00     0.010 A 
ATOM     39  C   UNL A   1      41.560  26.760  29.472  1.00  0.00     0.010 A 
ATOM     40  C   UNL A   1      42.029  28.084  29.534  1.00  0.00    -0.014 A 
BRANCH  40  41
ATOM     41  C   UNL A   1      41.804  28.975  30.715  1.00  0.00     0.031 A 
ATOM     42  C   UNL A   1      40.601  29.895  30.719  1.00  0.00     0.074 A 
ATOM     43  C   UNL A   1      42.549  28.859  31.835  1.00  0.00     0.049 A 
ATOM     44  N   UNL A   1      40.179  30.716  31.650  1.00  0.00    -0.248 NA
ATOM     45  C   UNL A   1      39.749  29.874  29.519  1.00  0.00     0.031 C 
ATOM     46  C   UNL A   1      43.675  27.941  32.013  1.00  0.00     0.029 A 
ATOM     47  N   UNL A   1      42.443  29.489  33.055  1.00  0.00    -0.354 N 
ATOM     48  C   UNL A   1      39.030  31.316  31.140  1.00  0.00     0.074 A 
ATOM     49  C   UNL A   1      38.831  30.783  29.811  1.00  0.00     0.031 C 
ATOM     50  C   UNL A   1      44.134  28.045  33.273  1.00  0.00     0.029 A 
ATOM     51  C   UNL A   1      43.370  29.067  33.985  1.00  0.00     0.049 A 
ATOM     52  H   UNL A   1      41.766  30.178  33.247  1.00  0.00     0.167 HD
ATOM     53  C   UNL A   1      38.197  32.209  31.729  1.00  0.00     0.037 A 
ATOM     54  C   UNL A   1      43.585  29.464  35.257  1.00  0.00     0.037 A 
ATOM     55  C   UNL A   1      38.355  32.697  33.074  1.00  0.00     0.049 A 
ATOM     56  C   UNL A   1      42.692  30.523  35.862  1.00  0.00     0.074 A 
ATOM     57  C   UNL A   1      37.556  33.595  33.760  1.00  0.00     0.029 A 
ATOM     58  N   UNL A   1      39.368  32.321  33.942  1.00  0.00    -0.354 N 
ATOM     59  N   UNL A   1      41.632  31.102  35.349  1.00  0.00    -0.248 NA
ATOM     60  C   UNL A   1      43.029  30.983  37.217  1.00  0.00     0.031 C 
ATOM     61  C   UNL A   1      38.106  33.789  35.032  1.00  0.00     0.029 A 
ATOM     62  C   UNL A   1      39.227  32.981  35.152  1.00  0.00     0.049 A 
ATOM     63  H   UNL A   1      40.084  31.679  33.730  1.00  0.00     0.167 HD
ATOM     64  C   UNL A   1      41.166  31.979  36.326  1.00  0.00     0.074 A 
ATOM     65  C   UNL A   1      42.045  31.835  37.468  1.00  0.00     0.031 C 
ATOM     66  C   UNL A   1      40.108  32.828  36.284  1.00  0.00     0.037 A 
BRANCH  53  67
ATOM     67  C   UNL A   1      37.050  32.744  30.912  1.00  0.00     0.058 A 
ATOM     68  C   UNL A   1      37.213  33.787  29.989  1.00  0.00     0.135 A 
ATOM     69  C   UNL A   1      35.771  32.179  31.029  1.00  0.00     0.135 A 
ATOM     70  F   UNL A   1      38.415  34.344  29.799  1.00  0.00    -0.206 F 
ATOM     71  C   UNL A   1      36.148  34.290  29.250  1.00  0.00     0.059 A 
ATOM     72  C   UNL A   1      34.693  32.645  30.277  1.00  0.00     0.059 A 
ATOM     73  F   UNL A   1      35.557  31.164  31.879  1.00  0.00    -0.206 F 
ATOM     74  C   UNL A   1      34.889  33.717  29.407  1.00  0.00     0.060 A 
BRANCH  74  75
ATOM     75  S   UNL A   1      33.516  34.378  28.437  1.00  0.00     0.124 S 
ATOM     76  O   UNL A   1      33.079  33.191  27.710  1.00  0.00    -0.237 OA
ATOM     77  O   UNL A   1      32.603  34.860  29.469  1.00  0.00    -0.237 OA
ATOM     78  O   UNL A   1      34.145  35.417  27.627  1.00  0.00    -0.744 OA
ENDBRANCH  74  75
ENDBRANCH  53  67
BRANCH  54  79
ATOM     79  C   UNL A   1      44.710  28.889  36.054  1.00  0.00     0.058 A 
ATOM     80  C   UNL A   1      46.014  29.400  35.963  1.00  0.00     0.135 A 
ATOM     81  C   UNL A   1      44.508  27.782  36.894  1.00  0.00     0.135 A 
ATOM     82  F   UNL A   1      46.271  30.443  35.158  1.00  0.00    -0.206 F 
ATOM     83  C   UNL A   1      47.077  28.827  36.659  1.00  0.00     0.059 A 
ATOM     84  C   UNL A   1      45.547  27.210  37.624  1.00  0.00     0.059 A 
ATOM     85  F   UNL A   1      43.283  27.246  37.016  1.00  0.00    -0.206 F 
ATOM     86  C   UNL A   1      46.832  27.732  37.489  1.00  0.00     0.060 A 
BRANCH  86  87
ATOM     87  S   UNL A   1      48.206  27.013  38.417  1.00  0.00     0.124 S 
ATOM     88  O   UNL A   1      47.519  26.454  39.577  1.00  0.00    -0.237 OA
ATOM     89  O   UNL A   1      48.747  26.044  37.469  1.00  0.00    -0.237 OA
ATOM     90  O   UNL A   1      49.066  28.161  38.687  1.00  0.00    -0.744 OA
ENDBRANCH  86  87
ENDBRANCH  54  79
BRANCH  66  91
ATOM     91  C   UNL A   1      39.828  33.645  37.519  1.00  0.00     0.058 A 
ATOM     92  C   UNL A   1      40.520  34.836  37.789  1.00  0.00     0.135 A 
ATOM     93  C   UNL A   1      38.842  33.241  38.434  1.00  0.00     0.135 A 
ATOM     94  F   UNL A   1      41.475  35.268  36.949  1.00  0.00    -0.206 F 
ATOM     95  C   UNL A   1      40.276  35.575  38.943  1.00  0.00     0.059 A 
ATOM     96  C   UNL A   1      38.560  33.981  39.580  1.00  0.00     0.059 A 
ATOM     97  F   UNL A   1      38.137  32.120  38.218  1.00  0.00    -0.206 F 
ATOM     98  C   UNL A   1      39.298  35.135  39.836  1.00  0.00     0.060 A 
BRANCH  98  99
ATOM     99  S   UNL A   1      38.989  36.099  41.332  1.00  0.00     0.124 S 
ATOM    100  O   UNL A   1      40.246  35.932  42.053  1.00  0.00    -0.237 OA
ATOM    101  O   UNL A   1      38.737  37.435  40.799  1.00  0.00    -0.237 OA
ATOM    102  O   UNL A   1      37.830  35.441  41.927  1.00  0.00    -0.744 OA
ENDBRANCH  98  99
ENDBRANCH  66  91
ENDBRANCH  40  41
ENDBRANCH  33  35
ENDBRANCH  32  33
ENDBRANCH  31  32
ENDBRANCH  30  31
ENDBRANCH  29  30
ENDBRANCH  28  29
ENDBRANCH   1  28
TORSDOF 25
ENDMDL
MODEL 3
REMARK VINA RESULT:      -9.7      1.383      4.565
REMARK SMILES CCCC[C@H](C(=O)OCCOCCOCCOC(=O)c1ccc(-c2c3nc(c(-c4c(F)cc(S(=O)(=O)[O-])cc4F)c4ccc([nH]4)c(-c4c(F)cc(S(=O)(=O)[O-])cc4F)c4nc(c(-c5c(F)cc(S(=O)(=O)[O-])cc5F)c5ccc2[nH]5)C=C4)C=C3)cc1)N1C(=O)/C(=C/c2ccc(C)cc2)SC1=S
REMARK SMILES IDX 12 1 11 2 10 3 9 4 8 5 6 6 7 7 5 8 4 9 3 10 2 11 1 12 86 13
REMARK SMILES IDX 87 14 99 15 88 16 89 17 98 18 100 19 90 20 91 21 92 22 97 23
REMARK SMILES IDX 93 24 96 25 94 26 95 27 13 28 14 29 15 30 16 31 17 32 18 33
REMARK SMILES IDX 19 34 20 35 21 36 85 37 22 38 84 39 23 40 24 41 25 42 78 43
REMARK SMILES IDX 26 44 83 45 77 46 79 47 27 48 82 49 76 50 75 51 28 53 62 54
REMARK SMILES IDX 41 55 61 56 42 57 45 58 60 59 80 60 43 61 44 62 59 64 81 65
REMARK SMILES IDX 46 66 29 67 30 68 39 69 31 70 32 71 38 72 40 73 33 74 34 75
REMARK SMILES IDX 35 76 36 77 37 78 63 79 64 80 73 81 65 82 66 83 72 84 74 85
REMARK SMILES IDX 67 86 68 87 69 88 70 89 71 90 47 91 48 92 57 93 49 94 50 95
REMARK SMILES IDX 56 96 58 97 51 98 52 99 53 100 54 101 55 102
REMARK H PARENT 79 52 45 63
REMARK Flexibility Score: inf
ROOT
ATOM      1  C   UNL A   1      35.303  23.447  24.600  1.00  0.00     0.188 C 
ENDROOT
BRANCH   1   2
ATOM      2  O   UNL A   1      34.989  24.835  24.656  1.00  0.00    -0.376 OA
BRANCH   2   3
ATOM      3  C   UNL A   1      34.255  25.359  25.749  1.00  0.00     0.202 C 
BRANCH   3   4
ATOM      4  C   UNL A   1      33.996  26.865  25.746  1.00  0.00     0.261 C 
BRANCH   4   5
ATOM      5  O   UNL A   1      32.614  27.254  25.643  1.00  0.00    -0.462 OA
BRANCH   5   6
ATOM      6  C   UNL A   1      32.175  27.586  24.392  1.00  0.00     0.329 C 
ATOM      7  O   UNL A   1      32.688  28.446  23.693  1.00  0.00    -0.250 OA
BRANCH   6   8
ATOM      8  C   UNL A   1      30.943  26.749  24.004  1.00  0.00     0.202 C 
BRANCH   8   9
ATOM      9  C   UNL A   1      30.545  27.075  22.551  1.00  0.00     0.038 C 
BRANCH   9  10
ATOM     10  C   UNL A   1      30.068  28.518  22.341  1.00  0.00     0.002 C 
BRANCH  10  11
ATOM     11  C   UNL A   1      28.977  29.031  23.282  1.00  0.00    -0.003 C 
ATOM     12  C   UNL A   1      27.562  28.771  22.794  1.00  0.00     0.004 C 
ENDBRANCH  10  11
ENDBRANCH   9  10
ENDBRANCH   8   9
BRANCH   8  13
ATOM     13  N   UNL A   1      31.132  25.298  24.238  1.00  0.00    -0.278 N 
ATOM     14  C   UNL A   1      31.843  24.532  23.322  1.00  0.00     0.266 C 
ATOM     15  C   UNL A   1      30.579  24.611  25.301  1.00  0.00     0.149 C 
ATOM     16  O   UNL A   1      32.407  24.945  22.330  1.00  0.00    -0.268 OA
ATOM     17  C   UNL A   1      31.817  23.087  23.713  1.00  0.00     0.081 C 
ATOM     18  S   UNL A   1      31.046  22.923  25.233  1.00  0.00    -0.054 SA
ATOM     19  S   UNL A   1      29.581  25.178  26.513  1.00  0.00    -0.052 S 
ATOM     20  C   UNL A   1      32.379  22.153  22.929  1.00  0.00     0.029 C 
BRANCH  20  21
ATOM     21  C   UNL A   1      32.619  20.710  23.156  1.00  0.00    -0.024 A 
ATOM     22  C   UNL A   1      33.355  20.358  24.301  1.00  0.00     0.008 A 
ATOM     23  C   UNL A   1      32.122  19.674  22.359  1.00  0.00     0.008 A 
ATOM     24  C   UNL A   1      33.500  19.024  24.688  1.00  0.00     0.004 A 
ATOM     25  C   UNL A   1      32.258  18.338  22.748  1.00  0.00     0.004 A 
ATOM     26  C   UNL A   1      32.933  18.008  23.923  1.00  0.00    -0.051 A 
ATOM     27  C   UNL A   1      32.953  16.592  24.405  1.00  0.00     0.044 C 
ENDBRANCH  20  21
ENDBRANCH   8  13
ENDBRANCH   6   8
ENDBRANCH   5   6
ENDBRANCH   4   5
ENDBRANCH   3   4
ENDBRANCH   2   3
ENDBRANCH   1   2
BRANCH   1  28
ATOM     28  C   UNL A   1      35.990  22.778  25.801  1.00  0.00     0.188 C 
BRANCH  28  29
ATOM     29  O   UNL A   1      37.207  23.412  26.165  1.00  0.00    -0.376 OA
BRANCH  29  30
ATOM     30  C   UNL A   1      38.360  22.587  26.132  1.00  0.00     0.202 C 
BRANCH  30  31
ATOM     31  C   UNL A   1      39.667  23.360  26.338  1.00  0.00     0.261 C 
BRANCH  31  32
ATOM     32  O   UNL A   1      39.576  24.788  26.163  1.00  0.00    -0.460 OA
BRANCH  32  33
ATOM     33  C   UNL A   1      40.735  25.480  26.213  1.00  0.00     0.338 C 
ATOM     34  O   UNL A   1      41.530  25.629  25.300  1.00  0.00    -0.246 OA
BRANCH  33  35
ATOM     35  C   UNL A   1      40.806  26.202  27.503  1.00  0.00     0.060 A 
ATOM     36  C   UNL A   1      39.724  26.091  28.374  1.00  0.00     0.016 A 
ATOM     37  C   UNL A   1      41.887  27.022  27.838  1.00  0.00     0.016 A 
ATOM     38  C   UNL A   1      39.701  26.834  29.553  1.00  0.00     0.010 A 
ATOM     39  C   UNL A   1      41.848  27.781  29.023  1.00  0.00     0.010 A 
ATOM     40  C   UNL A   1      40.731  27.726  29.874  1.00  0.00    -0.014 A 
BRANCH  40  41
ATOM     41  C   UNL A   1      40.505  28.699  30.989  1.00  0.00     0.031 A 
ATOM     42  C   UNL A   1      41.457  28.696  32.166  1.00  0.00     0.074 A 
ATOM     43  C   UNL A   1      39.580  29.677  30.891  1.00  0.00     0.049 A 
ATOM     44  N   UNL A   1      41.487  29.477  33.219  1.00  0.00    -0.248 NA
ATOM     45  C   UNL A   1      42.530  27.688  32.146  1.00  0.00     0.031 C 
ATOM     46  C   UNL A   1      38.662  29.867  29.766  1.00  0.00     0.029 A 
ATOM     47  N   UNL A   1      39.287  30.727  31.734  1.00  0.00    -0.354 N 
ATOM     48  C   UNL A   1      42.565  29.043  33.988  1.00  0.00     0.074 A 
ATOM     49  C   UNL A   1      43.151  27.918  33.294  1.00  0.00     0.031 C 
ATOM     50  C   UNL A   1      37.933  30.978  29.974  1.00  0.00     0.029 A 
ATOM     51  C   UNL A   1      38.294  31.561  31.265  1.00  0.00     0.049 A 
ATOM     52  H   UNL A   1      39.746  30.869  32.593  1.00  0.00     0.167 HD
ATOM     53  C   UNL A   1      43.044  29.548  35.151  1.00  0.00     0.037 A 
ATOM     54  C   UNL A   1      37.734  32.658  31.815  1.00  0.00     0.037 A 
ATOM     55  C   UNL A   1      42.504  30.705  35.815  1.00  0.00     0.049 A 
ATOM     56  C   UNL A   1      38.232  33.150  33.154  1.00  0.00     0.074 A 
ATOM     57  C   UNL A   1      42.930  31.295  36.992  1.00  0.00     0.029 A 
ATOM     58  N   UNL A   1      41.432  31.455  35.357  1.00  0.00    -0.354 N 
ATOM     59  N   UNL A   1      39.231  32.704  33.880  1.00  0.00    -0.248 NA
ATOM     60  C   UNL A   1      37.525  34.294  33.748  1.00  0.00     0.031 C 
ATOM     61  C   UNL A   1      42.092  32.383  37.264  1.00  0.00     0.029 A 
ATOM     62  C   UNL A   1      41.169  32.493  36.237  1.00  0.00     0.049 A 
ATOM     63  H   UNL A   1      40.930  31.276  34.530  1.00  0.00     0.167 HD
ATOM     64  C   UNL A   1      39.281  33.524  35.005  1.00  0.00     0.074 A 
ATOM     65  C   UNL A   1      38.229  34.508  34.850  1.00  0.00     0.031 C 
ATOM     66  C   UNL A   1      40.119  33.469  36.071  1.00  0.00     0.037 A 
BRANCH  53  67
ATOM     67  C   UNL A   1      44.200  28.833  35.802  1.00  0.00     0.058 A 
ATOM     68  C   UNL A   1      44.011  27.784  36.714  1.00  0.00     0.135 A 
ATOM     69  C   UNL A   1      45.521  29.181  35.483  1.00  0.00     0.135 A 
ATOM     70  F   UNL A   1      42.778  27.375  37.033  1.00  0.00    -0.206 F 
ATOM     71  C   UNL A   1      45.080  27.139  37.326  1.00  0.00     0.059 A 
ATOM     72  C   UNL A   1      46.610  28.528  36.060  1.00  0.00     0.059 A 
ATOM     73  F   UNL A   1      45.766  30.161  34.601  1.00  0.00    -0.206 F 
ATOM     74  C   UNL A   1      46.377  27.524  36.999  1.00  0.00     0.060 A 
BRANCH  74  75
ATOM     75  S   UNL A   1      47.755  26.675  37.800  1.00  0.00     0.124 S 
ATOM     76  O   UNL A   1      47.371  25.277  37.627  1.00  0.00    -0.237 OA
ATOM     77  O   UNL A   1      48.901  27.118  37.011  1.00  0.00    -0.237 OA
ATOM     78  O   UNL A   1      47.709  27.175  39.170  1.00  0.00    -0.744 OA
ENDBRANCH  74  75
ENDBRANCH  53  67
BRANCH  54  79
ATOM     79  C   UNL A   1      36.612  33.366  31.127  1.00  0.00     0.058 A 
ATOM     80  C   UNL A   1      35.282  33.229  31.554  1.00  0.00     0.135 A 
ATOM     81  C   UNL A   1      36.849  34.164  29.995  1.00  0.00     0.135 A 
ATOM     82  F   UNL A   1      34.995  32.460  32.616  1.00  0.00    -0.206 F 
ATOM     83  C   UNL A   1      34.229  33.840  30.877  1.00  0.00     0.059 A 
ATOM     84  C   UNL A   1      35.816  34.810  29.321  1.00  0.00     0.059 A 
ATOM     85  F   UNL A   1      38.099  34.327  29.537  1.00  0.00    -0.206 F 
ATOM     86  C   UNL A   1      34.506  34.630  29.762  1.00  0.00     0.060 A 
BRANCH  86  87
ATOM     87  S   UNL A   1      33.140  35.449  28.907  1.00  0.00     0.124 S 
ATOM     88  O   UNL A   1      33.845  36.458  28.123  1.00  0.00    -0.237 OA
ATOM     89  O   UNL A   1      32.547  34.352  28.149  1.00  0.00    -0.237 OA
ATOM     90  O   UNL A   1      32.319  35.961  30.000  1.00  0.00    -0.744 OA
ENDBRANCH  86  87
ENDBRANCH  54  79
BRANCH  66  91
ATOM     91  C   UNL A   1      39.950  34.519  37.139  1.00  0.00     0.058 A 
ATOM     92  C   UNL A   1      40.640  35.740  37.089  1.00  0.00     0.135 A 
ATOM     93  C   UNL A   1      39.075  34.307  38.216  1.00  0.00     0.135 A 
ATOM     94  F   UNL A   1      41.492  35.995  36.082  1.00  0.00    -0.206 F 
ATOM     95  C   UNL A   1      40.500  36.698  38.090  1.00  0.00     0.059 A 
ATOM     96  C   UNL A   1      38.897  35.263  39.213  1.00  0.00     0.059 A 
ATOM     97  F   UNL A   1      38.377  33.164  38.306  1.00  0.00    -0.206 F 
ATOM     98  C   UNL A   1      39.631  36.446  39.153  1.00  0.00     0.060 A 
BRANCH  98  99
ATOM     99  S   UNL A   1      39.457  37.692  40.448  1.00  0.00     0.124 S 
ATOM    100  O   UNL A   1      40.660  38.493  40.248  1.00  0.00    -0.237 OA
ATOM    101  O   UNL A   1      38.198  38.341  40.094  1.00  0.00    -0.237 OA
ATOM    102  O   UNL A   1      39.424  36.903  41.676  1.00  0.00    -0.744 OA
ENDBRANCH  98  99
ENDBRANCH  66  91
ENDBRANCH  40  41
ENDBRANCH  33  35
ENDBRANCH  32  33
ENDBRANCH  31  32
ENDBRANCH  30  31
ENDBRANCH  29  30
ENDBRANCH  28  29
ENDBRANCH   1  28
TORSDOF 25
ENDMDL
