MODEL 1
REMARK VINA RESULT:     -10.7      0.000      0.000
REMARK SMILES Cc1ccc(Nc2c(C)cccc2Cl)c(CC(=O)OCCOCCOCCOC(=O)c2ccc(-c3c4nc(c(-c5c(F)cc(S(=O)(=O)[O-])cc5F)c5ccc([nH]5)c(-c5c(F)cc(S(=O)(=O)[O-])cc5F)c5nc(c(-c6c(F)cc(S(=O)(=O)[O-])cc6F)c6ccc3[nH]6)C=C5)C=C4)cc2)c1
REMARK SMILES IDX 23 1 22 2 21 3 20 4 19 5 17 6 18 7 16 8 15 9 1 10 2 11 3 12
REMARK SMILES IDX 97 13 4 14 5 15 6 16 7 18 8 19 13 20 9 21 10 22 12 23 14 24
REMARK SMILES IDX 11 25 24 26 25 27 26 28 27 29 28 30 29 31 30 32 31 33 32 34
REMARK SMILES IDX 96 35 33 36 95 37 34 38 35 39 36 40 89 41 37 42 94 43 88 44
REMARK SMILES IDX 90 45 38 46 93 47 87 48 86 49 39 51 73 52 52 53 72 54 53 55
REMARK SMILES IDX 56 56 71 57 91 58 54 59 55 60 70 62 92 63 57 64 40 65 41 66
REMARK SMILES IDX 50 67 42 68 43 69 49 70 51 71 44 72 45 73 46 74 47 75 48 76
REMARK SMILES IDX 74 77 75 78 84 79 76 80 77 81 83 82 85 83 78 84 79 85 80 86
REMARK SMILES IDX 81 87 82 88 58 89 59 90 68 91 60 92 61 93 67 94 69 95 62 96
REMARK SMILES IDX 63 97 64 98 65 99 66 100
REMARK H PARENT 6 17 90 50 56 61
REMARK Flexibility Score: inf
ROOT
ATOM      1  C   UNL A   1      36.999  22.815  25.641  1.00  0.00     0.188 C 
ENDROOT
BRANCH   1   2
ATOM      2  O   UNL A   1      35.759  22.699  26.280  1.00  0.00    -0.376 OA
BRANCH   2   3
ATOM      3  C   UNL A   1      34.764  23.676  26.094  1.00  0.00     0.202 C 
BRANCH   3   4
ATOM      4  C   UNL A   1      33.219  23.852  26.551  1.00  0.00     0.261 C 
BRANCH   4   5
ATOM      5  O   UNL A   1      31.929  25.127  26.760  1.00  0.00    -0.463 OA
BRANCH   5   6
ATOM      6  C   UNL A   1      30.783  26.048  26.015  1.00  0.00     0.310 C 
ATOM      7  O   UNL A   1      29.610  25.854  25.658  1.00  0.00    -0.252 OA
BRANCH   6   8
ATOM      8  C   UNL A   1      31.104  27.434  26.027  1.00  0.00     0.160 C 
BRANCH   8   9
ATOM      9  C   UNL A   1      32.567  27.391  25.729  1.00  0.00    -0.013 A 
ATOM     10  C   UNL A   1      32.646  26.821  21.942  1.00  0.00     0.044 C 
ATOM     11  C   UNL A   1      32.864  27.445  23.279  1.00  0.00    -0.051 A 
ATOM     12  C   UNL A   1      33.270  28.745  23.447  1.00  0.00     0.005 A 
ATOM     13  C   UNL A   1      32.549  26.751  24.424  1.00  0.00     0.009 A 
ATOM     14  C   UNL A   1      33.386  29.293  24.755  1.00  0.00     0.026 A 
ATOM     15  C   UNL A   1      33.265  28.554  26.176  1.00  0.00     0.042 A 
BRANCH  15  16
ATOM     16  N   UNL A   1      34.442  28.990  27.760  1.00  0.00    -0.354 N 
ATOM     17  H   UNL A   1      34.223  28.477  28.572  1.00  0.00     0.167 HD
BRANCH  16  18
ATOM     18  C   UNL A   1      35.850  30.169  27.973  1.00  0.00     0.060 A 
ATOM     19  C   UNL A   1      37.350  29.784  28.312  1.00  0.00    -0.026 A 
ATOM     20  C   UNL A   1      35.553  31.524  28.264  1.00  0.00     0.064 A 
ATOM     21  C   UNL A   1      38.260  28.524  28.267  1.00  0.00     0.046 C 
ATOM     22  C   UNL A   1      38.233  30.755  28.872  1.00  0.00     0.005 A 
ATOM     23  C   UNL A   1      36.506  32.376  28.910  1.00  0.00     0.023 A 
ATOM     24  Cl  UNL A   1      34.173  32.376  27.801  1.00  0.00    -0.082 Cl
ATOM     25  C   UNL A   1      37.806  32.008  29.222  1.00  0.00     0.002 A 
ENDBRANCH  16  18
ENDBRANCH  15  16
ENDBRANCH   8   9
ENDBRANCH   6   8
ENDBRANCH   5   6
ENDBRANCH   4   5
ENDBRANCH   3   4
ENDBRANCH   2   3
ENDBRANCH   1   2
BRANCH   1  26
ATOM     26  C   UNL A   1      37.329  21.872  24.504  1.00  0.00     0.188 C 
BRANCH  26  27
ATOM     27  O   UNL A   1      38.238  20.843  24.811  1.00  0.00    -0.376 OA
BRANCH  27  28
ATOM     28  C   UNL A   1      38.869  21.004  26.076  1.00  0.00     0.202 C 
BRANCH  28  29
ATOM     29  C   UNL A   1      40.158  21.936  26.218  1.00  0.00     0.261 C 
BRANCH  29  30
ATOM     30  O   UNL A   1      40.179  22.899  27.355  1.00  0.00    -0.460 OA
BRANCH  30  31
ATOM     31  C   UNL A   1      41.189  23.860  27.671  1.00  0.00     0.338 C 
ATOM     32  O   UNL A   1      42.159  23.454  28.286  1.00  0.00    -0.246 OA
BRANCH  31  33
ATOM     33  C   UNL A   1      40.912  25.452  26.962  1.00  0.00     0.060 A 
ATOM     34  C   UNL A   1      41.844  26.752  25.807  1.00  0.00     0.016 A 
ATOM     35  C   UNL A   1      40.888  25.960  28.698  1.00  0.00     0.016 A 
ATOM     36  C   UNL A   1      42.783  28.184  26.614  1.00  0.00     0.010 A 
ATOM     37  C   UNL A   1      41.905  27.239  29.304  1.00  0.00     0.010 A 
ATOM     38  C   UNL A   1      42.880  28.444  28.414  1.00  0.00    -0.014 A 
BRANCH  38  39
ATOM     39  C   UNL A   1      43.490  29.873  29.504  1.00  0.00     0.031 A 
ATOM     40  C   UNL A   1      42.468  30.877  30.795  1.00  0.00     0.074 A 
ATOM     41  C   UNL A   1      44.799  30.146  29.686  1.00  0.00     0.049 A 
ATOM     42  N   UNL A   1      42.066  32.140  30.723  1.00  0.00    -0.248 NA
ATOM     43  C   UNL A   1      41.356  30.288  31.915  1.00  0.00     0.031 C 
ATOM     44  C   UNL A   1      45.402  30.928  30.777  1.00  0.00     0.029 A 
ATOM     45  N   UNL A   1      45.910  29.681  28.999  1.00  0.00    -0.354 N 
ATOM     46  C   UNL A   1      41.045  32.338  31.718  1.00  0.00     0.074 A 
ATOM     47  C   UNL A   1      40.347  31.129  31.861  1.00  0.00     0.031 C 
ATOM     48  C   UNL A   1      46.694  31.174  30.485  1.00  0.00     0.029 A 
ATOM     49  C   UNL A   1      46.925  30.641  29.154  1.00  0.00     0.049 A 
ATOM     50  H   UNL A   1      45.976  28.838  28.496  1.00  0.00     0.167 HD
ATOM     51  C   UNL A   1      41.236  33.098  32.850  1.00  0.00     0.037 A 
ATOM     52  C   UNL A   1      47.231  31.339  28.033  1.00  0.00     0.037 A 
ATOM     53  C   UNL A   1      42.593  33.592  32.771  1.00  0.00     0.049 A 
ATOM     54  C   UNL A   1      46.608  32.722  28.193  1.00  0.00     0.074 A 
ATOM     55  C   UNL A   1      43.793  33.225  33.352  1.00  0.00     0.029 A 
ATOM     56  N   UNL A   1      42.917  34.247  31.599  1.00  0.00    -0.354 N 
ATOM     57  N   UNL A   1      45.568  32.982  28.957  1.00  0.00    -0.248 NA
ATOM     58  C   UNL A   1      47.279  33.943  27.757  1.00  0.00     0.031 C 
ATOM     59  C   UNL A   1      44.841  33.658  32.472  1.00  0.00     0.029 A 
ATOM     60  C   UNL A   1      44.268  34.228  31.343  1.00  0.00     0.049 A 
ATOM     61  H   UNL A   1      42.255  34.679  31.013  1.00  0.00     0.167 HD
ATOM     62  C   UNL A   1      45.510  34.322  29.228  1.00  0.00     0.074 A 
ATOM     63  C   UNL A   1      46.581  34.883  28.420  1.00  0.00     0.031 C 
ATOM     64  C   UNL A   1      44.708  34.938  30.151  1.00  0.00     0.037 A 
BRANCH  51  65
ATOM     65  C   UNL A   1      40.354  33.032  34.131  1.00  0.00     0.058 A 
ATOM     66  C   UNL A   1      39.144  33.754  34.200  1.00  0.00     0.135 A 
ATOM     67  C   UNL A   1      40.608  32.253  35.300  1.00  0.00     0.135 A 
ATOM     68  F   UNL A   1      38.740  34.517  33.177  1.00  0.00    -0.206 F 
ATOM     69  C   UNL A   1      38.274  33.712  35.303  1.00  0.00     0.059 A 
ATOM     70  C   UNL A   1      39.788  32.252  36.446  1.00  0.00     0.059 A 
ATOM     71  F   UNL A   1      41.638  31.397  35.372  1.00  0.00    -0.206 F 
ATOM     72  C   UNL A   1      38.598  32.958  36.423  1.00  0.00     0.060 A 
BRANCH  72  73
ATOM     73  S   UNL A   1      37.407  32.838  37.781  1.00  0.00     0.124 S 
ATOM     74  O   UNL A   1      38.030  33.658  38.815  1.00  0.00    -0.237 OA
ATOM     75  O   UNL A   1      36.202  33.391  37.172  1.00  0.00    -0.237 OA
ATOM     76  O   UNL A   1      37.359  31.408  38.073  1.00  0.00    -0.744 OA
ENDBRANCH  72  73
ENDBRANCH  51  65
BRANCH  52  77
ATOM     77  C   UNL A   1      47.372  30.342  26.901  1.00  0.00     0.058 A 
ATOM     78  C   UNL A   1      48.561  29.552  26.919  1.00  0.00     0.135 A 
ATOM     79  C   UNL A   1      46.311  29.808  26.150  1.00  0.00     0.135 A 
ATOM     80  F   UNL A   1      49.593  29.924  27.698  1.00  0.00    -0.206 F 
ATOM     81  C   UNL A   1      48.694  28.331  26.249  1.00  0.00     0.059 A 
ATOM     82  C   UNL A   1      46.432  28.587  25.446  1.00  0.00     0.059 A 
ATOM     83  F   UNL A   1      45.115  30.413  26.148  1.00  0.00    -0.206 F 
ATOM     84  C   UNL A   1      47.641  27.880  25.466  1.00  0.00     0.060 A 
BRANCH  84  85
ATOM     85  S   UNL A   1      47.905  26.413  24.420  1.00  0.00     0.124 S 
ATOM     86  O   UNL A   1      48.075  27.025  23.108  1.00  0.00    -0.237 OA
ATOM     87  O   UNL A   1      49.116  25.804  24.968  1.00  0.00    -0.237 OA
ATOM     88  O   UNL A   1      46.675  25.649  24.593  1.00  0.00    -0.744 OA
ENDBRANCH  84  85
ENDBRANCH  52  77
BRANCH  64  89
ATOM     89  C   UNL A   1      44.193  36.357  29.963  1.00  0.00     0.058 A 
ATOM     90  C   UNL A   1      44.790  37.469  30.573  1.00  0.00     0.135 A 
ATOM     91  C   UNL A   1      43.198  36.665  28.991  1.00  0.00     0.135 A 
ATOM     92  F   UNL A   1      45.847  37.355  31.387  1.00  0.00    -0.206 F 
ATOM     93  C   UNL A   1      44.338  38.763  30.353  1.00  0.00     0.059 A 
ATOM     94  C   UNL A   1      42.839  37.958  28.652  1.00  0.00     0.059 A 
ATOM     95  F   UNL A   1      42.524  35.722  28.317  1.00  0.00    -0.206 F 
ATOM     96  C   UNL A   1      43.360  38.996  29.395  1.00  0.00     0.060 A 
BRANCH  96  97
ATOM     97  S   UNL A   1      42.732  40.656  29.170  1.00  0.00     0.124 S 
ATOM     98  O   UNL A   1      43.975  41.421  29.143  1.00  0.00    -0.237 OA
ATOM     99  O   UNL A   1      42.022  40.558  27.900  1.00  0.00    -0.237 OA
ATOM    100  O   UNL A   1      41.889  40.863  30.342  1.00  0.00    -0.744 OA
ENDBRANCH  96  97
ENDBRANCH  64  89
ENDBRANCH  38  39
ENDBRANCH  31  33
ENDBRANCH  30  31
ENDBRANCH  29  30
ENDBRANCH  28  29
ENDBRANCH  27  28
ENDBRANCH  26  27
ENDBRANCH   1  26
TORSDOF 23
ENDMDL
MODEL 2
REMARK VINA RESULT:     -10.5      3.374     10.009
REMARK SMILES Cc1ccc(Nc2c(C)cccc2Cl)c(CC(=O)OCCOCCOCCOC(=O)c2ccc(-c3c4nc(c(-c5c(F)cc(S(=O)(=O)[O-])cc5F)c5ccc([nH]5)c(-c5c(F)cc(S(=O)(=O)[O-])cc5F)c5nc(c(-c6c(F)cc(S(=O)(=O)[O-])cc6F)c6ccc3[nH]6)C=C5)C=C4)cc2)c1
REMARK SMILES IDX 23 1 22 2 21 3 20 4 19 5 17 6 18 7 16 8 15 9 1 10 2 11 3 12
REMARK SMILES IDX 97 13 4 14 5 15 6 16 7 18 8 19 13 20 9 21 10 22 12 23 14 24
REMARK SMILES IDX 11 25 24 26 25 27 26 28 27 29 28 30 29 31 30 32 31 33 32 34
REMARK SMILES IDX 96 35 33 36 95 37 34 38 35 39 36 40 89 41 37 42 94 43 88 44
REMARK SMILES IDX 90 45 38 46 93 47 87 48 86 49 39 51 73 52 52 53 72 54 53 55
REMARK SMILES IDX 56 56 71 57 91 58 54 59 55 60 70 62 92 63 57 64 40 65 41 66
REMARK SMILES IDX 50 67 42 68 43 69 49 70 51 71 44 72 45 73 46 74 47 75 48 76
REMARK SMILES IDX 74 77 75 78 84 79 76 80 77 81 83 82 85 83 78 84 79 85 80 86
REMARK SMILES IDX 81 87 82 88 58 89 59 90 68 91 60 92 61 93 67 94 69 95 62 96
REMARK SMILES IDX 63 97 64 98 65 99 66 100
REMARK H PARENT 6 17 90 50 56 61
REMARK Flexibility Score: inf
ROOT
ATOM      1  C   UNL A   1      35.155  33.786  30.517  1.00  0.00     0.188 C 
ENDROOT
BRANCH   1   2
ATOM      2  O   UNL A   1      34.920  33.471  29.174  1.00  0.00    -0.376 OA
BRANCH   2   3
ATOM      3  C   UNL A   1      34.761  32.134  28.769  1.00  0.00     0.202 C 
BRANCH   3   4
ATOM      4  C   UNL A   1      33.875  31.362  27.653  1.00  0.00     0.261 C 
BRANCH   4   5
ATOM      5  O   UNL A   1      33.480  29.683  27.056  1.00  0.00    -0.463 OA
BRANCH   5   6
ATOM      6  C   UNL A   1      33.706  28.566  25.864  1.00  0.00     0.310 C 
ATOM      7  O   UNL A   1      34.118  27.395  25.838  1.00  0.00    -0.252 OA
BRANCH   6   8
ATOM      8  C   UNL A   1      33.040  28.913  24.656  1.00  0.00     0.160 C 
BRANCH   8   9
ATOM      9  C   UNL A   1      31.755  28.167  24.814  1.00  0.00    -0.013 A 
ATOM     10  C   UNL A   1      29.195  30.540  23.236  1.00  0.00     0.044 C 
ATOM     11  C   UNL A   1      30.017  29.323  23.496  1.00  0.00    -0.051 A 
ATOM     12  C   UNL A   1      30.131  28.285  22.605  1.00  0.00     0.005 A 
ATOM     13  C   UNL A   1      30.801  29.247  24.624  1.00  0.00     0.009 A 
ATOM     14  C   UNL A   1      30.991  27.188  22.891  1.00  0.00     0.026 A 
ATOM     15  C   UNL A   1      31.792  26.858  24.244  1.00  0.00     0.042 A 
BRANCH  15  16
ATOM     16  N   UNL A   1      32.010  24.988  24.979  1.00  0.00    -0.354 N 
ATOM     17  H   UNL A   1      31.293  24.716  25.596  1.00  0.00     0.167 HD
BRANCH  16  18
ATOM     18  C   UNL A   1      33.301  23.691  24.711  1.00  0.00     0.060 A 
ATOM     19  C   UNL A   1      34.127  22.946  25.840  1.00  0.00    -0.026 A 
ATOM     20  C   UNL A   1      33.917  23.612  23.437  1.00  0.00     0.064 A 
ATOM     21  C   UNL A   1      34.031  22.698  27.371  1.00  0.00     0.046 C 
ATOM     22  C   UNL A   1      35.364  22.308  25.522  1.00  0.00     0.005 A 
ATOM     23  C   UNL A   1      35.208  23.016  23.267  1.00  0.00     0.023 A 
ATOM     24  Cl  UNL A   1      33.231  24.034  21.955  1.00  0.00    -0.082 Cl
ATOM     25  C   UNL A   1      35.926  22.392  24.278  1.00  0.00     0.002 A 
ENDBRANCH  16  18
ENDBRANCH  15  16
ENDBRANCH   8   9
ENDBRANCH   6   8
ENDBRANCH   5   6
ENDBRANCH   4   5
ENDBRANCH   3   4
ENDBRANCH   2   3
ENDBRANCH   1   2
BRANCH   1  26
ATOM     26  C   UNL A   1      35.012  32.699  31.561  1.00  0.00     0.188 C 
BRANCH  26  27
ATOM     27  O   UNL A   1      34.421  33.095  32.775  1.00  0.00    -0.376 OA
BRANCH  27  28
ATOM     28  C   UNL A   1      35.365  33.514  33.753  1.00  0.00     0.202 C 
BRANCH  28  29
ATOM     29  C   UNL A   1      36.906  33.124  33.602  1.00  0.00     0.261 C 
BRANCH  29  30
ATOM     30  O   UNL A   1      37.878  33.841  34.474  1.00  0.00    -0.460 OA
BRANCH  30  31
ATOM     31  C   UNL A   1      38.736  33.286  35.474  1.00  0.00     0.338 C 
ATOM     32  O   UNL A   1      38.260  32.417  36.182  1.00  0.00    -0.246 OA
BRANCH  31  33
ATOM     33  C   UNL A   1      40.402  33.861  35.390  1.00  0.00     0.060 A 
ATOM     34  C   UNL A   1      41.389  35.514  34.956  1.00  0.00     0.016 A 
ATOM     35  C   UNL A   1      40.514  32.622  34.077  1.00  0.00     0.016 A 
ATOM     36  C   UNL A   1      42.096  35.725  33.213  1.00  0.00     0.010 A 
ATOM     37  C   UNL A   1      41.094  33.012  32.481  1.00  0.00     0.010 A 
ATOM     38  C   UNL A   1      41.925  34.482  31.893  1.00  0.00    -0.014 A 
BRANCH  38  39
ATOM     39  C   UNL A   1      42.712  34.267  30.179  1.00  0.00     0.031 A 
ATOM     40  C   UNL A   1      43.315  32.627  29.366  1.00  0.00     0.074 A 
ATOM     41  C   UNL A   1      42.671  35.227  29.231  1.00  0.00     0.049 A 
ATOM     42  N   UNL A   1      44.560  32.238  29.123  1.00  0.00    -0.248 NA
ATOM     43  C   UNL A   1      42.545  31.127  29.374  1.00  0.00     0.031 C 
ATOM     44  C   UNL A   1      42.869  35.056  27.783  1.00  0.00     0.029 A 
ATOM     45  N   UNL A   1      42.317  36.564  29.331  1.00  0.00    -0.354 N 
ATOM     46  C   UNL A   1      44.539  30.824  28.855  1.00  0.00     0.074 A 
ATOM     47  C   UNL A   1      43.503  30.260  29.615  1.00  0.00     0.031 C 
ATOM     48  C   UNL A   1      42.984  36.268  27.205  1.00  0.00     0.029 A 
ATOM     49  C   UNL A   1      42.960  37.242  28.282  1.00  0.00     0.049 A 
ATOM     50  H   UNL A   1      41.727  36.964  30.010  1.00  0.00     0.167 HD
ATOM     51  C   UNL A   1      44.773  30.291  27.608  1.00  0.00     0.037 A 
ATOM     52  C   UNL A   1      43.967  38.068  28.662  1.00  0.00     0.037 A 
ATOM     53  C   UNL A   1      45.022  31.419  26.737  1.00  0.00     0.049 A 
ATOM     54  C   UNL A   1      45.271  37.358  28.318  1.00  0.00     0.074 A 
ATOM     55  C   UNL A   1      44.266  32.113  25.811  1.00  0.00     0.029 A 
ATOM     56  N   UNL A   1      46.005  32.290  27.163  1.00  0.00    -0.354 N 
ATOM     57  N   UNL A   1      45.397  36.052  28.206  1.00  0.00    -0.248 NA
ATOM     58  C   UNL A   1      46.433  38.062  27.784  1.00  0.00     0.031 C 
ATOM     59  C   UNL A   1      44.813  33.437  25.723  1.00  0.00     0.029 A 
ATOM     60  C   UNL A   1      45.854  33.550  26.635  1.00  0.00     0.049 A 
ATOM     61  H   UNL A   1      46.731  32.037  27.777  1.00  0.00     0.167 HD
ATOM     62  C   UNL A   1      46.525  35.751  27.493  1.00  0.00     0.074 A 
ATOM     63  C   UNL A   1      47.158  37.043  27.288  1.00  0.00     0.031 C 
ATOM     64  C   UNL A   1      46.875  34.525  26.991  1.00  0.00     0.037 A 
BRANCH  51  65
ATOM     65  C   UNL A   1      44.381  28.852  27.161  1.00  0.00     0.058 A 
ATOM     66  C   UNL A   1      45.149  27.745  27.574  1.00  0.00     0.135 A 
ATOM     67  C   UNL A   1      43.248  28.485  26.373  1.00  0.00     0.135 A 
ATOM     68  F   UNL A   1      46.233  27.908  28.342  1.00  0.00    -0.206 F 
ATOM     69  C   UNL A   1      44.835  26.414  27.248  1.00  0.00     0.059 A 
ATOM     70  C   UNL A   1      42.955  27.167  25.972  1.00  0.00     0.059 A 
ATOM     71  F   UNL A   1      42.324  29.383  25.997  1.00  0.00    -0.206 F 
ATOM     72  C   UNL A   1      43.736  26.128  26.449  1.00  0.00     0.060 A 
BRANCH  72  73
ATOM     73  S   UNL A   1      43.296  24.401  26.137  1.00  0.00     0.124 S 
ATOM     74  O   UNL A   1      43.725  24.214  24.755  1.00  0.00    -0.237 OA
ATOM     75  O   UNL A   1      44.086  23.704  27.147  1.00  0.00    -0.237 OA
ATOM     76  O   UNL A   1      41.850  24.369  26.345  1.00  0.00    -0.744 OA
ENDBRANCH  72  73
ENDBRANCH  51  65
BRANCH  52  77
ATOM     77  C   UNL A   1      43.460  38.892  29.829  1.00  0.00     0.058 A 
ATOM     78  C   UNL A   1      44.121  38.668  31.075  1.00  0.00     0.135 A 
ATOM     79  C   UNL A   1      42.778  40.116  29.726  1.00  0.00     0.135 A 
ATOM     80  F   UNL A   1      44.891  37.575  31.231  1.00  0.00    -0.206 F 
ATOM     81  C   UNL A   1      44.109  39.579  32.136  1.00  0.00     0.059 A 
ATOM     82  C   UNL A   1      42.734  41.041  30.796  1.00  0.00     0.059 A 
ATOM     83  F   UNL A   1      42.210  40.476  28.566  1.00  0.00    -0.206 F 
ATOM     84  C   UNL A   1      43.365  40.743  32.010  1.00  0.00     0.060 A 
BRANCH  84  85
ATOM     85  S   UNL A   1      43.169  41.810  33.472  1.00  0.00     0.124 S 
ATOM     86  O   UNL A   1      44.215  41.292  34.346  1.00  0.00    -0.237 OA
ATOM     87  O   UNL A   1      43.418  43.157  32.960  1.00  0.00    -0.237 OA
ATOM     88  O   UNL A   1      41.805  41.539  33.909  1.00  0.00    -0.744 OA
ENDBRANCH  84  85
ENDBRANCH  52  77
BRANCH  64  89
ATOM     89  C   UNL A   1      48.326  34.096  26.831  1.00  0.00     0.058 A 
ATOM     90  C   UNL A   1      49.090  34.407  25.698  1.00  0.00     0.135 A 
ATOM     91  C   UNL A   1      49.058  33.528  27.913  1.00  0.00     0.135 A 
ATOM     92  F   UNL A   1      48.584  35.088  24.661  1.00  0.00    -0.206 F 
ATOM     93  C   UNL A   1      50.427  34.050  25.587  1.00  0.00     0.059 A 
ATOM     94  C   UNL A   1      50.423  33.302  27.875  1.00  0.00     0.059 A 
ATOM     95  F   UNL A   1      48.482  33.167  29.070  1.00  0.00    -0.206 F 
ATOM     96  C   UNL A   1      51.082  33.494  26.679  1.00  0.00     0.060 A 
BRANCH  96  97
ATOM     97  S   UNL A   1      52.784  32.970  26.505  1.00  0.00     0.124 S 
ATOM     98  O   UNL A   1      53.014  32.344  27.803  1.00  0.00    -0.237 OA
ATOM     99  O   UNL A   1      52.722  32.063  25.365  1.00  0.00    -0.237 OA
ATOM    100  O   UNL A   1      53.502  34.219  26.271  1.00  0.00    -0.744 OA
ENDBRANCH  96  97
ENDBRANCH  64  89
ENDBRANCH  38  39
ENDBRANCH  31  33
ENDBRANCH  30  31
ENDBRANCH  29  30
ENDBRANCH  28  29
ENDBRANCH  27  28
ENDBRANCH  26  27
ENDBRANCH   1  26
TORSDOF 23
ENDMDL
MODEL 3
REMARK VINA RESULT:     -10.2      6.527     14.893
REMARK SMILES Cc1ccc(Nc2c(C)cccc2Cl)c(CC(=O)OCCOCCOCCOC(=O)c2ccc(-c3c4nc(c(-c5c(F)cc(S(=O)(=O)[O-])cc5F)c5ccc([nH]5)c(-c5c(F)cc(S(=O)(=O)[O-])cc5F)c5nc(c(-c6c(F)cc(S(=O)(=O)[O-])cc6F)c6ccc3[nH]6)C=C5)C=C4)cc2)c1
REMARK SMILES IDX 23 1 22 2 21 3 20 4 19 5 17 6 18 7 16 8 15 9 1 10 2 11 3 12
REMARK SMILES IDX 97 13 4 14 5 15 6 16 7 18 8 19 13 20 9 21 10 22 12 23 14 24
REMARK SMILES IDX 11 25 24 26 25 27 26 28 27 29 28 30 29 31 30 32 31 33 32 34
REMARK SMILES IDX 96 35 33 36 95 37 34 38 35 39 36 40 89 41 37 42 94 43 88 44
REMARK SMILES IDX 90 45 38 46 93 47 87 48 86 49 39 51 73 52 52 53 72 54 53 55
REMARK SMILES IDX 56 56 71 57 91 58 54 59 55 60 70 62 92 63 57 64 40 65 41 66
REMARK SMILES IDX 50 67 42 68 43 69 49 70 51 71 44 72 45 73 46 74 47 75 48 76
REMARK SMILES IDX 74 77 75 78 84 79 76 80 77 81 83 82 85 83 78 84 79 85 80 86
REMARK SMILES IDX 81 87 82 88 58 89 59 90 68 91 60 92 61 93 67 94 69 95 62 96
REMARK SMILES IDX 63 97 64 98 65 99 66 100
REMARK H PARENT 6 17 90 50 56 61
REMARK Flexibility Score: inf
ROOT
ATOM      1  C   UNL A   1      44.585  40.625  28.738  1.00  0.00     0.188 C 
ENDROOT
BRANCH   1   2
ATOM      2  O   UNL A   1      45.248  41.533  27.906  1.00  0.00    -0.376 OA
BRANCH   2   3
ATOM      3  C   UNL A   1      45.088  42.919  28.087  1.00  0.00     0.202 C 
BRANCH   3   4
ATOM      4  C   UNL A   1      45.159  44.225  27.130  1.00  0.00     0.261 C 
BRANCH   4   5
ATOM      5  O   UNL A   1      45.872  44.798  25.550  1.00  0.00    -0.463 OA
BRANCH   5   6
ATOM      6  C   UNL A   1      45.619  45.019  23.935  1.00  0.00     0.310 C 
ATOM      7  O   UNL A   1      46.330  44.918  22.923  1.00  0.00    -0.252 OA
BRANCH   6   8
ATOM      8  C   UNL A   1      44.237  45.070  23.601  1.00  0.00     0.160 C 
BRANCH   8   9
ATOM      9  C   UNL A   1      44.088  43.813  22.808  1.00  0.00    -0.013 A 
ATOM     10  C   UNL A   1      42.442  41.422  25.307  1.00  0.00     0.044 C 
ATOM     11  C   UNL A   1      42.670  42.249  24.087  1.00  0.00    -0.051 A 
ATOM     12  C   UNL A   1      41.681  42.548  23.183  1.00  0.00     0.005 A 
ATOM     13  C   UNL A   1      43.889  42.850  23.879  1.00  0.00     0.009 A 
ATOM     14  C   UNL A   1      41.957  43.404  22.081  1.00  0.00     0.026 A 
ATOM     15  C   UNL A   1      43.366  44.000  21.590  1.00  0.00     0.042 A 
BRANCH  15  16
ATOM     16  N   UNL A   1      43.877  44.187  19.644  1.00  0.00    -0.354 N 
ATOM     17  H   UNL A   1      44.066  43.331  19.197  1.00  0.00     0.167 HD
BRANCH  16  18
ATOM     18  C   UNL A   1      44.055  45.663  18.544  1.00  0.00     0.060 A 
ATOM     19  C   UNL A   1      44.542  47.106  18.985  1.00  0.00    -0.026 A 
ATOM     20  C   UNL A   1      43.346  45.675  17.317  1.00  0.00     0.064 A 
ATOM     21  C   UNL A   1      45.299  47.758  20.177  1.00  0.00     0.046 C 
ATOM     22  C   UNL A   1      44.233  48.245  18.183  1.00  0.00     0.005 A 
ATOM     23  C   UNL A   1      43.024  46.903  16.652  1.00  0.00     0.023 A 
ATOM     24  Cl  UNL A   1      42.908  44.336  16.391  1.00  0.00    -0.082 Cl
ATOM     25  C   UNL A   1      43.439  48.158  17.073  1.00  0.00     0.002 A 
ENDBRANCH  16  18
ENDBRANCH  15  16
ENDBRANCH   8   9
ENDBRANCH   6   8
ENDBRANCH   5   6
ENDBRANCH   4   5
ENDBRANCH   3   4
ENDBRANCH   2   3
ENDBRANCH   1   2
BRANCH   1  26
ATOM     26  C   UNL A   1      44.521  39.168  28.329  1.00  0.00     0.188 C 
BRANCH  26  27
ATOM     27  O   UNL A   1      44.756  38.908  26.967  1.00  0.00    -0.376 OA
BRANCH  27  28
ATOM     28  C   UNL A   1      45.308  37.619  26.724  1.00  0.00     0.202 C 
BRANCH  28  29
ATOM     29  C   UNL A   1      45.187  36.472  27.828  1.00  0.00     0.261 C 
BRANCH  29  30
ATOM     30  O   UNL A   1      43.880  35.764  27.933  1.00  0.00    -0.460 OA
BRANCH  30  31
ATOM     31  C   UNL A   1      42.691  36.211  28.589  1.00  0.00     0.338 C 
ATOM     32  O   UNL A   1      41.894  36.835  27.912  1.00  0.00    -0.246 OA
BRANCH  31  33
ATOM     33  C   UNL A   1      42.522  35.627  30.245  1.00  0.00     0.060 A 
ATOM     34  C   UNL A   1      43.663  35.192  31.796  1.00  0.00     0.016 A 
ATOM     35  C   UNL A   1      41.896  34.150  29.411  1.00  0.00     0.016 A 
ATOM     36  C   UNL A   1      44.165  33.391  32.085  1.00  0.00     0.010 A 
ATOM     37  C   UNL A   1      42.550  32.564  29.717  1.00  0.00     0.010 A 
ATOM     38  C   UNL A   1      43.654  32.012  31.010  1.00  0.00    -0.014 A 
BRANCH  38  39
ATOM     39  C   UNL A   1      43.755  30.122  31.159  1.00  0.00     0.031 A 
ATOM     40  C   UNL A   1      45.338  29.026  31.079  1.00  0.00     0.074 A 
ATOM     41  C   UNL A   1      42.734  29.371  31.624  1.00  0.00     0.049 A 
ATOM     42  N   UNL A   1      45.710  28.187  30.121  1.00  0.00    -0.248 NA
ATOM     43  C   UNL A   1      46.835  29.321  31.797  1.00  0.00     0.031 C 
ATOM     44  C   UNL A   1      42.809  28.002  32.158  1.00  0.00     0.029 A 
ATOM     45  N   UNL A   1      41.407  29.707  31.841  1.00  0.00    -0.354 N 
ATOM     46  C   UNL A   1      47.103  27.882  30.314  1.00  0.00     0.074 A 
ATOM     47  C   UNL A   1      47.716  29.015  30.870  1.00  0.00     0.031 C 
ATOM     48  C   UNL A   1      41.562  27.511  32.299  1.00  0.00     0.029 A 
ATOM     49  C   UNL A   1      40.661  28.518  31.766  1.00  0.00     0.049 A 
ATOM     50  H   UNL A   1      41.052  30.608  32.016  1.00  0.00     0.167 HD
ATOM     51  C   UNL A   1      47.552  26.649  30.732  1.00  0.00     0.037 A 
ATOM     52  C   UNL A   1      39.862  28.409  30.675  1.00  0.00     0.037 A 
ATOM     53  C   UNL A   1      46.370  25.834  30.900  1.00  0.00     0.049 A 
ATOM     54  C   UNL A   1      40.548  27.435  29.724  1.00  0.00     0.074 A 
ATOM     55  C   UNL A   1      45.616  25.434  31.987  1.00  0.00     0.029 A 
ATOM     56  N   UNL A   1      45.529  25.779  29.806  1.00  0.00    -0.354 N 
ATOM     57  N   UNL A   1      41.844  27.200  29.710  1.00  0.00    -0.248 NA
ATOM     58  C   UNL A   1      39.811  26.445  28.945  1.00  0.00     0.031 C 
ATOM     59  C   UNL A   1      44.289  25.168  31.508  1.00  0.00     0.029 A 
ATOM     60  C   UNL A   1      44.237  25.463  30.153  1.00  0.00     0.049 A 
ATOM     61  H   UNL A   1      45.822  25.947  28.882  1.00  0.00     0.167 HD
ATOM     62  C   UNL A   1      42.098  26.013  29.080  1.00  0.00     0.074 A 
ATOM     63  C   UNL A   1      40.795  25.601  28.584  1.00  0.00     0.031 C 
ATOM     64  C   UNL A   1      43.288  25.335  29.057  1.00  0.00     0.037 A 
BRANCH  51  65
ATOM     65  C   UNL A   1      48.959  26.367  31.338  1.00  0.00     0.058 A 
ATOM     66  C   UNL A   1      50.050  26.071  30.495  1.00  0.00     0.135 A 
ATOM     67  C   UNL A   1      49.315  26.415  32.719  1.00  0.00     0.135 A 
ATOM     68  F   UNL A   1      49.897  26.012  29.167  1.00  0.00    -0.206 F 
ATOM     69  C   UNL A   1      51.357  25.847  30.963  1.00  0.00     0.059 A 
ATOM     70  C   UNL A   1      50.600  26.122  33.217  1.00  0.00     0.059 A 
ATOM     71  F   UNL A   1      48.447  26.810  33.663  1.00  0.00    -0.206 F 
ATOM     72  C   UNL A   1      51.629  25.876  32.324  1.00  0.00     0.060 A 
BRANCH  72  73
ATOM     73  S   UNL A   1      53.339  25.692  32.887  1.00  0.00     0.124 S 
ATOM     74  O   UNL A   1      53.330  26.415  34.154  1.00  0.00    -0.237 OA
ATOM     75  O   UNL A   1      53.467  24.242  32.984  1.00  0.00    -0.237 OA
ATOM     76  O   UNL A   1      54.122  26.318  31.824  1.00  0.00    -0.744 OA
ENDBRANCH  72  73
ENDBRANCH  51  65
BRANCH  52  77
ATOM     77  C   UNL A   1      39.117  29.720  30.526  1.00  0.00     0.058 A 
ATOM     78  C   UNL A   1      39.202  30.335  29.240  1.00  0.00     0.135 A 
ATOM     79  C   UNL A   1      38.030  30.134  31.315  1.00  0.00     0.135 A 
ATOM     80  F   UNL A   1      40.144  29.926  28.370  1.00  0.00    -0.206 F 
ATOM     81  C   UNL A   1      38.289  31.284  28.770  1.00  0.00     0.059 A 
ATOM     82  C   UNL A   1      37.108  31.108  30.867  1.00  0.00     0.059 A 
ATOM     83  F   UNL A   1      37.794  29.547  32.497  1.00  0.00    -0.206 F 
ATOM     84  C   UNL A   1      37.272  31.708  29.613  1.00  0.00     0.060 A 
BRANCH  84  85
ATOM     85  S   UNL A   1      36.229  33.102  29.080  1.00  0.00     0.124 S 
ATOM     86  O   UNL A   1      35.124  33.012  30.028  1.00  0.00    -0.237 OA
ATOM     87  O   UNL A   1      37.087  34.272  29.258  1.00  0.00    -0.237 OA
ATOM     88  O   UNL A   1      35.893  32.765  27.701  1.00  0.00    -0.744 OA
ENDBRANCH  84  85
ENDBRANCH  52  77
BRANCH  64  89
ATOM     89  C   UNL A   1      43.706  24.466  27.880  1.00  0.00     0.058 A 
ATOM     90  C   UNL A   1      43.548  23.073  27.870  1.00  0.00     0.135 A 
ATOM     91  C   UNL A   1      44.094  25.037  26.634  1.00  0.00     0.135 A 
ATOM     92  F   UNL A   1      43.036  22.405  28.912  1.00  0.00    -0.206 F 
ATOM     93  C   UNL A   1      43.890  22.299  26.769  1.00  0.00     0.059 A 
ATOM     94  C   UNL A   1      44.295  24.293  25.484  1.00  0.00     0.059 A 
ATOM     95  F   UNL A   1      44.294  26.353  26.468  1.00  0.00    -0.206 F 
ATOM     96  C   UNL A   1      44.266  22.918  25.584  1.00  0.00     0.060 A 
BRANCH  96  97
ATOM     97  S   UNL A   1      44.774  21.912  24.194  1.00  0.00     0.124 S 
ATOM     98  O   UNL A   1      44.265  20.605  24.598  1.00  0.00    -0.237 OA
ATOM     99  O   UNL A   1      44.083  22.544  23.076  1.00  0.00    -0.237 OA
ATOM    100  O   UNL A   1      46.227  22.049  24.188  1.00  0.00    -0.744 OA
ENDBRANCH  96  97
ENDBRANCH  64  89
ENDBRANCH  38  39
ENDBRANCH  31  33
ENDBRANCH  30  31
ENDBRANCH  29  30
ENDBRANCH  28  29
ENDBRANCH  27  28
ENDBRANCH  26  27
ENDBRANCH   1  26
TORSDOF 23
ENDMDL
