MODEL 1
REMARK VINA RESULT:     -10.2      0.000      0.000
REMARK SMILES COc1ccc(C(F)(F)F)cc1-c1cccnc1C(=O)OCCOCCOCCOC(=O)c1ccc(-c2c3nc(c(-c4c(F)cc(S(=O)(=O)[O-])cc4F)c4ccc([nH]4)c(-c4c(F)cc(S(=O)(=O)[O-])cc4F)c4nc(c(-c5c(F)cc(S(=O)(=O)[O-])cc5F)c5ccc2[nH]5)C=C4)C=C3)cc1
REMARK SMILES IDX 26 1 25 2 24 3 23 4 22 5 21 6 19 7 20 8 18 9 13 10 14 11
REMARK SMILES IDX 15 12 17 13 16 14 12 15 3 16 4 17 5 18 11 19 6 20 2 21 1 22
REMARK SMILES IDX 7 23 8 24 9 25 10 26 27 27 28 28 29 29 30 30 31 31 32 32
REMARK SMILES IDX 33 33 34 34 98 35 35 36 97 37 36 38 37 39 38 40 91 41 39 42
REMARK SMILES IDX 96 43 90 44 92 45 40 46 95 47 89 48 88 49 41 51 75 52 54 53
REMARK SMILES IDX 74 54 55 55 58 56 73 57 93 58 56 59 57 60 72 62 94 63 59 64
REMARK SMILES IDX 42 65 43 66 52 67 44 68 45 69 51 70 53 71 46 72 47 73 48 74
REMARK SMILES IDX 49 75 50 76 76 77 77 78 86 79 78 80 79 81 85 82 87 83 80 84
REMARK SMILES IDX 81 85 82 86 83 87 84 88 60 89 61 90 70 91 62 92 63 93 69 94
REMARK SMILES IDX 71 95 64 96 65 97 66 98 67 99 68 100
REMARK H PARENT 92 50 58 61
REMARK Flexibility Score: inf
ROOT
ATOM      1  C   UNL A   1      31.401  29.222  24.909  1.00  0.00     0.188 C 
ENDROOT
BRANCH   1   2
ATOM      2  C   UNL A   1      31.120  28.089  23.900  1.00  0.00     0.188 C 
BRANCH   2   3
ATOM      3  O   UNL A   1      32.210  27.552  23.157  1.00  0.00    -0.376 OA
BRANCH   3   4
ATOM      4  C   UNL A   1      31.939  26.915  21.912  1.00  0.00     0.202 C 
BRANCH   4   5
ATOM      5  C   UNL A   1      32.834  25.735  21.523  1.00  0.00     0.261 C 
BRANCH   5   6
ATOM      6  O   UNL A   1      33.353  25.059  22.681  1.00  0.00    -0.458 OA
BRANCH   6   7
ATOM      7  C   UNL A   1      32.896  23.797  22.883  1.00  0.00     0.357 C 
ATOM      8  O   UNL A   1      32.992  22.873  22.091  1.00  0.00    -0.244 OA
BRANCH   7   9
ATOM      9  C   UNL A   1      32.278  23.662  24.243  1.00  0.00     0.156 A 
ATOM     10  C   UNL A   1      32.782  22.816  25.254  1.00  0.00     0.019 A 
ATOM     11  C   UNL A   1      32.142  22.936  26.503  1.00  0.00     0.013 A 
ATOM     12  C   UNL A   1      31.039  23.772  26.681  1.00  0.00     0.021 A 
ATOM     13  N   UNL A   1      31.196  24.482  24.400  1.00  0.00    -0.249 NA
ATOM     14  C   UNL A   1      30.595  24.507  25.602  1.00  0.00     0.112 A 
BRANCH  10  15
ATOM     15  C   UNL A   1      33.855  21.809  25.051  1.00  0.00     0.027 A 
ATOM     16  C   UNL A   1      35.220  22.086  25.289  1.00  0.00     0.126 A 
ATOM     17  C   UNL A   1      36.194  21.082  25.224  1.00  0.00     0.048 A 
ATOM     18  C   UNL A   1      35.824  19.765  24.962  1.00  0.00     0.017 A 
ATOM     19  C   UNL A   1      33.534  20.486  24.684  1.00  0.00     0.025 A 
ATOM     20  C   UNL A   1      34.487  19.452  24.694  1.00  0.00     0.056 A 
BRANCH  16  21
ATOM     21  O   UNL A   1      35.687  23.365  25.479  1.00  0.00    -0.496 OA
ATOM     22  C   UNL A   1      37.094  23.393  25.715  1.00  0.00     0.278 C 
ENDBRANCH  16  21
BRANCH  20  23
ATOM     23  C   UNL A   1      34.073  18.023  24.447  1.00  0.00     0.416 C 
ATOM     24  F   UNL A   1      35.133  17.211  24.183  1.00  0.00    -0.166 F 
ATOM     25  F   UNL A   1      33.439  17.472  25.521  1.00  0.00    -0.166 F 
ATOM     26  F   UNL A   1      33.216  17.875  23.399  1.00  0.00    -0.166 F 
ENDBRANCH  20  23
ENDBRANCH  10  15
ENDBRANCH   7   9
ENDBRANCH   6   7
ENDBRANCH   5   6
ENDBRANCH   4   5
ENDBRANCH   3   4
ENDBRANCH   2   3
ENDBRANCH   1   2
BRANCH   1  27
ATOM     27  O   UNL A   1      31.505  28.803  26.262  1.00  0.00    -0.376 OA
BRANCH  27  28
ATOM     28  C   UNL A   1      31.649  29.837  27.226  1.00  0.00     0.202 C 
BRANCH  28  29
ATOM     29  C   UNL A   1      32.823  30.795  26.984  1.00  0.00     0.261 C 
BRANCH  29  30
ATOM     30  O   UNL A   1      34.118  30.288  27.347  1.00  0.00    -0.460 OA
BRANCH  30  31
ATOM     31  C   UNL A   1      34.820  30.981  28.271  1.00  0.00     0.338 C 
ATOM     32  O   UNL A   1      34.405  31.874  28.990  1.00  0.00    -0.246 OA
BRANCH  31  33
ATOM     33  C   UNL A   1      36.137  30.326  28.416  1.00  0.00     0.060 A 
ATOM     34  C   UNL A   1      36.500  29.800  29.662  1.00  0.00     0.016 A 
ATOM     35  C   UNL A   1      37.000  30.216  27.323  1.00  0.00     0.016 A 
ATOM     36  C   UNL A   1      37.747  29.194  29.826  1.00  0.00     0.010 A 
ATOM     37  C   UNL A   1      38.253  29.623  27.491  1.00  0.00     0.010 A 
ATOM     38  C   UNL A   1      38.646  29.139  28.751  1.00  0.00    -0.014 A 
BRANCH  38  39
ATOM     39  C   UNL A   1      40.063  28.772  28.989  1.00  0.00     0.031 A 
ATOM     40  C   UNL A   1      40.963  29.797  29.625  1.00  0.00     0.074 A 
ATOM     41  C   UNL A   1      40.544  27.559  28.662  1.00  0.00     0.049 A 
ATOM     42  N   UNL A   1      42.236  29.723  29.912  1.00  0.00    -0.248 NA
ATOM     43  C   UNL A   1      40.336  31.080  29.985  1.00  0.00     0.031 C 
ATOM     44  C   UNL A   1      39.769  26.470  28.072  1.00  0.00     0.029 A 
ATOM     45  N   UNL A   1      41.811  27.046  28.781  1.00  0.00    -0.354 N 
ATOM     46  C   UNL A   1      42.564  30.945  30.488  1.00  0.00     0.074 A 
ATOM     47  C   UNL A   1      41.364  31.755  30.476  1.00  0.00     0.031 C 
ATOM     48  C   UNL A   1      40.582  25.416  27.874  1.00  0.00     0.029 A 
ATOM     49  C   UNL A   1      41.937  25.764  28.301  1.00  0.00     0.049 A 
ATOM     50  H   UNL A   1      42.562  27.548  29.175  1.00  0.00     0.167 HD
ATOM     51  C   UNL A   1      43.752  31.356  30.990  1.00  0.00     0.037 A 
ATOM     52  C   UNL A   1      43.023  24.972  28.206  1.00  0.00     0.037 A 
ATOM     53  C   UNL A   1      44.949  30.559  30.984  1.00  0.00     0.049 A 
ATOM     54  C   UNL A   1      44.355  25.475  28.705  1.00  0.00     0.074 A 
ATOM     55  C   UNL A   1      46.205  30.887  31.462  1.00  0.00     0.029 A 
ATOM     56  N   UNL A   1      45.041  29.277  30.463  1.00  0.00    -0.354 N 
ATOM     57  N   UNL A   1      44.647  26.626  29.264  1.00  0.00    -0.248 NA
ATOM     58  C   UNL A   1      45.504  24.569  28.566  1.00  0.00     0.031 C 
ATOM     59  C   UNL A   1      47.067  29.816  31.195  1.00  0.00     0.029 A 
ATOM     60  C   UNL A   1      46.336  28.805  30.594  1.00  0.00     0.049 A 
ATOM     61  H   UNL A   1      44.296  28.777  30.059  1.00  0.00     0.167 HD
ATOM     62  C   UNL A   1      46.003  26.567  29.575  1.00  0.00     0.074 A 
ATOM     63  C   UNL A   1      46.473  25.267  29.142  1.00  0.00     0.031 C 
ATOM     64  C   UNL A   1      46.786  27.502  30.171  1.00  0.00     0.037 A 
BRANCH  51  65
ATOM     65  C   UNL A   1      43.807  32.744  31.565  1.00  0.00     0.058 A 
ATOM     66  C   UNL A   1      43.517  32.993  32.916  1.00  0.00     0.135 A 
ATOM     67  C   UNL A   1      44.137  33.839  30.751  1.00  0.00     0.135 A 
ATOM     68  F   UNL A   1      43.173  31.983  33.731  1.00  0.00    -0.206 F 
ATOM     69  C   UNL A   1      43.515  34.284  33.432  1.00  0.00     0.059 A 
ATOM     70  C   UNL A   1      44.167  35.138  31.253  1.00  0.00     0.059 A 
ATOM     71  F   UNL A   1      44.418  33.657  29.452  1.00  0.00    -0.206 F 
ATOM     72  C   UNL A   1      43.834  35.350  32.591  1.00  0.00     0.060 A 
BRANCH  72  73
ATOM     73  S   UNL A   1      43.799  37.025  33.267  1.00  0.00     0.124 S 
ATOM     74  O   UNL A   1      43.745  37.827  32.048  1.00  0.00    -0.237 OA
ATOM     75  O   UNL A   1      42.583  37.013  34.072  1.00  0.00    -0.237 OA
ATOM     76  O   UNL A   1      45.047  37.111  34.021  1.00  0.00    -0.744 OA
ENDBRANCH  72  73
ENDBRANCH  51  65
BRANCH  52  77
ATOM     77  C   UNL A   1      42.901  23.609  27.625  1.00  0.00     0.058 A 
ATOM     78  C   UNL A   1      43.069  23.392  26.249  1.00  0.00     0.135 A 
ATOM     79  C   UNL A   1      42.612  22.496  28.430  1.00  0.00     0.135 A 
ATOM     80  F   UNL A   1      43.331  24.427  25.436  1.00  0.00    -0.206 F 
ATOM     81  C   UNL A   1      42.945  22.125  25.689  1.00  0.00     0.059 A 
ATOM     82  C   UNL A   1      42.505  21.214  27.897  1.00  0.00     0.059 A 
ATOM     83  F   UNL A   1      42.445  22.649  29.753  1.00  0.00    -0.206 F 
ATOM     84  C   UNL A   1      42.665  21.040  26.523  1.00  0.00     0.060 A 
BRANCH  84  85
ATOM     85  S   UNL A   1      42.555  19.392  25.791  1.00  0.00     0.124 S 
ATOM     86  O   UNL A   1      42.919  18.545  26.921  1.00  0.00    -0.237 OA
ATOM     87  O   UNL A   1      41.157  19.334  25.374  1.00  0.00    -0.237 OA
ATOM     88  O   UNL A   1      43.526  19.444  24.702  1.00  0.00    -0.744 OA
ENDBRANCH  84  85
ENDBRANCH  52  77
BRANCH  64  89
ATOM     89  C   UNL A   1      48.221  27.138  30.441  1.00  0.00     0.058 A 
ATOM     90  C   UNL A   1      49.265  27.573  29.610  1.00  0.00     0.135 A 
ATOM     91  C   UNL A   1      48.558  26.390  31.581  1.00  0.00     0.135 A 
ATOM     92  F   UNL A   1      48.999  28.288  28.507  1.00  0.00    -0.206 F 
ATOM     93  C   UNL A   1      50.592  27.256  29.887  1.00  0.00     0.059 A 
ATOM     94  C   UNL A   1      49.879  26.084  31.891  1.00  0.00     0.059 A 
ATOM     95  F   UNL A   1      47.598  25.963  32.417  1.00  0.00    -0.206 F 
ATOM     96  C   UNL A   1      50.889  26.511  31.031  1.00  0.00     0.060 A 
BRANCH  96  97
ATOM     97  S   UNL A   1      52.616  26.131  31.398  1.00  0.00     0.124 S 
ATOM     98  O   UNL A   1      53.008  27.287  32.198  1.00  0.00    -0.237 OA
ATOM     99  O   UNL A   1      52.513  24.867  32.120  1.00  0.00    -0.237 OA
ATOM    100  O   UNL A   1      53.232  26.042  30.078  1.00  0.00    -0.744 OA
ENDBRANCH  96  97
ENDBRANCH  64  89
ENDBRANCH  38  39
ENDBRANCH  31  33
ENDBRANCH  30  31
ENDBRANCH  29  30
ENDBRANCH  28  29
ENDBRANCH  27  28
ENDBRANCH   1  27
TORSDOF 23
ENDMDL
MODEL 2
REMARK VINA RESULT:     -10.2      4.713     10.606
REMARK SMILES COc1ccc(C(F)(F)F)cc1-c1cccnc1C(=O)OCCOCCOCCOC(=O)c1ccc(-c2c3nc(c(-c4c(F)cc(S(=O)(=O)[O-])cc4F)c4ccc([nH]4)c(-c4c(F)cc(S(=O)(=O)[O-])cc4F)c4nc(c(-c5c(F)cc(S(=O)(=O)[O-])cc5F)c5ccc2[nH]5)C=C4)C=C3)cc1
REMARK SMILES IDX 26 1 25 2 24 3 23 4 22 5 21 6 19 7 20 8 18 9 13 10 14 11
REMARK SMILES IDX 15 12 17 13 16 14 12 15 3 16 4 17 5 18 11 19 6 20 2 21 1 22
REMARK SMILES IDX 7 23 8 24 9 25 10 26 27 27 28 28 29 29 30 30 31 31 32 32
REMARK SMILES IDX 33 33 34 34 98 35 35 36 97 37 36 38 37 39 38 40 91 41 39 42
REMARK SMILES IDX 96 43 90 44 92 45 40 46 95 47 89 48 88 49 41 51 75 52 54 53
REMARK SMILES IDX 74 54 55 55 58 56 73 57 93 58 56 59 57 60 72 62 94 63 59 64
REMARK SMILES IDX 42 65 43 66 52 67 44 68 45 69 51 70 53 71 46 72 47 73 48 74
REMARK SMILES IDX 49 75 50 76 76 77 77 78 86 79 78 80 79 81 85 82 87 83 80 84
REMARK SMILES IDX 81 85 82 86 83 87 84 88 60 89 61 90 70 91 62 92 63 93 69 94
REMARK SMILES IDX 71 95 64 96 65 97 66 98 67 99 68 100
REMARK H PARENT 92 50 58 61
REMARK Flexibility Score: inf
ROOT
ATOM      1  C   UNL A   1      40.701  20.508  26.595  1.00  0.00     0.188 C 
ENDROOT
BRANCH   1   2
ATOM      2  C   UNL A   1      40.149  21.875  26.139  1.00  0.00     0.188 C 
BRANCH   2   3
ATOM      3  O   UNL A   1      38.880  22.296  26.630  1.00  0.00    -0.376 OA
BRANCH   3   4
ATOM      4  C   UNL A   1      37.758  22.244  25.753  1.00  0.00     0.202 C 
BRANCH   4   5
ATOM      5  C   UNL A   1      37.262  23.572  25.175  1.00  0.00     0.261 C 
BRANCH   5   6
ATOM      6  O   UNL A   1      35.828  23.664  25.210  1.00  0.00    -0.458 OA
BRANCH   6   7
ATOM      7  C   UNL A   1      35.199  23.537  24.015  1.00  0.00     0.357 C 
ATOM      8  O   UNL A   1      35.749  23.444  22.929  1.00  0.00    -0.244 OA
BRANCH   7   9
ATOM      9  C   UNL A   1      33.710  23.486  24.195  1.00  0.00     0.156 A 
ATOM     10  C   UNL A   1      32.865  24.609  24.075  1.00  0.00     0.019 A 
ATOM     11  C   UNL A   1      31.486  24.326  24.144  1.00  0.00     0.013 A 
ATOM     12  C   UNL A   1      31.018  23.037  24.399  1.00  0.00     0.021 A 
ATOM     13  N   UNL A   1      33.266  22.218  24.450  1.00  0.00    -0.249 NA
ATOM     14  C   UNL A   1      31.941  22.026  24.560  1.00  0.00     0.112 A 
BRANCH  10  15
ATOM     15  C   UNL A   1      33.341  26.011  23.955  1.00  0.00     0.027 A 
ATOM     16  C   UNL A   1      33.507  26.659  22.710  1.00  0.00     0.126 A 
ATOM     17  C   UNL A   1      33.823  28.021  22.630  1.00  0.00     0.048 A 
ATOM     18  C   UNL A   1      33.939  28.782  23.790  1.00  0.00     0.017 A 
ATOM     19  C   UNL A   1      33.572  26.789  25.108  1.00  0.00     0.025 A 
ATOM     20  C   UNL A   1      33.810  28.174  25.043  1.00  0.00     0.056 A 
BRANCH  16  21
ATOM     21  O   UNL A   1      33.486  25.975  21.518  1.00  0.00    -0.496 OA
ATOM     22  C   UNL A   1      32.181  25.940  20.944  1.00  0.00     0.278 C 
ENDBRANCH  16  21
BRANCH  20  23
ATOM     23  C   UNL A   1      33.897  28.998  26.304  1.00  0.00     0.416 C 
ATOM     24  F   UNL A   1      33.332  28.376  27.374  1.00  0.00    -0.166 F 
ATOM     25  F   UNL A   1      35.185  29.263  26.663  1.00  0.00    -0.166 F 
ATOM     26  F   UNL A   1      33.286  30.211  26.207  1.00  0.00    -0.166 F 
ENDBRANCH  20  23
ENDBRANCH  10  15
ENDBRANCH   7   9
ENDBRANCH   6   7
ENDBRANCH   5   6
ENDBRANCH   4   5
ENDBRANCH   3   4
ENDBRANCH   2   3
ENDBRANCH   1   2
BRANCH   1  27
ATOM     27  O   UNL A   1      42.106  20.357  26.460  1.00  0.00    -0.376 OA
BRANCH  27  28
ATOM     28  C   UNL A   1      42.786  21.413  25.797  1.00  0.00     0.202 C 
BRANCH  28  29
ATOM     29  C   UNL A   1      43.717  22.248  26.687  1.00  0.00     0.261 C 
BRANCH  29  30
ATOM     30  O   UNL A   1      43.109  23.387  27.317  1.00  0.00    -0.460 OA
BRANCH  30  31
ATOM     31  C   UNL A   1      43.142  24.561  26.647  1.00  0.00     0.338 C 
ATOM     32  O   UNL A   1      43.387  24.722  25.463  1.00  0.00    -0.246 OA
BRANCH  31  33
ATOM     33  C   UNL A   1      42.618  25.607  27.549  1.00  0.00     0.060 A 
ATOM     34  C   UNL A   1      43.275  26.843  27.609  1.00  0.00     0.016 A 
ATOM     35  C   UNL A   1      41.474  25.376  28.317  1.00  0.00     0.016 A 
ATOM     36  C   UNL A   1      42.808  27.839  28.469  1.00  0.00     0.010 A 
ATOM     37  C   UNL A   1      41.017  26.367  29.187  1.00  0.00     0.010 A 
ATOM     38  C   UNL A   1      41.700  27.591  29.292  1.00  0.00    -0.014 A 
BRANCH  38  39
ATOM     39  C   UNL A   1      41.384  28.518  30.405  1.00  0.00     0.031 A 
ATOM     40  C   UNL A   1      42.221  28.439  31.654  1.00  0.00     0.074 A 
ATOM     41  C   UNL A   1      40.388  29.418  30.315  1.00  0.00     0.049 A 
ATOM     42  N   UNL A   1      42.126  29.122  32.764  1.00  0.00    -0.248 NA
ATOM     43  C   UNL A   1      43.314  27.451  31.643  1.00  0.00     0.031 C 
ATOM     44  C   UNL A   1      39.528  29.616  29.150  1.00  0.00     0.029 A 
ATOM     45  N   UNL A   1      39.933  30.333  31.231  1.00  0.00    -0.354 N 
ATOM     46  C   UNL A   1      43.145  28.651  33.584  1.00  0.00     0.074 A 
ATOM     47  C   UNL A   1      43.823  27.600  32.856  1.00  0.00     0.031 C 
ATOM     48  C   UNL A   1      38.641  30.591  29.426  1.00  0.00     0.029 A 
ATOM     49  C   UNL A   1      38.857  31.067  30.793  1.00  0.00     0.049 A 
ATOM     50  H   UNL A   1      40.339  30.453  32.120  1.00  0.00     0.167 HD
ATOM     51  C   UNL A   1      43.494  29.061  34.826  1.00  0.00     0.037 A 
ATOM     52  C   UNL A   1      38.126  32.005  31.427  1.00  0.00     0.037 A 
ATOM     53  C   UNL A   1      42.808  30.092  35.557  1.00  0.00     0.049 A 
ATOM     54  C   UNL A   1      38.485  32.397  32.839  1.00  0.00     0.074 A 
ATOM     55  C   UNL A   1      43.079  30.575  36.825  1.00  0.00     0.029 A 
ATOM     56  N   UNL A   1      41.706  30.792  35.089  1.00  0.00    -0.354 N 
ATOM     57  N   UNL A   1      39.463  31.957  33.596  1.00  0.00    -0.248 NA
ATOM     58  C   UNL A   1      37.644  33.418  33.481  1.00  0.00     0.031 C 
ATOM     59  C   UNL A   1      42.116  31.542  37.138  1.00  0.00     0.029 A 
ATOM     60  C   UNL A   1      41.275  31.693  36.048  1.00  0.00     0.049 A 
ATOM     61  H   UNL A   1      41.291  30.666  34.205  1.00  0.00     0.167 HD
ATOM     62  C   UNL A   1      39.376  32.673  34.787  1.00  0.00     0.074 A 
ATOM     63  C   UNL A   1      38.250  33.574  34.650  1.00  0.00     0.031 C 
ATOM     64  C   UNL A   1      40.161  32.595  35.891  1.00  0.00     0.037 A 
BRANCH  51  65
ATOM     65  C   UNL A   1      44.659  28.366  35.472  1.00  0.00     0.058 A 
ATOM     66  C   UNL A   1      45.975  28.825  35.305  1.00  0.00     0.135 A 
ATOM     67  C   UNL A   1      44.460  27.217  36.254  1.00  0.00     0.135 A 
ATOM     68  F   UNL A   1      46.223  29.907  34.548  1.00  0.00    -0.206 F 
ATOM     69  C   UNL A   1      47.057  28.150  35.858  1.00  0.00     0.059 A 
ATOM     70  C   UNL A   1      45.526  26.539  36.839  1.00  0.00     0.059 A 
ATOM     71  F   UNL A   1      43.222  26.733  36.442  1.00  0.00    -0.206 F 
ATOM     72  C   UNL A   1      46.822  27.002  36.617  1.00  0.00     0.060 A 
BRANCH  72  73
ATOM     73  S   UNL A   1      48.238  26.118  37.306  1.00  0.00     0.124 S 
ATOM     74  O   UNL A   1      49.331  27.033  36.992  1.00  0.00    -0.237 OA
ATOM     75  O   UNL A   1      47.885  26.013  38.718  1.00  0.00    -0.237 OA
ATOM     76  O   UNL A   1      48.241  24.857  36.568  1.00  0.00    -0.744 OA
ENDBRANCH  72  73
ENDBRANCH  51  65
BRANCH  52  77
ATOM     77  C   UNL A   1      36.982  32.653  30.731  1.00  0.00     0.058 A 
ATOM     78  C   UNL A   1      37.190  33.698  29.819  1.00  0.00     0.135 A 
ATOM     79  C   UNL A   1      35.660  32.245  30.966  1.00  0.00     0.135 A 
ATOM     80  F   UNL A   1      38.435  34.135  29.573  1.00  0.00    -0.206 F 
ATOM     81  C   UNL A   1      36.130  34.324  29.171  1.00  0.00     0.059 A 
ATOM     82  C   UNL A   1      34.584  32.839  30.313  1.00  0.00     0.059 A 
ATOM     83  F   UNL A   1      35.408  31.247  31.827  1.00  0.00    -0.206 F 
ATOM     84  C   UNL A   1      34.828  33.884  29.422  1.00  0.00     0.060 A 
BRANCH  84  85
ATOM     85  S   UNL A   1      33.464  34.670  28.538  1.00  0.00     0.124 S 
ATOM     86  O   UNL A   1      34.143  35.774  27.872  1.00  0.00    -0.237 OA
ATOM     87  O   UNL A   1      32.998  33.591  27.671  1.00  0.00    -0.237 OA
ATOM     88  O   UNL A   1      32.544  35.046  29.608  1.00  0.00    -0.744 OA
ENDBRANCH  84  85
ENDBRANCH  52  77
BRANCH  64  89
ATOM     89  C   UNL A   1      39.868  33.544  37.021  1.00  0.00     0.058 A 
ATOM     90  C   UNL A   1      38.990  33.208  38.064  1.00  0.00     0.135 A 
ATOM     91  C   UNL A   1      40.521  34.785  37.089  1.00  0.00     0.135 A 
ATOM     92  F   UNL A   1      38.339  32.035  38.047  1.00  0.00    -0.206 F 
ATOM     93  C   UNL A   1      38.751  34.082  39.121  1.00  0.00     0.059 A 
ATOM     94  C   UNL A   1      40.317  35.663  38.149  1.00  0.00     0.059 A 
ATOM     95  F   UNL A   1      41.382  35.149  36.125  1.00  0.00    -0.206 F 
ATOM     96  C   UNL A   1      39.419  35.308  39.154  1.00  0.00     0.060 A 
BRANCH  96  97
ATOM     97  S   UNL A   1      39.125  36.421  40.545  1.00  0.00     0.124 S 
ATOM     98  O   UNL A   1      38.738  37.650  39.861  1.00  0.00    -0.237 OA
ATOM     99  O   UNL A   1      38.060  35.740  41.274  1.00  0.00    -0.237 OA
ATOM    100  O   UNL A   1      40.415  36.461  41.226  1.00  0.00    -0.744 OA
ENDBRANCH  96  97
ENDBRANCH  64  89
ENDBRANCH  38  39
ENDBRANCH  31  33
ENDBRANCH  30  31
ENDBRANCH  29  30
ENDBRANCH  28  29
ENDBRANCH  27  28
ENDBRANCH   1  27
TORSDOF 23
ENDMDL
MODEL 3
REMARK VINA RESULT:     -10.2      3.510      9.666
REMARK SMILES COc1ccc(C(F)(F)F)cc1-c1cccnc1C(=O)OCCOCCOCCOC(=O)c1ccc(-c2c3nc(c(-c4c(F)cc(S(=O)(=O)[O-])cc4F)c4ccc([nH]4)c(-c4c(F)cc(S(=O)(=O)[O-])cc4F)c4nc(c(-c5c(F)cc(S(=O)(=O)[O-])cc5F)c5ccc2[nH]5)C=C4)C=C3)cc1
REMARK SMILES IDX 26 1 25 2 24 3 23 4 22 5 21 6 19 7 20 8 18 9 13 10 14 11
REMARK SMILES IDX 15 12 17 13 16 14 12 15 3 16 4 17 5 18 11 19 6 20 2 21 1 22
REMARK SMILES IDX 7 23 8 24 9 25 10 26 27 27 28 28 29 29 30 30 31 31 32 32
REMARK SMILES IDX 33 33 34 34 98 35 35 36 97 37 36 38 37 39 38 40 91 41 39 42
REMARK SMILES IDX 96 43 90 44 92 45 40 46 95 47 89 48 88 49 41 51 75 52 54 53
REMARK SMILES IDX 74 54 55 55 58 56 73 57 93 58 56 59 57 60 72 62 94 63 59 64
REMARK SMILES IDX 42 65 43 66 52 67 44 68 45 69 51 70 53 71 46 72 47 73 48 74
REMARK SMILES IDX 49 75 50 76 76 77 77 78 86 79 78 80 79 81 85 82 87 83 80 84
REMARK SMILES IDX 81 85 82 86 83 87 84 88 60 89 61 90 70 91 62 92 63 93 69 94
REMARK SMILES IDX 71 95 64 96 65 97 66 98 67 99 68 100
REMARK H PARENT 92 50 58 61
REMARK Flexibility Score: inf
ROOT
ATOM      1  C   UNL A   1      33.931  21.438  24.427  1.00  0.00     0.188 C 
ENDROOT
BRANCH   1   2
ATOM      2  C   UNL A   1      32.752  21.486  25.422  1.00  0.00     0.188 C 
BRANCH   2   3
ATOM      3  O   UNL A   1      31.587  22.223  25.062  1.00  0.00    -0.376 OA
BRANCH   3   4
ATOM      4  C   UNL A   1      30.766  22.749  26.101  1.00  0.00     0.202 C 
BRANCH   4   5
ATOM      5  C   UNL A   1      31.350  23.885  26.944  1.00  0.00     0.261 C 
BRANCH   5   6
ATOM      6  O   UNL A   1      32.067  24.832  26.134  1.00  0.00    -0.458 OA
BRANCH   6   7
ATOM      7  C   UNL A   1      31.303  25.666  25.385  1.00  0.00     0.357 C 
ATOM      8  O   UNL A   1      30.240  26.158  25.730  1.00  0.00    -0.244 OA
BRANCH   7   9
ATOM      9  C   UNL A   1      31.955  25.948  24.063  1.00  0.00     0.156 A 
ATOM     10  C   UNL A   1      32.605  27.160  23.750  1.00  0.00     0.019 A 
ATOM     11  C   UNL A   1      33.272  27.175  22.509  1.00  0.00     0.013 A 
ATOM     12  C   UNL A   1      33.207  26.091  21.634  1.00  0.00     0.021 A 
ATOM     13  N   UNL A   1      31.878  24.879  23.214  1.00  0.00    -0.249 NA
ATOM     14  C   UNL A   1      32.488  24.980  22.020  1.00  0.00     0.112 A 
BRANCH  10  15
ATOM     15  C   UNL A   1      32.562  28.380  24.597  1.00  0.00     0.027 A 
ATOM     16  C   UNL A   1      31.427  29.219  24.673  1.00  0.00     0.126 A 
ATOM     17  C   UNL A   1      31.362  30.282  25.582  1.00  0.00     0.048 A 
ATOM     18  C   UNL A   1      32.410  30.510  26.469  1.00  0.00     0.017 A 
ATOM     19  C   UNL A   1      33.647  28.708  25.436  1.00  0.00     0.025 A 
ATOM     20  C   UNL A   1      33.564  29.721  26.408  1.00  0.00     0.056 A 
BRANCH  16  21
ATOM     21  O   UNL A   1      30.379  29.118  23.790  1.00  0.00    -0.496 OA
ATOM     22  C   UNL A   1      29.645  30.337  23.685  1.00  0.00     0.278 C 
ENDBRANCH  16  21
BRANCH  20  23
ATOM     23  C   UNL A   1      34.689  29.937  27.390  1.00  0.00     0.416 C 
ATOM     24  F   UNL A   1      35.900  30.045  26.781  1.00  0.00    -0.166 F 
ATOM     25  F   UNL A   1      34.532  31.080  28.115  1.00  0.00    -0.166 F 
ATOM     26  F   UNL A   1      34.815  28.937  28.306  1.00  0.00    -0.166 F 
ENDBRANCH  20  23
ENDBRANCH  10  15
ENDBRANCH   7   9
ENDBRANCH   6   7
ENDBRANCH   5   6
ENDBRANCH   4   5
ENDBRANCH   3   4
ENDBRANCH   2   3
ENDBRANCH   1   2
BRANCH   1  27
ATOM     27  O   UNL A   1      34.369  22.705  23.960  1.00  0.00    -0.376 OA
BRANCH  27  28
ATOM     28  C   UNL A   1      34.972  23.552  24.928  1.00  0.00     0.202 C 
BRANCH  28  29
ATOM     29  C   UNL A   1      36.263  23.009  25.556  1.00  0.00     0.261 C 
BRANCH  29  30
ATOM     30  O   UNL A   1      37.252  23.998  25.886  1.00  0.00    -0.460 OA
BRANCH  30  31
ATOM     31  C   UNL A   1      38.473  23.556  26.262  1.00  0.00     0.338 C 
ATOM     32  O   UNL A   1      39.020  22.525  25.908  1.00  0.00    -0.246 OA
BRANCH  31  33
ATOM     33  C   UNL A   1      39.131  24.643  27.015  1.00  0.00     0.060 A 
ATOM     34  C   UNL A   1      38.846  24.795  28.378  1.00  0.00     0.016 A 
ATOM     35  C   UNL A   1      40.039  25.497  26.383  1.00  0.00     0.016 A 
ATOM     36  C   UNL A   1      39.443  25.827  29.104  1.00  0.00     0.010 A 
ATOM     37  C   UNL A   1      40.624  26.538  27.107  1.00  0.00     0.010 A 
ATOM     38  C   UNL A   1      40.303  26.729  28.462  1.00  0.00    -0.014 A 
BRANCH  38  39
ATOM     39  C   UNL A   1      40.701  27.984  29.143  1.00  0.00     0.031 A 
ATOM     40  C   UNL A   1      42.101  28.081  29.688  1.00  0.00     0.074 A 
ATOM     41  C   UNL A   1      39.852  29.019  29.272  1.00  0.00     0.049 A 
ATOM     42  N   UNL A   1      42.675  29.058  30.339  1.00  0.00    -0.248 NA
ATOM     43  C   UNL A   1      42.970  26.913  29.462  1.00  0.00     0.031 C 
ATOM     44  C   UNL A   1      38.484  29.062  28.761  1.00  0.00     0.029 A 
ATOM     45  N   UNL A   1      40.024  30.237  29.881  1.00  0.00    -0.354 N 
ATOM     46  C   UNL A   1      43.970  28.627  30.601  1.00  0.00     0.074 A 
ATOM     47  C   UNL A   1      44.086  27.286  30.069  1.00  0.00     0.031 C 
ATOM     48  C   UNL A   1      37.936  30.248  29.085  1.00  0.00     0.029 A 
ATOM     49  C   UNL A   1      38.906  31.036  29.845  1.00  0.00     0.049 A 
ATOM     50  H   UNL A   1      40.869  30.514  30.304  1.00  0.00     0.167 HD
ATOM     51  C   UNL A   1      44.977  29.288  31.219  1.00  0.00     0.037 A 
ATOM     52  C   UNL A   1      38.691  32.257  30.375  1.00  0.00     0.037 A 
ATOM     53  C   UNL A   1      44.856  30.613  31.766  1.00  0.00     0.049 A 
ATOM     54  C   UNL A   1      39.803  32.948  31.124  1.00  0.00     0.074 A 
ATOM     55  C   UNL A   1      45.815  31.367  32.419  1.00  0.00     0.029 A 
ATOM     56  N   UNL A   1      43.699  31.377  31.733  1.00  0.00    -0.354 N 
ATOM     57  N   UNL A   1      41.029  32.536  31.348  1.00  0.00    -0.248 NA
ATOM     58  C   UNL A   1      39.504  34.273  31.687  1.00  0.00     0.031 C 
ATOM     59  C   UNL A   1      45.225  32.574  32.814  1.00  0.00     0.029 A 
ATOM     60  C   UNL A   1      43.915  32.590  32.367  1.00  0.00     0.049 A 
ATOM     61  H   UNL A   1      42.849  31.099  31.321  1.00  0.00     0.167 HD
ATOM     62  C   UNL A   1      41.656  33.565  32.047  1.00  0.00     0.074 A 
ATOM     63  C   UNL A   1      40.674  34.618  32.207  1.00  0.00     0.031 C 
ATOM     64  C   UNL A   1      42.931  33.635  32.506  1.00  0.00     0.037 A 
BRANCH  51  65
ATOM     65  C   UNL A   1      46.287  28.565  31.353  1.00  0.00     0.058 A 
ATOM     66  C   UNL A   1      47.287  28.667  30.373  1.00  0.00     0.135 A 
ATOM     67  C   UNL A   1      46.541  27.747  32.466  1.00  0.00     0.135 A 
ATOM     68  F   UNL A   1      47.086  29.418  29.277  1.00  0.00    -0.206 F 
ATOM     69  C   UNL A   1      48.477  27.954  30.471  1.00  0.00     0.059 A 
ATOM     70  C   UNL A   1      47.735  27.045  32.598  1.00  0.00     0.059 A 
ATOM     71  F   UNL A   1      45.616  27.611  33.430  1.00  0.00    -0.206 F 
ATOM     72  C   UNL A   1      48.688  27.140  31.584  1.00  0.00     0.060 A 
BRANCH  72  73
ATOM     73  S   UNL A   1      50.225  26.197  31.686  1.00  0.00     0.124 S 
ATOM     74  O   UNL A   1      51.162  27.099  31.023  1.00  0.00    -0.237 OA
ATOM     75  O   UNL A   1      50.404  26.044  33.126  1.00  0.00    -0.237 OA
ATOM     76  O   UNL A   1      49.917  24.967  30.962  1.00  0.00    -0.744 OA
ENDBRANCH  72  73
ENDBRANCH  51  65
BRANCH  52  77
ATOM     77  C   UNL A   1      37.369  32.917  30.209  1.00  0.00     0.058 A 
ATOM     78  C   UNL A   1      36.410  32.881  31.231  1.00  0.00     0.135 A 
ATOM     79  C   UNL A   1      37.035  33.594  29.025  1.00  0.00     0.135 A 
ATOM     80  F   UNL A   1      36.675  32.232  32.376  1.00  0.00    -0.206 F 
ATOM     81  C   UNL A   1      35.163  33.483  31.086  1.00  0.00     0.059 A 
ATOM     82  C   UNL A   1      35.804  34.224  28.863  1.00  0.00     0.059 A 
ATOM     83  F   UNL A   1      37.920  33.661  28.018  1.00  0.00    -0.206 F 
ATOM     84  C   UNL A   1      34.871  34.155  29.898  1.00  0.00     0.060 A 
BRANCH  84  85
ATOM     85  S   UNL A   1      33.269  34.974  29.739  1.00  0.00     0.124 S 
ATOM     86  O   UNL A   1      32.746  34.862  31.095  1.00  0.00    -0.237 OA
ATOM     87  O   UNL A   1      33.652  36.317  29.312  1.00  0.00    -0.237 OA
ATOM     88  O   UNL A   1      32.583  34.174  28.729  1.00  0.00    -0.744 OA
ENDBRANCH  84  85
ENDBRANCH  52  77
BRANCH  64  89
ATOM     89  C   UNL A   1      43.359  34.909  33.181  1.00  0.00     0.058 A 
ATOM     90  C   UNL A   1      43.927  35.974  32.464  1.00  0.00     0.135 A 
ATOM     91  C   UNL A   1      43.145  35.086  34.558  1.00  0.00     0.135 A 
ATOM     92  F   UNL A   1      44.156  35.856  31.147  1.00  0.00    -0.206 F 
ATOM     93  C   UNL A   1      44.291  37.161  33.094  1.00  0.00     0.059 A 
ATOM     94  C   UNL A   1      43.477  36.273  35.203  1.00  0.00     0.059 A 
ATOM     95  F   UNL A   1      42.591  34.104  35.287  1.00  0.00    -0.206 F 
ATOM     96  C   UNL A   1      44.062  37.301  34.465  1.00  0.00     0.060 A 
BRANCH  96  97
ATOM     97  S   UNL A   1      44.509  38.855  35.268  1.00  0.00     0.124 S 
ATOM     98  O   UNL A   1      44.123  38.594  36.650  1.00  0.00    -0.237 OA
ATOM     99  O   UNL A   1      45.944  38.937  35.016  1.00  0.00    -0.237 OA
ATOM    100  O   UNL A   1      43.699  39.845  34.565  1.00  0.00    -0.744 OA
ENDBRANCH  96  97
ENDBRANCH  64  89
ENDBRANCH  38  39
ENDBRANCH  31  33
ENDBRANCH  30  31
ENDBRANCH  29  30
ENDBRANCH  28  29
ENDBRANCH  27  28
ENDBRANCH   1  27
TORSDOF 23
ENDMDL
