MODEL 1
REMARK VINA RESULT:     -10.8      0.000      0.000
REMARK SMILES CCc1cc(OC(F)(F)F)cc2c1O[C@H](C(F)(F)F)C(C(=O)OCCOCCOCCOC(=O)c1ccc(-c3c4nc(c(-c5c(F)cc(S(=O)(=O)[O-])cc5F)c5ccc([nH]5)c(-c5c(F)cc(S(=O)(=O)[O-])cc5F)c5nc(c(-c6c(F)cc(S(=O)(=O)[O-])cc6F)c6ccc3[nH]6)C=C5)C=C4)cc1)=C2
REMARK SMILES IDX 28 1 27 2 26 3 25 4 24 5 23 6 21 7 22 8 20 9 3 10 4 11 13 12
REMARK SMILES IDX 5 13 12 14 14 15 11 16 101 17 15 18 2 19 1 20 6 21 7 22 8 23
REMARK SMILES IDX 9 24 10 25 16 26 17 27 18 28 19 29 29 30 30 31 31 32 32 33
REMARK SMILES IDX 33 34 34 35 35 36 36 37 100 38 37 39 99 40 38 41 39 42 40 43
REMARK SMILES IDX 93 44 41 45 98 46 92 47 94 48 42 49 97 50 91 51 90 52 43 54
REMARK SMILES IDX 77 55 56 56 76 57 57 58 60 59 75 60 95 61 58 62 59 63 74 65
REMARK SMILES IDX 96 66 61 67 44 68 45 69 54 70 46 71 47 72 53 73 55 74 48 75
REMARK SMILES IDX 49 76 50 77 51 78 52 79 78 80 79 81 88 82 80 83 81 84 87 85
REMARK SMILES IDX 89 86 82 87 83 88 84 89 85 90 86 91 62 92 63 93 72 94 64 95
REMARK SMILES IDX 65 96 71 97 73 98 66 99 67 100 68 101 69 102 70 103
REMARK H PARENT 94 53 60 64
REMARK Flexibility Score: inf
ROOT
ATOM      1  C   UNL A   1      36.970  22.657  24.920  1.00  0.00     0.188 C 
ENDROOT
BRANCH   1   2
ATOM      2  C   UNL A   1      35.537  22.483  24.375  1.00  0.00     0.188 C 
BRANCH   2   3
ATOM      3  O   UNL A   1      34.608  21.651  25.061  1.00  0.00    -0.376 OA
BRANCH   3   4
ATOM      4  C   UNL A   1      33.245  21.635  24.673  1.00  0.00     0.202 C 
BRANCH   4   5
ATOM      5  C   UNL A   1      32.168  21.881  25.736  1.00  0.00     0.261 C 
BRANCH   5   6
ATOM      6  O   UNL A   1      31.026  22.640  25.294  1.00  0.00    -0.460 OA
BRANCH   6   7
ATOM      7  C   UNL A   1      30.661  23.651  26.120  1.00  0.00     0.338 C 
ATOM      8  O   UNL A   1      30.255  23.528  27.265  1.00  0.00    -0.246 OA
BRANCH   7   9
ATOM      9  C   UNL A   1      30.909  24.981  25.533  1.00  0.00     0.087 C 
ATOM     10  C   UNL A   1      31.309  29.108  25.049  1.00  0.00    -0.002 A 
ATOM     11  C   UNL A   1      30.730  29.712  23.918  1.00  0.00     0.054 A 
ATOM     12  C   UNL A   1      31.127  27.730  25.208  1.00  0.00     0.131 A 
ATOM     13  C   UNL A   1      29.998  28.969  22.982  1.00  0.00     0.130 A 
ATOM     14  C   UNL A   1      30.398  26.958  24.278  1.00  0.00     0.021 A 
ATOM     15  O   UNL A   1      31.625  27.148  26.342  1.00  0.00    -0.475 OA
ATOM     16  C   UNL A   1      29.848  27.588  23.161  1.00  0.00     0.058 A 
ATOM     17  C   UNL A   1      30.147  25.538  24.575  1.00  0.00     0.027 C 
ATOM     18  C   UNL A   1      32.028  25.773  26.170  1.00  0.00     0.316 C 
BRANCH  10  19
ATOM     19  C   UNL A   1      32.013  30.019  26.039  1.00  0.00     0.036 C 
ATOM     20  C   UNL A   1      31.426  31.389  26.360  1.00  0.00     0.009 C 
ENDBRANCH  10  19
BRANCH  13  21
ATOM     21  O   UNL A   1      29.377  29.476  21.874  1.00  0.00    -0.406 OA
BRANCH  21  22
ATOM     22  C   UNL A   1      28.060  29.980  22.038  1.00  0.00     0.573 C 
ATOM     23  F   UNL A   1      27.191  28.995  22.356  1.00  0.00    -0.132 F 
ATOM     24  F   UNL A   1      28.020  30.942  22.984  1.00  0.00    -0.132 F 
ATOM     25  F   UNL A   1      27.656  30.526  20.869  1.00  0.00    -0.132 F 
ENDBRANCH  21  22
ENDBRANCH  13  21
BRANCH  18  26
ATOM     26  C   UNL A   1      33.370  25.659  25.409  1.00  0.00     0.430 C 
ATOM     27  F   UNL A   1      33.247  25.008  24.225  1.00  0.00    -0.167 F 
ATOM     28  F   UNL A   1      33.921  26.861  25.129  1.00  0.00    -0.167 F 
ATOM     29  F   UNL A   1      34.286  24.972  26.129  1.00  0.00    -0.167 F 
ENDBRANCH  18  26
ENDBRANCH   7   9
ENDBRANCH   6   7
ENDBRANCH   5   6
ENDBRANCH   4   5
ENDBRANCH   3   4
ENDBRANCH   2   3
ENDBRANCH   1   2
BRANCH   1  30
ATOM     30  O   UNL A   1      37.762  21.500  24.761  1.00  0.00    -0.376 OA
BRANCH  30  31
ATOM     31  C   UNL A   1      38.959  21.401  25.505  1.00  0.00     0.202 C 
BRANCH  31  32
ATOM     32  C   UNL A   1      39.438  20.039  26.036  1.00  0.00     0.261 C 
BRANCH  32  33
ATOM     33  O   UNL A   1      40.641  20.015  26.816  1.00  0.00    -0.460 OA
BRANCH  33  34
ATOM     34  C   UNL A   1      41.814  19.968  26.154  1.00  0.00     0.338 C 
ATOM     35  O   UNL A   1      42.160  19.120  25.333  1.00  0.00    -0.246 OA
BRANCH  34  36
ATOM     36  C   UNL A   1      42.578  21.189  26.474  1.00  0.00     0.060 A 
ATOM     37  C   UNL A   1      42.673  21.613  27.805  1.00  0.00     0.016 A 
ATOM     38  C   UNL A   1      43.196  21.920  25.456  1.00  0.00     0.016 A 
ATOM     39  C   UNL A   1      43.373  22.784  28.119  1.00  0.00     0.010 A 
ATOM     40  C   UNL A   1      43.878  23.101  25.770  1.00  0.00     0.010 A 
ATOM     41  C   UNL A   1      43.951  23.552  27.101  1.00  0.00    -0.014 A 
BRANCH  41  42
ATOM     42  C   UNL A   1      44.481  24.913  27.380  1.00  0.00     0.031 A 
ATOM     43  C   UNL A   1      43.504  25.993  27.761  1.00  0.00     0.074 A 
ATOM     44  C   UNL A   1      45.793  25.197  27.282  1.00  0.00     0.049 A 
ATOM     45  N   UNL A   1      43.698  27.278  27.902  1.00  0.00    -0.248 NA
ATOM     46  C   UNL A   1      42.121  25.560  28.017  1.00  0.00     0.031 C 
ATOM     47  C   UNL A   1      46.850  24.229  26.992  1.00  0.00     0.029 A 
ATOM     48  N   UNL A   1      46.456  26.394  27.400  1.00  0.00    -0.354 N 
ATOM     49  C   UNL A   1      42.461  27.810  28.249  1.00  0.00     0.074 A 
ATOM     50  C   UNL A   1      41.521  26.711  28.282  1.00  0.00     0.031 C 
ATOM     51  C   UNL A   1      48.027  24.877  26.932  1.00  0.00     0.029 A 
ATOM     52  C   UNL A   1      47.803  26.308  27.132  1.00  0.00     0.049 A 
ATOM     53  H   UNL A   1      46.010  27.235  27.652  1.00  0.00     0.167 HD
ATOM     54  C   UNL A   1      42.139  29.098  28.516  1.00  0.00     0.037 A 
ATOM     55  C   UNL A   1      48.736  27.277  27.021  1.00  0.00     0.037 A 
ATOM     56  C   UNL A   1      43.076  30.188  28.472  1.00  0.00     0.049 A 
ATOM     57  C   UNL A   1      48.335  28.720  27.223  1.00  0.00     0.074 A 
ATOM     58  C   UNL A   1      42.842  31.533  28.707  1.00  0.00     0.029 A 
ATOM     59  N   UNL A   1      44.423  30.062  28.172  1.00  0.00    -0.354 N 
ATOM     60  N   UNL A   1      47.159  29.215  27.533  1.00  0.00    -0.248 NA
ATOM     61  C   UNL A   1      49.383  29.738  27.053  1.00  0.00     0.031 C 
ATOM     62  C   UNL A   1      44.040  32.225  28.503  1.00  0.00     0.029 A 
ATOM     63  C   UNL A   1      45.032  31.306  28.200  1.00  0.00     0.049 A 
ATOM     64  H   UNL A   1      44.880  29.214  27.970  1.00  0.00     0.167 HD
ATOM     65  C   UNL A   1      47.338  30.592  27.637  1.00  0.00     0.074 A 
ATOM     66  C   UNL A   1      48.733  30.854  27.353  1.00  0.00     0.031 C 
ATOM     67  C   UNL A   1      46.431  31.549  27.949  1.00  0.00     0.037 A 
BRANCH  54  68
ATOM     68  C   UNL A   1      40.704  29.403  28.843  1.00  0.00     0.058 A 
ATOM     69  C   UNL A   1      39.700  29.375  27.863  1.00  0.00     0.135 A 
ATOM     70  C   UNL A   1      40.324  29.696  30.164  1.00  0.00     0.135 A 
ATOM     71  F   UNL A   1      40.011  29.120  26.583  1.00  0.00    -0.206 F 
ATOM     72  C   UNL A   1      38.372  29.649  28.176  1.00  0.00     0.059 A 
ATOM     73  C   UNL A   1      38.998  29.947  30.503  1.00  0.00     0.059 A 
ATOM     74  F   UNL A   1      41.246  29.741  31.138  1.00  0.00    -0.206 F 
ATOM     75  C   UNL A   1      38.031  29.934  29.500  1.00  0.00     0.060 A 
BRANCH  75  76
ATOM     76  S   UNL A   1      36.304  30.282  29.890  1.00  0.00     0.124 S 
ATOM     77  O   UNL A   1      35.653  29.992  28.616  1.00  0.00    -0.237 OA
ATOM     78  O   UNL A   1      36.032  29.338  30.969  1.00  0.00    -0.237 OA
ATOM     79  O   UNL A   1      36.319  31.688  30.280  1.00  0.00    -0.744 OA
ENDBRANCH  75  76
ENDBRANCH  54  68
BRANCH  55  80
ATOM     80  C   UNL A   1      50.142  26.931  26.673  1.00  0.00     0.058 A 
ATOM     81  C   UNL A   1      50.545  26.786  25.337  1.00  0.00     0.135 A 
ATOM     82  C   UNL A   1      51.106  26.710  27.670  1.00  0.00     0.135 A 
ATOM     83  F   UNL A   1      49.659  26.970  24.346  1.00  0.00    -0.206 F 
ATOM     84  C   UNL A   1      51.845  26.416  25.001  1.00  0.00     0.059 A 
ATOM     85  C   UNL A   1      52.419  26.368  27.358  1.00  0.00     0.059 A 
ATOM     86  F   UNL A   1      50.777  26.838  28.965  1.00  0.00    -0.206 F 
ATOM     87  C   UNL A   1      52.775  26.210  26.020  1.00  0.00     0.060 A 
BRANCH  87  88
ATOM     88  S   UNL A   1      54.466  25.759  25.572  1.00  0.00     0.124 S 
ATOM     89  O   UNL A   1      54.355  25.603  24.126  1.00  0.00    -0.237 OA
ATOM     90  O   UNL A   1      55.225  26.918  26.033  1.00  0.00    -0.237 OA
ATOM     91  O   UNL A   1      54.696  24.529  26.323  1.00  0.00    -0.744 OA
ENDBRANCH  87  88
ENDBRANCH  55  80
BRANCH  67  92
ATOM     92  C   UNL A   1      46.911  32.969  28.076  1.00  0.00     0.058 A 
ATOM     93  C   UNL A   1      46.909  33.857  26.989  1.00  0.00     0.135 A 
ATOM     94  C   UNL A   1      47.281  33.475  29.334  1.00  0.00     0.135 A 
ATOM     95  F   UNL A   1      46.571  33.425  25.764  1.00  0.00    -0.206 F 
ATOM     96  C   UNL A   1      47.260  35.196  27.145  1.00  0.00     0.059 A 
ATOM     97  C   UNL A   1      47.610  34.815  29.518  1.00  0.00     0.059 A 
ATOM     98  F   UNL A   1      47.291  32.670  30.410  1.00  0.00    -0.206 F 
ATOM     99  C   UNL A   1      47.599  35.667  28.416  1.00  0.00     0.060 A 
BRANCH  99 100
ATOM    100  S   UNL A   1      47.977  37.422  28.617  1.00  0.00     0.124 S 
ATOM    101  O   UNL A   1      48.514  37.453  29.974  1.00  0.00    -0.237 OA
ATOM    102  O   UNL A   1      48.943  37.658  27.548  1.00  0.00    -0.237 OA
ATOM    103  O   UNL A   1      46.683  38.073  28.438  1.00  0.00    -0.744 OA
ENDBRANCH  99 100
ENDBRANCH  67  92
ENDBRANCH  41  42
ENDBRANCH  34  36
ENDBRANCH  33  34
ENDBRANCH  32  33
ENDBRANCH  31  32
ENDBRANCH  30  31
ENDBRANCH   1  30
TORSDOF 24
ENDMDL
MODEL 2
REMARK VINA RESULT:     -10.4      6.154      8.535
REMARK SMILES CCc1cc(OC(F)(F)F)cc2c1O[C@H](C(F)(F)F)C(C(=O)OCCOCCOCCOC(=O)c1ccc(-c3c4nc(c(-c5c(F)cc(S(=O)(=O)[O-])cc5F)c5ccc([nH]5)c(-c5c(F)cc(S(=O)(=O)[O-])cc5F)c5nc(c(-c6c(F)cc(S(=O)(=O)[O-])cc6F)c6ccc3[nH]6)C=C5)C=C4)cc1)=C2
REMARK SMILES IDX 28 1 27 2 26 3 25 4 24 5 23 6 21 7 22 8 20 9 3 10 4 11 13 12
REMARK SMILES IDX 5 13 12 14 14 15 11 16 101 17 15 18 2 19 1 20 6 21 7 22 8 23
REMARK SMILES IDX 9 24 10 25 16 26 17 27 18 28 19 29 29 30 30 31 31 32 32 33
REMARK SMILES IDX 33 34 34 35 35 36 36 37 100 38 37 39 99 40 38 41 39 42 40 43
REMARK SMILES IDX 93 44 41 45 98 46 92 47 94 48 42 49 97 50 91 51 90 52 43 54
REMARK SMILES IDX 77 55 56 56 76 57 57 58 60 59 75 60 95 61 58 62 59 63 74 65
REMARK SMILES IDX 96 66 61 67 44 68 45 69 54 70 46 71 47 72 53 73 55 74 48 75
REMARK SMILES IDX 49 76 50 77 51 78 52 79 78 80 79 81 88 82 80 83 81 84 87 85
REMARK SMILES IDX 89 86 82 87 83 88 84 89 85 90 86 91 62 92 63 93 72 94 64 95
REMARK SMILES IDX 65 96 71 97 73 98 66 99 67 100 68 101 69 102 70 103
REMARK H PARENT 94 53 60 64
REMARK Flexibility Score: inf
ROOT
ATOM      1  C   UNL A   1      38.157  22.238  25.794  1.00  0.00     0.188 C 
ENDROOT
BRANCH   1   2
ATOM      2  C   UNL A   1      37.308  21.399  24.817  1.00  0.00     0.188 C 
BRANCH   2   3
ATOM      3  O   UNL A   1      36.230  20.608  25.305  1.00  0.00    -0.376 OA
BRANCH   3   4
ATOM      4  C   UNL A   1      34.946  20.711  24.712  1.00  0.00     0.202 C 
BRANCH   4   5
ATOM      5  C   UNL A   1      33.803  21.333  25.524  1.00  0.00     0.261 C 
BRANCH   5   6
ATOM      6  O   UNL A   1      33.730  22.771  25.484  1.00  0.00    -0.460 OA
BRANCH   6   7
ATOM      7  C   UNL A   1      32.675  23.305  26.146  1.00  0.00     0.338 C 
ATOM      8  O   UNL A   1      31.946  22.714  26.928  1.00  0.00    -0.246 OA
BRANCH   7   9
ATOM      9  C   UNL A   1      32.537  24.756  25.916  1.00  0.00     0.087 C 
ATOM     10  C   UNL A   1      32.758  28.555  24.201  1.00  0.00    -0.002 A 
ATOM     11  C   UNL A   1      33.167  29.634  25.006  1.00  0.00     0.054 A 
ATOM     12  C   UNL A   1      32.730  27.286  24.789  1.00  0.00     0.131 A 
ATOM     13  C   UNL A   1      33.534  29.453  26.346  1.00  0.00     0.130 A 
ATOM     14  C   UNL A   1      33.090  27.077  26.138  1.00  0.00     0.021 A 
ATOM     15  O   UNL A   1      32.403  26.222  23.995  1.00  0.00    -0.475 OA
ATOM     16  C   UNL A   1      33.479  28.172  26.911  1.00  0.00     0.058 A 
ATOM     17  C   UNL A   1      33.151  25.699  26.652  1.00  0.00     0.027 C 
ATOM     18  C   UNL A   1      31.741  25.147  24.692  1.00  0.00     0.316 C 
BRANCH  10  19
ATOM     19  C   UNL A   1      32.459  28.851  22.743  1.00  0.00     0.036 C 
ATOM     20  C   UNL A   1      31.045  29.238  22.321  1.00  0.00     0.009 C 
ENDBRANCH  10  19
BRANCH  13  21
ATOM     21  O   UNL A   1      33.971  30.436  27.191  1.00  0.00    -0.406 OA
BRANCH  21  22
ATOM     22  C   UNL A   1      35.317  30.360  27.636  1.00  0.00     0.573 C 
ATOM     23  F   UNL A   1      35.898  31.581  27.660  1.00  0.00    -0.132 F 
ATOM     24  F   UNL A   1      35.396  29.797  28.860  1.00  0.00    -0.132 F 
ATOM     25  F   UNL A   1      36.016  29.587  26.774  1.00  0.00    -0.132 F 
ENDBRANCH  21  22
ENDBRANCH  13  21
BRANCH  18  26
ATOM     26  C   UNL A   1      30.264  25.488  25.004  1.00  0.00     0.430 C 
ATOM     27  F   UNL A   1      29.804  24.857  26.114  1.00  0.00    -0.167 F 
ATOM     28  F   UNL A   1      30.059  26.809  25.201  1.00  0.00    -0.167 F 
ATOM     29  F   UNL A   1      29.450  25.117  23.989  1.00  0.00    -0.167 F 
ENDBRANCH  18  26
ENDBRANCH   7   9
ENDBRANCH   6   7
ENDBRANCH   5   6
ENDBRANCH   4   5
ENDBRANCH   3   4
ENDBRANCH   2   3
ENDBRANCH   1   2
BRANCH   1  30
ATOM     30  O   UNL A   1      39.508  21.832  25.835  1.00  0.00    -0.376 OA
BRANCH  30  31
ATOM     31  C   UNL A   1      40.366  22.457  26.768  1.00  0.00     0.202 C 
BRANCH  31  32
ATOM     32  C   UNL A   1      41.806  22.828  26.376  1.00  0.00     0.261 C 
BRANCH  32  33
ATOM     33  O   UNL A   1      42.375  24.003  26.970  1.00  0.00    -0.460 OA
BRANCH  33  34
ATOM     34  C   UNL A   1      42.062  25.194  26.424  1.00  0.00     0.338 C 
ATOM     35  O   UNL A   1      41.966  25.448  25.225  1.00  0.00    -0.246 OA
BRANCH  34  36
ATOM     36  C   UNL A   1      41.716  26.128  27.512  1.00  0.00     0.060 A 
ATOM     37  C   UNL A   1      42.533  27.240  27.753  1.00  0.00     0.016 A 
ATOM     38  C   UNL A   1      40.585  25.901  28.301  1.00  0.00     0.016 A 
ATOM     39  C   UNL A   1      42.229  28.119  28.799  1.00  0.00     0.010 A 
ATOM     40  C   UNL A   1      40.295  26.770  29.359  1.00  0.00     0.010 A 
ATOM     41  C   UNL A   1      41.128  27.872  29.629  1.00  0.00    -0.014 A 
BRANCH  41  42
ATOM     42  C   UNL A   1      40.931  28.644  30.883  1.00  0.00     0.031 A 
ATOM     43  C   UNL A   1      39.876  29.717  30.900  1.00  0.00     0.074 A 
ATOM     44  C   UNL A   1      41.678  28.419  31.980  1.00  0.00     0.049 A 
ATOM     45  N   UNL A   1      39.620  30.619  31.811  1.00  0.00    -0.248 NA
ATOM     46  C   UNL A   1      38.989  29.778  29.726  1.00  0.00     0.031 C 
ATOM     47  C   UNL A   1      42.682  27.366  32.119  1.00  0.00     0.029 A 
ATOM     48  N   UNL A   1      41.717  29.081  33.183  1.00  0.00    -0.354 N 
ATOM     49  C   UNL A   1      38.554  31.362  31.317  1.00  0.00     0.074 A 
ATOM     50  C   UNL A   1      38.221  30.817  30.020  1.00  0.00     0.031 C 
ATOM     51  C   UNL A   1      43.255  27.468  33.332  1.00  0.00     0.029 A 
ATOM     52  C   UNL A   1      42.693  28.620  34.036  1.00  0.00     0.049 A 
ATOM     53  H   UNL A   1      41.104  29.817  33.413  1.00  0.00     0.167 HD
ATOM     54  C   UNL A   1      37.911  32.406  31.894  1.00  0.00     0.037 A 
ATOM     55  C   UNL A   1      43.109  29.099  35.228  1.00  0.00     0.037 A 
ATOM     56  C   UNL A   1      38.252  32.950  33.181  1.00  0.00     0.049 A 
ATOM     57  C   UNL A   1      42.446  30.326  35.807  1.00  0.00     0.074 A 
ATOM     58  C   UNL A   1      37.674  34.020  33.843  1.00  0.00     0.029 A 
ATOM     59  N   UNL A   1      39.262  32.471  34.000  1.00  0.00    -0.354 N 
ATOM     60  N   UNL A   1      41.451  31.033  35.324  1.00  0.00    -0.248 NA
ATOM     61  C   UNL A   1      42.964  30.826  37.090  1.00  0.00     0.031 C 
ATOM     62  C   UNL A   1      38.365  34.216  35.042  1.00  0.00     0.029 A 
ATOM     63  C   UNL A   1      39.335  33.233  35.155  1.00  0.00     0.049 A 
ATOM     64  H   UNL A   1      39.842  31.703  33.793  1.00  0.00     0.167 HD
ATOM     65  C   UNL A   1      41.199  32.031  36.263  1.00  0.00     0.074 A 
ATOM     66  C   UNL A   1      42.148  31.841  37.339  1.00  0.00     0.031 C 
ATOM     67  C   UNL A   1      40.262  33.010  36.237  1.00  0.00     0.037 A 
BRANCH  54  68
ATOM     68  C   UNL A   1      36.796  33.050  31.119  1.00  0.00     0.058 A 
ATOM     69  C   UNL A   1      37.045  33.843  29.988  1.00  0.00     0.135 A 
ATOM     70  C   UNL A   1      35.459  32.846  31.496  1.00  0.00     0.135 A 
ATOM     71  F   UNL A   1      38.304  34.088  29.596  1.00  0.00    -0.206 F 
ATOM     72  C   UNL A   1      36.006  34.429  29.270  1.00  0.00     0.059 A 
ATOM     73  C   UNL A   1      34.404  33.400  30.777  1.00  0.00     0.059 A 
ATOM     74  F   UNL A   1      35.166  32.100  32.573  1.00  0.00    -0.206 F 
ATOM     75  C   UNL A   1      34.689  34.201  29.672  1.00  0.00     0.060 A 
BRANCH  75  76
ATOM     76  S   UNL A   1      33.354  34.964  28.728  1.00  0.00     0.124 S 
ATOM     77  O   UNL A   1      32.303  35.061  29.737  1.00  0.00    -0.237 OA
ATOM     78  O   UNL A   1      33.950  36.229  28.312  1.00  0.00    -0.237 OA
ATOM     79  O   UNL A   1      33.104  34.007  27.655  1.00  0.00    -0.744 OA
ENDBRANCH  75  76
ENDBRANCH  54  68
BRANCH  55  80
ATOM     80  C   UNL A   1      44.233  28.441  35.951  1.00  0.00     0.058 A 
ATOM     81  C   UNL A   1      43.998  27.421  36.885  1.00  0.00     0.135 A 
ATOM     82  C   UNL A   1      45.564  28.838  35.744  1.00  0.00     0.135 A 
ATOM     83  F   UNL A   1      42.743  27.016  37.133  1.00  0.00    -0.206 F 
ATOM     84  C   UNL A   1      45.036  26.832  37.602  1.00  0.00     0.059 A 
ATOM     85  C   UNL A   1      46.622  28.244  36.427  1.00  0.00     0.059 A 
ATOM     86  F   UNL A   1      45.847  29.807  34.859  1.00  0.00    -0.206 F 
ATOM     87  C   UNL A   1      46.346  27.252  37.365  1.00  0.00     0.060 A 
BRANCH  87  88
ATOM     88  S   UNL A   1      47.688  26.460  38.279  1.00  0.00     0.124 S 
ATOM     89  O   UNL A   1      48.650  27.551  38.392  1.00  0.00    -0.237 OA
ATOM     90  O   UNL A   1      47.024  26.062  39.516  1.00  0.00    -0.237 OA
ATOM     91  O   UNL A   1      48.084  25.359  37.406  1.00  0.00    -0.744 OA
ENDBRANCH  87  88
ENDBRANCH  55  80
BRANCH  67  92
ATOM     92  C   UNL A   1      40.149  33.918  37.432  1.00  0.00     0.058 A 
ATOM     93  C   UNL A   1      40.870  35.118  37.526  1.00  0.00     0.135 A 
ATOM     94  C   UNL A   1      39.223  33.627  38.449  1.00  0.00     0.135 A 
ATOM     95  F   UNL A   1      41.772  35.441  36.586  1.00  0.00    -0.206 F 
ATOM     96  C   UNL A   1      40.679  35.997  38.590  1.00  0.00     0.059 A 
ATOM     97  C   UNL A   1      38.997  34.504  39.505  1.00  0.00     0.059 A 
ATOM     98  F   UNL A   1      38.500  32.497  38.401  1.00  0.00    -0.206 F 
ATOM     99  C   UNL A   1      39.733  35.686  39.569  1.00  0.00     0.060 A 
BRANCH  99 100
ATOM    100  S   UNL A   1      39.440  36.870  40.900  1.00  0.00     0.124 S 
ATOM    101  O   UNL A   1      40.796  37.322  41.196  1.00  0.00    -0.237 OA
ATOM    102  O   UNL A   1      38.571  37.853  40.258  1.00  0.00    -0.237 OA
ATOM    103  O   UNL A   1      38.805  36.066  41.939  1.00  0.00    -0.744 OA
ENDBRANCH  99 100
ENDBRANCH  67  92
ENDBRANCH  41  42
ENDBRANCH  34  36
ENDBRANCH  33  34
ENDBRANCH  32  33
ENDBRANCH  31  32
ENDBRANCH  30  31
ENDBRANCH   1  30
TORSDOF 24
ENDMDL
MODEL 3
REMARK VINA RESULT:     -10.0      5.333      6.973
REMARK SMILES CCc1cc(OC(F)(F)F)cc2c1O[C@H](C(F)(F)F)C(C(=O)OCCOCCOCCOC(=O)c1ccc(-c3c4nc(c(-c5c(F)cc(S(=O)(=O)[O-])cc5F)c5ccc([nH]5)c(-c5c(F)cc(S(=O)(=O)[O-])cc5F)c5nc(c(-c6c(F)cc(S(=O)(=O)[O-])cc6F)c6ccc3[nH]6)C=C5)C=C4)cc1)=C2
REMARK SMILES IDX 28 1 27 2 26 3 25 4 24 5 23 6 21 7 22 8 20 9 3 10 4 11 13 12
REMARK SMILES IDX 5 13 12 14 14 15 11 16 101 17 15 18 2 19 1 20 6 21 7 22 8 23
REMARK SMILES IDX 9 24 10 25 16 26 17 27 18 28 19 29 29 30 30 31 31 32 32 33
REMARK SMILES IDX 33 34 34 35 35 36 36 37 100 38 37 39 99 40 38 41 39 42 40 43
REMARK SMILES IDX 93 44 41 45 98 46 92 47 94 48 42 49 97 50 91 51 90 52 43 54
REMARK SMILES IDX 77 55 56 56 76 57 57 58 60 59 75 60 95 61 58 62 59 63 74 65
REMARK SMILES IDX 96 66 61 67 44 68 45 69 54 70 46 71 47 72 53 73 55 74 48 75
REMARK SMILES IDX 49 76 50 77 51 78 52 79 78 80 79 81 88 82 80 83 81 84 87 85
REMARK SMILES IDX 89 86 82 87 83 88 84 89 85 90 86 91 62 92 63 93 72 94 64 95
REMARK SMILES IDX 65 96 71 97 73 98 66 99 67 100 68 101 69 102 70 103
REMARK H PARENT 94 53 60 64
REMARK Flexibility Score: inf
ROOT
ATOM      1  C   UNL A   1      35.311  21.994  24.231  1.00  0.00     0.188 C 
ENDROOT
BRANCH   1   2
ATOM      2  C   UNL A   1      34.993  20.734  25.062  1.00  0.00     0.188 C 
BRANCH   2   3
ATOM      3  O   UNL A   1      33.781  20.653  25.804  1.00  0.00    -0.376 OA
BRANCH   3   4
ATOM      4  C   UNL A   1      32.534  20.610  25.129  1.00  0.00     0.202 C 
BRANCH   4   5
ATOM      5  C   UNL A   1      31.581  21.805  25.256  1.00  0.00     0.261 C 
BRANCH   5   6
ATOM      6  O   UNL A   1      31.754  22.610  26.438  1.00  0.00    -0.460 OA
BRANCH   6   7
ATOM      7  C   UNL A   1      30.818  23.573  26.613  1.00  0.00     0.338 C 
ATOM      8  O   UNL A   1      29.843  23.499  27.345  1.00  0.00    -0.246 OA
BRANCH   7   9
ATOM      9  C   UNL A   1      31.145  24.820  25.895  1.00  0.00     0.087 C 
ATOM     10  C   UNL A   1      31.818  28.841  25.003  1.00  0.00    -0.002 A 
ATOM     11  C   UNL A   1      31.260  29.372  23.825  1.00  0.00     0.054 A 
ATOM     12  C   UNL A   1      31.544  27.502  25.299  1.00  0.00     0.131 A 
ATOM     13  C   UNL A   1      30.460  28.595  22.977  1.00  0.00     0.130 A 
ATOM     14  C   UNL A   1      30.746  26.696  24.458  1.00  0.00     0.021 A 
ATOM     15  O   UNL A   1      32.023  26.999  26.478  1.00  0.00    -0.475 OA
ATOM     16  C   UNL A   1      30.219  27.252  23.292  1.00  0.00     0.058 A 
ATOM     17  C   UNL A   1      30.405  25.333  24.896  1.00  0.00     0.027 C 
ATOM     18  C   UNL A   1      32.328  25.589  26.437  1.00  0.00     0.316 C 
BRANCH  10  19
ATOM     19  C   UNL A   1      32.602  29.792  25.889  1.00  0.00     0.036 C 
ATOM     20  C   UNL A   1      31.862  30.770  26.796  1.00  0.00     0.009 C 
ENDBRANCH  10  19
BRANCH  13  21
ATOM     21  O   UNL A   1      29.854  29.035  21.832  1.00  0.00    -0.406 OA
BRANCH  21  22
ATOM     22  C   UNL A   1      28.819  29.996  21.971  1.00  0.00     0.573 C 
ATOM     23  F   UNL A   1      29.253  31.238  21.658  1.00  0.00    -0.132 F 
ATOM     24  F   UNL A   1      27.755  29.682  21.202  1.00  0.00    -0.132 F 
ATOM     25  F   UNL A   1      28.414  30.013  23.261  1.00  0.00    -0.132 F 
ENDBRANCH  21  22
ENDBRANCH  13  21
BRANCH  18  26
ATOM     26  C   UNL A   1      33.644  25.308  25.673  1.00  0.00     0.430 C 
ATOM     27  F   UNL A   1      34.420  24.383  26.292  1.00  0.00    -0.167 F 
ATOM     28  F   UNL A   1      33.437  24.857  24.416  1.00  0.00    -0.167 F 
ATOM     29  F   UNL A   1      34.396  26.427  25.564  1.00  0.00    -0.167 F 
ENDBRANCH  18  26
ENDBRANCH   7   9
ENDBRANCH   6   7
ENDBRANCH   5   6
ENDBRANCH   4   5
ENDBRANCH   3   4
ENDBRANCH   2   3
ENDBRANCH   1   2
BRANCH   1  30
ATOM     30  O   UNL A   1      36.674  22.357  24.284  1.00  0.00    -0.376 OA
BRANCH  30  31
ATOM     31  C   UNL A   1      37.331  22.305  25.534  1.00  0.00     0.202 C 
BRANCH  31  32
ATOM     32  C   UNL A   1      38.638  21.511  25.695  1.00  0.00     0.261 C 
BRANCH  32  33
ATOM     33  O   UNL A   1      39.516  21.886  26.766  1.00  0.00    -0.460 OA
BRANCH  33  34
ATOM     34  C   UNL A   1      40.815  21.542  26.660  1.00  0.00     0.338 C 
ATOM     35  O   UNL A   1      41.280  20.638  25.968  1.00  0.00    -0.246 OA
BRANCH  34  36
ATOM     36  C   UNL A   1      41.618  22.524  27.412  1.00  0.00     0.060 A 
ATOM     37  C   UNL A   1      42.978  22.276  27.635  1.00  0.00     0.016 A 
ATOM     38  C   UNL A   1      41.025  23.690  27.905  1.00  0.00     0.016 A 
ATOM     39  C   UNL A   1      43.746  23.188  28.369  1.00  0.00     0.010 A 
ATOM     40  C   UNL A   1      41.790  24.589  28.656  1.00  0.00     0.010 A 
ATOM     41  C   UNL A   1      43.150  24.332  28.912  1.00  0.00    -0.014 A 
BRANCH  41  42
ATOM     42  C   UNL A   1      43.878  25.179  29.892  1.00  0.00     0.031 A 
ATOM     43  C   UNL A   1      44.221  26.591  29.499  1.00  0.00     0.074 A 
ATOM     44  C   UNL A   1      44.249  24.710  31.098  1.00  0.00     0.049 A 
ATOM     45  N   UNL A   1      44.975  27.466  30.110  1.00  0.00    -0.248 NA
ATOM     46  C   UNL A   1      43.628  27.079  28.242  1.00  0.00     0.031 C 
ATOM     47  C   UNL A   1      43.919  23.388  31.630  1.00  0.00     0.029 A 
ATOM     48  N   UNL A   1      45.003  25.292  32.088  1.00  0.00    -0.354 N 
ATOM     49  C   UNL A   1      44.960  28.602  29.308  1.00  0.00     0.074 A 
ATOM     50  C   UNL A   1      44.135  28.300  28.160  1.00  0.00     0.031 C 
ATOM     51  C   UNL A   1      44.489  23.253  32.842  1.00  0.00     0.029 A 
ATOM     52  C   UNL A   1      45.260  24.456  33.150  1.00  0.00     0.049 A 
ATOM     53  H   UNL A   1      45.329  26.220  32.042  1.00  0.00     0.167 HD
ATOM     54  C   UNL A   1      45.579  29.789  29.512  1.00  0.00     0.037 A 
ATOM     55  C   UNL A   1      46.058  24.630  34.225  1.00  0.00     0.037 A 
ATOM     56  C   UNL A   1      46.407  30.081  30.651  1.00  0.00     0.049 A 
ATOM     57  C   UNL A   1      46.821  25.924  34.383  1.00  0.00     0.074 A 
ATOM     58  C   UNL A   1      47.095  31.248  30.939  1.00  0.00     0.029 A 
ATOM     59  N   UNL A   1      46.662  29.200  31.690  1.00  0.00    -0.354 N 
ATOM     60  N   UNL A   1      46.815  26.985  33.610  1.00  0.00    -0.248 NA
ATOM     61  C   UNL A   1      47.704  26.045  35.552  1.00  0.00     0.031 C 
ATOM     62  C   UNL A   1      47.803  31.055  32.129  1.00  0.00     0.029 A 
ATOM     63  C   UNL A   1      47.510  29.791  32.613  1.00  0.00     0.049 A 
ATOM     64  H   UNL A   1      46.296  28.289  31.762  1.00  0.00     0.167 HD
ATOM     65  C   UNL A   1      47.656  27.910  34.223  1.00  0.00     0.074 A 
ATOM     66  C   UNL A   1      48.159  27.284  35.427  1.00  0.00     0.031 C 
ATOM     67  C   UNL A   1      47.975  29.167  33.827  1.00  0.00     0.037 A 
BRANCH  54  68
ATOM     68  C   UNL A   1      45.413  30.850  28.460  1.00  0.00     0.058 A 
ATOM     69  C   UNL A   1      44.395  31.812  28.534  1.00  0.00     0.135 A 
ATOM     70  C   UNL A   1      46.307  30.922  27.378  1.00  0.00     0.135 A 
ATOM     71  F   UNL A   1      43.502  31.776  29.535  1.00  0.00    -0.206 F 
ATOM     72  C   UNL A   1      44.254  32.797  27.561  1.00  0.00     0.059 A 
ATOM     73  C   UNL A   1      46.201  31.915  26.408  1.00  0.00     0.059 A 
ATOM     74  F   UNL A   1      47.296  30.023  27.257  1.00  0.00    -0.206 F 
ATOM     75  C   UNL A   1      45.162  32.840  26.502  1.00  0.00     0.060 A 
BRANCH  75  76
ATOM     76  S   UNL A   1      44.969  34.126  25.251  1.00  0.00     0.124 S 
ATOM     77  O   UNL A   1      44.010  35.017  25.895  1.00  0.00    -0.237 OA
ATOM     78  O   UNL A   1      46.327  34.644  25.123  1.00  0.00    -0.237 OA
ATOM     79  O   UNL A   1      44.466  33.400  24.089  1.00  0.00    -0.744 OA
ENDBRANCH  75  76
ENDBRANCH  54  68
BRANCH  55  80
ATOM     80  C   UNL A   1      46.210  23.542  35.232  1.00  0.00     0.058 A 
ATOM     81  C   UNL A   1      47.176  22.538  35.076  1.00  0.00     0.135 A 
ATOM     82  C   UNL A   1      45.373  23.469  36.357  1.00  0.00     0.135 A 
ATOM     83  F   UNL A   1      47.991  22.551  34.009  1.00  0.00    -0.206 F 
ATOM     84  C   UNL A   1      47.296  21.489  35.985  1.00  0.00     0.059 A 
ATOM     85  C   UNL A   1      45.492  22.448  37.295  1.00  0.00     0.059 A 
ATOM     86  F   UNL A   1      44.432  24.406  36.558  1.00  0.00    -0.206 F 
ATOM     87  C   UNL A   1      46.448  21.455  37.093  1.00  0.00     0.060 A 
BRANCH  87  88
ATOM     88  S   UNL A   1      46.632  20.107  38.282  1.00  0.00     0.124 S 
ATOM     89  O   UNL A   1      46.023  20.683  39.476  1.00  0.00    -0.237 OA
ATOM     90  O   UNL A   1      45.887  19.028  37.641  1.00  0.00    -0.237 OA
ATOM     91  O   UNL A   1      48.077  19.910  38.345  1.00  0.00    -0.744 OA
ENDBRANCH  87  88
ENDBRANCH  55  80
BRANCH  67  92
ATOM     92  C   UNL A   1      48.853  29.994  34.727  1.00  0.00     0.058 A 
ATOM     93  C   UNL A   1      50.253  29.962  34.638  1.00  0.00     0.135 A 
ATOM     94  C   UNL A   1      48.275  30.911  35.622  1.00  0.00     0.135 A 
ATOM     95  F   UNL A   1      50.857  29.100  33.804  1.00  0.00    -0.206 F 
ATOM     96  C   UNL A   1      51.049  30.808  35.406  1.00  0.00     0.059 A 
ATOM     97  C   UNL A   1      49.050  31.783  36.380  1.00  0.00     0.059 A 
ATOM     98  F   UNL A   1      46.939  30.990  35.740  1.00  0.00    -0.206 F 
ATOM     99  C   UNL A   1      50.438  31.722  36.267  1.00  0.00     0.060 A 
BRANCH  99 100
ATOM    100  S   UNL A   1      51.479  32.865  37.200  1.00  0.00     0.124 S 
ATOM    101  O   UNL A   1      52.290  33.456  36.141  1.00  0.00    -0.237 OA
ATOM    102  O   UNL A   1      50.495  33.752  37.815  1.00  0.00    -0.237 OA
ATOM    103  O   UNL A   1      52.195  31.995  38.128  1.00  0.00    -0.744 OA
ENDBRANCH  99 100
ENDBRANCH  67  92
ENDBRANCH  41  42
ENDBRANCH  34  36
ENDBRANCH  33  34
ENDBRANCH  32  33
ENDBRANCH  31  32
ENDBRANCH  30  31
ENDBRANCH   1  30
TORSDOF 24
ENDMDL
