MODEL 1
REMARK VINA RESULT:      -8.8      0.000      0.000
REMARK SMILES COc1c(C)cccc1C(=O)NC(=S)Nc1ccc(C(=O)OCCOCCOCCOC(=O)c2ccc(-c3c4nc(c(-c5c(F)cc(S(=O)(=O)[O-])cc5F)c5ccc([nH]5)c(-c5c(F)cc(S(=O)(=O)[O-])cc5F)c5nc(c(-c6c(F)cc(S(=O)(=O)[O-])cc6F)c6ccc3[nH]6)C=C5)C=C4)cc2)cc1C
REMARK SMILES IDX 26 1 25 2 24 3 23 4 22 5 20 6 21 7 19 8 16 9 17 10 101 11
REMARK SMILES IDX 18 12 100 13 102 14 15 15 13 17 14 18 12 19 10 20 11 21 9 23
REMARK SMILES IDX 3 24 4 25 5 26 6 27 8 28 7 29 2 30 1 31 27 32 28 33 29 34
REMARK SMILES IDX 30 35 31 36 32 37 33 38 34 39 35 40 99 41 36 42 98 43 37 44
REMARK SMILES IDX 38 45 39 46 92 47 40 48 97 49 91 50 93 51 41 52 96 53 90 54
REMARK SMILES IDX 89 55 42 57 76 58 55 59 75 60 56 61 59 62 74 63 94 64 57 65
REMARK SMILES IDX 58 66 73 68 95 69 60 70 43 71 44 72 53 73 45 74 46 75 52 76
REMARK SMILES IDX 54 77 47 78 48 79 49 80 50 81 51 82 77 83 78 84 87 85 79 86
REMARK SMILES IDX 80 87 86 88 88 89 81 90 82 91 83 92 84 93 85 94 61 95 62 96
REMARK SMILES IDX 71 97 63 98 64 99 70 100 72 101 65 102 66 103 67 104 68 105
REMARK SMILES IDX 69 106
REMARK H PARENT 15 16 12 22 93 56 59 67
REMARK Flexibility Score: inf
ROOT
ATOM      1  C   UNL A   1      39.135  32.268  35.173  1.00  0.00     0.188 C 
ENDROOT
BRANCH   1   2
ATOM      2  O   UNL A   1      37.834  32.288  34.533  1.00  0.00    -0.376 OA
BRANCH   2   3
ATOM      3  C   UNL A   1      37.404  31.518  33.367  1.00  0.00     0.202 C 
BRANCH   3   4
ATOM      4  C   UNL A   1      38.114  30.892  31.856  1.00  0.00     0.261 C 
BRANCH   4   5
ATOM      5  O   UNL A   1      38.875  29.240  31.318  1.00  0.00    -0.460 OA
BRANCH   5   6
ATOM      6  C   UNL A   1      40.159  28.693  30.592  1.00  0.00     0.338 C 
ATOM      7  O   UNL A   1      41.285  28.486  31.088  1.00  0.00    -0.246 OA
BRANCH   6   8
ATOM      8  C   UNL A   1      40.430  28.047  29.337  1.00  0.00     0.060 A 
ATOM      9  C   UNL A   1      41.001  26.242  25.878  1.00  0.00     0.043 A 
ATOM     10  C   UNL A   1      41.647  28.165  26.038  1.00  0.00     0.027 A 
ATOM     11  C   UNL A   1      40.006  25.426  27.358  1.00  0.00    -0.027 A 
ATOM     12  C   UNL A   1      41.296  28.921  27.827  1.00  0.00     0.018 A 
ATOM     13  C   UNL A   1      39.673  26.195  29.138  1.00  0.00     0.021 A 
ATOM     14  C   UNL A   1      38.832  24.566  26.819  1.00  0.00     0.046 C 
BRANCH   9  15
ATOM     15  N   UNL A   1      41.795  25.208  25.269  1.00  0.00    -0.332 N 
ATOM     16  H   UNL A   1      41.435  24.837  24.431  1.00  0.00     0.169 HD
BRANCH  15  17
ATOM     17  C   UNL A   1      42.983  24.667  25.690  1.00  0.00     0.177 C 
ATOM     18  S   UNL A   1      43.207  23.018  25.445  1.00  0.00    -0.040 S 
BRANCH  17  19
ATOM     19  N   UNL A   1      44.064  25.345  26.227  1.00  0.00    -0.299 N 
ATOM     20  C   UNL A   1      44.494  26.042  27.371  1.00  0.00     0.261 C 
ATOM     21  O   UNL A   1      45.582  26.617  27.385  1.00  0.00    -0.269 OA
ATOM     22  H   UNL A   1      44.797  25.336  25.571  1.00  0.00     0.172 HD
BRANCH  20  23
ATOM     23  C   UNL A   1      43.629  26.203  28.532  1.00  0.00     0.082 A 
ATOM     24  C   UNL A   1      43.865  25.702  29.693  1.00  0.00     0.134 A 
ATOM     25  C   UNL A   1      44.214  25.836  31.744  1.00  0.00    -0.008 A 
ATOM     26  C   UNL A   1      44.705  24.410  32.815  1.00  0.00     0.048 C 
ATOM     27  C   UNL A   1      44.228  26.572  32.781  1.00  0.00     0.007 A 
ATOM     28  C   UNL A   1      43.952  26.849  29.586  1.00  0.00     0.018 A 
ATOM     29  C   UNL A   1      44.185  27.030  31.607  1.00  0.00     0.001 A 
BRANCH  24  30
ATOM     30  O   UNL A   1      43.452  24.235  28.841  1.00  0.00    -0.496 OA
ATOM     31  C   UNL A   1      43.385  22.847  29.233  1.00  0.00     0.278 C 
ENDBRANCH  24  30
ENDBRANCH  20  23
ENDBRANCH  17  19
ENDBRANCH  15  17
ENDBRANCH   9  15
ENDBRANCH   6   8
ENDBRANCH   5   6
ENDBRANCH   4   5
ENDBRANCH   3   4
ENDBRANCH   2   3
ENDBRANCH   1   2
BRANCH   1  32
ATOM     32  C   UNL A   1      39.494  33.392  36.100  1.00  0.00     0.188 C 
BRANCH  32  33
ATOM     33  O   UNL A   1      40.149  32.776  37.174  1.00  0.00    -0.376 OA
BRANCH  33  34
ATOM     34  C   UNL A   1      40.735  33.558  38.159  1.00  0.00     0.202 C 
BRANCH  34  35
ATOM     35  C   UNL A   1      42.229  33.684  37.942  1.00  0.00     0.261 C 
BRANCH  35  36
ATOM     36  O   UNL A   1      42.677  34.218  36.647  1.00  0.00    -0.460 OA
BRANCH  36  37
ATOM     37  C   UNL A   1      42.416  35.460  36.091  1.00  0.00     0.338 C 
ATOM     38  O   UNL A   1      42.553  36.486  36.742  1.00  0.00    -0.246 OA
BRANCH  37  39
ATOM     39  C   UNL A   1      42.385  35.494  34.609  1.00  0.00     0.060 A 
ATOM     40  C   UNL A   1      41.652  34.729  33.680  1.00  0.00     0.016 A 
ATOM     41  C   UNL A   1      43.204  36.409  34.079  1.00  0.00     0.016 A 
ATOM     42  C   UNL A   1      42.062  34.499  32.280  1.00  0.00     0.010 A 
ATOM     43  C   UNL A   1      43.623  36.107  32.800  1.00  0.00     0.010 A 
ATOM     44  C   UNL A   1      43.242  35.033  31.773  1.00  0.00    -0.014 A 
BRANCH  44  45
ATOM     45  C   UNL A   1      44.000  34.786  30.061  1.00  0.00     0.031 A 
ATOM     46  C   UNL A   1      45.508  33.692  29.682  1.00  0.00     0.074 A 
ATOM     47  C   UNL A   1      43.589  35.480  28.977  1.00  0.00     0.049 A 
ATOM     48  N   UNL A   1      46.708  34.135  29.341  1.00  0.00    -0.248 NA
ATOM     49  C   UNL A   1      45.851  32.191  30.283  1.00  0.00     0.031 C 
ATOM     50  C   UNL A   1      43.899  35.227  27.572  1.00  0.00     0.029 A 
ATOM     51  N   UNL A   1      42.712  36.561  28.915  1.00  0.00    -0.354 N 
ATOM     52  C   UNL A   1      47.640  33.085  29.559  1.00  0.00     0.074 A 
ATOM     53  C   UNL A   1      47.134  32.289  30.590  1.00  0.00     0.031 C 
ATOM     54  C   UNL A   1      43.510  36.298  26.848  1.00  0.00     0.029 A 
ATOM     55  C   UNL A   1      43.062  37.312  27.795  1.00  0.00     0.049 A 
ATOM     56  H   UNL A   1      41.981  36.756  29.546  1.00  0.00     0.167 HD
ATOM     57  C   UNL A   1      48.394  32.535  28.559  1.00  0.00     0.037 A 
ATOM     58  C   UNL A   1      43.597  38.547  28.002  1.00  0.00     0.037 A 
ATOM     59  C   UNL A   1      48.098  33.321  27.395  1.00  0.00     0.049 A 
ATOM     60  C   UNL A   1      45.032  38.521  27.528  1.00  0.00     0.074 A 
ATOM     61  C   UNL A   1      47.070  33.219  26.471  1.00  0.00     0.029 A 
ATOM     62  N   UNL A   1      48.467  34.645  27.456  1.00  0.00    -0.354 N 
ATOM     63  N   UNL A   1      45.813  37.469  27.561  1.00  0.00    -0.248 NA
ATOM     64  C   UNL A   1      45.621  39.639  26.802  1.00  0.00     0.031 C 
ATOM     65  C   UNL A   1      46.775  34.541  26.033  1.00  0.00     0.029 A 
ATOM     66  C   UNL A   1      47.635  35.417  26.675  1.00  0.00     0.049 A 
ATOM     67  H   UNL A   1      49.221  34.993  27.986  1.00  0.00     0.167 HD
ATOM     68  C   UNL A   1      46.947  37.727  26.835  1.00  0.00     0.074 A 
ATOM     69  C   UNL A   1      46.776  39.096  26.387  1.00  0.00     0.031 C 
ATOM     70  C   UNL A   1      47.942  36.826  26.580  1.00  0.00     0.037 A 
BRANCH  57  71
ATOM     71  C   UNL A   1      48.987  31.115  28.557  1.00  0.00     0.058 A 
ATOM     72  C   UNL A   1      48.184  30.042  28.117  1.00  0.00     0.135 A 
ATOM     73  C   UNL A   1      50.289  30.720  28.972  1.00  0.00     0.135 A 
ATOM     74  F   UNL A   1      46.945  30.252  27.654  1.00  0.00    -0.206 F 
ATOM     75  C   UNL A   1      48.603  28.707  28.130  1.00  0.00     0.059 A 
ATOM     76  C   UNL A   1      50.716  29.380  29.038  1.00  0.00     0.059 A 
ATOM     77  F   UNL A   1      51.231  31.616  29.300  1.00  0.00    -0.206 F 
ATOM     78  C   UNL A   1      49.865  28.376  28.603  1.00  0.00     0.060 A 
BRANCH  78  79
ATOM     79  S   UNL A   1      50.364  26.642  28.585  1.00  0.00     0.124 S 
ATOM     80  O   UNL A   1      51.287  26.578  29.715  1.00  0.00    -0.237 OA
ATOM     81  O   UNL A   1      49.091  25.954  28.770  1.00  0.00    -0.237 OA
ATOM     82  O   UNL A   1      50.982  26.470  27.274  1.00  0.00    -0.744 OA
ENDBRANCH  78  79
ENDBRANCH  57  71
BRANCH  58  83
ATOM     83  C   UNL A   1      42.995  39.237  29.205  1.00  0.00     0.058 A 
ATOM     84  C   UNL A   1      43.687  39.129  30.442  1.00  0.00     0.135 A 
ATOM     85  C   UNL A   1      42.038  40.254  29.128  1.00  0.00     0.135 A 
ATOM     86  F   UNL A   1      44.605  38.160  30.614  1.00  0.00    -0.206 F 
ATOM     87  C   UNL A   1      43.561  40.068  31.469  1.00  0.00     0.059 A 
ATOM     88  C   UNL A   1      41.865  41.188  30.170  1.00  0.00     0.059 A 
ATOM     89  F   UNL A   1      41.321  40.427  28.009  1.00  0.00    -0.206 F 
ATOM     90  C   UNL A   1      42.670  41.120  31.310  1.00  0.00     0.060 A 
BRANCH  90  91
ATOM     91  S   UNL A   1      42.707  42.460  32.534  1.00  0.00     0.124 S 
ATOM     92  O   UNL A   1      44.132  42.599  32.800  1.00  0.00    -0.237 OA
ATOM     93  O   UNL A   1      42.087  43.565  31.802  1.00  0.00    -0.237 OA
ATOM     94  O   UNL A   1      41.926  41.926  33.643  1.00  0.00    -0.744 OA
ENDBRANCH  90  91
ENDBRANCH  58  83
BRANCH  70  95
ATOM     95  C   UNL A   1      49.355  37.184  26.174  1.00  0.00     0.058 A 
ATOM     96  C   UNL A   1      50.244  37.870  27.009  1.00  0.00     0.135 A 
ATOM     97  C   UNL A   1      49.924  36.665  24.974  1.00  0.00     0.135 A 
ATOM     98  F   UNL A   1      49.895  38.271  28.238  1.00  0.00    -0.206 F 
ATOM     99  C   UNL A   1      51.550  38.148  26.624  1.00  0.00     0.059 A 
ATOM    100  C   UNL A   1      51.259  36.810  24.642  1.00  0.00     0.059 A 
ATOM    101  F   UNL A   1      49.204  35.985  24.069  1.00  0.00    -0.206 F 
ATOM    102  C   UNL A   1      52.044  37.618  25.438  1.00  0.00     0.060 A 
BRANCH 102 103
ATOM    103  S   UNL A   1      53.705  38.035  24.915  1.00  0.00     0.124 S 
ATOM    104  O   UNL A   1      53.689  37.558  23.534  1.00  0.00    -0.237 OA
ATOM    105  O   UNL A   1      53.735  39.485  25.083  1.00  0.00    -0.237 OA
ATOM    106  O   UNL A   1      54.554  37.282  25.831  1.00  0.00    -0.744 OA
ENDBRANCH 102 103
ENDBRANCH  70  95
ENDBRANCH  44  45
ENDBRANCH  37  39
ENDBRANCH  36  37
ENDBRANCH  35  36
ENDBRANCH  34  35
ENDBRANCH  33  34
ENDBRANCH  32  33
ENDBRANCH   1  32
TORSDOF 25
ENDMDL
MODEL 2
REMARK VINA RESULT:      -8.3      3.647     11.473
REMARK SMILES COc1c(C)cccc1C(=O)NC(=S)Nc1ccc(C(=O)OCCOCCOCCOC(=O)c2ccc(-c3c4nc(c(-c5c(F)cc(S(=O)(=O)[O-])cc5F)c5ccc([nH]5)c(-c5c(F)cc(S(=O)(=O)[O-])cc5F)c5nc(c(-c6c(F)cc(S(=O)(=O)[O-])cc6F)c6ccc3[nH]6)C=C5)C=C4)cc2)cc1C
REMARK SMILES IDX 26 1 25 2 24 3 23 4 22 5 20 6 21 7 19 8 16 9 17 10 101 11
REMARK SMILES IDX 18 12 100 13 102 14 15 15 13 17 14 18 12 19 10 20 11 21 9 23
REMARK SMILES IDX 3 24 4 25 5 26 6 27 8 28 7 29 2 30 1 31 27 32 28 33 29 34
REMARK SMILES IDX 30 35 31 36 32 37 33 38 34 39 35 40 99 41 36 42 98 43 37 44
REMARK SMILES IDX 38 45 39 46 92 47 40 48 97 49 91 50 93 51 41 52 96 53 90 54
REMARK SMILES IDX 89 55 42 57 76 58 55 59 75 60 56 61 59 62 74 63 94 64 57 65
REMARK SMILES IDX 58 66 73 68 95 69 60 70 43 71 44 72 53 73 45 74 46 75 52 76
REMARK SMILES IDX 54 77 47 78 48 79 49 80 50 81 51 82 77 83 78 84 87 85 79 86
REMARK SMILES IDX 80 87 86 88 88 89 81 90 82 91 83 92 84 93 85 94 61 95 62 96
REMARK SMILES IDX 71 97 63 98 64 99 70 100 72 101 65 102 66 103 67 104 68 105
REMARK SMILES IDX 69 106
REMARK H PARENT 15 16 12 22 93 56 59 67
REMARK Flexibility Score: inf
ROOT
ATOM      1  C   UNL A   1      45.538  27.100  25.934  1.00  0.00     0.188 C 
ENDROOT
BRANCH   1   2
ATOM      2  O   UNL A   1      44.604  28.140  25.545  1.00  0.00    -0.376 OA
BRANCH   2   3
ATOM      3  C   UNL A   1      43.753  28.944  26.420  1.00  0.00     0.202 C 
BRANCH   3   4
ATOM      4  C   UNL A   1      43.565  30.658  26.877  1.00  0.00     0.261 C 
BRANCH   4   5
ATOM      5  O   UNL A   1      43.768  32.314  25.974  1.00  0.00    -0.460 OA
BRANCH   5   6
ATOM      6  C   UNL A   1      44.907  33.300  25.522  1.00  0.00     0.338 C 
ATOM      7  O   UNL A   1      44.845  34.188  24.648  1.00  0.00    -0.246 OA
BRANCH   6   8
ATOM      8  C   UNL A   1      46.184  33.701  26.048  1.00  0.00     0.060 A 
ATOM      9  C   UNL A   1      49.762  34.680  27.385  1.00  0.00     0.043 A 
ATOM     10  C   UNL A   1      48.644  36.163  26.554  1.00  0.00     0.027 A 
ATOM     11  C   UNL A   1      49.101  32.834  27.354  1.00  0.00    -0.027 A 
ATOM     12  C   UNL A   1      46.884  35.515  25.943  1.00  0.00     0.018 A 
ATOM     13  C   UNL A   1      47.338  32.209  26.746  1.00  0.00     0.021 A 
ATOM     14  C   UNL A   1      50.256  31.845  27.043  1.00  0.00     0.046 C 
BRANCH   9  15
ATOM     15  N   UNL A   1      50.491  34.857  28.613  1.00  0.00    -0.332 N 
ATOM     16  H   UNL A   1      49.943  35.065  29.404  1.00  0.00     0.169 HD
BRANCH  15  17
ATOM     17  C   UNL A   1      51.842  34.776  28.838  1.00  0.00     0.177 C 
ATOM     18  S   UNL A   1      52.855  35.501  27.707  1.00  0.00    -0.040 S 
BRANCH  17  19
ATOM     19  N   UNL A   1      52.472  34.229  29.942  1.00  0.00    -0.299 N 
ATOM     20  C   UNL A   1      52.747  33.008  30.585  1.00  0.00     0.261 C 
ATOM     21  O   UNL A   1      53.294  32.988  31.688  1.00  0.00    -0.269 OA
ATOM     22  H   UNL A   1      52.873  34.958  30.468  1.00  0.00     0.172 HD
BRANCH  20  23
ATOM     23  C   UNL A   1      52.300  31.738  30.029  1.00  0.00     0.082 A 
ATOM     24  C   UNL A   1      53.073  30.749  29.754  1.00  0.00     0.134 A 
ATOM     25  C   UNL A   1      53.721  28.778  29.955  1.00  0.00    -0.008 A 
ATOM     26  C   UNL A   1      55.266  28.103  29.194  1.00  0.00     0.048 C 
ATOM     27  C   UNL A   1      53.492  27.619  30.428  1.00  0.00     0.007 A 
ATOM     28  C   UNL A   1      52.354  30.623  30.648  1.00  0.00     0.018 A 
ATOM     29  C   UNL A   1      52.880  28.655  30.806  1.00  0.00     0.001 A 
BRANCH  24  30
ATOM     30  O   UNL A   1      53.545  31.831  28.467  1.00  0.00    -0.496 OA
ATOM     31  C   UNL A   1      54.054  31.621  27.131  1.00  0.00     0.278 C 
ENDBRANCH  24  30
ENDBRANCH  20  23
ENDBRANCH  17  19
ENDBRANCH  15  17
ENDBRANCH   9  15
ENDBRANCH   6   8
ENDBRANCH   5   6
ENDBRANCH   4   5
ENDBRANCH   3   4
ENDBRANCH   2   3
ENDBRANCH   1   2
BRANCH   1  32
ATOM     32  C   UNL A   1      45.559  25.824  25.144  1.00  0.00     0.188 C 
BRANCH  32  33
ATOM     33  O   UNL A   1      44.270  25.294  25.285  1.00  0.00    -0.376 OA
BRANCH  33  34
ATOM     34  C   UNL A   1      44.046  23.954  25.004  1.00  0.00     0.202 C 
BRANCH  34  35
ATOM     35  C   UNL A   1      43.843  23.153  26.274  1.00  0.00     0.261 C 
BRANCH  35  36
ATOM     36  O   UNL A   1      42.591  23.371  27.012  1.00  0.00    -0.460 OA
BRANCH  36  37
ATOM     37  C   UNL A   1      42.425  23.805  28.318  1.00  0.00     0.338 C 
ATOM     38  O   UNL A   1      42.295  23.009  29.237  1.00  0.00    -0.246 OA
BRANCH  37  39
ATOM     39  C   UNL A   1      42.831  25.208  28.573  1.00  0.00     0.060 A 
ATOM     40  C   UNL A   1      44.060  25.755  28.991  1.00  0.00     0.016 A 
ATOM     41  C   UNL A   1      41.848  26.092  28.373  1.00  0.00     0.016 A 
ATOM     42  C   UNL A   1      44.204  27.052  29.682  1.00  0.00     0.010 A 
ATOM     43  C   UNL A   1      41.987  27.254  29.105  1.00  0.00     0.010 A 
ATOM     44  C   UNL A   1      43.099  27.840  29.985  1.00  0.00    -0.014 A 
BRANCH  44  45
ATOM     45  C   UNL A   1      43.044  29.468  30.941  1.00  0.00     0.031 A 
ATOM     46  C   UNL A   1      41.617  30.723  30.878  1.00  0.00     0.074 A 
ATOM     47  C   UNL A   1      44.093  29.924  31.660  1.00  0.00     0.049 A 
ATOM     48  N   UNL A   1      41.671  31.914  30.302  1.00  0.00    -0.248 NA
ATOM     49  C   UNL A   1      39.993  30.417  30.890  1.00  0.00     0.031 C 
ATOM     50  C   UNL A   1      44.115  31.013  32.632  1.00  0.00     0.029 A 
ATOM     51  N   UNL A   1      45.393  29.428  31.715  1.00  0.00    -0.354 N 
ATOM     52  C   UNL A   1      40.338  32.357  30.090  1.00  0.00     0.074 A 
ATOM     53  C   UNL A   1      39.541  31.219  29.941  1.00  0.00     0.031 C 
ATOM     54  C   UNL A   1      45.401  31.307  32.917  1.00  0.00     0.029 A 
ATOM     55  C   UNL A   1      46.228  30.497  32.032  1.00  0.00     0.049 A 
ATOM     56  H   UNL A   1      45.669  28.496  31.559  1.00  0.00     0.167 HD
ATOM     57  C   UNL A   1      39.830  33.495  30.655  1.00  0.00     0.037 A 
ATOM     58  C   UNL A   1      47.091  30.933  31.073  1.00  0.00     0.037 A 
ATOM     59  C   UNL A   1      40.940  34.101  31.333  1.00  0.00     0.049 A 
ATOM     60  C   UNL A   1      46.673  32.328  30.667  1.00  0.00     0.074 A 
ATOM     61  C   UNL A   1      41.456  33.882  32.601  1.00  0.00     0.029 A 
ATOM     62  N   UNL A   1      41.979  34.513  30.532  1.00  0.00    -0.354 N 
ATOM     63  N   UNL A   1      45.440  32.772  30.673  1.00  0.00    -0.248 NA
ATOM     64  C   UNL A   1      47.650  33.379  30.413  1.00  0.00     0.031 C 
ATOM     65  C   UNL A   1      42.860  34.100  32.519  1.00  0.00     0.029 A 
ATOM     66  C   UNL A   1      43.171  34.466  31.220  1.00  0.00     0.049 A 
ATOM     67  H   UNL A   1      41.885  34.802  29.595  1.00  0.00     0.167 HD
ATOM     68  C   UNL A   1      45.450  34.131  30.492  1.00  0.00     0.074 A 
ATOM     69  C   UNL A   1      46.855  34.457  30.332  1.00  0.00     0.031 C 
ATOM     70  C   UNL A   1      44.350  34.939  30.530  1.00  0.00     0.037 A 
BRANCH  57  71
ATOM     71  C   UNL A   1      38.343  33.770  30.942  1.00  0.00     0.058 A 
ATOM     72  C   UNL A   1      37.959  34.146  32.245  1.00  0.00     0.135 A 
ATOM     73  C   UNL A   1      37.254  33.677  30.031  1.00  0.00     0.135 A 
ATOM     74  F   UNL A   1      38.871  34.318  33.211  1.00  0.00    -0.206 F 
ATOM     75  C   UNL A   1      36.631  34.361  32.628  1.00  0.00     0.059 A 
ATOM     76  C   UNL A   1      35.906  33.843  30.404  1.00  0.00     0.059 A 
ATOM     77  F   UNL A   1      37.441  33.457  28.722  1.00  0.00    -0.206 F 
ATOM     78  C   UNL A   1      35.604  34.197  31.709  1.00  0.00     0.060 A 
BRANCH  78  79
ATOM     79  S   UNL A   1      33.908  34.501  32.248  1.00  0.00     0.124 S 
ATOM     80  O   UNL A   1      33.233  34.786  30.985  1.00  0.00    -0.237 OA
ATOM     81  O   UNL A   1      33.556  33.234  32.881  1.00  0.00    -0.237 OA
ATOM     82  O   UNL A   1      34.029  35.639  33.154  1.00  0.00    -0.744 OA
ENDBRANCH  78  79
ENDBRANCH  57  71
BRANCH  58  83
ATOM     83  C   UNL A   1      47.617  29.802  30.219  1.00  0.00     0.058 A 
ATOM     84  C   UNL A   1      46.967  29.553  28.980  1.00  0.00     0.135 A 
ATOM     85  C   UNL A   1      48.887  29.234  30.367  1.00  0.00     0.135 A 
ATOM     86  F   UNL A   1      45.731  30.037  28.763  1.00  0.00    -0.206 F 
ATOM     87  C   UNL A   1      47.598  28.929  27.902  1.00  0.00     0.059 A 
ATOM     88  C   UNL A   1      49.527  28.564  29.305  1.00  0.00     0.059 A 
ATOM     89  F   UNL A   1      49.575  29.398  31.506  1.00  0.00    -0.206 F 
ATOM     90  C   UNL A   1      48.898  28.467  28.060  1.00  0.00     0.060 A 
BRANCH  90  91
ATOM     91  S   UNL A   1      49.786  27.895  26.584  1.00  0.00     0.124 S 
ATOM     92  O   UNL A   1      51.137  28.382  26.825  1.00  0.00    -0.237 OA
ATOM     93  O   UNL A   1      49.610  26.445  26.659  1.00  0.00    -0.237 OA
ATOM     94  O   UNL A   1      49.083  28.556  25.491  1.00  0.00    -0.744 OA
ENDBRANCH  90  91
ENDBRANCH  58  83
BRANCH  70  95
ATOM     95  C   UNL A   1      44.267  36.324  29.924  1.00  0.00     0.058 A 
ATOM     96  C   UNL A   1      44.094  36.554  28.555  1.00  0.00     0.135 A 
ATOM     97  C   UNL A   1      44.167  37.479  30.753  1.00  0.00     0.135 A 
ATOM     98  F   UNL A   1      44.001  35.549  27.674  1.00  0.00    -0.206 F 
ATOM     99  C   UNL A   1      43.980  37.836  28.032  1.00  0.00     0.059 A 
ATOM    100  C   UNL A   1      43.910  38.746  30.261  1.00  0.00     0.059 A 
ATOM    101  F   UNL A   1      44.308  37.426  32.086  1.00  0.00    -0.206 F 
ATOM    102  C   UNL A   1      43.894  38.924  28.894  1.00  0.00     0.060 A 
BRANCH 102 103
ATOM    103  S   UNL A   1      43.815  40.579  28.214  1.00  0.00     0.124 S 
ATOM    104  O   UNL A   1      43.738  41.377  29.434  1.00  0.00    -0.237 OA
ATOM    105  O   UNL A   1      45.067  40.676  27.471  1.00  0.00    -0.237 OA
ATOM    106  O   UNL A   1      42.605  40.557  27.398  1.00  0.00    -0.744 OA
ENDBRANCH 102 103
ENDBRANCH  70  95
ENDBRANCH  44  45
ENDBRANCH  37  39
ENDBRANCH  36  37
ENDBRANCH  35  36
ENDBRANCH  34  35
ENDBRANCH  33  34
ENDBRANCH  32  33
ENDBRANCH   1  32
TORSDOF 25
ENDMDL
MODEL 3
REMARK VINA RESULT:      -8.2      3.672     11.972
REMARK SMILES COc1c(C)cccc1C(=O)NC(=S)Nc1ccc(C(=O)OCCOCCOCCOC(=O)c2ccc(-c3c4nc(c(-c5c(F)cc(S(=O)(=O)[O-])cc5F)c5ccc([nH]5)c(-c5c(F)cc(S(=O)(=O)[O-])cc5F)c5nc(c(-c6c(F)cc(S(=O)(=O)[O-])cc6F)c6ccc3[nH]6)C=C5)C=C4)cc2)cc1C
REMARK SMILES IDX 26 1 25 2 24 3 23 4 22 5 20 6 21 7 19 8 16 9 17 10 101 11
REMARK SMILES IDX 18 12 100 13 102 14 15 15 13 17 14 18 12 19 10 20 11 21 9 23
REMARK SMILES IDX 3 24 4 25 5 26 6 27 8 28 7 29 2 30 1 31 27 32 28 33 29 34
REMARK SMILES IDX 30 35 31 36 32 37 33 38 34 39 35 40 99 41 36 42 98 43 37 44
REMARK SMILES IDX 38 45 39 46 92 47 40 48 97 49 91 50 93 51 41 52 96 53 90 54
REMARK SMILES IDX 89 55 42 57 76 58 55 59 75 60 56 61 59 62 74 63 94 64 57 65
REMARK SMILES IDX 58 66 73 68 95 69 60 70 43 71 44 72 53 73 45 74 46 75 52 76
REMARK SMILES IDX 54 77 47 78 48 79 49 80 50 81 51 82 77 83 78 84 87 85 79 86
REMARK SMILES IDX 80 87 86 88 88 89 81 90 82 91 83 92 84 93 85 94 61 95 62 96
REMARK SMILES IDX 71 97 63 98 64 99 70 100 72 101 65 102 66 103 67 104 68 105
REMARK SMILES IDX 69 106
REMARK H PARENT 15 16 12 22 93 56 59 67
REMARK Flexibility Score: inf
ROOT
ATOM      1  C   UNL A   1      45.757  27.182  26.096  1.00  0.00     0.188 C 
ENDROOT
BRANCH   1   2
ATOM      2  O   UNL A   1      44.694  28.125  25.802  1.00  0.00    -0.376 OA
BRANCH   2   3
ATOM      3  C   UNL A   1      43.987  28.990  26.744  1.00  0.00     0.202 C 
BRANCH   3   4
ATOM      4  C   UNL A   1      43.846  30.733  27.094  1.00  0.00     0.261 C 
BRANCH   4   5
ATOM      5  O   UNL A   1      43.891  32.316  26.050  1.00  0.00    -0.460 OA
BRANCH   5   6
ATOM      6  C   UNL A   1      44.936  33.339  25.470  1.00  0.00     0.338 C 
ATOM      7  O   UNL A   1      44.790  34.112  24.502  1.00  0.00    -0.246 OA
BRANCH   6   8
ATOM      8  C   UNL A   1      46.175  33.908  25.926  1.00  0.00     0.060 A 
ATOM      9  C   UNL A   1      49.661  35.356  27.068  1.00  0.00     0.043 A 
ATOM     10  C   UNL A   1      48.314  36.676  26.302  1.00  0.00     0.027 A 
ATOM     11  C   UNL A   1      49.248  33.440  27.069  1.00  0.00    -0.027 A 
ATOM     12  C   UNL A   1      46.623  35.798  25.787  1.00  0.00     0.018 A 
ATOM     13  C   UNL A   1      47.552  32.585  26.557  1.00  0.00     0.021 A 
ATOM     14  C   UNL A   1      50.504  32.610  26.693  1.00  0.00     0.046 C 
BRANCH   9  15
ATOM     15  N   UNL A   1      50.426  35.635  28.254  1.00  0.00    -0.332 N 
ATOM     16  H   UNL A   1      49.973  35.436  29.106  1.00  0.00     0.169 HD
BRANCH  15  17
ATOM     17  C   UNL A   1      51.698  36.136  28.367  1.00  0.00     0.177 C 
ATOM     18  S   UNL A   1      52.823  35.645  27.216  1.00  0.00    -0.040 S 
BRANCH  17  19
ATOM     19  N   UNL A   1      52.148  37.071  29.283  1.00  0.00    -0.299 N 
ATOM     20  C   UNL A   1      52.067  38.433  29.626  1.00  0.00     0.261 C 
ATOM     21  O   UNL A   1      52.767  38.897  30.526  1.00  0.00    -0.269 OA
ATOM     22  H   UNL A   1      52.738  36.619  29.927  1.00  0.00     0.172 HD
BRANCH  20  23
ATOM     23  C   UNL A   1      51.243  39.361  28.865  1.00  0.00     0.082 A 
ATOM     24  C   UNL A   1      50.481  40.256  29.385  1.00  0.00     0.134 A 
ATOM     25  C   UNL A   1      49.858  42.222  29.695  1.00  0.00    -0.008 A 
ATOM     26  C   UNL A   1      48.576  42.729  30.928  1.00  0.00     0.048 C 
ATOM     27  C   UNL A   1      49.959  43.443  29.353  1.00  0.00     0.007 A 
ATOM     28  C   UNL A   1      51.425  40.624  28.831  1.00  0.00     0.018 A 
ATOM     29  C   UNL A   1      50.792  42.558  29.017  1.00  0.00     0.001 A 
BRANCH  24  30
ATOM     30  O   UNL A   1      49.554  38.835  29.798  1.00  0.00    -0.496 OA
ATOM     31  C   UNL A   1      48.186  38.440  29.557  1.00  0.00     0.278 C 
ENDBRANCH  24  30
ENDBRANCH  20  23
ENDBRANCH  17  19
ENDBRANCH  15  17
ENDBRANCH   9  15
ENDBRANCH   6   8
ENDBRANCH   5   6
ENDBRANCH   4   5
ENDBRANCH   3   4
ENDBRANCH   2   3
ENDBRANCH   1   2
BRANCH   1  32
ATOM     32  C   UNL A   1      45.789  25.882  25.347  1.00  0.00     0.188 C 
BRANCH  32  33
ATOM     33  O   UNL A   1      44.659  25.184  25.792  1.00  0.00    -0.376 OA
BRANCH  33  34
ATOM     34  C   UNL A   1      44.620  23.801  25.681  1.00  0.00     0.202 C 
BRANCH  34  35
ATOM     35  C   UNL A   1      44.773  23.138  27.034  1.00  0.00     0.261 C 
BRANCH  35  36
ATOM     36  O   UNL A   1      43.644  23.254  27.970  1.00  0.00    -0.460 OA
BRANCH  36  37
ATOM     37  C   UNL A   1      43.636  23.789  29.248  1.00  0.00     0.338 C 
ATOM     38  O   UNL A   1      43.769  23.077  30.233  1.00  0.00    -0.246 OA
BRANCH  37  39
ATOM     39  C   UNL A   1      43.882  25.250  29.322  1.00  0.00     0.060 A 
ATOM     40  C   UNL A   1      45.065  25.979  29.555  1.00  0.00     0.016 A 
ATOM     41  C   UNL A   1      42.781  25.986  29.139  1.00  0.00     0.016 A 
ATOM     42  C   UNL A   1      45.106  27.352  30.099  1.00  0.00     0.010 A 
ATOM     43  C   UNL A   1      42.837  27.229  29.736  1.00  0.00     0.010 A 
ATOM     44  C   UNL A   1      43.941  28.033  30.435  1.00  0.00    -0.014 A 
BRANCH  44  45
ATOM     45  C   UNL A   1      43.768  29.738  31.228  1.00  0.00     0.031 A 
ATOM     46  C   UNL A   1      42.221  30.839  31.122  1.00  0.00     0.074 A 
ATOM     47  C   UNL A   1      44.797  30.364  31.840  1.00  0.00     0.049 A 
ATOM     48  N   UNL A   1      42.128  31.964  30.430  1.00  0.00    -0.248 NA
ATOM     49  C   UNL A   1      40.638  30.383  31.255  1.00  0.00     0.031 C 
ATOM     50  C   UNL A   1      44.754  31.545  32.698  1.00  0.00     0.029 A 
ATOM     51  N   UNL A   1      46.142  30.002  31.871  1.00  0.00    -0.354 N 
ATOM     52  C   UNL A   1      40.749  32.254  30.251  1.00  0.00     0.074 A 
ATOM     53  C   UNL A   1      40.064  31.036  30.259  1.00  0.00     0.031 C 
ATOM     54  C   UNL A   1      46.017  31.987  32.880  1.00  0.00     0.029 A 
ATOM     55  C   UNL A   1      46.879  31.172  32.035  1.00  0.00     0.049 A 
ATOM     56  H   UNL A   1      46.503  29.089  31.792  1.00  0.00     0.167 HD
ATOM     57  C   UNL A   1      40.156  33.390  30.728  1.00  0.00     0.037 A 
ATOM     58  C   UNL A   1      47.649  31.587  30.991  1.00  0.00     0.037 A 
ATOM     59  C   UNL A   1      41.230  34.166  31.281  1.00  0.00     0.049 A 
ATOM     60  C   UNL A   1      47.075  32.887  30.474  1.00  0.00     0.074 A 
ATOM     61  C   UNL A   1      41.822  34.129  32.533  1.00  0.00     0.029 A 
ATOM     62  N   UNL A   1      42.185  34.590  30.387  1.00  0.00    -0.354 N 
ATOM     63  N   UNL A   1      45.805  33.210  30.505  1.00  0.00    -0.248 NA
ATOM     64  C   UNL A   1      47.930  33.994  30.064  1.00  0.00     0.031 C 
ATOM     65  C   UNL A   1      43.192  34.470  32.353  1.00  0.00     0.029 A 
ATOM     66  C   UNL A   1      43.406  34.728  31.009  1.00  0.00     0.049 A 
ATOM     67  H   UNL A   1      42.019  34.770  29.432  1.00  0.00     0.167 HD
ATOM     68  C   UNL A   1      45.671  34.538  30.192  1.00  0.00     0.074 A 
ATOM     69  C   UNL A   1      47.027  34.978  29.922  1.00  0.00     0.031 C 
ATOM     70  C   UNL A   1      44.498  35.237  30.212  1.00  0.00     0.037 A 
BRANCH  57  71
ATOM     71  C   UNL A   1      38.664  33.551  31.069  1.00  0.00     0.058 A 
ATOM     72  C   UNL A   1      37.740  33.726  30.019  1.00  0.00     0.135 A 
ATOM     73  C   UNL A   1      38.068  33.562  32.361  1.00  0.00     0.135 A 
ATOM     74  F   UNL A   1      38.135  33.698  28.740  1.00  0.00    -0.206 F 
ATOM     75  C   UNL A   1      36.372  33.940  30.221  1.00  0.00     0.059 A 
ATOM     76  C   UNL A   1      36.703  33.823  32.591  1.00  0.00     0.059 A 
ATOM     77  F   UNL A   1      38.770  33.284  33.469  1.00  0.00    -0.206 F 
ATOM     78  C   UNL A   1      35.857  34.001  31.508  1.00  0.00     0.060 A 
BRANCH  78  79
ATOM     79  S   UNL A   1      34.084  34.265  31.715  1.00  0.00     0.124 S 
ATOM     80  O   UNL A   1      33.692  33.104  32.510  1.00  0.00    -0.237 OA
ATOM     81  O   UNL A   1      34.044  35.548  32.410  1.00  0.00    -0.237 OA
ATOM     82  O   UNL A   1      33.571  34.279  30.349  1.00  0.00    -0.744 OA
ENDBRANCH  78  79
ENDBRANCH  57  71
BRANCH  58  83
ATOM     83  C   UNL A   1      48.246  30.430  30.224  1.00  0.00     0.058 A 
ATOM     84  C   UNL A   1      47.587  30.015  29.036  1.00  0.00     0.135 A 
ATOM     85  C   UNL A   1      49.564  29.984  30.379  1.00  0.00     0.135 A 
ATOM     86  F   UNL A   1      46.309  30.374  28.818  1.00  0.00    -0.206 F 
ATOM     87  C   UNL A   1      48.240  29.349  27.996  1.00  0.00     0.059 A 
ATOM     88  C   UNL A   1      50.229  29.273  29.360  1.00  0.00     0.059 A 
ATOM     89  F   UNL A   1      50.265  30.308  31.474  1.00  0.00    -0.206 F 
ATOM     90  C   UNL A   1      49.578  29.011  28.151  1.00  0.00     0.060 A 
BRANCH  90  91
ATOM     91  S   UNL A   1      50.471  28.381  26.702  1.00  0.00     0.124 S 
ATOM     92  O   UNL A   1      49.963  29.227  25.631  1.00  0.00    -0.237 OA
ATOM     93  O   UNL A   1      51.867  28.603  27.078  1.00  0.00    -0.237 OA
ATOM     94  O   UNL A   1      50.055  26.986  26.630  1.00  0.00    -0.744 OA
ENDBRANCH  90  91
ENDBRANCH  58  83
BRANCH  70  95
ATOM     95  C   UNL A   1      44.249  36.538  29.478  1.00  0.00     0.058 A 
ATOM     96  C   UNL A   1      44.526  37.795  30.028  1.00  0.00     0.135 A 
ATOM     97  C   UNL A   1      43.892  36.542  28.099  1.00  0.00     0.135 A 
ATOM     98  F   UNL A   1      45.028  37.933  31.262  1.00  0.00    -0.206 F 
ATOM     99  C   UNL A   1      44.326  38.971  29.315  1.00  0.00     0.059 A 
ATOM    100  C   UNL A   1      43.827  37.694  27.334  1.00  0.00     0.059 A 
ATOM    101  F   UNL A   1      43.597  35.420  27.425  1.00  0.00    -0.206 F 
ATOM    102  C   UNL A   1      43.972  38.908  27.972  1.00  0.00     0.060 A 
BRANCH 102 103
ATOM    103  S   UNL A   1      43.650  40.425  27.077  1.00  0.00     0.124 S 
ATOM    104  O   UNL A   1      42.254  40.232  26.696  1.00  0.00    -0.237 OA
ATOM    105  O   UNL A   1      43.894  41.448  28.089  1.00  0.00    -0.237 OA
ATOM    106  O   UNL A   1      44.612  40.389  25.981  1.00  0.00    -0.744 OA
ENDBRANCH 102 103
ENDBRANCH  70  95
ENDBRANCH  44  45
ENDBRANCH  37  39
ENDBRANCH  36  37
ENDBRANCH  35  36
ENDBRANCH  34  35
ENDBRANCH  33  34
ENDBRANCH  32  33
ENDBRANCH   1  32
TORSDOF 25
ENDMDL
