MODEL 1
REMARK VINA RESULT:     -11.0      0.000      0.000
REMARK SMILES Nc1nccc(N2CCC[C@@](Cc3ccc(F)cc3F)(C(=O)OCCOCCOCCOC(=O)c3ccc(-c4c5nc(c(-c6c(F)cc(S(=O)(=O)[O-])cc6F)c6ccc([nH]6)c(-c6c(F)cc(S(=O)(=O)[O-])cc6F)c6nc(c(-c7c(F)cc(S(=O)(=O)[O-])cc7F)c7ccc4[nH]7)C=C6)C=C5)cc3)C2)n1
REMARK SMILES IDX 28 1 27 2 26 3 25 4 24 5 23 6 21 7 22 8 11 9 7 10 8 11
REMARK SMILES IDX 101 12 9 13 10 14 6 15 2 16 3 17 102 18 4 19 5 20 1 21 12 24
REMARK SMILES IDX 13 25 14 26 19 27 15 28 18 29 20 30 16 31 17 32 29 33 30 34
REMARK SMILES IDX 31 35 32 36 33 37 34 38 35 39 36 40 100 41 37 42 99 43 38 44
REMARK SMILES IDX 39 45 40 46 93 47 41 48 98 49 92 50 94 51 42 52 97 53 91 54
REMARK SMILES IDX 90 55 43 57 77 58 56 59 76 60 57 61 60 62 75 63 95 64 58 65
REMARK SMILES IDX 59 66 74 68 96 69 61 70 44 71 45 72 54 73 46 74 47 75 53 76
REMARK SMILES IDX 55 77 48 78 49 79 50 80 51 81 52 82 78 83 79 84 88 85 80 86
REMARK SMILES IDX 81 87 87 88 89 89 82 90 83 91 84 92 85 93 86 94 62 95 63 96
REMARK SMILES IDX 72 97 64 98 65 99 71 100 73 101 66 102 67 103 68 104 69 105
REMARK SMILES IDX 70 106
REMARK H PARENT 1 22 1 23 94 56 60 67
REMARK Flexibility Score: inf
ROOT
ATOM      1  C   UNL A   1      41.918  20.431  26.390  1.00  0.00     0.188 C 
ENDROOT
BRANCH   1   2
ATOM      2  C   UNL A   1      40.714  20.948  27.177  1.00  0.00     0.188 C 
BRANCH   2   3
ATOM      3  O   UNL A   1      40.716  22.301  27.606  1.00  0.00    -0.376 OA
BRANCH   3   4
ATOM      4  C   UNL A   1      39.621  23.139  27.254  1.00  0.00     0.202 C 
BRANCH   4   5
ATOM      5  C   UNL A   1      38.717  22.734  26.080  1.00  0.00     0.261 C 
BRANCH   5   6
ATOM      6  O   UNL A   1      37.436  23.408  25.990  1.00  0.00    -0.463 OA
BRANCH   6   7
ATOM      7  C   UNL A   1      36.668  23.051  24.928  1.00  0.00     0.314 C 
ATOM      8  O   UNL A   1      37.015  23.251  23.766  1.00  0.00    -0.252 OA
BRANCH   7   9
ATOM      9  C   UNL A   1      35.283  22.471  25.259  1.00  0.00     0.090 C 
ATOM     10  N   UNL A   1      34.227  20.262  25.199  1.00  0.00    -0.355 N 
ATOM     11  C   UNL A   1      33.739  20.239  26.564  1.00  0.00     0.118 C 
ATOM     12  C   UNL A   1      35.481  20.960  24.966  1.00  0.00     0.137 C 
ATOM     13  C   UNL A   1      33.495  21.692  26.983  1.00  0.00     0.023 C 
ATOM     14  C   UNL A   1      34.717  22.599  26.708  1.00  0.00     0.023 C 
BRANCH  10  15
ATOM     15  C   UNL A   1      34.020  19.149  24.395  1.00  0.00     0.134 A 
ATOM     16  C   UNL A   1      32.724  17.956  22.933  1.00  0.00     0.221 A 
ATOM     17  N   UNL A   1      33.411  16.825  23.128  1.00  0.00    -0.222 NA
ATOM     18  N   UNL A   1      32.982  19.120  23.542  1.00  0.00    -0.196 NA
ATOM     19  C   UNL A   1      34.440  16.892  23.982  1.00  0.00     0.119 A 
ATOM     20  C   UNL A   1      34.804  18.040  24.632  1.00  0.00     0.067 A 
BRANCH  16  21
ATOM     21  N   UNL A   1      31.682  17.904  22.057  1.00  0.00    -0.368 N 
ATOM     22  H   UNL A   1      30.766  18.085  22.369  1.00  0.00     0.159 HD
ATOM     23  H   UNL A   1      31.845  17.685  21.111  1.00  0.00     0.159 HD
ENDBRANCH  16  21
ENDBRANCH  10  15
BRANCH   9  24
ATOM     24  C   UNL A   1      34.298  23.105  24.220  1.00  0.00     0.059 C 
BRANCH  24  25
ATOM     25  C   UNL A   1      33.529  24.294  24.769  1.00  0.00    -0.011 A 
ATOM     26  C   UNL A   1      34.196  25.474  25.128  1.00  0.00     0.010 A 
ATOM     27  C   UNL A   1      32.155  24.198  25.033  1.00  0.00     0.129 A 
ATOM     28  C   UNL A   1      33.524  26.478  25.828  1.00  0.00     0.040 A 
ATOM     29  C   UNL A   1      31.476  25.202  25.711  1.00  0.00     0.078 A 
ATOM     30  F   UNL A   1      31.476  23.102  24.670  1.00  0.00    -0.207 F 
ATOM     31  C   UNL A   1      32.176  26.325  26.124  1.00  0.00     0.126 A 
ATOM     32  F   UNL A   1      31.543  27.277  26.823  1.00  0.00    -0.207 F 
ENDBRANCH  24  25
ENDBRANCH   9  24
ENDBRANCH   7   9
ENDBRANCH   6   7
ENDBRANCH   5   6
ENDBRANCH   4   5
ENDBRANCH   3   4
ENDBRANCH   2   3
ENDBRANCH   1   2
BRANCH   1  33
ATOM     33  O   UNL A   1      42.403  21.293  25.383  1.00  0.00    -0.376 OA
BRANCH  33  34
ATOM     34  C   UNL A   1      43.459  22.183  25.717  1.00  0.00     0.202 C 
BRANCH  34  35
ATOM     35  C   UNL A   1      43.258  23.649  25.304  1.00  0.00     0.261 C 
BRANCH  35  36
ATOM     36  O   UNL A   1      42.875  24.538  26.369  1.00  0.00    -0.460 OA
BRANCH  36  37
ATOM     37  C   UNL A   1      42.182  25.652  26.027  1.00  0.00     0.338 C 
ATOM     38  O   UNL A   1      41.576  25.844  24.987  1.00  0.00    -0.246 OA
BRANCH  37  39
ATOM     39  C   UNL A   1      42.040  26.473  27.255  1.00  0.00     0.060 A 
ATOM     40  C   UNL A   1      41.026  26.146  28.170  1.00  0.00     0.016 A 
ATOM     41  C   UNL A   1      42.951  27.491  27.548  1.00  0.00     0.016 A 
ATOM     42  C   UNL A   1      40.907  26.855  29.367  1.00  0.00     0.010 A 
ATOM     43  C   UNL A   1      42.814  28.217  28.733  1.00  0.00     0.010 A 
ATOM     44  C   UNL A   1      41.774  27.922  29.634  1.00  0.00    -0.014 A 
BRANCH  44  45
ATOM     45  C   UNL A   1      41.464  28.873  30.730  1.00  0.00     0.031 A 
ATOM     46  C   UNL A   1      42.302  28.801  31.978  1.00  0.00     0.074 A 
ATOM     47  C   UNL A   1      40.476  29.781  30.631  1.00  0.00     0.049 A 
ATOM     48  N   UNL A   1      42.196  29.474  33.093  1.00  0.00    -0.248 NA
ATOM     49  C   UNL A   1      43.410  27.830  31.961  1.00  0.00     0.031 C 
ATOM     50  C   UNL A   1      39.621  29.983  29.463  1.00  0.00     0.029 A 
ATOM     51  N   UNL A   1      40.021  30.699  31.545  1.00  0.00    -0.354 N 
ATOM     52  C   UNL A   1      43.220  29.010  33.910  1.00  0.00     0.074 A 
ATOM     53  C   UNL A   1      43.915  27.975  33.177  1.00  0.00     0.031 C 
ATOM     54  C   UNL A   1      38.734  30.957  29.736  1.00  0.00     0.029 A 
ATOM     55  C   UNL A   1      38.942  31.428  31.106  1.00  0.00     0.049 A 
ATOM     56  H   UNL A   1      40.431  30.825  32.431  1.00  0.00     0.167 HD
ATOM     57  C   UNL A   1      43.560  29.416  35.155  1.00  0.00     0.037 A 
ATOM     58  C   UNL A   1      38.197  32.354  31.746  1.00  0.00     0.037 A 
ATOM     59  C   UNL A   1      42.863  30.438  35.888  1.00  0.00     0.049 A 
ATOM     60  C   UNL A   1      38.538  32.731  33.166  1.00  0.00     0.074 A 
ATOM     61  C   UNL A   1      43.134  30.924  37.154  1.00  0.00     0.029 A 
ATOM     62  N   UNL A   1      41.747  31.122  35.425  1.00  0.00    -0.354 N 
ATOM     63  N   UNL A   1      39.515  32.295  33.926  1.00  0.00    -0.248 NA
ATOM     64  C   UNL A   1      37.674  33.728  33.817  1.00  0.00     0.031 C 
ATOM     65  C   UNL A   1      42.152  31.867  37.478  1.00  0.00     0.029 A 
ATOM     66  C   UNL A   1      41.302  32.008  36.393  1.00  0.00     0.049 A 
ATOM     67  H   UNL A   1      41.334  30.997  34.541  1.00  0.00     0.167 HD
ATOM     68  C   UNL A   1      39.397  32.978  35.134  1.00  0.00     0.074 A 
ATOM     69  C   UNL A   1      38.259  33.863  35.001  1.00  0.00     0.031 C 
ATOM     70  C   UNL A   1      40.165  32.884  36.249  1.00  0.00     0.037 A 
BRANCH  57  71
ATOM     71  C   UNL A   1      44.724  28.728  35.811  1.00  0.00     0.058 A 
ATOM     72  C   UNL A   1      46.017  29.267  35.714  1.00  0.00     0.135 A 
ATOM     73  C   UNL A   1      44.566  27.531  36.528  1.00  0.00     0.135 A 
ATOM     74  F   UNL A   1      46.223  30.413  35.046  1.00  0.00    -0.206 F 
ATOM     75  C   UNL A   1      47.113  28.648  36.305  1.00  0.00     0.059 A 
ATOM     76  C   UNL A   1      45.643  26.910  37.151  1.00  0.00     0.059 A 
ATOM     77  F   UNL A   1      43.348  26.984  36.672  1.00  0.00    -0.206 F 
ATOM     78  C   UNL A   1      46.914  27.477  37.036  1.00  0.00     0.060 A 
BRANCH  78  79
ATOM     79  S   UNL A   1      48.297  26.664  37.861  1.00  0.00     0.124 S 
ATOM     80  O   UNL A   1      47.648  25.480  38.418  1.00  0.00    -0.237 OA
ATOM     81  O   UNL A   1      49.218  26.421  36.756  1.00  0.00    -0.237 OA
ATOM     82  O   UNL A   1      48.741  27.652  38.839  1.00  0.00    -0.744 OA
ENDBRANCH  78  79
ENDBRANCH  57  71
BRANCH  58  83
ATOM     83  C   UNL A   1      37.048  32.989  31.046  1.00  0.00     0.058 A 
ATOM     84  C   UNL A   1      35.723  32.692  31.403  1.00  0.00     0.135 A 
ATOM     85  C   UNL A   1      37.253  33.894  29.994  1.00  0.00     0.135 A 
ATOM     86  F   UNL A   1      35.474  31.832  32.402  1.00  0.00    -0.206 F 
ATOM     87  C   UNL A   1      34.641  33.250  30.728  1.00  0.00     0.059 A 
ATOM     88  C   UNL A   1      36.188  34.482  29.320  1.00  0.00     0.059 A 
ATOM     89  F   UNL A   1      38.501  34.219  29.623  1.00  0.00    -0.206 F 
ATOM     90  C   UNL A   1      34.884  34.147  29.690  1.00  0.00     0.060 A 
BRANCH  90  91
ATOM     91  S   UNL A   1      33.511  34.869  28.764  1.00  0.00     0.124 S 
ATOM     92  O   UNL A   1      34.079  36.143  28.339  1.00  0.00    -0.237 OA
ATOM     93  O   UNL A   1      33.303  33.880  27.710  1.00  0.00    -0.237 OA
ATOM     94  O   UNL A   1      32.443  34.954  29.754  1.00  0.00    -0.744 OA
ENDBRANCH  90  91
ENDBRANCH  58  83
BRANCH  70  95
ATOM     95  C   UNL A   1      39.823  33.772  37.417  1.00  0.00     0.058 A 
ATOM     96  C   UNL A   1      40.444  35.024  37.563  1.00  0.00     0.135 A 
ATOM     97  C   UNL A   1      38.944  33.356  38.429  1.00  0.00     0.135 A 
ATOM     98  F   UNL A   1      41.304  35.465  36.632  1.00  0.00    -0.206 F 
ATOM     99  C   UNL A   1      40.214  35.829  38.675  1.00  0.00     0.059 A 
ATOM    100  C   UNL A   1      38.678  34.158  39.535  1.00  0.00     0.059 A 
ATOM    101  F   UNL A   1      38.321  32.171  38.338  1.00  0.00    -0.206 F 
ATOM    102  C   UNL A   1      39.322  35.391  39.652  1.00  0.00     0.060 A 
BRANCH 102 103
ATOM    103  S   UNL A   1      38.993  36.402  41.112  1.00  0.00     0.124 S 
ATOM    104  O   UNL A   1      38.626  37.680  40.510  1.00  0.00    -0.237 OA
ATOM    105  O   UNL A   1      37.909  35.671  41.759  1.00  0.00    -0.237 OA
ATOM    106  O   UNL A   1      40.265  36.391  41.829  1.00  0.00    -0.744 OA
ENDBRANCH 102 103
ENDBRANCH  70  95
ENDBRANCH  44  45
ENDBRANCH  37  39
ENDBRANCH  36  37
ENDBRANCH  35  36
ENDBRANCH  34  35
ENDBRANCH  33  34
ENDBRANCH   1  33
TORSDOF 24
ENDMDL
MODEL 2
REMARK VINA RESULT:     -10.9      2.082      3.842
REMARK SMILES Nc1nccc(N2CCC[C@@](Cc3ccc(F)cc3F)(C(=O)OCCOCCOCCOC(=O)c3ccc(-c4c5nc(c(-c6c(F)cc(S(=O)(=O)[O-])cc6F)c6ccc([nH]6)c(-c6c(F)cc(S(=O)(=O)[O-])cc6F)c6nc(c(-c7c(F)cc(S(=O)(=O)[O-])cc7F)c7ccc4[nH]7)C=C6)C=C5)cc3)C2)n1
REMARK SMILES IDX 28 1 27 2 26 3 25 4 24 5 23 6 21 7 22 8 11 9 7 10 8 11
REMARK SMILES IDX 101 12 9 13 10 14 6 15 2 16 3 17 102 18 4 19 5 20 1 21 12 24
REMARK SMILES IDX 13 25 14 26 19 27 15 28 18 29 20 30 16 31 17 32 29 33 30 34
REMARK SMILES IDX 31 35 32 36 33 37 34 38 35 39 36 40 100 41 37 42 99 43 38 44
REMARK SMILES IDX 39 45 40 46 93 47 41 48 98 49 92 50 94 51 42 52 97 53 91 54
REMARK SMILES IDX 90 55 43 57 77 58 56 59 76 60 57 61 60 62 75 63 95 64 58 65
REMARK SMILES IDX 59 66 74 68 96 69 61 70 44 71 45 72 54 73 46 74 47 75 53 76
REMARK SMILES IDX 55 77 48 78 49 79 50 80 51 81 52 82 78 83 79 84 88 85 80 86
REMARK SMILES IDX 81 87 87 88 89 89 82 90 83 91 84 92 85 93 86 94 62 95 63 96
REMARK SMILES IDX 72 97 64 98 65 99 71 100 73 101 66 102 67 103 68 104 69 105
REMARK SMILES IDX 70 106
REMARK H PARENT 1 22 1 23 94 56 60 67
REMARK Flexibility Score: inf
ROOT
ATOM      1  C   UNL A   1      40.991  21.573  27.296  1.00  0.00     0.188 C 
ENDROOT
BRANCH   1   2
ATOM      2  C   UNL A   1      39.659  22.106  26.767  1.00  0.00     0.188 C 
BRANCH   2   3
ATOM      3  O   UNL A   1      38.967  21.345  25.788  1.00  0.00    -0.376 OA
BRANCH   3   4
ATOM      4  C   UNL A   1      37.704  21.806  25.322  1.00  0.00     0.202 C 
BRANCH   4   5
ATOM      5  C   UNL A   1      37.404  23.312  25.340  1.00  0.00     0.261 C 
BRANCH   5   6
ATOM      6  O   UNL A   1      36.010  23.694  25.214  1.00  0.00    -0.463 OA
BRANCH   6   7
ATOM      7  C   UNL A   1      35.518  23.676  23.948  1.00  0.00     0.314 C 
ATOM      8  O   UNL A   1      36.188  23.312  22.984  1.00  0.00    -0.252 OA
BRANCH   7   9
ATOM      9  C   UNL A   1      34.098  24.239  23.766  1.00  0.00     0.090 C 
ATOM     10  N   UNL A   1      32.986  26.390  24.131  1.00  0.00    -0.355 N 
ATOM     11  C   UNL A   1      32.412  26.542  22.809  1.00  0.00     0.118 C 
ATOM     12  C   UNL A   1      34.271  25.715  24.210  1.00  0.00     0.137 C 
ATOM     13  C   UNL A   1      32.184  25.135  22.249  1.00  0.00     0.023 C 
ATOM     14  C   UNL A   1      33.446  24.248  22.348  1.00  0.00     0.023 C 
BRANCH  10  15
ATOM     15  C   UNL A   1      32.798  27.401  25.064  1.00  0.00     0.134 A 
ATOM     16  C   UNL A   1      32.067  29.499  25.614  1.00  0.00     0.221 A 
ATOM     17  N   UNL A   1      32.772  29.530  26.749  1.00  0.00    -0.222 NA
ATOM     18  N   UNL A   1      32.058  28.477  24.749  1.00  0.00    -0.196 NA
ATOM     19  C   UNL A   1      33.496  28.440  27.033  1.00  0.00     0.119 A 
ATOM     20  C   UNL A   1      33.530  27.332  26.231  1.00  0.00     0.067 A 
BRANCH  16  21
ATOM     21  N   UNL A   1      31.317  30.598  25.321  1.00  0.00    -0.368 N 
ATOM     22  H   UNL A   1      31.024  30.763  24.395  1.00  0.00     0.159 HD
ATOM     23  H   UNL A   1      31.067  31.228  26.035  1.00  0.00     0.159 HD
ENDBRANCH  16  21
ENDBRANCH  10  15
BRANCH   9  24
ATOM     24  C   UNL A   1      33.201  23.462  24.786  1.00  0.00     0.059 C 
BRANCH  24  25
ATOM     25  C   UNL A   1      33.100  21.976  24.488  1.00  0.00    -0.011 A 
ATOM     26  C   UNL A   1      32.456  21.520  23.328  1.00  0.00     0.010 A 
ATOM     27  C   UNL A   1      33.549  21.027  25.417  1.00  0.00     0.129 A 
ATOM     28  C   UNL A   1      32.178  20.163  23.164  1.00  0.00     0.040 A 
ATOM     29  C   UNL A   1      33.292  19.672  25.250  1.00  0.00     0.078 A 
ATOM     30  F   UNL A   1      34.202  21.420  26.518  1.00  0.00    -0.207 F 
ATOM     31  C   UNL A   1      32.586  19.255  24.132  1.00  0.00     0.126 A 
ATOM     32  F   UNL A   1      32.288  17.957  23.985  1.00  0.00    -0.207 F 
ENDBRANCH  24  25
ENDBRANCH   9  24
ENDBRANCH   7   9
ENDBRANCH   6   7
ENDBRANCH   5   6
ENDBRANCH   4   5
ENDBRANCH   3   4
ENDBRANCH   2   3
ENDBRANCH   1   2
BRANCH   1  33
ATOM     33  O   UNL A   1      41.957  21.265  26.314  1.00  0.00    -0.376 OA
BRANCH  33  34
ATOM     34  C   UNL A   1      43.108  22.092  26.225  1.00  0.00     0.202 C 
BRANCH  34  35
ATOM     35  C   UNL A   1      42.938  23.396  25.432  1.00  0.00     0.261 C 
BRANCH  35  36
ATOM     36  O   UNL A   1      42.178  24.421  26.097  1.00  0.00    -0.460 OA
BRANCH  36  37
ATOM     37  C   UNL A   1      42.478  25.709  25.795  1.00  0.00     0.338 C 
ATOM     38  O   UNL A   1      42.624  26.183  24.682  1.00  0.00    -0.246 OA
BRANCH  37  39
ATOM     39  C   UNL A   1      42.304  26.502  27.038  1.00  0.00     0.060 A 
ATOM     40  C   UNL A   1      41.348  26.080  27.977  1.00  0.00     0.016 A 
ATOM     41  C   UNL A   1      43.134  27.589  27.319  1.00  0.00     0.016 A 
ATOM     42  C   UNL A   1      41.205  26.764  29.186  1.00  0.00     0.010 A 
ATOM     43  C   UNL A   1      42.971  28.288  28.517  1.00  0.00     0.010 A 
ATOM     44  C   UNL A   1      41.987  27.897  29.443  1.00  0.00    -0.014 A 
BRANCH  44  45
ATOM     45  C   UNL A   1      41.630  28.806  30.560  1.00  0.00     0.031 A 
ATOM     46  C   UNL A   1      42.459  28.732  31.815  1.00  0.00     0.074 A 
ATOM     47  C   UNL A   1      40.610  29.678  30.474  1.00  0.00     0.049 A 
ATOM     48  N   UNL A   1      42.316  29.371  32.945  1.00  0.00    -0.248 NA
ATOM     49  C   UNL A   1      43.603  27.805  31.785  1.00  0.00     0.031 C 
ATOM     50  C   UNL A   1      39.759  29.878  29.302  1.00  0.00     0.029 A 
ATOM     51  N   UNL A   1      40.112  30.554  31.407  1.00  0.00    -0.354 N 
ATOM     52  C   UNL A   1      43.349  28.924  33.761  1.00  0.00     0.074 A 
ATOM     53  C   UNL A   1      44.090  27.936  33.009  1.00  0.00     0.031 C 
ATOM     54  C   UNL A   1      38.833  30.811  29.592  1.00  0.00     0.029 A 
ATOM     55  C   UNL A   1      39.009  31.253  30.976  1.00  0.00     0.049 A 
ATOM     56  H   UNL A   1      40.507  30.671  32.300  1.00  0.00     0.167 HD
ATOM     57  C   UNL A   1      43.662  29.310  35.020  1.00  0.00     0.037 A 
ATOM     58  C   UNL A   1      38.224  32.133  31.631  1.00  0.00     0.037 A 
ATOM     59  C   UNL A   1      42.919  30.285  35.771  1.00  0.00     0.049 A 
ATOM     60  C   UNL A   1      38.536  32.485  33.065  1.00  0.00     0.074 A 
ATOM     61  C   UNL A   1      43.159  30.748  37.053  1.00  0.00     0.029 A 
ATOM     62  N   UNL A   1      41.783  30.939  35.315  1.00  0.00    -0.354 N 
ATOM     63  N   UNL A   1      39.522  32.066  33.823  1.00  0.00    -0.248 NA
ATOM     64  C   UNL A   1      37.628  33.431  33.732  1.00  0.00     0.031 C 
ATOM     65  C   UNL A   1      42.138  31.644  37.391  1.00  0.00     0.029 A 
ATOM     66  C   UNL A   1      41.295  31.781  36.301  1.00  0.00     0.049 A 
ATOM     67  H   UNL A   1      41.383  30.821  34.424  1.00  0.00     0.167 HD
ATOM     68  C   UNL A   1      39.367  32.712  35.047  1.00  0.00     0.074 A 
ATOM     69  C   UNL A   1      38.197  33.557  34.925  1.00  0.00     0.031 C 
ATOM     70  C   UNL A   1      40.126  32.617  36.168  1.00  0.00     0.037 A 
BRANCH  57  71
ATOM     71  C   UNL A   1      44.844  28.649  35.670  1.00  0.00     0.058 A 
ATOM     72  C   UNL A   1      44.680  27.470  36.415  1.00  0.00     0.135 A 
ATOM     73  C   UNL A   1      46.139  29.183  35.565  1.00  0.00     0.135 A 
ATOM     74  F   UNL A   1      43.465  26.913  36.541  1.00  0.00    -0.206 F 
ATOM     75  C   UNL A   1      45.756  26.840  37.033  1.00  0.00     0.059 A 
ATOM     76  C   UNL A   1      47.233  28.555  36.151  1.00  0.00     0.059 A 
ATOM     77  F   UNL A   1      46.356  30.295  34.845  1.00  0.00    -0.206 F 
ATOM     78  C   UNL A   1      47.032  27.382  36.881  1.00  0.00     0.060 A 
BRANCH  78  79
ATOM     79  S   UNL A   1      48.464  26.575  37.624  1.00  0.00     0.124 S 
ATOM     80  O   UNL A   1      49.279  27.725  38.009  1.00  0.00    -0.237 OA
ATOM     81  O   UNL A   1      47.864  25.827  38.723  1.00  0.00    -0.237 OA
ATOM     82  O   UNL A   1      49.002  25.764  36.536  1.00  0.00    -0.744 OA
ENDBRANCH  78  79
ENDBRANCH  57  71
BRANCH  58  83
ATOM     83  C   UNL A   1      37.059  32.742  30.936  1.00  0.00     0.058 A 
ATOM     84  C   UNL A   1      35.773  32.190  31.049  1.00  0.00     0.135 A 
ATOM     85  C   UNL A   1      37.211  33.881  30.131  1.00  0.00     0.135 A 
ATOM     86  F   UNL A   1      35.573  31.101  31.806  1.00  0.00    -0.206 F 
ATOM     87  C   UNL A   1      34.683  32.729  30.371  1.00  0.00     0.059 A 
ATOM     88  C   UNL A   1      36.133  34.451  29.461  1.00  0.00     0.059 A 
ATOM     89  F   UNL A   1      38.418  34.452  30.001  1.00  0.00    -0.206 F 
ATOM     90  C   UNL A   1      34.873  33.862  29.582  1.00  0.00     0.060 A 
BRANCH  90  91
ATOM     91  S   UNL A   1      33.496  34.575  28.656  1.00  0.00     0.124 S 
ATOM     92  O   UNL A   1      32.580  34.948  29.728  1.00  0.00    -0.237 OA
ATOM     93  O   UNL A   1      34.142  35.681  27.955  1.00  0.00    -0.237 OA
ATOM     94  O   UNL A   1      33.055  33.475  27.805  1.00  0.00    -0.744 OA
ENDBRANCH  90  91
ENDBRANCH  58  83
BRANCH  70  95
ATOM     95  C   UNL A   1      39.740  33.460  37.354  1.00  0.00     0.058 A 
ATOM     96  C   UNL A   1      40.390  34.681  37.601  1.00  0.00     0.135 A 
ATOM     97  C   UNL A   1      38.784  33.029  38.288  1.00  0.00     0.135 A 
ATOM     98  F   UNL A   1      41.323  35.135  36.749  1.00  0.00    -0.206 F 
ATOM     99  C   UNL A   1      40.116  35.441  38.735  1.00  0.00     0.059 A 
ATOM    100  C   UNL A   1      38.475  33.786  39.414  1.00  0.00     0.059 A 
ATOM    101  F   UNL A   1      38.130  31.872  38.100  1.00  0.00    -0.206 F 
ATOM    102  C   UNL A   1      39.150  34.989  39.632  1.00  0.00     0.060 A 
BRANCH 102 103
ATOM    103  S   UNL A   1      38.762  35.941  41.117  1.00  0.00     0.124 S 
ATOM    104  O   UNL A   1      38.598  37.284  40.572  1.00  0.00    -0.237 OA
ATOM    105  O   UNL A   1      37.541  35.295  41.589  1.00  0.00    -0.237 OA
ATOM    106  O   UNL A   1      39.936  35.747  41.963  1.00  0.00    -0.744 OA
ENDBRANCH 102 103
ENDBRANCH  70  95
ENDBRANCH  44  45
ENDBRANCH  37  39
ENDBRANCH  36  37
ENDBRANCH  35  36
ENDBRANCH  34  35
ENDBRANCH  33  34
ENDBRANCH   1  33
TORSDOF 24
ENDMDL
MODEL 3
REMARK VINA RESULT:     -10.8      1.300      7.946
REMARK SMILES Nc1nccc(N2CCC[C@@](Cc3ccc(F)cc3F)(C(=O)OCCOCCOCCOC(=O)c3ccc(-c4c5nc(c(-c6c(F)cc(S(=O)(=O)[O-])cc6F)c6ccc([nH]6)c(-c6c(F)cc(S(=O)(=O)[O-])cc6F)c6nc(c(-c7c(F)cc(S(=O)(=O)[O-])cc7F)c7ccc4[nH]7)C=C6)C=C5)cc3)C2)n1
REMARK SMILES IDX 28 1 27 2 26 3 25 4 24 5 23 6 21 7 22 8 11 9 7 10 8 11
REMARK SMILES IDX 101 12 9 13 10 14 6 15 2 16 3 17 102 18 4 19 5 20 1 21 12 24
REMARK SMILES IDX 13 25 14 26 19 27 15 28 18 29 20 30 16 31 17 32 29 33 30 34
REMARK SMILES IDX 31 35 32 36 33 37 34 38 35 39 36 40 100 41 37 42 99 43 38 44
REMARK SMILES IDX 39 45 40 46 93 47 41 48 98 49 92 50 94 51 42 52 97 53 91 54
REMARK SMILES IDX 90 55 43 57 77 58 56 59 76 60 57 61 60 62 75 63 95 64 58 65
REMARK SMILES IDX 59 66 74 68 96 69 61 70 44 71 45 72 54 73 46 74 47 75 53 76
REMARK SMILES IDX 55 77 48 78 49 79 50 80 51 81 52 82 78 83 79 84 88 85 80 86
REMARK SMILES IDX 81 87 87 88 89 89 82 90 83 91 84 92 85 93 86 94 62 95 63 96
REMARK SMILES IDX 72 97 64 98 65 99 71 100 73 101 66 102 67 103 68 104 69 105
REMARK SMILES IDX 70 106
REMARK H PARENT 1 22 1 23 94 56 60 67
REMARK Flexibility Score: inf
ROOT
ATOM      1  C   UNL A   1      40.990  21.932  25.822  1.00  0.00     0.188 C 
ENDROOT
BRANCH   1   2
ATOM      2  C   UNL A   1      39.680  21.432  26.432  1.00  0.00     0.188 C 
BRANCH   2   3
ATOM      3  O   UNL A   1      38.535  22.267  26.354  1.00  0.00    -0.376 OA
BRANCH   3   4
ATOM      4  C   UNL A   1      37.576  22.030  25.329  1.00  0.00     0.202 C 
BRANCH   4   5
ATOM      5  C   UNL A   1      37.299  23.131  24.294  1.00  0.00     0.261 C 
BRANCH   5   6
ATOM      6  O   UNL A   1      35.932  23.245  23.824  1.00  0.00    -0.463 OA
BRANCH   6   7
ATOM      7  C   UNL A   1      35.092  23.923  24.648  1.00  0.00     0.314 C 
ATOM      8  O   UNL A   1      35.485  24.793  25.422  1.00  0.00    -0.252 OA
BRANCH   7   9
ATOM      9  C   UNL A   1      33.622  23.468  24.638  1.00  0.00     0.090 C 
ATOM     10  N   UNL A   1      32.414  21.373  25.025  1.00  0.00    -0.355 N 
ATOM     11  C   UNL A   1      31.479  21.865  26.018  1.00  0.00     0.118 C 
ATOM     12  C   UNL A   1      33.740  21.971  25.026  1.00  0.00     0.137 C 
ATOM     13  C   UNL A   1      31.268  23.357  25.741  1.00  0.00     0.023 C 
ATOM     14  C   UNL A   1      32.601  24.128  25.617  1.00  0.00     0.023 C 
BRANCH  10  15
ATOM     15  C   UNL A   1      32.380  20.029  24.680  1.00  0.00     0.134 A 
ATOM     16  C   UNL A   1      32.704  17.824  25.205  1.00  0.00     0.221 A 
ATOM     17  N   UNL A   1      32.700  17.440  23.924  1.00  0.00    -0.222 NA
ATOM     18  N   UNL A   1      32.560  19.088  25.622  1.00  0.00    -0.196 NA
ATOM     19  C   UNL A   1      32.515  18.403  23.012  1.00  0.00     0.119 A 
ATOM     20  C   UNL A   1      32.328  19.719  23.337  1.00  0.00     0.067 A 
BRANCH  16  21
ATOM     21  N   UNL A   1      32.879  16.851  26.142  1.00  0.00    -0.368 N 
ATOM     22  H   UNL A   1      32.865  15.902  25.877  1.00  0.00     0.159 HD
ATOM     23  H   UNL A   1      33.021  17.096  27.085  1.00  0.00     0.159 HD
ENDBRANCH  16  21
ENDBRANCH  10  15
BRANCH   9  24
ATOM     24  C   UNL A   1      33.144  23.613  23.154  1.00  0.00     0.059 C 
BRANCH  24  25
ATOM     25  C   UNL A   1      32.716  25.025  22.797  1.00  0.00    -0.011 A 
ATOM     26  C   UNL A   1      33.668  26.042  22.628  1.00  0.00     0.010 A 
ATOM     27  C   UNL A   1      31.358  25.369  22.738  1.00  0.00     0.129 A 
ATOM     28  C   UNL A   1      33.265  27.372  22.513  1.00  0.00     0.040 A 
ATOM     29  C   UNL A   1      30.950  26.690  22.604  1.00  0.00     0.078 A 
ATOM     30  F   UNL A   1      30.419  24.421  22.856  1.00  0.00    -0.207 F 
ATOM     31  C   UNL A   1      31.911  27.684  22.516  1.00  0.00     0.126 A 
ATOM     32  F   UNL A   1      31.531  28.966  22.438  1.00  0.00    -0.207 F 
ENDBRANCH  24  25
ENDBRANCH   9  24
ENDBRANCH   7   9
ENDBRANCH   6   7
ENDBRANCH   5   6
ENDBRANCH   4   5
ENDBRANCH   3   4
ENDBRANCH   2   3
ENDBRANCH   1   2
BRANCH   1  33
ATOM     33  O   UNL A   1      42.125  21.835  26.655  1.00  0.00    -0.376 OA
BRANCH  33  34
ATOM     34  C   UNL A   1      43.009  22.946  26.712  1.00  0.00     0.202 C 
BRANCH  34  35
ATOM     35  C   UNL A   1      42.865  23.978  25.583  1.00  0.00     0.261 C 
BRANCH  35  36
ATOM     36  O   UNL A   1      41.866  24.990  25.804  1.00  0.00    -0.460 OA
BRANCH  36  37
ATOM     37  C   UNL A   1      42.255  26.283  25.670  1.00  0.00     0.338 C 
ATOM     38  O   UNL A   1      42.419  26.891  24.627  1.00  0.00    -0.246 OA
BRANCH  37  39
ATOM     39  C   UNL A   1      42.154  26.911  27.011  1.00  0.00     0.060 A 
ATOM     40  C   UNL A   1      41.234  26.387  27.932  1.00  0.00     0.016 A 
ATOM     41  C   UNL A   1      43.020  27.939  27.388  1.00  0.00     0.016 A 
ATOM     42  C   UNL A   1      41.160  26.910  29.225  1.00  0.00     0.010 A 
ATOM     43  C   UNL A   1      42.928  28.480  28.673  1.00  0.00     0.010 A 
ATOM     44  C   UNL A   1      41.978  27.988  29.588  1.00  0.00    -0.014 A 
BRANCH  44  45
ATOM     45  C   UNL A   1      41.693  28.751  30.827  1.00  0.00     0.031 A 
ATOM     46  C   UNL A   1      40.523  29.699  30.813  1.00  0.00     0.074 A 
ATOM     47  C   UNL A   1      42.438  28.614  31.938  1.00  0.00     0.049 A 
ATOM     48  N   UNL A   1      40.104  30.519  31.740  1.00  0.00    -0.248 NA
ATOM     49  C   UNL A   1      39.720  29.721  29.579  1.00  0.00     0.031 C 
ATOM     50  C   UNL A   1      43.569  27.702  32.097  1.00  0.00     0.029 A 
ATOM     51  N   UNL A   1      42.354  29.259  33.148  1.00  0.00    -0.354 N 
ATOM     52  C   UNL A   1      38.991  31.155  31.203  1.00  0.00     0.074 A 
ATOM     53  C   UNL A   1      38.820  30.652  29.858  1.00  0.00     0.031 C 
ATOM     54  C   UNL A   1      44.083  27.855  33.330  1.00  0.00     0.029 A 
ATOM     55  C   UNL A   1      43.335  28.895  34.039  1.00  0.00     0.049 A 
ATOM     56  H   UNL A   1      41.656  29.921  33.357  1.00  0.00     0.167 HD
ATOM     57  C   UNL A   1      38.177  32.068  31.781  1.00  0.00     0.037 A 
ATOM     58  C   UNL A   1      43.606  29.362  35.275  1.00  0.00     0.037 A 
ATOM     59  C   UNL A   1      38.353  32.576  33.114  1.00  0.00     0.049 A 
ATOM     60  C   UNL A   1      42.739  30.444  35.870  1.00  0.00     0.074 A 
ATOM     61  C   UNL A   1      37.578  33.500  33.792  1.00  0.00     0.029 A 
ATOM     62  N   UNL A   1      39.385  32.214  33.969  1.00  0.00    -0.354 N 
ATOM     63  N   UNL A   1      41.682  31.030  35.358  1.00  0.00    -0.248 NA
ATOM     64  C   UNL A   1      43.101  30.928  37.211  1.00  0.00     0.031 C 
ATOM     65  C   UNL A   1      38.169  33.734  35.038  1.00  0.00     0.029 A 
ATOM     66  C   UNL A   1      39.281  32.916  35.159  1.00  0.00     0.049 A 
ATOM     67  H   UNL A   1      40.085  31.555  33.761  1.00  0.00     0.167 HD
ATOM     68  C   UNL A   1      41.241  31.935  36.321  1.00  0.00     0.074 A 
ATOM     69  C   UNL A   1      42.140  31.812  37.449  1.00  0.00     0.031 C 
ATOM     70  C   UNL A   1      40.185  32.786  36.276  1.00  0.00     0.037 A 
BRANCH  57  71
ATOM     71  C   UNL A   1      37.037  32.596  30.955  1.00  0.00     0.058 A 
ATOM     72  C   UNL A   1      37.229  33.687  30.093  1.00  0.00     0.135 A 
ATOM     73  C   UNL A   1      35.754  32.030  31.020  1.00  0.00     0.135 A 
ATOM     74  F   UNL A   1      38.438  34.261  29.987  1.00  0.00    -0.206 F 
ATOM     75  C   UNL A   1      36.192  34.201  29.321  1.00  0.00     0.059 A 
ATOM     76  C   UNL A   1      34.709  32.509  30.237  1.00  0.00     0.059 A 
ATOM     77  F   UNL A   1      35.521  30.969  31.809  1.00  0.00    -0.206 F 
ATOM     78  C   UNL A   1      34.938  33.594  29.389  1.00  0.00     0.060 A 
BRANCH  78  79
ATOM     79  S   UNL A   1      33.573  34.194  28.372  1.00  0.00     0.124 S 
ATOM     80  O   UNL A   1      32.724  34.834  29.373  1.00  0.00    -0.237 OA
ATOM     81  O   UNL A   1      34.249  35.095  27.446  1.00  0.00    -0.237 OA
ATOM     82  O   UNL A   1      33.030  32.977  27.776  1.00  0.00    -0.744 OA
ENDBRANCH  78  79
ENDBRANCH  57  71
BRANCH  58  83
ATOM     83  C   UNL A   1      44.758  28.808  36.037  1.00  0.00     0.058 A 
ATOM     84  C   UNL A   1      44.593  27.737  36.930  1.00  0.00     0.135 A 
ATOM     85  C   UNL A   1      46.044  29.350  35.898  1.00  0.00     0.135 A 
ATOM     86  F   UNL A   1      43.383  27.184  37.100  1.00  0.00    -0.206 F 
ATOM     87  C   UNL A   1      45.657  27.237  37.677  1.00  0.00     0.059 A 
ATOM     88  C   UNL A   1      47.127  28.852  36.617  1.00  0.00     0.059 A 
ATOM     89  F   UNL A   1      46.255  30.366  35.047  1.00  0.00    -0.206 F 
ATOM     90  C   UNL A   1      46.921  27.800  37.510  1.00  0.00     0.060 A 
BRANCH  90  91
ATOM     91  S   UNL A   1      48.322  27.207  38.483  1.00  0.00     0.124 S 
ATOM     92  O   UNL A   1      48.329  25.786  38.157  1.00  0.00    -0.237 OA
ATOM     93  O   UNL A   1      49.425  27.993  37.937  1.00  0.00    -0.237 OA
ATOM     94  O   UNL A   1      47.946  27.537  39.854  1.00  0.00    -0.744 OA
ENDBRANCH  90  91
ENDBRANCH  58  83
BRANCH  70  95
ATOM     95  C   UNL A   1      39.919  33.643  37.485  1.00  0.00     0.058 A 
ATOM     96  C   UNL A   1      38.955  33.257  38.432  1.00  0.00     0.135 A 
ATOM     97  C   UNL A   1      40.557  34.880  37.669  1.00  0.00     0.135 A 
ATOM     98  F   UNL A   1      38.305  32.091  38.298  1.00  0.00    -0.206 F 
ATOM     99  C   UNL A   1      38.625  34.069  39.514  1.00  0.00     0.059 A 
ATOM    100  C   UNL A   1      40.262  35.694  38.759  1.00  0.00     0.059 A 
ATOM    101  F   UNL A   1      41.487  35.297  36.796  1.00  0.00    -0.206 F 
ATOM    102  C   UNL A   1      39.291  35.283  39.674  1.00  0.00     0.060 A 
BRANCH 102 103
ATOM    103  S   UNL A   1      38.896  36.369  41.061  1.00  0.00     0.124 S 
ATOM    104  O   UNL A   1      40.166  36.405  41.779  1.00  0.00    -0.237 OA
ATOM    105  O   UNL A   1      38.512  37.606  40.388  1.00  0.00    -0.237 OA
ATOM    106  O   UNL A   1      37.810  35.670  41.744  1.00  0.00    -0.744 OA
ENDBRANCH 102 103
ENDBRANCH  70  95
ENDBRANCH  44  45
ENDBRANCH  37  39
ENDBRANCH  36  37
ENDBRANCH  35  36
ENDBRANCH  34  35
ENDBRANCH  33  34
ENDBRANCH   1  33
TORSDOF 24
ENDMDL
