MODEL 1
REMARK VINA RESULT:     -10.1      0.000      0.000
REMARK SMILES Cn1c(SCC(=O)Nc2cccc(C(=O)OCCOCCOCCOC(=O)c3ccc(-c4c5nc(c(-c6c(F)cc(S(=O)(=O)[O-])cc6F)c6ccc([nH]6)c(-c6c(F)cc(S(=O)(=O)[O-])cc6F)c6nc(c(-c7c(F)cc(S(=O)(=O)[O-])cc7F)c7ccc4[nH]7)C=C6)C=C5)cc3)c2)nnc1[C@@H]1CCCN1C(=O)c1ccccc1Cl
REMARK SMILES IDX 18 1 17 2 16 3 14 4 15 5 13 6 9 7 10 8 94 9 11 10 12 11 8 12
REMARK SMILES IDX 6 13 7 14 5 16 4 17 3 18 1 19 2 20 97 21 95 22 96 23 98 24
REMARK SMILES IDX 99 25 102 26 100 27 101 28 103 29 104 30 105 31 106 32
REMARK SMILES IDX 110 33 107 34 109 35 111 36 108 37 19 38 20 39 21 40 22 41
REMARK SMILES IDX 23 42 24 43 25 44 26 45 27 46 28 47 29 48 93 49 30 50 92 51
REMARK SMILES IDX 31 52 32 53 33 54 86 55 34 56 91 57 85 58 87 59 35 60 90 61
REMARK SMILES IDX 84 62 83 63 36 65 70 66 49 67 69 68 50 69 53 70 68 71 88 72
REMARK SMILES IDX 51 73 52 74 67 76 89 77 54 78 37 79 38 80 47 81 39 82 40 83
REMARK SMILES IDX 46 84 48 85 41 86 42 87 43 88 44 89 45 90 71 91 72 92 81 93
REMARK SMILES IDX 73 94 74 95 80 96 82 97 75 98 76 99 77 100 78 101 79 102
REMARK SMILES IDX 55 103 56 104 65 105 57 106 58 107 64 108 66 109 59 110
REMARK SMILES IDX 60 111 61 112 62 113 63 114
REMARK H PARENT 8 15 87 64 53 75
REMARK Flexibility Score: inf
ROOT
ATOM      1  C   UNL A   1      31.933  24.883  26.070  1.00  0.00     0.202 C 
ENDROOT
BRANCH   1   2
ATOM      2  C   UNL A   1      33.256  24.228  26.499  1.00  0.00     0.261 C 
BRANCH   2   3
ATOM      3  O   UNL A   1      33.208  22.821  26.748  1.00  0.00    -0.460 OA
BRANCH   3   4
ATOM      4  C   UNL A   1      33.276  22.008  25.665  1.00  0.00     0.338 C 
ATOM      5  O   UNL A   1      32.387  21.295  25.234  1.00  0.00    -0.246 OA
BRANCH   4   6
ATOM      6  C   UNL A   1      34.591  22.162  24.989  1.00  0.00     0.062 A 
ATOM      7  C   UNL A   1      36.907  21.491  24.770  1.00  0.00     0.042 A 
ATOM      8  C   UNL A   1      37.044  22.312  23.655  1.00  0.00     0.026 A 
ATOM      9  C   UNL A   1      35.724  21.529  25.492  1.00  0.00     0.041 A 
ATOM     10  C   UNL A   1      35.942  23.037  23.191  1.00  0.00     0.003 A 
ATOM     11  C   UNL A   1      34.702  22.923  23.828  1.00  0.00     0.016 A 
BRANCH   7  12
ATOM     12  N   UNL A   1      37.954  20.629  25.106  1.00  0.00    -0.325 N 
ATOM     13  C   UNL A   1      39.109  20.899  25.787  1.00  0.00     0.234 C 
ATOM     14  O   UNL A   1      39.863  19.943  26.014  1.00  0.00    -0.274 OA
ATOM     15  H   UNL A   1      37.846  19.695  24.810  1.00  0.00     0.169 HD
BRANCH  13  16
ATOM     16  C   UNL A   1      39.377  22.237  26.446  1.00  0.00     0.178 C 
BRANCH  16  17
ATOM     17  S   UNL A   1      40.825  22.463  27.460  1.00  0.00    -0.076 SA
BRANCH  17  18
ATOM     18  C   UNL A   1      42.247  22.722  26.519  1.00  0.00     0.191 A 
ATOM     19  C   UNL A   1      43.648  24.218  27.984  1.00  0.00     0.154 C 
ATOM     20  N   UNL A   1      43.199  23.680  26.733  1.00  0.00    -0.307 N 
ATOM     21  C   UNL A   1      43.675  24.009  25.483  1.00  0.00     0.156 A 
ATOM     22  N   UNL A   1      42.334  22.312  25.272  1.00  0.00    -0.123 NA
ATOM     23  N   UNL A   1      43.241  23.107  24.624  1.00  0.00    -0.132 NA
BRANCH  21  24
ATOM     24  C   UNL A   1      44.477  25.202  25.111  1.00  0.00     0.154 C 
ATOM     25  C   UNL A   1      45.920  25.144  25.628  1.00  0.00     0.035 C 
ATOM     26  N   UNL A   1      43.959  26.490  25.598  1.00  0.00    -0.328 N 
ATOM     27  C   UNL A   1      46.338  26.605  25.707  1.00  0.00     0.024 C 
ATOM     28  C   UNL A   1      45.050  27.359  26.000  1.00  0.00     0.120 C 
BRANCH  26  29
ATOM     29  C   UNL A   1      42.701  27.065  25.442  1.00  0.00     0.255 C 
ATOM     30  O   UNL A   1      42.415  27.782  24.483  1.00  0.00    -0.269 OA
BRANCH  29  31
ATOM     31  C   UNL A   1      41.675  26.945  26.490  1.00  0.00     0.058 A 
ATOM     32  C   UNL A   1      40.640  26.015  26.358  1.00  0.00     0.015 A 
ATOM     33  C   UNL A   1      41.647  27.876  27.538  1.00  0.00     0.053 A 
ATOM     34  C   UNL A   1      39.630  25.960  27.325  1.00  0.00     0.001 A 
ATOM     35  C   UNL A   1      40.631  27.818  28.496  1.00  0.00     0.021 A 
ATOM     36  Cl  UNL A   1      42.844  29.113  27.718  1.00  0.00    -0.083 Cl
ATOM     37  C   UNL A   1      39.638  26.844  28.404  1.00  0.00     0.002 A 
ENDBRANCH  29  31
ENDBRANCH  26  29
ENDBRANCH  21  24
ENDBRANCH  17  18
ENDBRANCH  16  17
ENDBRANCH  13  16
ENDBRANCH   7  12
ENDBRANCH   4   6
ENDBRANCH   3   4
ENDBRANCH   2   3
ENDBRANCH   1   2
BRANCH   1  38
ATOM     38  O   UNL A   1      31.257  25.848  26.859  1.00  0.00    -0.376 OA
BRANCH  38  39
ATOM     39  C   UNL A   1      31.360  27.226  26.556  1.00  0.00     0.188 C 
BRANCH  39  40
ATOM     40  C   UNL A   1      32.028  28.190  27.556  1.00  0.00     0.188 C 
BRANCH  40  41
ATOM     41  O   UNL A   1      31.835  29.567  27.376  1.00  0.00    -0.376 OA
BRANCH  41  42
ATOM     42  C   UNL A   1      32.797  30.347  26.692  1.00  0.00     0.202 C 
BRANCH  42  43
ATOM     43  C   UNL A   1      34.166  30.792  27.250  1.00  0.00     0.261 C 
BRANCH  43  44
ATOM     44  O   UNL A   1      34.198  31.729  28.331  1.00  0.00    -0.460 OA
BRANCH  44  45
ATOM     45  C   UNL A   1      34.833  32.905  28.078  1.00  0.00     0.338 C 
ATOM     46  O   UNL A   1      34.361  33.902  27.576  1.00  0.00    -0.246 OA
BRANCH  45  47
ATOM     47  C   UNL A   1      36.168  32.861  28.720  1.00  0.00     0.060 A 
ATOM     48  C   UNL A   1      36.561  33.935  29.533  1.00  0.00     0.016 A 
ATOM     49  C   UNL A   1      37.022  31.777  28.521  1.00  0.00     0.016 A 
ATOM     50  C   UNL A   1      37.818  33.934  30.136  1.00  0.00     0.010 A 
ATOM     51  C   UNL A   1      38.294  31.793  29.103  1.00  0.00     0.010 A 
ATOM     52  C   UNL A   1      38.708  32.883  29.889  1.00  0.00    -0.014 A 
BRANCH  52  53
ATOM     53  C   UNL A   1      40.131  33.013  30.292  1.00  0.00     0.031 A 
ATOM     54  C   UNL A   1      40.694  32.015  31.265  1.00  0.00     0.074 A 
ATOM     55  C   UNL A   1      40.913  33.992  29.803  1.00  0.00     0.049 A 
ATOM     56  N   UNL A   1      41.882  31.959  31.808  1.00  0.00    -0.248 NA
ATOM     57  C   UNL A   1      39.785  30.938  31.687  1.00  0.00     0.031 C 
ATOM     58  C   UNL A   1      40.497  35.001  28.833  1.00  0.00     0.029 A 
ATOM     59  N   UNL A   1      42.222  34.304  30.078  1.00  0.00    -0.354 N 
ATOM     60  C   UNL A   1      41.862  30.849  32.645  1.00  0.00     0.074 A 
ATOM     61  C   UNL A   1      40.532  30.284  32.564  1.00  0.00     0.031 C 
ATOM     62  C   UNL A   1      41.523  35.842  28.613  1.00  0.00     0.029 A 
ATOM     63  C   UNL A   1      42.657  35.448  29.451  1.00  0.00     0.049 A 
ATOM     64  H   UNL A   1      42.793  33.761  30.667  1.00  0.00     0.167 HD
ATOM     65  C   UNL A   1      42.861  30.342  33.407  1.00  0.00     0.037 A 
ATOM     66  C   UNL A   1      43.822  36.117  29.565  1.00  0.00     0.037 A 
ATOM     67  C   UNL A   1      44.176  30.923  33.499  1.00  0.00     0.049 A 
ATOM     68  C   UNL A   1      44.902  35.580  30.468  1.00  0.00     0.074 A 
ATOM     69  C   UNL A   1      45.266  30.475  34.225  1.00  0.00     0.029 A 
ATOM     70  N   UNL A   1      44.575  32.090  32.862  1.00  0.00    -0.354 N 
ATOM     71  N   UNL A   1      44.887  34.508  31.226  1.00  0.00    -0.248 NA
ATOM     72  C   UNL A   1      46.159  36.339  30.527  1.00  0.00     0.031 C 
ATOM     73  C   UNL A   1      46.301  31.405  34.077  1.00  0.00     0.029 A 
ATOM     74  C   UNL A   1      45.882  32.398  33.206  1.00  0.00     0.049 A 
ATOM     75  H   UNL A   1      44.011  32.623  32.255  1.00  0.00     0.167 HD
ATOM     76  C   UNL A   1      46.137  34.454  31.838  1.00  0.00     0.074 A 
ATOM     77  C   UNL A   1      46.888  35.592  31.347  1.00  0.00     0.031 C 
ATOM     78  C   UNL A   1      46.619  33.543  32.722  1.00  0.00     0.037 A 
BRANCH  65  79
ATOM     79  C   UNL A   1      42.541  29.126  34.235  1.00  0.00     0.058 A 
ATOM     80  C   UNL A   1      42.011  29.226  35.533  1.00  0.00     0.135 A 
ATOM     81  C   UNL A   1      42.793  27.838  33.734  1.00  0.00     0.135 A 
ATOM     82  F   UNL A   1      41.763  30.431  36.071  1.00  0.00    -0.206 F 
ATOM     83  C   UNL A   1      41.795  28.100  36.321  1.00  0.00     0.059 A 
ATOM     84  C   UNL A   1      42.552  26.696  34.491  1.00  0.00     0.059 A 
ATOM     85  F   UNL A   1      43.296  27.679  32.499  1.00  0.00    -0.206 F 
ATOM     86  C   UNL A   1      42.079  26.840  35.795  1.00  0.00     0.060 A 
BRANCH  86  87
ATOM     87  S   UNL A   1      41.839  25.392  36.845  1.00  0.00     0.124 S 
ATOM     88  O   UNL A   1      43.164  25.242  37.439  1.00  0.00    -0.237 OA
ATOM     89  O   UNL A   1      40.785  25.837  37.753  1.00  0.00    -0.237 OA
ATOM     90  O   UNL A   1      41.451  24.347  35.903  1.00  0.00    -0.744 OA
ENDBRANCH  86  87
ENDBRANCH  65  79
BRANCH  66  91
ATOM     91  C   UNL A   1      44.010  37.383  28.808  1.00  0.00     0.058 A 
ATOM     92  C   UNL A   1      44.458  37.378  27.480  1.00  0.00     0.135 A 
ATOM     93  C   UNL A   1      43.692  38.624  29.386  1.00  0.00     0.135 A 
ATOM     94  F   UNL A   1      44.792  36.220  26.889  1.00  0.00    -0.206 F 
ATOM     95  C   UNL A   1      44.573  38.555  26.746  1.00  0.00     0.059 A 
ATOM     96  C   UNL A   1      43.773  39.810  28.664  1.00  0.00     0.059 A 
ATOM     97  F   UNL A   1      43.256  38.682  30.654  1.00  0.00    -0.206 F 
ATOM     98  C   UNL A   1      44.212  39.765  27.342  1.00  0.00     0.060 A 
BRANCH  98  99
ATOM     99  S   UNL A   1      44.261  41.268  26.343  1.00  0.00     0.124 S 
ATOM    100  O   UNL A   1      45.127  40.863  25.242  1.00  0.00    -0.237 OA
ATOM    101  O   UNL A   1      42.851  41.456  26.010  1.00  0.00    -0.237 OA
ATOM    102  O   UNL A   1      44.820  42.261  27.254  1.00  0.00    -0.744 OA
ENDBRANCH  98  99
ENDBRANCH  66  91
BRANCH  78 103
ATOM    103  C   UNL A   1      48.034  33.722  33.207  1.00  0.00     0.058 A 
ATOM    104  C   UNL A   1      49.127  33.151  32.536  1.00  0.00     0.135 A 
ATOM    105  C   UNL A   1      48.306  34.518  34.334  1.00  0.00     0.135 A 
ATOM    106  F   UNL A   1      48.930  32.378  31.457  1.00  0.00    -0.206 F 
ATOM    107  C   UNL A   1      50.435  33.336  32.981  1.00  0.00     0.059 A 
ATOM    108  C   UNL A   1      49.606  34.744  34.777  1.00  0.00     0.059 A 
ATOM    109  F   UNL A   1      47.301  35.101  35.008  1.00  0.00    -0.206 F 
ATOM    110  C   UNL A   1      50.664  34.137  34.102  1.00  0.00     0.060 A 
BRANCH 110 111
ATOM    111  S   UNL A   1      52.364  34.387  34.655  1.00  0.00     0.124 S 
ATOM    112  O   UNL A   1      52.417  33.534  35.838  1.00  0.00    -0.237 OA
ATOM    113  O   UNL A   1      53.137  33.928  33.506  1.00  0.00    -0.237 OA
ATOM    114  O   UNL A   1      52.430  35.822  34.915  1.00  0.00    -0.744 OA
ENDBRANCH 110 111
ENDBRANCH  78 103
ENDBRANCH  52  53
ENDBRANCH  45  47
ENDBRANCH  44  45
ENDBRANCH  43  44
ENDBRANCH  42  43
ENDBRANCH  41  42
ENDBRANCH  40  41
ENDBRANCH  39  40
ENDBRANCH  38  39
ENDBRANCH   1  38
TORSDOF 27
ENDMDL
MODEL 2
REMARK VINA RESULT:      -9.5      4.064      4.681
REMARK SMILES Cn1c(SCC(=O)Nc2cccc(C(=O)OCCOCCOCCOC(=O)c3ccc(-c4c5nc(c(-c6c(F)cc(S(=O)(=O)[O-])cc6F)c6ccc([nH]6)c(-c6c(F)cc(S(=O)(=O)[O-])cc6F)c6nc(c(-c7c(F)cc(S(=O)(=O)[O-])cc7F)c7ccc4[nH]7)C=C6)C=C5)cc3)c2)nnc1[C@@H]1CCCN1C(=O)c1ccccc1Cl
REMARK SMILES IDX 18 1 17 2 16 3 14 4 15 5 13 6 9 7 10 8 94 9 11 10 12 11 8 12
REMARK SMILES IDX 6 13 7 14 5 16 4 17 3 18 1 19 2 20 97 21 95 22 96 23 98 24
REMARK SMILES IDX 99 25 102 26 100 27 101 28 103 29 104 30 105 31 106 32
REMARK SMILES IDX 110 33 107 34 109 35 111 36 108 37 19 38 20 39 21 40 22 41
REMARK SMILES IDX 23 42 24 43 25 44 26 45 27 46 28 47 29 48 93 49 30 50 92 51
REMARK SMILES IDX 31 52 32 53 33 54 86 55 34 56 91 57 85 58 87 59 35 60 90 61
REMARK SMILES IDX 84 62 83 63 36 65 70 66 49 67 69 68 50 69 53 70 68 71 88 72
REMARK SMILES IDX 51 73 52 74 67 76 89 77 54 78 37 79 38 80 47 81 39 82 40 83
REMARK SMILES IDX 46 84 48 85 41 86 42 87 43 88 44 89 45 90 71 91 72 92 81 93
REMARK SMILES IDX 73 94 74 95 80 96 82 97 75 98 76 99 77 100 78 101 79 102
REMARK SMILES IDX 55 103 56 104 65 105 57 106 58 107 64 108 66 109 59 110
REMARK SMILES IDX 60 111 61 112 62 113 63 114
REMARK H PARENT 8 15 87 64 53 75
REMARK Flexibility Score: inf
ROOT
ATOM      1  C   UNL A   1      31.958  24.894  26.134  1.00  0.00     0.202 C 
ENDROOT
BRANCH   1   2
ATOM      2  C   UNL A   1      33.161  24.036  26.559  1.00  0.00     0.261 C 
BRANCH   2   3
ATOM      3  O   UNL A   1      32.961  22.620  26.542  1.00  0.00    -0.460 OA
BRANCH   3   4
ATOM      4  C   UNL A   1      33.077  22.003  25.340  1.00  0.00     0.338 C 
ATOM      5  O   UNL A   1      32.181  21.478  24.703  1.00  0.00    -0.246 OA
BRANCH   4   6
ATOM      6  C   UNL A   1      34.469  22.125  24.833  1.00  0.00     0.062 A 
ATOM      7  C   UNL A   1      36.693  21.190  24.620  1.00  0.00     0.042 A 
ATOM      8  C   UNL A   1      37.057  22.238  23.781  1.00  0.00     0.026 A 
ATOM      9  C   UNL A   1      35.449  21.221  25.233  1.00  0.00     0.041 A 
ATOM     10  C   UNL A   1      36.115  23.216  23.445  1.00  0.00     0.003 A 
ATOM     11  C   UNL A   1      34.806  23.131  23.932  1.00  0.00     0.016 A 
BRANCH   7  12
ATOM     12  N   UNL A   1      37.578  20.123  24.791  1.00  0.00    -0.325 N 
ATOM     13  C   UNL A   1      38.813  20.112  25.381  1.00  0.00     0.234 C 
ATOM     14  O   UNL A   1      39.385  19.018  25.464  1.00  0.00    -0.274 OA
ATOM     15  H   UNL A   1      37.271  19.256  24.438  1.00  0.00     0.169 HD
BRANCH  13  16
ATOM     16  C   UNL A   1      39.382  21.312  26.110  1.00  0.00     0.178 C 
BRANCH  16  17
ATOM     17  S   UNL A   1      40.708  21.103  27.282  1.00  0.00    -0.076 SA
BRANCH  17  18
ATOM     18  C   UNL A   1      42.238  21.549  26.624  1.00  0.00     0.191 A 
ATOM     19  C   UNL A   1      43.265  22.959  28.442  1.00  0.00     0.154 C 
ATOM     20  N   UNL A   1      43.066  22.534  27.086  1.00  0.00    -0.307 N 
ATOM     21  C   UNL A   1      43.710  23.026  25.972  1.00  0.00     0.156 A 
ATOM     22  N   UNL A   1      42.556  21.283  25.375  1.00  0.00    -0.123 NA
ATOM     23  N   UNL A   1      43.491  22.198  24.969  1.00  0.00    -0.132 NA
BRANCH  21  24
ATOM     24  C   UNL A   1      44.466  24.298  25.859  1.00  0.00     0.154 C 
ATOM     25  C   UNL A   1      45.743  24.319  26.707  1.00  0.00     0.035 C 
ATOM     26  N   UNL A   1      43.732  25.508  26.260  1.00  0.00    -0.328 N 
ATOM     27  C   UNL A   1      45.996  25.800  26.949  1.00  0.00     0.024 C 
ATOM     28  C   UNL A   1      44.613  26.432  26.953  1.00  0.00     0.120 C 
BRANCH  26  29
ATOM     29  C   UNL A   1      42.501  25.993  25.829  1.00  0.00     0.255 C 
ATOM     30  O   UNL A   1      42.278  26.281  24.653  1.00  0.00    -0.269 OA
BRANCH  29  31
ATOM     31  C   UNL A   1      41.429  26.307  26.786  1.00  0.00     0.058 A 
ATOM     32  C   UNL A   1      40.724  25.277  27.414  1.00  0.00     0.015 A 
ATOM     33  C   UNL A   1      41.010  27.636  26.942  1.00  0.00     0.053 A 
ATOM     34  C   UNL A   1      39.658  25.585  28.268  1.00  0.00     0.001 A 
ATOM     35  C   UNL A   1      39.941  27.935  27.792  1.00  0.00     0.021 A 
ATOM     36  Cl  UNL A   1      41.776  28.956  26.129  1.00  0.00    -0.083 Cl
ATOM     37  C   UNL A   1      39.282  26.913  28.474  1.00  0.00     0.002 A 
ENDBRANCH  29  31
ENDBRANCH  26  29
ENDBRANCH  21  24
ENDBRANCH  17  18
ENDBRANCH  16  17
ENDBRANCH  13  16
ENDBRANCH   7  12
ENDBRANCH   4   6
ENDBRANCH   3   4
ENDBRANCH   2   3
ENDBRANCH   1   2
BRANCH   1  38
ATOM     38  O   UNL A   1      31.565  26.069  26.822  1.00  0.00    -0.376 OA
BRANCH  38  39
ATOM     39  C   UNL A   1      31.859  27.347  26.291  1.00  0.00     0.188 C 
BRANCH  39  40
ATOM     40  C   UNL A   1      33.179  28.054  26.659  1.00  0.00     0.188 C 
BRANCH  40  41
ATOM     41  O   UNL A   1      33.120  29.149  27.531  1.00  0.00    -0.376 OA
BRANCH  41  42
ATOM     42  C   UNL A   1      33.673  30.397  27.160  1.00  0.00     0.202 C 
BRANCH  42  43
ATOM     43  C   UNL A   1      35.034  30.960  27.625  1.00  0.00     0.261 C 
BRANCH  43  44
ATOM     44  O   UNL A   1      35.315  31.015  29.026  1.00  0.00    -0.460 OA
BRANCH  44  45
ATOM     45  C   UNL A   1      34.954  32.162  29.661  1.00  0.00     0.338 C 
ATOM     46  O   UNL A   1      33.862  32.689  29.660  1.00  0.00    -0.246 OA
BRANCH  45  47
ATOM     47  C   UNL A   1      36.064  32.571  30.553  1.00  0.00     0.060 A 
ATOM     48  C   UNL A   1      36.189  33.925  30.896  1.00  0.00     0.016 A 
ATOM     49  C   UNL A   1      36.971  31.632  31.042  1.00  0.00     0.016 A 
ATOM     50  C   UNL A   1      37.234  34.347  31.718  1.00  0.00     0.010 A 
ATOM     51  C   UNL A   1      38.036  32.061  31.841  1.00  0.00     0.010 A 
ATOM     52  C   UNL A   1      38.188  33.424  32.159  1.00  0.00    -0.014 A 
BRANCH  52  53
ATOM     53  C   UNL A   1      39.442  33.906  32.789  1.00  0.00     0.031 A 
ATOM     54  C   UNL A   1      39.471  34.090  34.281  1.00  0.00     0.074 A 
ATOM     55  C   UNL A   1      40.539  34.172  32.057  1.00  0.00     0.049 A 
ATOM     56  N   UNL A   1      40.425  34.553  35.046  1.00  0.00    -0.248 NA
ATOM     57  C   UNL A   1      38.250  33.703  35.004  1.00  0.00     0.031 C 
ATOM     58  C   UNL A   1      40.650  34.006  30.610  1.00  0.00     0.029 A 
ATOM     59  N   UNL A   1      41.765  34.659  32.438  1.00  0.00    -0.354 N 
ATOM     60  C   UNL A   1      39.916  34.526  36.340  1.00  0.00     0.074 A 
ATOM     61  C   UNL A   1      38.558  34.034  36.249  1.00  0.00     0.031 C 
ATOM     62  C   UNL A   1      41.870  34.412  30.219  1.00  0.00     0.029 A 
ATOM     63  C   UNL A   1      42.613  34.897  31.383  1.00  0.00     0.049 A 
ATOM     64  H   UNL A   1      42.012  34.821  33.377  1.00  0.00     0.167 HD
ATOM     65  C   UNL A   1      40.526  34.873  37.499  1.00  0.00     0.037 A 
ATOM     66  C   UNL A   1      43.834  35.469  31.356  1.00  0.00     0.037 A 
ATOM     67  C   UNL A   1      41.872  35.382  37.579  1.00  0.00     0.049 A 
ATOM     68  C   UNL A   1      44.476  35.913  32.645  1.00  0.00     0.074 A 
ATOM     69  C   UNL A   1      42.590  35.742  38.705  1.00  0.00     0.029 A 
ATOM     70  N   UNL A   1      42.694  35.625  36.487  1.00  0.00    -0.354 N 
ATOM     71  N   UNL A   1      44.003  35.847  33.868  1.00  0.00    -0.248 NA
ATOM     72  C   UNL A   1      45.819  36.501  32.552  1.00  0.00     0.031 C 
ATOM     73  C   UNL A   1      43.822  36.261  38.290  1.00  0.00     0.029 A 
ATOM     74  C   UNL A   1      43.900  36.163  36.910  1.00  0.00     0.049 A 
ATOM     75  H   UNL A   1      42.456  35.442  35.549  1.00  0.00     0.167 HD
ATOM     76  C   UNL A   1      44.996  36.370  34.692  1.00  0.00     0.074 A 
ATOM     77  C   UNL A   1      46.103  36.730  33.828  1.00  0.00     0.031 C 
ATOM     78  C   UNL A   1      44.993  36.533  36.041  1.00  0.00     0.037 A 
BRANCH  65  79
ATOM     79  C   UNL A   1      39.715  34.756  38.762  1.00  0.00     0.058 A 
ATOM     80  C   UNL A   1      39.081  35.865  39.346  1.00  0.00     0.135 A 
ATOM     81  C   UNL A   1      39.590  33.518  39.414  1.00  0.00     0.135 A 
ATOM     82  F   UNL A   1      39.178  37.077  38.777  1.00  0.00    -0.206 F 
ATOM     83  C   UNL A   1      38.402  35.763  40.557  1.00  0.00     0.059 A 
ATOM     84  C   UNL A   1      38.886  33.385  40.607  1.00  0.00     0.059 A 
ATOM     85  F   UNL A   1      40.170  32.421  38.901  1.00  0.00    -0.206 F 
ATOM     86  C   UNL A   1      38.319  34.520  41.184  1.00  0.00     0.060 A 
BRANCH  86  87
ATOM     87  S   UNL A   1      37.476  34.412  42.776  1.00  0.00     0.124 S 
ATOM     88  O   UNL A   1      38.139  33.260  43.378  1.00  0.00    -0.237 OA
ATOM     89  O   UNL A   1      37.783  35.706  43.380  1.00  0.00    -0.237 OA
ATOM     90  O   UNL A   1      36.078  34.211  42.410  1.00  0.00    -0.744 OA
ENDBRANCH  86  87
ENDBRANCH  65  79
BRANCH  66  91
ATOM     91  C   UNL A   1      44.516  35.665  30.049  1.00  0.00     0.058 A 
ATOM     92  C   UNL A   1      44.360  36.849  29.316  1.00  0.00     0.135 A 
ATOM     93  C   UNL A   1      45.382  34.686  29.534  1.00  0.00     0.135 A 
ATOM     94  F   UNL A   1      43.529  37.806  29.756  1.00  0.00    -0.206 F 
ATOM     95  C   UNL A   1      45.047  37.063  28.124  1.00  0.00     0.059 A 
ATOM     96  C   UNL A   1      46.100  34.889  28.360  1.00  0.00     0.059 A 
ATOM     97  F   UNL A   1      45.568  33.535  30.199  1.00  0.00    -0.206 F 
ATOM     98  C   UNL A   1      45.928  36.083  27.663  1.00  0.00     0.060 A 
BRANCH  98  99
ATOM     99  S   UNL A   1      46.895  36.422  26.176  1.00  0.00     0.124 S 
ATOM    100  O   UNL A   1      48.258  36.349  26.688  1.00  0.00    -0.237 OA
ATOM    101  O   UNL A   1      46.486  35.333  25.294  1.00  0.00    -0.237 OA
ATOM    102  O   UNL A   1      46.441  37.749  25.774  1.00  0.00    -0.744 OA
ENDBRANCH  98  99
ENDBRANCH  66  91
BRANCH  78 103
ATOM    103  C   UNL A   1      46.232  37.110  36.677  1.00  0.00     0.058 A 
ATOM    104  C   UNL A   1      47.320  36.304  37.048  1.00  0.00     0.135 A 
ATOM    105  C   UNL A   1      46.351  38.496  36.874  1.00  0.00     0.135 A 
ATOM    106  F   UNL A   1      47.262  34.973  36.887  1.00  0.00    -0.206 F 
ATOM    107  C   UNL A   1      48.469  36.847  37.619  1.00  0.00     0.059 A 
ATOM    108  C   UNL A   1      47.502  39.064  37.412  1.00  0.00     0.059 A 
ATOM    109  F   UNL A   1      45.348  39.318  36.526  1.00  0.00    -0.206 F 
ATOM    110  C   UNL A   1      48.551  38.230  37.796  1.00  0.00     0.060 A 
BRANCH 110 111
ATOM    111  S   UNL A   1      50.053  38.924  38.517  1.00  0.00     0.124 S 
ATOM    112  O   UNL A   1      50.977  38.861  37.388  1.00  0.00    -0.237 OA
ATOM    113  O   UNL A   1      49.622  40.262  38.910  1.00  0.00    -0.237 OA
ATOM    114  O   UNL A   1      50.352  38.018  39.621  1.00  0.00    -0.744 OA
ENDBRANCH 110 111
ENDBRANCH  78 103
ENDBRANCH  52  53
ENDBRANCH  45  47
ENDBRANCH  44  45
ENDBRANCH  43  44
ENDBRANCH  42  43
ENDBRANCH  41  42
ENDBRANCH  40  41
ENDBRANCH  39  40
ENDBRANCH  38  39
ENDBRANCH   1  38
TORSDOF 27
ENDMDL
MODEL 3
REMARK VINA RESULT:      -9.4      3.873      4.962
REMARK SMILES Cn1c(SCC(=O)Nc2cccc(C(=O)OCCOCCOCCOC(=O)c3ccc(-c4c5nc(c(-c6c(F)cc(S(=O)(=O)[O-])cc6F)c6ccc([nH]6)c(-c6c(F)cc(S(=O)(=O)[O-])cc6F)c6nc(c(-c7c(F)cc(S(=O)(=O)[O-])cc7F)c7ccc4[nH]7)C=C6)C=C5)cc3)c2)nnc1[C@@H]1CCCN1C(=O)c1ccccc1Cl
REMARK SMILES IDX 18 1 17 2 16 3 14 4 15 5 13 6 9 7 10 8 94 9 11 10 12 11 8 12
REMARK SMILES IDX 6 13 7 14 5 16 4 17 3 18 1 19 2 20 97 21 95 22 96 23 98 24
REMARK SMILES IDX 99 25 102 26 100 27 101 28 103 29 104 30 105 31 106 32
REMARK SMILES IDX 110 33 107 34 109 35 111 36 108 37 19 38 20 39 21 40 22 41
REMARK SMILES IDX 23 42 24 43 25 44 26 45 27 46 28 47 29 48 93 49 30 50 92 51
REMARK SMILES IDX 31 52 32 53 33 54 86 55 34 56 91 57 85 58 87 59 35 60 90 61
REMARK SMILES IDX 84 62 83 63 36 65 70 66 49 67 69 68 50 69 53 70 68 71 88 72
REMARK SMILES IDX 51 73 52 74 67 76 89 77 54 78 37 79 38 80 47 81 39 82 40 83
REMARK SMILES IDX 46 84 48 85 41 86 42 87 43 88 44 89 45 90 71 91 72 92 81 93
REMARK SMILES IDX 73 94 74 95 80 96 82 97 75 98 76 99 77 100 78 101 79 102
REMARK SMILES IDX 55 103 56 104 65 105 57 106 58 107 64 108 66 109 59 110
REMARK SMILES IDX 60 111 61 112 62 113 63 114
REMARK H PARENT 8 15 87 64 53 75
REMARK Flexibility Score: inf
ROOT
ATOM      1  C   UNL A   1      32.261  24.493  26.117  1.00  0.00     0.202 C 
ENDROOT
BRANCH   1   2
ATOM      2  C   UNL A   1      33.185  23.475  26.805  1.00  0.00     0.261 C 
BRANCH   2   3
ATOM      3  O   UNL A   1      32.915  22.097  26.536  1.00  0.00    -0.460 OA
BRANCH   3   4
ATOM      4  C   UNL A   1      33.048  21.691  25.249  1.00  0.00     0.338 C 
ATOM      5  O   UNL A   1      32.164  21.272  24.523  1.00  0.00    -0.246 OA
BRANCH   4   6
ATOM      6  C   UNL A   1      34.444  21.906  24.785  1.00  0.00     0.062 A 
ATOM      7  C   UNL A   1      36.727  21.115  24.623  1.00  0.00     0.042 A 
ATOM      8  C   UNL A   1      37.048  22.197  23.810  1.00  0.00     0.026 A 
ATOM      9  C   UNL A   1      35.467  21.059  25.200  1.00  0.00     0.041 A 
ATOM     10  C   UNL A   1      36.057  23.120  23.462  1.00  0.00     0.003 A 
ATOM     11  C   UNL A   1      34.743  22.946  23.908  1.00  0.00     0.016 A 
BRANCH   7  12
ATOM     12  N   UNL A   1      37.672  20.102  24.805  1.00  0.00    -0.325 N 
ATOM     13  C   UNL A   1      38.886  20.157  25.434  1.00  0.00     0.234 C 
ATOM     14  O   UNL A   1      39.522  19.099  25.517  1.00  0.00    -0.274 OA
ATOM     15  H   UNL A   1      37.431  19.225  24.426  1.00  0.00     0.169 HD
BRANCH  13  16
ATOM     16  C   UNL A   1      39.354  21.376  26.204  1.00  0.00     0.178 C 
BRANCH  16  17
ATOM     17  S   UNL A   1      40.791  21.277  27.251  1.00  0.00    -0.076 SA
BRANCH  17  18
ATOM     18  C   UNL A   1      42.177  22.008  26.531  1.00  0.00     0.191 A 
ATOM     19  C   UNL A   1      42.768  23.849  28.146  1.00  0.00     0.154 C 
ATOM     20  N   UNL A   1      42.718  23.221  26.858  1.00  0.00    -0.307 N 
ATOM     21  C   UNL A   1      43.246  23.715  25.686  1.00  0.00     0.156 A 
ATOM     22  N   UNL A   1      42.584  21.677  25.324  1.00  0.00    -0.123 NA
ATOM     23  N   UNL A   1      43.269  22.739  24.798  1.00  0.00    -0.132 NA
BRANCH  21  24
ATOM     24  C   UNL A   1      43.661  25.113  25.405  1.00  0.00     0.154 C 
ATOM     25  C   UNL A   1      45.086  25.425  25.874  1.00  0.00     0.035 C 
ATOM     26  N   UNL A   1      42.828  26.156  26.024  1.00  0.00    -0.328 N 
ATOM     27  C   UNL A   1      45.082  26.933  26.077  1.00  0.00     0.024 C 
ATOM     28  C   UNL A   1      43.652  27.264  26.476  1.00  0.00     0.120 C 
BRANCH  26  29
ATOM     29  C   UNL A   1      41.453  26.360  25.957  1.00  0.00     0.255 C 
ATOM     30  O   UNL A   1      40.769  25.963  25.015  1.00  0.00    -0.269 OA
BRANCH  29  31
ATOM     31  C   UNL A   1      40.757  27.181  26.961  1.00  0.00     0.058 A 
ATOM     32  C   UNL A   1      41.132  28.512  27.164  1.00  0.00     0.015 A 
ATOM     33  C   UNL A   1      39.830  26.577  27.824  1.00  0.00     0.053 A 
ATOM     34  C   UNL A   1      40.512  29.261  28.171  1.00  0.00     0.001 A 
ATOM     35  C   UNL A   1      39.221  27.331  28.831  1.00  0.00     0.021 A 
ATOM     36  Cl  UNL A   1      39.382  24.912  27.691  1.00  0.00    -0.083 Cl
ATOM     37  C   UNL A   1      39.542  28.679  28.988  1.00  0.00     0.002 A 
ENDBRANCH  29  31
ENDBRANCH  26  29
ENDBRANCH  21  24
ENDBRANCH  17  18
ENDBRANCH  16  17
ENDBRANCH  13  16
ENDBRANCH   7  12
ENDBRANCH   4   6
ENDBRANCH   3   4
ENDBRANCH   2   3
ENDBRANCH   1   2
BRANCH   1  38
ATOM     38  O   UNL A   1      31.526  25.474  26.829  1.00  0.00    -0.376 OA
BRANCH  38  39
ATOM     39  C   UNL A   1      31.235  26.726  26.237  1.00  0.00     0.188 C 
BRANCH  39  40
ATOM     40  C   UNL A   1      32.203  27.912  26.419  1.00  0.00     0.188 C 
BRANCH  40  41
ATOM     41  O   UNL A   1      31.673  29.135  26.853  1.00  0.00    -0.376 OA
BRANCH  41  42
ATOM     42  C   UNL A   1      32.312  30.354  26.527  1.00  0.00     0.202 C 
BRANCH  42  43
ATOM     43  C   UNL A   1      33.691  30.821  27.041  1.00  0.00     0.261 C 
BRANCH  43  44
ATOM     44  O   UNL A   1      33.793  31.334  28.372  1.00  0.00    -0.460 OA
BRANCH  44  45
ATOM     45  C   UNL A   1      34.338  32.574  28.491  1.00  0.00     0.338 C 
ATOM     46  O   UNL A   1      33.946  33.601  27.980  1.00  0.00    -0.246 OA
BRANCH  45  47
ATOM     47  C   UNL A   1      35.386  32.525  29.537  1.00  0.00     0.060 A 
ATOM     48  C   UNL A   1      36.007  33.721  29.926  1.00  0.00     0.016 A 
ATOM     49  C   UNL A   1      35.755  31.315  30.124  1.00  0.00     0.016 A 
ATOM     50  C   UNL A   1      37.012  33.708  30.894  1.00  0.00     0.010 A 
ATOM     51  C   UNL A   1      36.783  31.300  31.072  1.00  0.00     0.010 A 
ATOM     52  C   UNL A   1      37.435  32.491  31.440  1.00  0.00    -0.014 A 
BRANCH  52  53
ATOM     53  C   UNL A   1      38.679  32.440  32.248  1.00  0.00     0.031 A 
ATOM     54  C   UNL A   1      38.564  32.497  33.746  1.00  0.00     0.074 A 
ATOM     55  C   UNL A   1      39.889  32.340  31.669  1.00  0.00     0.049 A 
ATOM     56  N   UNL A   1      39.504  32.529  34.654  1.00  0.00    -0.248 NA
ATOM     57  C   UNL A   1      37.197  32.531  34.289  1.00  0.00     0.031 C 
ATOM     58  C   UNL A   1      40.133  32.246  30.232  1.00  0.00     0.029 A 
ATOM     59  N   UNL A   1      41.143  32.321  32.229  1.00  0.00    -0.354 N 
ATOM     60  C   UNL A   1      38.845  32.598  35.876  1.00  0.00     0.074 A 
ATOM     61  C   UNL A   1      37.428  32.641  35.589  1.00  0.00     0.031 C 
ATOM     62  C   UNL A   1      41.460  32.208  30.019  1.00  0.00     0.029 A 
ATOM     63  C   UNL A   1      42.158  32.307  31.302  1.00  0.00     0.049 A 
ATOM     64  H   UNL A   1      41.300  32.317  33.200  1.00  0.00     0.167 HD
ATOM     65  C   UNL A   1      39.372  32.619  37.124  1.00  0.00     0.037 A 
ATOM     66  C   UNL A   1      43.493  32.398  31.467  1.00  0.00     0.037 A 
ATOM     67  C   UNL A   1      40.786  32.598  37.401  1.00  0.00     0.049 A 
ATOM     68  C   UNL A   1      44.065  32.488  32.858  1.00  0.00     0.074 A 
ATOM     69  C   UNL A   1      41.422  32.594  38.630  1.00  0.00     0.029 A 
ATOM     70  N   UNL A   1      41.784  32.601  36.436  1.00  0.00    -0.354 N 
ATOM     71  N   UNL A   1      43.435  32.514  34.010  1.00  0.00    -0.248 NA
ATOM     72  C   UNL A   1      45.528  32.554  32.974  1.00  0.00     0.031 C 
ATOM     73  C   UNL A   1      42.803  32.658  38.408  1.00  0.00     0.029 A 
ATOM     74  C   UNL A   1      43.031  32.634  37.040  1.00  0.00     0.049 A 
ATOM     75  H   UNL A   1      41.628  32.582  35.464  1.00  0.00     0.167 HD
ATOM     76  C   UNL A   1      44.425  32.582  34.987  1.00  0.00     0.074 A 
ATOM     77  C   UNL A   1      45.696  32.575  34.290  1.00  0.00     0.031 C 
ATOM     78  C   UNL A   1      44.293  32.641  36.338  1.00  0.00     0.037 A 
BRANCH  65  79
ATOM     79  C   UNL A   1      38.405  32.717  38.274  1.00  0.00     0.058 A 
ATOM     80  C   UNL A   1      38.328  33.860  39.089  1.00  0.00     0.135 A 
ATOM     81  C   UNL A   1      37.558  31.640  38.584  1.00  0.00     0.135 A 
ATOM     82  F   UNL A   1      39.125  34.915  38.850  1.00  0.00    -0.206 F 
ATOM     83  C   UNL A   1      37.491  33.910  40.198  1.00  0.00     0.059 A 
ATOM     84  C   UNL A   1      36.686  31.681  39.668  1.00  0.00     0.059 A 
ATOM     85  F   UNL A   1      37.583  30.523  37.840  1.00  0.00    -0.206 F 
ATOM     86  C   UNL A   1      36.680  32.811  40.485  1.00  0.00     0.060 A 
BRANCH  86  87
ATOM     87  S   UNL A   1      35.633  32.871  41.954  1.00  0.00     0.124 S 
ATOM     88  O   UNL A   1      35.539  34.309  42.184  1.00  0.00    -0.237 OA
ATOM     89  O   UNL A   1      34.410  32.222  41.492  1.00  0.00    -0.237 OA
ATOM     90  O   UNL A   1      36.398  32.125  42.949  1.00  0.00    -0.744 OA
ENDBRANCH  86  87
ENDBRANCH  65  79
BRANCH  66  91
ATOM     91  C   UNL A   1      44.374  32.423  30.269  1.00  0.00     0.058 A 
ATOM     92  C   UNL A   1      44.579  33.602  29.540  1.00  0.00     0.135 A 
ATOM     93  C   UNL A   1      45.070  31.272  29.862  1.00  0.00     0.135 A 
ATOM     94  F   UNL A   1      43.923  34.723  29.878  1.00  0.00    -0.206 F 
ATOM     95  C   UNL A   1      45.453  33.646  28.458  1.00  0.00     0.059 A 
ATOM     96  C   UNL A   1      45.969  31.298  28.801  1.00  0.00     0.059 A 
ATOM     97  F   UNL A   1      44.910  30.118  30.528  1.00  0.00    -0.206 F 
ATOM     98  C   UNL A   1      46.156  32.491  28.106  1.00  0.00     0.060 A 
BRANCH  98  99
ATOM     99  S   UNL A   1      47.368  32.592  26.771  1.00  0.00     0.124 S 
ATOM    100  O   UNL A   1      48.593  32.885  27.506  1.00  0.00    -0.237 OA
ATOM    101  O   UNL A   1      47.281  31.259  26.182  1.00  0.00    -0.237 OA
ATOM    102  O   UNL A   1      46.860  33.674  25.935  1.00  0.00    -0.744 OA
ENDBRANCH  98  99
ENDBRANCH  66  91
BRANCH  78 103
ATOM    103  C   UNL A   1      45.555  32.684  37.161  1.00  0.00     0.058 A 
ATOM    104  C   UNL A   1      46.142  33.896  37.557  1.00  0.00     0.135 A 
ATOM    105  C   UNL A   1      46.159  31.493  37.601  1.00  0.00     0.135 A 
ATOM    106  F   UNL A   1      45.612  35.065  37.164  1.00  0.00    -0.206 F 
ATOM    107  C   UNL A   1      47.299  33.927  38.333  1.00  0.00     0.059 A 
ATOM    108  C   UNL A   1      47.296  31.500  38.403  1.00  0.00     0.059 A 
ATOM    109  F   UNL A   1      45.634  30.304  37.264  1.00  0.00    -0.206 F 
ATOM    110  C   UNL A   1      47.868  32.723  38.753  1.00  0.00     0.060 A 
BRANCH 110 111
ATOM    111  S   UNL A   1      49.354  32.776  39.776  1.00  0.00     0.124 S 
ATOM    112  O   UNL A   1      50.347  32.183  38.885  1.00  0.00    -0.237 OA
ATOM    113  O   UNL A   1      49.505  34.206  40.032  1.00  0.00    -0.237 OA
ATOM    114  O   UNL A   1      48.997  31.972  40.940  1.00  0.00    -0.744 OA
ENDBRANCH 110 111
ENDBRANCH  78 103
ENDBRANCH  52  53
ENDBRANCH  45  47
ENDBRANCH  44  45
ENDBRANCH  43  44
ENDBRANCH  42  43
ENDBRANCH  41  42
ENDBRANCH  40  41
ENDBRANCH  39  40
ENDBRANCH  38  39
ENDBRANCH   1  38
TORSDOF 27
ENDMDL
