MODEL 1
REMARK VINA RESULT:     -10.6      0.000      0.000
REMARK SMILES CCCCc1nc(C[N@H+]2CC[NH2+][C@H](C(=O)OCCOCCOCCOC(=O)c3ccc(-c4c5nc(c(-c6c(F)cc(S(=O)(=O)[O-])cc6F)c6ccc([nH]6)c(-c6c(F)cc(S(=O)(=O)[O-])cc6F)c6nc(c(-c7c(F)cc(S(=O)(=O)[O-])cc7F)c7ccc4[nH]7)C=C6)C=C5)cc3)C2)c(Cl)[nH]1
REMARK SMILES IDX 20 1 19 2 18 3 17 4 16 5 14 6 15 7 13 8 9 9 10 10 94 11
REMARK SMILES IDX 11 13 12 14 8 17 7 18 5 19 6 20 97 21 95 22 96 24 4 25 3 26
REMARK SMILES IDX 2 27 1 28 21 29 22 30 23 31 24 32 25 33 26 34 27 35 28 36
REMARK SMILES IDX 29 37 93 38 30 39 92 40 31 41 32 42 33 43 86 44 34 45 91 46
REMARK SMILES IDX 85 47 87 48 35 49 90 50 84 51 83 52 36 54 70 55 49 56 69 57
REMARK SMILES IDX 50 58 53 59 68 60 88 61 51 62 52 63 67 65 89 66 54 67 37 68
REMARK SMILES IDX 38 69 47 70 39 71 40 72 46 73 48 74 41 75 42 76 43 77 44 78
REMARK SMILES IDX 45 79 71 80 72 81 81 82 73 83 74 84 80 85 82 86 75 87 76 88
REMARK SMILES IDX 77 89 78 90 79 91 55 92 56 93 65 94 57 95 58 96 64 97 66 98
REMARK SMILES IDX 59 99 60 100 61 101 62 102 63 103
REMARK H PARENT 9 12 12 15 12 16 97 23 87 53 53 64
REMARK Flexibility Score: inf
ROOT
ATOM      1  C   UNL A   1      40.760  19.887  26.096  1.00  0.00     0.188 C 
ENDROOT
BRANCH   1   2
ATOM      2  O   UNL A   1      40.549  21.276  26.338  1.00  0.00    -0.376 OA
BRANCH   2   3
ATOM      3  C   UNL A   1      39.221  21.772  26.361  1.00  0.00     0.202 C 
BRANCH   3   4
ATOM      4  C   UNL A   1      38.305  21.327  25.212  1.00  0.00     0.261 C 
BRANCH   4   5
ATOM      5  O   UNL A   1      36.994  21.921  25.211  1.00  0.00    -0.459 OA
BRANCH   5   6
ATOM      6  C   UNL A   1      35.915  21.139  24.893  1.00  0.00     0.371 C 
ATOM      7  O   UNL A   1      35.872  19.925  25.044  1.00  0.00    -0.245 OA
BRANCH   6   8
ATOM      8  C   UNL A   1      34.742  22.007  24.364  1.00  0.00     0.348 C 
ATOM      9  N   UNL A   1      33.398  24.124  24.836  1.00  0.00    -0.320 N 
ATOM     10  C   UNL A   1      32.193  23.311  24.637  1.00  0.00     0.324 C 
ATOM     11  C   UNL A   1      34.544  23.276  25.224  1.00  0.00     0.341 C 
ATOM     12  H   UNL A   1      33.203  24.733  25.631  1.00  0.00     0.348 HD
ATOM     13  C   UNL A   1      32.387  22.024  23.798  1.00  0.00     0.323 C 
ATOM     14  N   UNL A   1      33.510  21.177  24.237  1.00  0.00    -0.325 N 
ATOM     15  H   UNL A   1      33.666  20.439  23.551  1.00  0.00     0.347 HD
ATOM     16  H   UNL A   1      33.287  20.759  25.141  1.00  0.00     0.347 HD
BRANCH   9  17
ATOM     17  C   UNL A   1      33.674  25.143  23.797  1.00  0.00     0.323 C 
BRANCH  17  18
ATOM     18  C   UNL A   1      32.871  26.411  23.850  1.00  0.00     0.132 A 
ATOM     19  C   UNL A   1      31.247  27.782  23.390  1.00  0.00     0.107 A 
ATOM     20  N   UNL A   1      31.847  26.679  22.960  1.00  0.00    -0.231 NA
ATOM     21  N   UNL A   1      31.958  28.336  24.421  1.00  0.00    -0.333 N 
ATOM     22  C   UNL A   1      32.946  27.456  24.738  1.00  0.00     0.135 A 
ATOM     23  H   UNL A   1      31.786  29.206  24.850  1.00  0.00     0.169 HD
ATOM     24  Cl  UNL A   1      33.901  27.779  26.098  1.00  0.00    -0.062 Cl
BRANCH  19  25
ATOM     25  C   UNL A   1      29.883  28.208  22.980  1.00  0.00     0.075 C 
BRANCH  25  26
ATOM     26  C   UNL A   1      29.394  29.646  23.109  1.00  0.00     0.008 C 
BRANCH  26  27
ATOM     27  C   UNL A   1      27.911  30.022  23.057  1.00  0.00    -0.003 C 
ATOM     28  C   UNL A   1      27.502  31.369  23.621  1.00  0.00     0.004 C 
ENDBRANCH  26  27
ENDBRANCH  25  26
ENDBRANCH  19  25
ENDBRANCH  17  18
ENDBRANCH   9  17
ENDBRANCH   6   8
ENDBRANCH   5   6
ENDBRANCH   4   5
ENDBRANCH   3   4
ENDBRANCH   2   3
ENDBRANCH   1   2
BRANCH   1  29
ATOM     29  C   UNL A   1      42.170  19.280  26.235  1.00  0.00     0.188 C 
BRANCH  29  30
ATOM     30  O   UNL A   1      42.816  19.126  24.984  1.00  0.00    -0.376 OA
BRANCH  30  31
ATOM     31  C   UNL A   1      44.199  18.860  24.998  1.00  0.00     0.202 C 
BRANCH  31  32
ATOM     32  C   UNL A   1      44.973  19.850  24.143  1.00  0.00     0.261 C 
BRANCH  32  33
ATOM     33  O   UNL A   1      45.355  21.029  24.849  1.00  0.00    -0.460 OA
BRANCH  33  34
ATOM     34  C   UNL A   1      44.692  22.126  24.465  1.00  0.00     0.338 C 
ATOM     35  O   UNL A   1      45.026  22.881  23.546  1.00  0.00    -0.246 OA
BRANCH  34  36
ATOM     36  C   UNL A   1      43.650  22.508  25.403  1.00  0.00     0.060 A 
ATOM     37  C   UNL A   1      42.881  23.582  24.931  1.00  0.00     0.016 A 
ATOM     38  C   UNL A   1      44.081  22.407  26.727  1.00  0.00     0.016 A 
ATOM     39  C   UNL A   1      42.895  24.736  25.671  1.00  0.00     0.010 A 
ATOM     40  C   UNL A   1      44.145  23.569  27.439  1.00  0.00     0.010 A 
ATOM     41  C   UNL A   1      43.607  24.731  26.874  1.00  0.00    -0.014 A 
BRANCH  41  42
ATOM     42  C   UNL A   1      43.484  25.885  27.732  1.00  0.00     0.031 A 
ATOM     43  C   UNL A   1      44.628  26.791  27.456  1.00  0.00     0.074 A 
ATOM     44  C   UNL A   1      42.360  26.128  28.430  1.00  0.00     0.049 A 
ATOM     45  N   UNL A   1      45.660  27.031  28.200  1.00  0.00    -0.248 NA
ATOM     46  C   UNL A   1      44.821  27.207  26.046  1.00  0.00     0.031 C 
ATOM     47  C   UNL A   1      41.121  25.338  28.404  1.00  0.00     0.029 A 
ATOM     48  N   UNL A   1      42.017  27.214  29.171  1.00  0.00    -0.354 N 
ATOM     49  C   UNL A   1      46.429  27.901  27.428  1.00  0.00     0.074 A 
ATOM     50  C   UNL A   1      46.077  27.647  26.065  1.00  0.00     0.031 C 
ATOM     51  C   UNL A   1      40.105  26.093  28.877  1.00  0.00     0.029 A 
ATOM     52  C   UNL A   1      40.640  27.357  29.348  1.00  0.00     0.049 A 
ATOM     53  H   UNL A   1      42.677  27.842  29.546  1.00  0.00     0.167 HD
ATOM     54  C   UNL A   1      46.881  29.066  27.966  1.00  0.00     0.037 A 
ATOM     55  C   UNL A   1      40.017  28.493  29.752  1.00  0.00     0.037 A 
ATOM     56  C   UNL A   1      46.813  29.001  29.403  1.00  0.00     0.049 A 
ATOM     57  C   UNL A   1      41.058  29.355  30.373  1.00  0.00     0.074 A 
ATOM     58  C   UNL A   1      47.492  28.334  30.399  1.00  0.00     0.029 A 
ATOM     59  N   UNL A   1      45.599  29.385  29.913  1.00  0.00    -0.354 N 
ATOM     60  N   UNL A   1      41.709  29.028  31.458  1.00  0.00    -0.248 NA
ATOM     61  C   UNL A   1      41.684  30.400  29.567  1.00  0.00     0.031 C 
ATOM     62  C   UNL A   1      46.582  28.216  31.489  1.00  0.00     0.029 A 
ATOM     63  C   UNL A   1      45.391  28.859  31.158  1.00  0.00     0.049 A 
ATOM     64  H   UNL A   1      44.958  29.965  29.441  1.00  0.00     0.167 HD
ATOM     65  C   UNL A   1      42.991  29.510  31.256  1.00  0.00     0.074 A 
ATOM     66  C   UNL A   1      42.877  30.470  30.166  1.00  0.00     0.031 C 
ATOM     67  C   UNL A   1      44.073  28.850  31.759  1.00  0.00     0.037 A 
BRANCH  54  68
ATOM     68  C   UNL A   1      46.859  30.405  27.243  1.00  0.00     0.058 A 
ATOM     69  C   UNL A   1      48.050  31.154  27.183  1.00  0.00     0.135 A 
ATOM     70  C   UNL A   1      45.692  31.111  26.855  1.00  0.00     0.135 A 
ATOM     71  F   UNL A   1      49.221  30.600  27.534  1.00  0.00    -0.206 F 
ATOM     72  C   UNL A   1      48.071  32.505  26.823  1.00  0.00     0.059 A 
ATOM     73  C   UNL A   1      45.698  32.435  26.446  1.00  0.00     0.059 A 
ATOM     74  F   UNL A   1      44.462  30.597  26.930  1.00  0.00    -0.206 F 
ATOM     75  C   UNL A   1      46.886  33.138  26.464  1.00  0.00     0.060 A 
BRANCH  75  76
ATOM     76  S   UNL A   1      46.883  34.889  26.055  1.00  0.00     0.124 S 
ATOM     77  O   UNL A   1      45.696  34.992  25.216  1.00  0.00    -0.237 OA
ATOM     78  O   UNL A   1      46.794  35.503  27.375  1.00  0.00    -0.237 OA
ATOM     79  O   UNL A   1      48.159  35.076  25.369  1.00  0.00    -0.744 OA
ENDBRANCH  75  76
ENDBRANCH  54  68
BRANCH  55  80
ATOM     80  C   UNL A   1      38.689  29.011  29.331  1.00  0.00     0.058 A 
ATOM     81  C   UNL A   1      37.634  29.167  30.248  1.00  0.00     0.135 A 
ATOM     82  C   UNL A   1      38.507  29.613  28.069  1.00  0.00     0.135 A 
ATOM     83  F   UNL A   1      37.734  28.647  31.481  1.00  0.00    -0.206 F 
ATOM     84  C   UNL A   1      36.481  29.902  29.944  1.00  0.00     0.059 A 
ATOM     85  C   UNL A   1      37.367  30.344  27.740  1.00  0.00     0.059 A 
ATOM     86  F   UNL A   1      39.478  29.579  27.143  1.00  0.00    -0.206 F 
ATOM     87  C   UNL A   1      36.365  30.502  28.690  1.00  0.00     0.060 A 
BRANCH  87  88
ATOM     88  S   UNL A   1      34.945  31.570  28.341  1.00  0.00     0.124 S 
ATOM     89  O   UNL A   1      33.994  30.627  27.762  1.00  0.00    -0.237 OA
ATOM     90  O   UNL A   1      34.611  32.082  29.665  1.00  0.00    -0.237 OA
ATOM     91  O   UNL A   1      35.486  32.559  27.410  1.00  0.00    -0.744 OA
ENDBRANCH  87  88
ENDBRANCH  55  80
BRANCH  67  92
ATOM     92  C   UNL A   1      43.866  27.968  32.953  1.00  0.00     0.058 A 
ATOM     93  C   UNL A   1      43.633  28.413  34.264  1.00  0.00     0.135 A 
ATOM     94  C   UNL A   1      43.782  26.588  32.711  1.00  0.00     0.135 A 
ATOM     95  F   UNL A   1      43.625  29.722  34.555  1.00  0.00    -0.206 F 
ATOM     96  C   UNL A   1      43.346  27.514  35.295  1.00  0.00     0.059 A 
ATOM     97  C   UNL A   1      43.467  25.682  33.712  1.00  0.00     0.059 A 
ATOM     98  F   UNL A   1      43.952  26.114  31.465  1.00  0.00    -0.206 F 
ATOM     99  C   UNL A   1      43.259  26.150  35.005  1.00  0.00     0.060 A 
BRANCH  99 100
ATOM    100  S   UNL A   1      42.810  24.990  36.314  1.00  0.00     0.124 S 
ATOM    101  O   UNL A   1      44.002  25.000  37.154  1.00  0.00    -0.237 OA
ATOM    102  O   UNL A   1      41.621  25.610  36.891  1.00  0.00    -0.237 OA
ATOM    103  O   UNL A   1      42.564  23.742  35.594  1.00  0.00    -0.744 OA
ENDBRANCH  99 100
ENDBRANCH  67  92
ENDBRANCH  41  42
ENDBRANCH  34  36
ENDBRANCH  33  34
ENDBRANCH  32  33
ENDBRANCH  31  32
ENDBRANCH  30  31
ENDBRANCH  29  30
ENDBRANCH   1  29
TORSDOF 25
ENDMDL
MODEL 2
REMARK VINA RESULT:     -10.2      1.612      3.898
REMARK SMILES CCCCc1nc(C[N@H+]2CC[NH2+][C@H](C(=O)OCCOCCOCCOC(=O)c3ccc(-c4c5nc(c(-c6c(F)cc(S(=O)(=O)[O-])cc6F)c6ccc([nH]6)c(-c6c(F)cc(S(=O)(=O)[O-])cc6F)c6nc(c(-c7c(F)cc(S(=O)(=O)[O-])cc7F)c7ccc4[nH]7)C=C6)C=C5)cc3)C2)c(Cl)[nH]1
REMARK SMILES IDX 20 1 19 2 18 3 17 4 16 5 14 6 15 7 13 8 9 9 10 10 94 11
REMARK SMILES IDX 11 13 12 14 8 17 7 18 5 19 6 20 97 21 95 22 96 24 4 25 3 26
REMARK SMILES IDX 2 27 1 28 21 29 22 30 23 31 24 32 25 33 26 34 27 35 28 36
REMARK SMILES IDX 29 37 93 38 30 39 92 40 31 41 32 42 33 43 86 44 34 45 91 46
REMARK SMILES IDX 85 47 87 48 35 49 90 50 84 51 83 52 36 54 70 55 49 56 69 57
REMARK SMILES IDX 50 58 53 59 68 60 88 61 51 62 52 63 67 65 89 66 54 67 37 68
REMARK SMILES IDX 38 69 47 70 39 71 40 72 46 73 48 74 41 75 42 76 43 77 44 78
REMARK SMILES IDX 45 79 71 80 72 81 81 82 73 83 74 84 80 85 82 86 75 87 76 88
REMARK SMILES IDX 77 89 78 90 79 91 55 92 56 93 65 94 57 95 58 96 64 97 66 98
REMARK SMILES IDX 59 99 60 100 61 101 62 102 63 103
REMARK H PARENT 9 12 12 15 12 16 97 23 87 53 53 64
REMARK Flexibility Score: inf
ROOT
ATOM      1  C   UNL A   1      37.724  22.392  25.084  1.00  0.00     0.188 C 
ENDROOT
BRANCH   1   2
ATOM      2  O   UNL A   1      36.332  22.664  24.942  1.00  0.00    -0.376 OA
BRANCH   2   3
ATOM      3  C   UNL A   1      35.873  23.278  23.749  1.00  0.00     0.202 C 
BRANCH   3   4
ATOM      4  C   UNL A   1      34.456  23.868  23.786  1.00  0.00     0.261 C 
BRANCH   4   5
ATOM      5  O   UNL A   1      33.928  24.268  22.508  1.00  0.00    -0.459 OA
BRANCH   5   6
ATOM      6  C   UNL A   1      32.794  25.036  22.473  1.00  0.00     0.371 C 
ATOM      7  O   UNL A   1      32.322  25.527  21.456  1.00  0.00    -0.245 OA
BRANCH   6   8
ATOM      8  C   UNL A   1      32.165  25.156  23.886  1.00  0.00     0.348 C 
ATOM      9  N   UNL A   1      30.319  24.224  25.383  1.00  0.00    -0.320 N 
ATOM     10  C   UNL A   1      29.965  25.616  25.682  1.00  0.00     0.324 C 
ATOM     11  C   UNL A   1      31.026  24.130  24.089  1.00  0.00     0.341 C 
ATOM     12  H   UNL A   1      29.438  23.723  25.270  1.00  0.00     0.348 HD
ATOM     13  C   UNL A   1      31.092  26.655  25.458  1.00  0.00     0.323 C 
ATOM     14  N   UNL A   1      31.748  26.565  24.142  1.00  0.00    -0.325 N 
ATOM     15  H   UNL A   1      32.568  27.170  24.129  1.00  0.00     0.347 HD
ATOM     16  H   UNL A   1      31.094  26.862  23.416  1.00  0.00     0.347 HD
BRANCH   9  17
ATOM     17  C   UNL A   1      30.913  23.449  26.497  1.00  0.00     0.323 C 
BRANCH  17  18
ATOM     18  C   UNL A   1      31.834  22.320  26.133  1.00  0.00     0.132 A 
ATOM     19  C   UNL A   1      32.578  20.620  25.001  1.00  0.00     0.107 A 
ATOM     20  N   UNL A   1      31.490  21.351  25.208  1.00  0.00    -0.231 NA
ATOM     21  N   UNL A   1      33.560  20.967  25.890  1.00  0.00    -0.333 N 
ATOM     22  C   UNL A   1      33.111  22.059  26.567  1.00  0.00     0.135 A 
ATOM     23  H   UNL A   1      34.424  20.513  26.016  1.00  0.00     0.169 HD
ATOM     24  Cl  UNL A   1      34.175  22.837  27.629  1.00  0.00    -0.062 Cl
BRANCH  19  25
ATOM     25  C   UNL A   1      32.781  19.736  23.822  1.00  0.00     0.075 C 
BRANCH  25  26
ATOM     26  C   UNL A   1      32.406  18.259  23.824  1.00  0.00     0.008 C 
BRANCH  26  27
ATOM     27  C   UNL A   1      33.433  17.146  24.042  1.00  0.00    -0.003 C 
ATOM     28  C   UNL A   1      34.857  17.552  24.375  1.00  0.00     0.004 C 
ENDBRANCH  26  27
ENDBRANCH  25  26
ENDBRANCH  19  25
ENDBRANCH  17  18
ENDBRANCH   9  17
ENDBRANCH   6   8
ENDBRANCH   5   6
ENDBRANCH   4   5
ENDBRANCH   3   4
ENDBRANCH   2   3
ENDBRANCH   1   2
BRANCH   1  29
ATOM     29  C   UNL A   1      38.195  21.071  25.725  1.00  0.00     0.188 C 
BRANCH  29  30
ATOM     30  O   UNL A   1      39.606  20.951  25.735  1.00  0.00    -0.376 OA
BRANCH  30  31
ATOM     31  C   UNL A   1      40.287  21.409  26.879  1.00  0.00     0.202 C 
BRANCH  31  32
ATOM     32  C   UNL A   1      41.793  21.265  26.735  1.00  0.00     0.261 C 
BRANCH  32  33
ATOM     33  O   UNL A   1      42.274  21.631  25.443  1.00  0.00    -0.460 OA
BRANCH  33  34
ATOM     34  C   UNL A   1      43.587  21.427  25.279  1.00  0.00     0.338 C 
ATOM     35  O   UNL A   1      44.146  20.325  25.262  1.00  0.00    -0.246 OA
BRANCH  34  36
ATOM     36  C   UNL A   1      44.360  22.654  25.374  1.00  0.00     0.060 A 
ATOM     37  C   UNL A   1      45.102  22.721  26.564  1.00  0.00     0.016 A 
ATOM     38  C   UNL A   1      43.668  23.746  24.848  1.00  0.00     0.016 A 
ATOM     39  C   UNL A   1      44.815  23.749  27.423  1.00  0.00     0.010 A 
ATOM     40  C   UNL A   1      43.338  24.739  25.723  1.00  0.00     0.010 A 
ATOM     41  C   UNL A   1      43.867  24.693  27.018  1.00  0.00    -0.014 A 
BRANCH  41  42
ATOM     42  C   UNL A   1      43.688  25.863  27.845  1.00  0.00     0.031 A 
ATOM     43  C   UNL A   1      44.818  26.791  27.585  1.00  0.00     0.074 A 
ATOM     44  C   UNL A   1      42.537  26.092  28.502  1.00  0.00     0.049 A 
ATOM     45  N   UNL A   1      45.819  27.072  28.356  1.00  0.00    -0.248 NA
ATOM     46  C   UNL A   1      45.046  27.180  26.172  1.00  0.00     0.031 C 
ATOM     47  C   UNL A   1      41.319  25.272  28.454  1.00  0.00     0.029 A 
ATOM     48  N   UNL A   1      42.143  27.186  29.206  1.00  0.00    -0.354 N 
ATOM     49  C   UNL A   1      46.592  27.944  27.589  1.00  0.00     0.074 A 
ATOM     50  C   UNL A   1      46.291  27.652  26.222  1.00  0.00     0.031 C 
ATOM     51  C   UNL A   1      40.270  26.011  28.877  1.00  0.00     0.029 A 
ATOM     52  C   UNL A   1      40.759  27.298  29.336  1.00  0.00     0.049 A 
ATOM     53  H   UNL A   1      42.776  27.838  29.588  1.00  0.00     0.167 HD
ATOM     54  C   UNL A   1      46.997  29.133  28.115  1.00  0.00     0.037 A 
ATOM     55  C   UNL A   1      40.095  28.426  29.693  1.00  0.00     0.037 A 
ATOM     56  C   UNL A   1      46.885  29.098  29.550  1.00  0.00     0.049 A 
ATOM     57  C   UNL A   1      41.094  29.328  30.328  1.00  0.00     0.074 A 
ATOM     58  C   UNL A   1      47.547  28.470  30.582  1.00  0.00     0.029 A 
ATOM     59  N   UNL A   1      45.645  29.462  30.012  1.00  0.00    -0.354 N 
ATOM     60  N   UNL A   1      41.717  29.041  31.440  1.00  0.00    -0.248 NA
ATOM     61  C   UNL A   1      41.720  30.370  29.518  1.00  0.00     0.031 C 
ATOM     62  C   UNL A   1      46.605  28.353  31.644  1.00  0.00     0.029 A 
ATOM     63  C   UNL A   1      45.410  28.959  31.261  1.00  0.00     0.049 A 
ATOM     64  H   UNL A   1      45.006  30.015  29.506  1.00  0.00     0.167 HD
ATOM     65  C   UNL A   1      42.993  29.551  31.268  1.00  0.00     0.074 A 
ATOM     66  C   UNL A   1      42.891  30.484  30.153  1.00  0.00     0.031 C 
ATOM     67  C   UNL A   1      44.073  28.930  31.820  1.00  0.00     0.037 A 
BRANCH  54  68
ATOM     68  C   UNL A   1      46.966  30.454  27.361  1.00  0.00     0.058 A 
ATOM     69  C   UNL A   1      48.153  31.208  27.281  1.00  0.00     0.135 A 
ATOM     70  C   UNL A   1      45.794  31.143  26.959  1.00  0.00     0.135 A 
ATOM     71  F   UNL A   1      49.327  30.669  27.642  1.00  0.00    -0.206 F 
ATOM     72  C   UNL A   1      48.165  32.551  26.889  1.00  0.00     0.059 A 
ATOM     73  C   UNL A   1      45.792  32.458  26.519  1.00  0.00     0.059 A 
ATOM     74  F   UNL A   1      44.567  30.625  27.048  1.00  0.00    -0.206 F 
ATOM     75  C   UNL A   1      46.975  33.168  26.518  1.00  0.00     0.060 A 
BRANCH  75  76
ATOM     76  S   UNL A   1      46.961  34.909  26.069  1.00  0.00     0.124 S 
ATOM     77  O   UNL A   1      47.939  34.941  24.988  1.00  0.00    -0.237 OA
ATOM     78  O   UNL A   1      45.568  35.106  25.683  1.00  0.00    -0.237 OA
ATOM     79  O   UNL A   1      47.364  35.578  27.303  1.00  0.00    -0.744 OA
ENDBRANCH  75  76
ENDBRANCH  54  68
BRANCH  55  80
ATOM     80  C   UNL A   1      38.769  28.901  29.218  1.00  0.00     0.058 A 
ATOM     81  C   UNL A   1      37.684  29.059  30.099  1.00  0.00     0.135 A 
ATOM     82  C   UNL A   1      38.612  29.463  27.935  1.00  0.00     0.135 A 
ATOM     83  F   UNL A   1      37.758  28.577  31.349  1.00  0.00    -0.206 F 
ATOM     84  C   UNL A   1      36.524  29.758  29.740  1.00  0.00     0.059 A 
ATOM     85  C   UNL A   1      37.466  30.158  27.551  1.00  0.00     0.059 A 
ATOM     86  F   UNL A   1      39.611  29.425  27.040  1.00  0.00    -0.206 F 
ATOM     87  C   UNL A   1      36.432  30.319  28.466  1.00  0.00     0.060 A 
BRANCH  87  88
ATOM     88  S   UNL A   1      35.001  31.344  28.044  1.00  0.00     0.124 S 
ATOM     89  O   UNL A   1      34.453  31.653  29.361  1.00  0.00    -0.237 OA
ATOM     90  O   UNL A   1      35.617  32.459  27.333  1.00  0.00    -0.237 OA
ATOM     91  O   UNL A   1      34.181  30.458  27.221  1.00  0.00    -0.744 OA
ENDBRANCH  87  88
ENDBRANCH  55  80
BRANCH  67  92
ATOM     92  C   UNL A   1      43.850  28.069  33.027  1.00  0.00     0.058 A 
ATOM     93  C   UNL A   1      43.791  26.666  33.027  1.00  0.00     0.135 A 
ATOM     94  C   UNL A   1      43.819  28.720  34.269  1.00  0.00     0.135 A 
ATOM     95  F   UNL A   1      43.889  25.974  31.882  1.00  0.00    -0.206 F 
ATOM     96  C   UNL A   1      43.685  25.944  34.218  1.00  0.00     0.059 A 
ATOM     97  C   UNL A   1      43.747  28.022  35.465  1.00  0.00     0.059 A 
ATOM     98  F   UNL A   1      43.919  30.059  34.327  1.00  0.00    -0.206 F 
ATOM     99  C   UNL A   1      43.671  26.634  35.434  1.00  0.00     0.060 A 
BRANCH  99 100
ATOM    100  S   UNL A   1      43.616  25.706  36.982  1.00  0.00     0.124 S 
ATOM    101  O   UNL A   1      42.512  24.783  36.746  1.00  0.00    -0.237 OA
ATOM    102  O   UNL A   1      44.945  25.105  37.037  1.00  0.00    -0.237 OA
ATOM    103  O   UNL A   1      43.365  26.736  37.987  1.00  0.00    -0.744 OA
ENDBRANCH  99 100
ENDBRANCH  67  92
ENDBRANCH  41  42
ENDBRANCH  34  36
ENDBRANCH  33  34
ENDBRANCH  32  33
ENDBRANCH  31  32
ENDBRANCH  30  31
ENDBRANCH  29  30
ENDBRANCH   1  29
TORSDOF 25
ENDMDL
MODEL 3
REMARK VINA RESULT:      -9.9      1.659      3.938
REMARK SMILES CCCCc1nc(C[N@H+]2CC[NH2+][C@H](C(=O)OCCOCCOCCOC(=O)c3ccc(-c4c5nc(c(-c6c(F)cc(S(=O)(=O)[O-])cc6F)c6ccc([nH]6)c(-c6c(F)cc(S(=O)(=O)[O-])cc6F)c6nc(c(-c7c(F)cc(S(=O)(=O)[O-])cc7F)c7ccc4[nH]7)C=C6)C=C5)cc3)C2)c(Cl)[nH]1
REMARK SMILES IDX 20 1 19 2 18 3 17 4 16 5 14 6 15 7 13 8 9 9 10 10 94 11
REMARK SMILES IDX 11 13 12 14 8 17 7 18 5 19 6 20 97 21 95 22 96 24 4 25 3 26
REMARK SMILES IDX 2 27 1 28 21 29 22 30 23 31 24 32 25 33 26 34 27 35 28 36
REMARK SMILES IDX 29 37 93 38 30 39 92 40 31 41 32 42 33 43 86 44 34 45 91 46
REMARK SMILES IDX 85 47 87 48 35 49 90 50 84 51 83 52 36 54 70 55 49 56 69 57
REMARK SMILES IDX 50 58 53 59 68 60 88 61 51 62 52 63 67 65 89 66 54 67 37 68
REMARK SMILES IDX 38 69 47 70 39 71 40 72 46 73 48 74 41 75 42 76 43 77 44 78
REMARK SMILES IDX 45 79 71 80 72 81 81 82 73 83 74 84 80 85 82 86 75 87 76 88
REMARK SMILES IDX 77 89 78 90 79 91 55 92 56 93 65 94 57 95 58 96 64 97 66 98
REMARK SMILES IDX 59 99 60 100 61 101 62 102 63 103
REMARK H PARENT 9 12 12 15 12 16 97 23 87 53 53 64
REMARK Flexibility Score: inf
ROOT
ATOM      1  C   UNL A   1      37.260  22.759  24.867  1.00  0.00     0.188 C 
ENDROOT
BRANCH   1   2
ATOM      2  O   UNL A   1      35.865  22.885  24.605  1.00  0.00    -0.376 OA
BRANCH   2   3
ATOM      3  C   UNL A   1      35.434  23.082  23.268  1.00  0.00     0.202 C 
BRANCH   3   4
ATOM      4  C   UNL A   1      34.454  24.240  23.029  1.00  0.00     0.261 C 
BRANCH   4   5
ATOM      5  O   UNL A   1      33.588  24.082  21.891  1.00  0.00    -0.459 OA
BRANCH   5   6
ATOM      6  C   UNL A   1      32.966  25.188  21.375  1.00  0.00     0.371 C 
ATOM      7  O   UNL A   1      32.906  25.455  20.182  1.00  0.00    -0.245 OA
BRANCH   6   8
ATOM      8  C   UNL A   1      32.309  26.028  22.503  1.00  0.00     0.348 C 
ATOM      9  N   UNL A   1      30.167  26.287  23.867  1.00  0.00    -0.320 N 
ATOM     10  C   UNL A   1      30.238  27.721  23.562  1.00  0.00     0.324 C 
ATOM     11  C   UNL A   1      30.899  25.500  22.853  1.00  0.00     0.341 C 
ATOM     12  H   UNL A   1      29.185  26.027  23.786  1.00  0.00     0.348 HD
ATOM     13  C   UNL A   1      31.642  28.255  23.185  1.00  0.00     0.323 C 
ATOM     14  N   UNL A   1      32.328  27.474  22.140  1.00  0.00    -0.325 N 
ATOM     15  H   UNL A   1      33.293  27.792  22.058  1.00  0.00     0.347 HD
ATOM     16  H   UNL A   1      31.849  27.607  21.248  1.00  0.00     0.347 HD
BRANCH   9  17
ATOM     17  C   UNL A   1      30.416  25.909  25.278  1.00  0.00     0.323 C 
BRANCH  17  18
ATOM     18  C   UNL A   1      31.279  24.703  25.522  1.00  0.00     0.132 A 
ATOM     19  C   UNL A   1      31.852  22.606  25.508  1.00  0.00     0.107 A 
ATOM     20  N   UNL A   1      30.803  23.412  25.392  1.00  0.00    -0.231 NA
ATOM     21  N   UNL A   1      32.957  23.319  25.888  1.00  0.00    -0.333 N 
ATOM     22  C   UNL A   1      32.610  24.635  25.853  1.00  0.00     0.135 A 
ATOM     23  H   UNL A   1      33.835  22.951  26.139  1.00  0.00     0.169 HD
ATOM     24  Cl  UNL A   1      33.820  25.790  26.110  1.00  0.00    -0.062 Cl
BRANCH  19  25
ATOM     25  C   UNL A   1      31.875  21.191  25.051  1.00  0.00     0.075 C 
BRANCH  25  26
ATOM     26  C   UNL A   1      32.984  20.219  25.436  1.00  0.00     0.008 C 
BRANCH  26  27
ATOM     27  C   UNL A   1      34.084  19.791  24.461  1.00  0.00    -0.003 C 
ATOM     28  C   UNL A   1      34.764  18.457  24.702  1.00  0.00     0.004 C 
ENDBRANCH  26  27
ENDBRANCH  25  26
ENDBRANCH  19  25
ENDBRANCH  17  18
ENDBRANCH   9  17
ENDBRANCH   6   8
ENDBRANCH   5   6
ENDBRANCH   4   5
ENDBRANCH   3   4
ENDBRANCH   2   3
ENDBRANCH   1   2
BRANCH   1  29
ATOM     29  C   UNL A   1      37.792  21.566  25.684  1.00  0.00     0.188 C 
BRANCH  29  30
ATOM     30  O   UNL A   1      39.204  21.470  25.641  1.00  0.00    -0.376 OA
BRANCH  30  31
ATOM     31  C   UNL A   1      39.935  22.256  26.554  1.00  0.00     0.202 C 
BRANCH  31  32
ATOM     32  C   UNL A   1      41.408  21.885  26.564  1.00  0.00     0.261 C 
BRANCH  32  33
ATOM     33  O   UNL A   1      42.130  22.407  25.450  1.00  0.00    -0.460 OA
BRANCH  33  34
ATOM     34  C   UNL A   1      43.454  22.227  25.533  1.00  0.00     0.338 C 
ATOM     35  O   UNL A   1      44.024  21.136  25.641  1.00  0.00    -0.246 OA
BRANCH  34  36
ATOM     36  C   UNL A   1      44.176  23.470  25.742  1.00  0.00     0.060 A 
ATOM     37  C   UNL A   1      44.812  23.509  26.992  1.00  0.00     0.016 A 
ATOM     38  C   UNL A   1      43.496  24.563  25.201  1.00  0.00     0.016 A 
ATOM     39  C   UNL A   1      44.420  24.492  27.863  1.00  0.00     0.010 A 
ATOM     40  C   UNL A   1      43.061  25.509  26.083  1.00  0.00     0.010 A 
ATOM     41  C   UNL A   1      43.479  25.424  27.416  1.00  0.00    -0.014 A 
BRANCH  41  42
ATOM     42  C   UNL A   1      43.193  26.553  28.269  1.00  0.00     0.031 A 
ATOM     43  C   UNL A   1      44.321  27.513  28.160  1.00  0.00     0.074 A 
ATOM     44  C   UNL A   1      41.978  26.730  28.818  1.00  0.00     0.049 A 
ATOM     45  N   UNL A   1      45.235  27.780  29.037  1.00  0.00    -0.248 NA
ATOM     46  C   UNL A   1      44.676  27.968  26.794  1.00  0.00     0.031 C 
ATOM     47  C   UNL A   1      40.791  25.889  28.617  1.00  0.00     0.029 A 
ATOM     48  N   UNL A   1      41.493  27.785  29.525  1.00  0.00    -0.354 N 
ATOM     49  C   UNL A   1      46.058  28.700  28.387  1.00  0.00     0.074 A 
ATOM     50  C   UNL A   1      45.898  28.462  26.986  1.00  0.00     0.031 C 
ATOM     51  C   UNL A   1      39.688  26.589  28.965  1.00  0.00     0.029 A 
ATOM     52  C   UNL A   1      40.099  27.863  29.523  1.00  0.00     0.049 A 
ATOM     53  H   UNL A   1      42.069  28.432  29.994  1.00  0.00     0.167 HD
ATOM     54  C   UNL A   1      46.382  29.871  28.999  1.00  0.00     0.037 A 
ATOM     55  C   UNL A   1      39.378  28.962  29.860  1.00  0.00     0.037 A 
ATOM     56  C   UNL A   1      46.131  29.771  30.413  1.00  0.00     0.049 A 
ATOM     57  C   UNL A   1      40.289  29.855  30.627  1.00  0.00     0.074 A 
ATOM     58  C   UNL A   1      46.705  29.112  31.478  1.00  0.00     0.029 A 
ATOM     59  N   UNL A   1      44.844  30.091  30.766  1.00  0.00    -0.354 N 
ATOM     60  N   UNL A   1      40.807  29.531  31.782  1.00  0.00    -0.248 NA
ATOM     61  C   UNL A   1      40.966  30.943  29.927  1.00  0.00     0.031 C 
ATOM     62  C   UNL A   1      45.667  28.930  32.437  1.00  0.00     0.029 A 
ATOM     63  C   UNL A   1      44.500  29.529  31.964  1.00  0.00     0.049 A 
ATOM     64  H   UNL A   1      44.244  30.653  30.223  1.00  0.00     0.167 HD
ATOM     65  C   UNL A   1      42.081  30.073  31.757  1.00  0.00     0.074 A 
ATOM     66  C   UNL A   1      42.066  31.051  30.678  1.00  0.00     0.031 C 
ATOM     67  C   UNL A   1      43.117  29.449  32.387  1.00  0.00     0.037 A 
BRANCH  54  68
ATOM     68  C   UNL A   1      46.393  31.224  28.301  1.00  0.00     0.058 A 
ATOM     69  C   UNL A   1      45.192  31.698  27.739  1.00  0.00     0.135 A 
ATOM     70  C   UNL A   1      47.555  31.940  27.915  1.00  0.00     0.135 A 
ATOM     71  F   UNL A   1      44.026  31.098  28.021  1.00  0.00    -0.206 F 
ATOM     72  C   UNL A   1      45.156  32.758  26.828  1.00  0.00     0.059 A 
ATOM     73  C   UNL A   1      47.534  33.025  27.052  1.00  0.00     0.059 A 
ATOM     74  F   UNL A   1      48.791  31.586  28.273  1.00  0.00    -0.206 F 
ATOM     75  C   UNL A   1      46.337  33.409  26.485  1.00  0.00     0.060 A 
BRANCH  75  76
ATOM     76  S   UNL A   1      46.319  34.734  25.270  1.00  0.00     0.124 S 
ATOM     77  O   UNL A   1      47.686  34.689  24.767  1.00  0.00    -0.237 OA
ATOM     78  O   UNL A   1      45.280  34.282  24.352  1.00  0.00    -0.237 OA
ATOM     79  O   UNL A   1      45.976  35.912  26.063  1.00  0.00    -0.744 OA
ENDBRANCH  75  76
ENDBRANCH  54  68
BRANCH  55  80
ATOM     80  C   UNL A   1      38.093  29.431  29.278  1.00  0.00     0.058 A 
ATOM     81  C   UNL A   1      37.949  29.660  27.898  1.00  0.00     0.135 A 
ATOM     82  C   UNL A   1      36.901  29.412  30.030  1.00  0.00     0.135 A 
ATOM     83  F   UNL A   1      39.030  29.670  27.103  1.00  0.00    -0.206 F 
ATOM     84  C   UNL A   1      36.696  29.829  27.294  1.00  0.00     0.059 A 
ATOM     85  C   UNL A   1      35.643  29.583  29.454  1.00  0.00     0.059 A 
ATOM     86  F   UNL A   1      36.920  29.138  31.344  1.00  0.00    -0.206 F 
ATOM     87  C   UNL A   1      35.546  29.772  28.081  1.00  0.00     0.060 A 
BRANCH  87  88
ATOM     88  S   UNL A   1      33.919  29.846  27.289  1.00  0.00     0.124 S 
ATOM     89  O   UNL A   1      33.489  31.202  27.612  1.00  0.00    -0.237 OA
ATOM     90  O   UNL A   1      34.245  29.596  25.890  1.00  0.00    -0.237 OA
ATOM     91  O   UNL A   1      33.171  28.781  27.954  1.00  0.00    -0.744 OA
ENDBRANCH  87  88
ENDBRANCH  55  80
BRANCH  67  92
ATOM     92  C   UNL A   1      42.798  28.532  33.529  1.00  0.00     0.058 A 
ATOM     93  C   UNL A   1      42.319  28.934  34.787  1.00  0.00     0.135 A 
ATOM     94  C   UNL A   1      42.873  27.155  33.272  1.00  0.00     0.135 A 
ATOM     95  F   UNL A   1      42.153  30.232  35.076  1.00  0.00    -0.206 F 
ATOM     96  C   UNL A   1      41.948  27.997  35.755  1.00  0.00     0.059 A 
ATOM     97  C   UNL A   1      42.479  26.209  34.206  1.00  0.00     0.059 A 
ATOM     98  F   UNL A   1      43.281  26.719  32.068  1.00  0.00    -0.206 F 
ATOM     99  C   UNL A   1      42.026  26.635  35.450  1.00  0.00     0.060 A 
BRANCH  99 100
ATOM    100  S   UNL A   1      41.473  25.419  36.665  1.00  0.00     0.124 S 
ATOM    101  O   UNL A   1      40.073  25.239  36.302  1.00  0.00    -0.237 OA
ATOM    102  O   UNL A   1      42.351  24.284  36.397  1.00  0.00    -0.237 OA
ATOM    103  O   UNL A   1      41.705  26.086  37.944  1.00  0.00    -0.744 OA
ENDBRANCH  99 100
ENDBRANCH  67  92
ENDBRANCH  41  42
ENDBRANCH  34  36
ENDBRANCH  33  34
ENDBRANCH  32  33
ENDBRANCH  31  32
ENDBRANCH  30  31
ENDBRANCH  29  30
ENDBRANCH   1  29
TORSDOF 25
ENDMDL
