MODEL 1
REMARK VINA RESULT:      -9.5      0.000      0.000
REMARK SMILES CN(CC(=O)NCC(=O)OCCOCCOCCOC(=O)c1ccc(-c2c3nc(c(-c4c(F)cc(S(=O)(=O)[O-])cc4F)c4ccc([nH]4)c(-c4c(F)cc(S(=O)(=O)[O-])cc4F)c4nc(c(-c5c(F)cc(S(=O)(=O)[O-])cc5F)c5ccc2[nH]5)C=C4)C=C3)cc1)c1ncccn1
REMARK SMILES IDX 14 1 13 2 12 3 11 4 10 5 8 6 9 7 7 8 6 9 4 10 5 11 3 13 2 14
REMARK SMILES IDX 1 15 88 16 89 17 93 18 90 19 92 20 91 21 15 22 16 23 17 24
REMARK SMILES IDX 18 25 19 26 20 27 21 28 22 29 23 30 87 31 24 32 86 33 25 34
REMARK SMILES IDX 26 35 27 36 80 37 28 38 85 39 79 40 81 41 29 42 84 43 78 44
REMARK SMILES IDX 77 45 30 47 64 48 43 49 63 50 44 51 47 52 62 53 82 54 45 55
REMARK SMILES IDX 46 56 61 58 83 59 48 60 31 61 32 62 41 63 33 64 34 65 40 66
REMARK SMILES IDX 42 67 35 68 36 69 37 70 38 71 39 72 65 73 66 74 75 75 67 76
REMARK SMILES IDX 68 77 74 78 76 79 69 80 70 81 71 82 72 83 73 84 49 85 50 86
REMARK SMILES IDX 59 87 51 88 52 89 58 90 60 91 53 92 54 93 55 94 56 95 57 96
REMARK H PARENT 6 12 81 46 47 57
REMARK Flexibility Score: inf
ROOT
ATOM      1  C   UNL A   1      36.360  23.204  26.204  1.00  0.00     0.188 C 
ENDROOT
BRANCH   1   2
ATOM      2  O   UNL A   1      35.235  22.828  25.411  1.00  0.00    -0.376 OA
BRANCH   2   3
ATOM      3  C   UNL A   1      34.006  22.522  26.063  1.00  0.00     0.202 C 
BRANCH   3   4
ATOM      4  C   UNL A   1      32.739  23.297  25.658  1.00  0.00     0.261 C 
BRANCH   4   5
ATOM      5  O   UNL A   1      31.875  22.609  24.729  1.00  0.00    -0.462 OA
BRANCH   5   6
ATOM      6  C   UNL A   1      32.364  22.393  23.482  1.00  0.00     0.325 C 
ATOM      7  O   UNL A   1      32.132  21.385  22.818  1.00  0.00    -0.250 OA
BRANCH   6   8
ATOM      8  C   UNL A   1      33.100  23.595  22.858  1.00  0.00     0.238 C 
BRANCH   8   9
ATOM      9  N   UNL A   1      32.788  24.161  21.551  1.00  0.00    -0.344 N 
ATOM     10  C   UNL A   1      32.978  25.443  21.120  1.00  0.00     0.240 C 
ATOM     11  O   UNL A   1      32.887  25.675  19.912  1.00  0.00    -0.273 OA
ATOM     12  H   UNL A   1      32.389  23.541  20.898  1.00  0.00     0.164 HD
BRANCH  10  13
ATOM     13  C   UNL A   1      33.420  26.516  22.118  1.00  0.00     0.219 C 
BRANCH  13  14
ATOM     14  N   UNL A   1      32.305  27.171  22.797  1.00  0.00    -0.335 N 
ATOM     15  C   UNL A   1      31.018  27.286  22.150  1.00  0.00     0.147 C 
BRANCH  14  16
ATOM     16  C   UNL A   1      32.356  27.217  24.176  1.00  0.00     0.225 A 
ATOM     17  N   UNL A   1      33.557  27.179  24.772  1.00  0.00    -0.221 NA
ATOM     18  N   UNL A   1      31.210  27.296  24.872  1.00  0.00    -0.221 NA
ATOM     19  C   UNL A   1      33.606  27.262  26.113  1.00  0.00     0.117 A 
ATOM     20  C   UNL A   1      31.302  27.326  26.216  1.00  0.00     0.117 A 
ATOM     21  C   UNL A   1      32.489  27.326  26.900  1.00  0.00     0.040 A 
ENDBRANCH  14  16
ENDBRANCH  13  14
ENDBRANCH  10  13
ENDBRANCH   8   9
ENDBRANCH   6   8
ENDBRANCH   5   6
ENDBRANCH   4   5
ENDBRANCH   3   4
ENDBRANCH   2   3
ENDBRANCH   1   2
BRANCH   1  22
ATOM     22  C   UNL A   1      37.765  23.141  25.577  1.00  0.00     0.188 C 
BRANCH  22  23
ATOM     23  O   UNL A   1      38.389  21.885  25.704  1.00  0.00    -0.376 OA
BRANCH  23  24
ATOM     24  C   UNL A   1      39.658  21.825  26.315  1.00  0.00     0.202 C 
BRANCH  24  25
ATOM     25  C   UNL A   1      40.107  22.987  27.216  1.00  0.00     0.261 C 
BRANCH  25  26
ATOM     26  O   UNL A   1      41.183  23.809  26.737  1.00  0.00    -0.460 OA
BRANCH  26  27
ATOM     27  C   UNL A   1      40.885  25.083  26.400  1.00  0.00     0.338 C 
ATOM     28  O   UNL A   1      40.503  25.477  25.305  1.00  0.00    -0.246 OA
BRANCH  27  29
ATOM     29  C   UNL A   1      40.873  25.896  27.637  1.00  0.00     0.060 A 
ATOM     30  C   UNL A   1      39.695  25.975  28.396  1.00  0.00     0.016 A 
ATOM     31  C   UNL A   1      42.020  26.578  28.049  1.00  0.00     0.016 A 
ATOM     32  C   UNL A   1      39.649  26.770  29.544  1.00  0.00     0.010 A 
ATOM     33  C   UNL A   1      41.965  27.393  29.184  1.00  0.00     0.010 A 
ATOM     34  C   UNL A   1      40.769  27.525  29.914  1.00  0.00    -0.014 A 
BRANCH  34  35
ATOM     35  C   UNL A   1      40.631  28.625  30.905  1.00  0.00     0.031 A 
ATOM     36  C   UNL A   1      41.531  28.598  32.115  1.00  0.00     0.074 A 
ATOM     37  C   UNL A   1      39.748  29.626  30.743  1.00  0.00     0.049 A 
ATOM     38  N   UNL A   1      41.544  29.381  33.161  1.00  0.00    -0.248 NA
ATOM     39  C   UNL A   1      42.551  27.535  32.146  1.00  0.00     0.031 C 
ATOM     40  C   UNL A   1      38.857  29.797  29.597  1.00  0.00     0.029 A 
ATOM     41  N   UNL A   1      39.447  30.688  31.563  1.00  0.00    -0.354 N 
ATOM     42  C   UNL A   1      42.561  28.901  33.978  1.00  0.00     0.074 A 
ATOM     43  C   UNL A   1      43.121  27.740  33.323  1.00  0.00     0.031 C 
ATOM     44  C   UNL A   1      38.097  30.890  29.795  1.00  0.00     0.029 A 
ATOM     45  C   UNL A   1      38.419  31.474  31.097  1.00  0.00     0.049 A 
ATOM     46  H   UNL A   1      39.923  30.869  32.405  1.00  0.00     0.167 HD
ATOM     47  C   UNL A   1      42.998  29.388  35.164  1.00  0.00     0.037 A 
ATOM     48  C   UNL A   1      37.796  32.525  31.669  1.00  0.00     0.037 A 
ATOM     49  C   UNL A   1      42.440  30.546  35.812  1.00  0.00     0.049 A 
ATOM     50  C   UNL A   1      38.247  33.004  33.029  1.00  0.00     0.074 A 
ATOM     51  C   UNL A   1      42.813  31.121  37.013  1.00  0.00     0.029 A 
ATOM     52  N   UNL A   1      41.388  31.302  35.316  1.00  0.00    -0.354 N 
ATOM     53  N   UNL A   1      39.214  32.546  33.789  1.00  0.00    -0.248 NA
ATOM     54  C   UNL A   1      37.525  34.147  33.607  1.00  0.00     0.031 C 
ATOM     55  C   UNL A   1      41.954  32.193  37.270  1.00  0.00     0.029 A 
ATOM     56  C   UNL A   1      41.088  32.327  36.196  1.00  0.00     0.049 A 
ATOM     57  H   UNL A   1      40.924  31.134  34.464  1.00  0.00     0.167 HD
ATOM     58  C   UNL A   1      39.244  33.371  34.911  1.00  0.00     0.074 A 
ATOM     59  C   UNL A   1      38.201  34.358  34.728  1.00  0.00     0.031 C 
ATOM     60  C   UNL A   1      40.063  33.320  35.992  1.00  0.00     0.037 A 
BRANCH  47  61
ATOM     61  C   UNL A   1      44.120  28.658  35.850  1.00  0.00     0.058 A 
ATOM     62  C   UNL A   1      45.464  29.018  35.658  1.00  0.00     0.135 A 
ATOM     63  C   UNL A   1      43.844  27.612  36.744  1.00  0.00     0.135 A 
ATOM     64  F   UNL A   1      45.786  29.996  34.797  1.00  0.00    -0.206 F 
ATOM     65  C   UNL A   1      46.494  28.354  36.316  1.00  0.00     0.059 A 
ATOM     66  C   UNL A   1      44.857  26.955  37.436  1.00  0.00     0.059 A 
ATOM     67  F   UNL A   1      42.578  27.222  36.960  1.00  0.00    -0.206 F 
ATOM     68  C   UNL A   1      46.181  27.327  37.208  1.00  0.00     0.060 A 
BRANCH  68  69
ATOM     69  S   UNL A   1      47.529  26.494  38.070  1.00  0.00     0.124 S 
ATOM     70  O   UNL A   1      46.813  25.435  38.777  1.00  0.00    -0.237 OA
ATOM     71  O   UNL A   1      48.379  26.057  36.968  1.00  0.00    -0.237 OA
ATOM     72  O   UNL A   1      48.092  27.541  38.917  1.00  0.00    -0.744 OA
ENDBRANCH  68  69
ENDBRANCH  47  61
BRANCH  48  73
ATOM     73  C   UNL A   1      36.661  33.199  30.975  1.00  0.00     0.058 A 
ATOM     74  C   UNL A   1      36.881  34.046  29.877  1.00  0.00     0.135 A 
ATOM     75  C   UNL A   1      35.338  33.038  31.418  1.00  0.00     0.135 A 
ATOM     76  F   UNL A   1      38.127  34.245  29.423  1.00  0.00    -0.206 F 
ATOM     77  C   UNL A   1      35.838  34.729  29.261  1.00  0.00     0.059 A 
ATOM     78  C   UNL A   1      34.273  33.686  30.797  1.00  0.00     0.059 A 
ATOM     79  F   UNL A   1      35.069  32.235  32.458  1.00  0.00    -0.206 F 
ATOM     80  C   UNL A   1      34.535  34.542  29.729  1.00  0.00     0.060 A 
BRANCH  80  81
ATOM     81  S   UNL A   1      33.185  35.414  28.903  1.00  0.00     0.124 S 
ATOM     82  O   UNL A   1      33.914  36.377  28.085  1.00  0.00    -0.237 OA
ATOM     83  O   UNL A   1      32.522  34.333  28.181  1.00  0.00    -0.237 OA
ATOM     84  O   UNL A   1      32.422  35.977  30.013  1.00  0.00    -0.744 OA
ENDBRANCH  80  81
ENDBRANCH  48  73
BRANCH  60  85
ATOM     85  C   UNL A   1      39.920  34.398  37.035  1.00  0.00     0.058 A 
ATOM     86  C   UNL A   1      40.652  35.595  36.980  1.00  0.00     0.135 A 
ATOM     87  C   UNL A   1      38.986  34.250  38.076  1.00  0.00     0.135 A 
ATOM     88  F   UNL A   1      41.558  35.789  36.010  1.00  0.00    -0.206 F 
ATOM     89  C   UNL A   1      40.485  36.593  37.936  1.00  0.00     0.059 A 
ATOM     90  C   UNL A   1      38.780  35.249  39.022  1.00  0.00     0.059 A 
ATOM     91  F   UNL A   1      38.248  33.133  38.170  1.00  0.00    -0.206 F 
ATOM     92  C   UNL A   1      39.544  36.412  38.952  1.00  0.00     0.060 A 
BRANCH  92  93
ATOM     93  S   UNL A   1      39.318  37.728  40.167  1.00  0.00     0.124 S 
ATOM     94  O   UNL A   1      39.050  36.965  41.381  1.00  0.00    -0.237 OA
ATOM     95  O   UNL A   1      40.602  38.419  40.121  1.00  0.00    -0.237 OA
ATOM     96  O   UNL A   1      38.187  38.486  39.641  1.00  0.00    -0.744 OA
ENDBRANCH  92  93
ENDBRANCH  60  85
ENDBRANCH  34  35
ENDBRANCH  27  29
ENDBRANCH  26  27
ENDBRANCH  25  26
ENDBRANCH  24  25
ENDBRANCH  23  24
ENDBRANCH  22  23
ENDBRANCH   1  22
TORSDOF 24
ENDMDL
MODEL 2
REMARK VINA RESULT:      -9.5      6.638     12.098
REMARK SMILES CN(CC(=O)NCC(=O)OCCOCCOCCOC(=O)c1ccc(-c2c3nc(c(-c4c(F)cc(S(=O)(=O)[O-])cc4F)c4ccc([nH]4)c(-c4c(F)cc(S(=O)(=O)[O-])cc4F)c4nc(c(-c5c(F)cc(S(=O)(=O)[O-])cc5F)c5ccc2[nH]5)C=C4)C=C3)cc1)c1ncccn1
REMARK SMILES IDX 14 1 13 2 12 3 11 4 10 5 8 6 9 7 7 8 6 9 4 10 5 11 3 13 2 14
REMARK SMILES IDX 1 15 88 16 89 17 93 18 90 19 92 20 91 21 15 22 16 23 17 24
REMARK SMILES IDX 18 25 19 26 20 27 21 28 22 29 23 30 87 31 24 32 86 33 25 34
REMARK SMILES IDX 26 35 27 36 80 37 28 38 85 39 79 40 81 41 29 42 84 43 78 44
REMARK SMILES IDX 77 45 30 47 64 48 43 49 63 50 44 51 47 52 62 53 82 54 45 55
REMARK SMILES IDX 46 56 61 58 83 59 48 60 31 61 32 62 41 63 33 64 34 65 40 66
REMARK SMILES IDX 42 67 35 68 36 69 37 70 38 71 39 72 65 73 66 74 75 75 67 76
REMARK SMILES IDX 68 77 74 78 76 79 69 80 70 81 71 82 72 83 73 84 49 85 50 86
REMARK SMILES IDX 59 87 51 88 52 89 58 90 60 91 53 92 54 93 55 94 56 95 57 96
REMARK H PARENT 6 12 81 46 47 57
REMARK Flexibility Score: inf
ROOT
ATOM      1  C   UNL A   1      31.901  30.003  26.063  1.00  0.00     0.188 C 
ENDROOT
BRANCH   1   2
ATOM      2  O   UNL A   1      31.286  29.588  24.845  1.00  0.00    -0.376 OA
BRANCH   2   3
ATOM      3  C   UNL A   1      30.178  30.333  24.345  1.00  0.00     0.202 C 
BRANCH   3   4
ATOM      4  C   UNL A   1      29.614  29.980  22.957  1.00  0.00     0.261 C 
BRANCH   4   5
ATOM      5  O   UNL A   1      29.022  28.668  22.856  1.00  0.00    -0.462 OA
BRANCH   5   6
ATOM      6  C   UNL A   1      29.874  27.612  22.838  1.00  0.00     0.325 C 
ATOM      7  O   UNL A   1      30.873  27.548  22.124  1.00  0.00    -0.250 OA
BRANCH   6   8
ATOM      8  C   UNL A   1      29.609  26.547  23.920  1.00  0.00     0.238 C 
BRANCH   8   9
ATOM      9  N   UNL A   1      30.079  26.641  25.296  1.00  0.00    -0.344 N 
ATOM     10  C   UNL A   1      31.272  26.217  25.811  1.00  0.00     0.240 C 
ATOM     11  O   UNL A   1      31.594  26.604  26.937  1.00  0.00    -0.273 OA
ATOM     12  H   UNL A   1      29.459  27.063  25.935  1.00  0.00     0.164 HD
BRANCH  10  13
ATOM     13  C   UNL A   1      32.218  25.391  24.938  1.00  0.00     0.219 C 
BRANCH  13  14
ATOM     14  N   UNL A   1      31.918  23.962  24.946  1.00  0.00    -0.335 N 
ATOM     15  C   UNL A   1      31.260  23.345  23.817  1.00  0.00     0.147 C 
BRANCH  14  16
ATOM     16  C   UNL A   1      32.686  23.169  25.776  1.00  0.00     0.225 A 
ATOM     17  N   UNL A   1      32.447  23.205  27.095  1.00  0.00    -0.221 NA
ATOM     18  N   UNL A   1      33.642  22.393  25.240  1.00  0.00    -0.221 NA
ATOM     19  C   UNL A   1      33.170  22.404  27.896  1.00  0.00     0.117 A 
ATOM     20  C   UNL A   1      34.378  21.643  26.084  1.00  0.00     0.117 A 
ATOM     21  C   UNL A   1      34.175  21.597  27.438  1.00  0.00     0.040 A 
ENDBRANCH  14  16
ENDBRANCH  13  14
ENDBRANCH  10  13
ENDBRANCH   8   9
ENDBRANCH   6   8
ENDBRANCH   5   6
ENDBRANCH   4   5
ENDBRANCH   3   4
ENDBRANCH   2   3
ENDBRANCH   1   2
BRANCH   1  22
ATOM     22  C   UNL A   1      33.435  29.927  26.184  1.00  0.00     0.188 C 
BRANCH  22  23
ATOM     23  O   UNL A   1      33.937  30.464  27.385  1.00  0.00    -0.376 OA
BRANCH  23  24
ATOM     24  C   UNL A   1      33.730  31.833  27.646  1.00  0.00     0.202 C 
BRANCH  24  25
ATOM     25  C   UNL A   1      34.940  32.719  27.986  1.00  0.00     0.261 C 
BRANCH  25  26
ATOM     26  O   UNL A   1      36.221  32.072  28.072  1.00  0.00    -0.460 OA
BRANCH  26  27
ATOM     27  C   UNL A   1      36.628  31.672  29.297  1.00  0.00     0.338 C 
ATOM     28  O   UNL A   1      36.016  31.804  30.349  1.00  0.00    -0.246 OA
BRANCH  27  29
ATOM     29  C   UNL A   1      37.839  30.837  29.128  1.00  0.00     0.060 A 
ATOM     30  C   UNL A   1      38.778  30.771  30.170  1.00  0.00     0.016 A 
ATOM     31  C   UNL A   1      38.050  30.123  27.948  1.00  0.00     0.016 A 
ATOM     32  C   UNL A   1      39.949  30.025  30.016  1.00  0.00     0.010 A 
ATOM     33  C   UNL A   1      39.233  29.396  27.785  1.00  0.00     0.010 A 
ATOM     34  C   UNL A   1      40.207  29.375  28.801  1.00  0.00    -0.014 A 
BRANCH  34  35
ATOM     35  C   UNL A   1      41.576  28.882  28.498  1.00  0.00     0.031 A 
ATOM     36  C   UNL A   1      42.696  29.890  28.471  1.00  0.00     0.074 A 
ATOM     37  C   UNL A   1      41.832  27.582  28.263  1.00  0.00     0.049 A 
ATOM     38  N   UNL A   1      43.952  29.732  28.143  1.00  0.00    -0.248 NA
ATOM     39  C   UNL A   1      42.345  31.267  28.861  1.00  0.00     0.031 C 
ATOM     40  C   UNL A   1      40.850  26.501  28.310  1.00  0.00     0.029 A 
ATOM     41  N   UNL A   1      43.007  26.954  27.924  1.00  0.00    -0.354 N 
ATOM     42  C   UNL A   1      44.537  30.987  28.277  1.00  0.00     0.074 A 
ATOM     43  C   UNL A   1      43.493  31.902  28.683  1.00  0.00     0.031 C 
ATOM     44  C   UNL A   1      41.461  25.344  27.992  1.00  0.00     0.029 A 
ATOM     45  C   UNL A   1      42.866  25.608  27.684  1.00  0.00     0.049 A 
ATOM     46  H   UNL A   1      43.869  27.425  27.859  1.00  0.00     0.167 HD
ATOM     47  C   UNL A   1      45.829  31.345  28.088  1.00  0.00     0.037 A 
ATOM     48  C   UNL A   1      43.762  24.702  27.240  1.00  0.00     0.037 A 
ATOM     49  C   UNL A   1      46.866  30.431  27.686  1.00  0.00     0.049 A 
ATOM     50  C   UNL A   1      45.181  25.139  26.960  1.00  0.00     0.074 A 
ATOM     51  C   UNL A   1      48.206  30.694  27.470  1.00  0.00     0.029 A 
ATOM     52  N   UNL A   1      46.677  29.080  27.434  1.00  0.00    -0.354 N 
ATOM     53  N   UNL A   1      45.723  26.326  27.096  1.00  0.00    -0.248 NA
ATOM     54  C   UNL A   1      46.112  24.111  26.470  1.00  0.00     0.031 C 
ATOM     55  C   UNL A   1      48.819  29.514  27.037  1.00  0.00     0.029 A 
ATOM     56  C   UNL A   1      47.874  28.501  27.048  1.00  0.00     0.049 A 
ATOM     57  H   UNL A   1      45.820  28.604  27.518  1.00  0.00     0.167 HD
ATOM     58  C   UNL A   1      47.065  26.177  26.752  1.00  0.00     0.074 A 
ATOM     59  C   UNL A   1      47.252  24.784  26.406  1.00  0.00     0.031 C 
ATOM     60  C   UNL A   1      48.054  27.106  26.729  1.00  0.00     0.037 A 
BRANCH  47  61
ATOM     61  C   UNL A   1      46.192  32.790  28.292  1.00  0.00     0.058 A 
ATOM     62  C   UNL A   1      46.654  33.270  29.527  1.00  0.00     0.135 A 
ATOM     63  C   UNL A   1      46.116  33.698  27.224  1.00  0.00     0.135 A 
ATOM     64  F   UNL A   1      46.724  32.451  30.589  1.00  0.00    -0.206 F 
ATOM     65  C   UNL A   1      47.012  34.603  29.701  1.00  0.00     0.059 A 
ATOM     66  C   UNL A   1      46.498  35.029  27.367  1.00  0.00     0.059 A 
ATOM     67  F   UNL A   1      45.675  33.295  26.022  1.00  0.00    -0.206 F 
ATOM     68  C   UNL A   1      46.936  35.475  28.613  1.00  0.00     0.060 A 
BRANCH  68  69
ATOM     69  S   UNL A   1      47.427  37.194  28.850  1.00  0.00     0.124 S 
ATOM     70  O   UNL A   1      46.573  37.878  27.883  1.00  0.00    -0.237 OA
ATOM     71  O   UNL A   1      47.100  37.419  30.254  1.00  0.00    -0.237 OA
ATOM     72  O   UNL A   1      48.852  37.189  28.533  1.00  0.00    -0.744 OA
ENDBRANCH  68  69
ENDBRANCH  47  61
BRANCH  48  73
ATOM     73  C   UNL A   1      43.355  23.286  27.013  1.00  0.00     0.058 A 
ATOM     74  C   UNL A   1      43.115  22.797  25.719  1.00  0.00     0.135 A 
ATOM     75  C   UNL A   1      43.163  22.402  28.087  1.00  0.00     0.135 A 
ATOM     76  F   UNL A   1      43.269  23.605  24.659  1.00  0.00    -0.206 F 
ATOM     77  C   UNL A   1      42.674  21.497  25.499  1.00  0.00     0.059 A 
ATOM     78  C   UNL A   1      42.753  21.086  27.890  1.00  0.00     0.059 A 
ATOM     79  F   UNL A   1      43.385  22.812  29.345  1.00  0.00    -0.206 F 
ATOM     80  C   UNL A   1      42.496  20.647  26.592  1.00  0.00     0.060 A 
BRANCH  80  81
ATOM     81  S   UNL A   1      41.950  18.952  26.291  1.00  0.00     0.124 S 
ATOM     82  O   UNL A   1      42.169  18.336  27.595  1.00  0.00    -0.237 OA
ATOM     83  O   UNL A   1      40.557  19.145  25.902  1.00  0.00    -0.237 OA
ATOM     84  O   UNL A   1      42.834  18.499  25.222  1.00  0.00    -0.744 OA
ENDBRANCH  80  81
ENDBRANCH  48  73
BRANCH  60  85
ATOM     85  C   UNL A   1      49.446  26.644  26.385  1.00  0.00     0.058 A 
ATOM     86  C   UNL A   1      49.986  26.788  25.098  1.00  0.00     0.135 A 
ATOM     87  C   UNL A   1      50.273  26.100  27.384  1.00  0.00     0.135 A 
ATOM     88  F   UNL A   1      49.241  27.298  24.106  1.00  0.00    -0.206 F 
ATOM     89  C   UNL A   1      51.285  26.382  24.805  1.00  0.00     0.059 A 
ATOM     90  C   UNL A   1      51.585  25.719  27.121  1.00  0.00     0.059 A 
ATOM     91  F   UNL A   1      49.815  25.952  28.636  1.00  0.00    -0.206 F 
ATOM     92  C   UNL A   1      52.078  25.851  25.825  1.00  0.00     0.060 A 
BRANCH  92  93
ATOM     93  S   UNL A   1      53.771  25.357  25.437  1.00  0.00     0.124 S 
ATOM     94  O   UNL A   1      54.532  26.111  26.428  1.00  0.00    -0.237 OA
ATOM     95  O   UNL A   1      53.727  23.912  25.636  1.00  0.00    -0.237 OA
ATOM     96  O   UNL A   1      53.944  25.788  24.054  1.00  0.00    -0.744 OA
ENDBRANCH  92  93
ENDBRANCH  60  85
ENDBRANCH  34  35
ENDBRANCH  27  29
ENDBRANCH  26  27
ENDBRANCH  25  26
ENDBRANCH  24  25
ENDBRANCH  23  24
ENDBRANCH  22  23
ENDBRANCH   1  22
TORSDOF 24
ENDMDL
MODEL 3
REMARK VINA RESULT:      -9.3      1.107      2.251
REMARK SMILES CN(CC(=O)NCC(=O)OCCOCCOCCOC(=O)c1ccc(-c2c3nc(c(-c4c(F)cc(S(=O)(=O)[O-])cc4F)c4ccc([nH]4)c(-c4c(F)cc(S(=O)(=O)[O-])cc4F)c4nc(c(-c5c(F)cc(S(=O)(=O)[O-])cc5F)c5ccc2[nH]5)C=C4)C=C3)cc1)c1ncccn1
REMARK SMILES IDX 14 1 13 2 12 3 11 4 10 5 8 6 9 7 7 8 6 9 4 10 5 11 3 13 2 14
REMARK SMILES IDX 1 15 88 16 89 17 93 18 90 19 92 20 91 21 15 22 16 23 17 24
REMARK SMILES IDX 18 25 19 26 20 27 21 28 22 29 23 30 87 31 24 32 86 33 25 34
REMARK SMILES IDX 26 35 27 36 80 37 28 38 85 39 79 40 81 41 29 42 84 43 78 44
REMARK SMILES IDX 77 45 30 47 64 48 43 49 63 50 44 51 47 52 62 53 82 54 45 55
REMARK SMILES IDX 46 56 61 58 83 59 48 60 31 61 32 62 41 63 33 64 34 65 40 66
REMARK SMILES IDX 42 67 35 68 36 69 37 70 38 71 39 72 65 73 66 74 75 75 67 76
REMARK SMILES IDX 68 77 74 78 76 79 69 80 70 81 71 82 72 83 73 84 49 85 50 86
REMARK SMILES IDX 59 87 51 88 52 89 58 90 60 91 53 92 54 93 55 94 56 95 57 96
REMARK H PARENT 6 12 81 46 47 57
REMARK Flexibility Score: inf
ROOT
ATOM      1  C   UNL A   1      36.520  23.471  26.169  1.00  0.00     0.188 C 
ENDROOT
BRANCH   1   2
ATOM      2  O   UNL A   1      35.329  22.882  25.652  1.00  0.00    -0.376 OA
BRANCH   2   3
ATOM      3  C   UNL A   1      34.163  22.856  26.470  1.00  0.00     0.202 C 
BRANCH   3   4
ATOM      4  C   UNL A   1      32.790  23.082  25.812  1.00  0.00     0.261 C 
BRANCH   4   5
ATOM      5  O   UNL A   1      31.657  22.708  26.623  1.00  0.00    -0.462 OA
BRANCH   5   6
ATOM      6  C   UNL A   1      30.653  23.614  26.729  1.00  0.00     0.325 C 
ATOM      7  O   UNL A   1      29.598  23.405  27.326  1.00  0.00    -0.250 OA
BRANCH   6   8
ATOM      8  C   UNL A   1      30.991  25.021  26.199  1.00  0.00     0.238 C 
BRANCH   8   9
ATOM      9  N   UNL A   1      31.558  26.090  27.012  1.00  0.00    -0.344 N 
ATOM     10  C   UNL A   1      31.519  27.436  26.780  1.00  0.00     0.240 C 
ATOM     11  O   UNL A   1      31.833  28.198  27.699  1.00  0.00    -0.273 OA
ATOM     12  H   UNL A   1      32.029  25.806  27.829  1.00  0.00     0.164 HD
BRANCH  10  13
ATOM     13  C   UNL A   1      30.971  27.957  25.450  1.00  0.00     0.219 C 
BRANCH  13  14
ATOM     14  N   UNL A   1      32.015  28.317  24.493  1.00  0.00    -0.335 N 
ATOM     15  C   UNL A   1      33.090  29.201  24.881  1.00  0.00     0.147 C 
BRANCH  14  16
ATOM     16  C   UNL A   1      32.223  27.447  23.442  1.00  0.00     0.225 A 
ATOM     17  N   UNL A   1      31.295  26.511  23.194  1.00  0.00    -0.221 NA
ATOM     18  N   UNL A   1      33.340  27.563  22.706  1.00  0.00    -0.221 NA
ATOM     19  C   UNL A   1      31.481  25.690  22.146  1.00  0.00     0.117 A 
ATOM     20  C   UNL A   1      33.512  26.688  21.696  1.00  0.00     0.117 A 
ATOM     21  C   UNL A   1      32.598  25.725  21.357  1.00  0.00     0.040 A 
ENDBRANCH  14  16
ENDBRANCH  13  14
ENDBRANCH  10  13
ENDBRANCH   8   9
ENDBRANCH   6   8
ENDBRANCH   5   6
ENDBRANCH   4   5
ENDBRANCH   3   4
ENDBRANCH   2   3
ENDBRANCH   1   2
BRANCH   1  22
ATOM     22  C   UNL A   1      37.854  23.211  25.444  1.00  0.00     0.188 C 
BRANCH  22  23
ATOM     23  O   UNL A   1      38.431  21.962  25.747  1.00  0.00    -0.376 OA
BRANCH  23  24
ATOM     24  C   UNL A   1      39.722  21.940  26.313  1.00  0.00     0.202 C 
BRANCH  24  25
ATOM     25  C   UNL A   1      40.187  23.140  27.155  1.00  0.00     0.261 C 
BRANCH  25  26
ATOM     26  O   UNL A   1      41.385  23.811  26.733  1.00  0.00    -0.460 OA
BRANCH  26  27
ATOM     27  C   UNL A   1      41.270  25.107  26.367  1.00  0.00     0.338 C 
ATOM     28  O   UNL A   1      41.036  25.528  25.241  1.00  0.00    -0.246 OA
BRANCH  27  29
ATOM     29  C   UNL A   1      41.246  25.932  27.596  1.00  0.00     0.060 A 
ATOM     30  C   UNL A   1      40.134  25.860  28.449  1.00  0.00     0.016 A 
ATOM     31  C   UNL A   1      42.316  26.774  27.906  1.00  0.00     0.016 A 
ATOM     32  C   UNL A   1      40.070  26.661  29.592  1.00  0.00     0.010 A 
ATOM     33  C   UNL A   1      42.240  27.593  29.037  1.00  0.00     0.010 A 
ATOM     34  C   UNL A   1      41.101  27.571  29.863  1.00  0.00    -0.014 A 
BRANCH  34  35
ATOM     35  C   UNL A   1      40.891  28.658  30.855  1.00  0.00     0.031 A 
ATOM     36  C   UNL A   1      41.753  28.656  32.092  1.00  0.00     0.074 A 
ATOM     37  C   UNL A   1      39.977  29.628  30.671  1.00  0.00     0.049 A 
ATOM     38  N   UNL A   1      41.705  29.432  33.143  1.00  0.00    -0.248 NA
ATOM     39  C   UNL A   1      42.810  27.631  32.150  1.00  0.00     0.031 C 
ATOM     40  C   UNL A   1      39.117  29.773  29.499  1.00  0.00     0.029 A 
ATOM     41  N   UNL A   1      39.612  30.672  31.487  1.00  0.00    -0.354 N 
ATOM     42  C   UNL A   1      42.713  28.985  33.989  1.00  0.00     0.074 A 
ATOM     43  C   UNL A   1      43.335  27.849  33.346  1.00  0.00     0.031 C 
ATOM     44  C   UNL A   1      38.311  30.836  29.679  1.00  0.00     0.029 A 
ATOM     45  C   UNL A   1      38.571  31.422  30.993  1.00  0.00     0.049 A 
ATOM     46  H   UNL A   1      40.055  30.864  32.345  1.00  0.00     0.167 HD
ATOM     47  C   UNL A   1      43.094  29.479  35.191  1.00  0.00     0.037 A 
ATOM     48  C   UNL A   1      37.891  32.446  31.551  1.00  0.00     0.037 A 
ATOM     49  C   UNL A   1      42.474  30.611  35.827  1.00  0.00     0.049 A 
ATOM     50  C   UNL A   1      38.282  32.932  32.927  1.00  0.00     0.074 A 
ATOM     51  C   UNL A   1      42.788  31.192  37.043  1.00  0.00     0.029 A 
ATOM     52  N   UNL A   1      41.411  31.331  35.303  1.00  0.00    -0.354 N 
ATOM     53  N   UNL A   1      39.241  32.505  33.714  1.00  0.00    -0.248 NA
ATOM     54  C   UNL A   1      37.500  34.044  33.489  1.00  0.00     0.031 C 
ATOM     55  C   UNL A   1      41.882  32.230  37.278  1.00  0.00     0.029 A 
ATOM     56  C   UNL A   1      41.045  32.339  36.179  1.00  0.00     0.049 A 
ATOM     57  H   UNL A   1      40.980  31.152  34.436  1.00  0.00     0.167 HD
ATOM     58  C   UNL A   1      39.205  33.323  34.842  1.00  0.00     0.074 A 
ATOM     59  C   UNL A   1      38.133  34.273  34.631  1.00  0.00     0.031 C 
ATOM     60  C   UNL A   1      39.991  33.295  35.948  1.00  0.00     0.037 A 
BRANCH  47  61
ATOM     61  C   UNL A   1      44.220  28.786  35.907  1.00  0.00     0.058 A 
ATOM     62  C   UNL A   1      45.558  29.176  35.735  1.00  0.00     0.135 A 
ATOM     63  C   UNL A   1      43.953  27.746  36.812  1.00  0.00     0.135 A 
ATOM     64  F   UNL A   1      45.873  30.149  34.866  1.00  0.00    -0.206 F 
ATOM     65  C   UNL A   1      46.592  28.547  36.421  1.00  0.00     0.059 A 
ATOM     66  C   UNL A   1      44.968  27.124  37.532  1.00  0.00     0.059 A 
ATOM     67  F   UNL A   1      42.693  27.329  37.010  1.00  0.00    -0.206 F 
ATOM     68  C   UNL A   1      46.287  27.525  37.322  1.00  0.00     0.060 A 
BRANCH  68  69
ATOM     69  S   UNL A   1      47.638  26.737  38.221  1.00  0.00     0.124 S 
ATOM     70  O   UNL A   1      47.796  27.639  39.359  1.00  0.00    -0.237 OA
ATOM     71  O   UNL A   1      47.083  25.423  38.527  1.00  0.00    -0.237 OA
ATOM     72  O   UNL A   1      48.737  26.743  37.261  1.00  0.00    -0.744 OA
ENDBRANCH  68  69
ENDBRANCH  47  61
BRANCH  48  73
ATOM     73  C   UNL A   1      36.755  33.082  30.825  1.00  0.00     0.058 A 
ATOM     74  C   UNL A   1      36.971  34.115  29.899  1.00  0.00     0.135 A 
ATOM     75  C   UNL A   1      35.427  32.696  31.070  1.00  0.00     0.135 A 
ATOM     76  F   UNL A   1      38.219  34.532  29.640  1.00  0.00    -0.206 F 
ATOM     77  C   UNL A   1      35.915  34.759  29.263  1.00  0.00     0.059 A 
ATOM     78  C   UNL A   1      34.355  33.303  30.422  1.00  0.00     0.059 A 
ATOM     79  F   UNL A   1      35.162  31.710  31.940  1.00  0.00    -0.206 F 
ATOM     80  C   UNL A   1      34.609  34.345  29.531  1.00  0.00     0.060 A 
BRANCH  80  81
ATOM     81  S   UNL A   1      33.247  35.171  28.678  1.00  0.00     0.124 S 
ATOM     82  O   UNL A   1      32.461  35.677  29.798  1.00  0.00    -0.237 OA
ATOM     83  O   UNL A   1      33.948  36.174  27.884  1.00  0.00    -0.237 OA
ATOM     84  O   UNL A   1      32.630  34.093  27.909  1.00  0.00    -0.744 OA
ENDBRANCH  80  81
ENDBRANCH  48  73
BRANCH  60  85
ATOM     85  C   UNL A   1      39.776  34.360  36.991  1.00  0.00     0.058 A 
ATOM     86  C   UNL A   1      38.976  34.147  38.125  1.00  0.00     0.135 A 
ATOM     87  C   UNL A   1      40.433  35.599  36.878  1.00  0.00     0.135 A 
ATOM     88  F   UNL A   1      38.324  32.985  38.283  1.00  0.00    -0.206 F 
ATOM     89  C   UNL A   1      38.812  35.133  39.094  1.00  0.00     0.059 A 
ATOM     90  C   UNL A   1      40.309  36.585  37.852  1.00  0.00     0.059 A 
ATOM     91  F   UNL A   1      41.221  35.853  35.822  1.00  0.00    -0.206 F 
ATOM     92  C   UNL A   1      39.485  36.348  38.950  1.00  0.00     0.060 A 
BRANCH  92  93
ATOM     93  S   UNL A   1      39.286  37.606  40.230  1.00  0.00     0.124 S 
ATOM     94  O   UNL A   1      40.613  38.211  40.257  1.00  0.00    -0.237 OA
ATOM     95  O   UNL A   1      38.219  38.439  39.685  1.00  0.00    -0.237 OA
ATOM     96  O   UNL A   1      38.925  36.832  41.414  1.00  0.00    -0.744 OA
ENDBRANCH  92  93
ENDBRANCH  60  85
ENDBRANCH  34  35
ENDBRANCH  27  29
ENDBRANCH  26  27
ENDBRANCH  25  26
ENDBRANCH  24  25
ENDBRANCH  23  24
ENDBRANCH  22  23
ENDBRANCH   1  22
TORSDOF 24
ENDMDL
