MODEL 1
REMARK VINA RESULT:      -8.9      0.000      0.000
REMARK SMILES C=Cc1cncc(-c2ccc([C@@H](C)C(=O)OCCOCCOCCOC(=O)c3ccc(-c4c5nc(c(-c6c(F)cc(S(=O)(=O)[O-])cc6F)c6ccc([nH]6)c(-c6c(F)cc(S(=O)(=O)[O-])cc6F)c6nc(c(-c7c(F)cc(S(=O)(=O)[O-])cc7F)c7ccc4[nH]7)C=C6)C=C5)cc3)cc2)c1
REMARK SMILES IDX 20 1 19 2 18 3 17 4 16 5 14 6 15 7 12 8 13 9 11 10 8 11 9 12
REMARK SMILES IDX 95 13 10 14 94 15 7 16 3 17 4 18 96 19 5 20 6 21 2 22 1 23
REMARK SMILES IDX 21 24 22 25 23 26 24 27 25 28 26 29 27 30 28 31 29 32 93 33
REMARK SMILES IDX 30 34 92 35 31 36 32 37 33 38 86 39 34 40 91 41 85 42 87 43
REMARK SMILES IDX 35 44 90 45 84 46 83 47 36 49 70 50 49 51 69 52 50 53 53 54
REMARK SMILES IDX 68 55 88 56 51 57 52 58 67 60 89 61 54 62 37 63 38 64 47 65
REMARK SMILES IDX 39 66 40 67 46 68 48 69 41 70 42 71 43 72 44 73 45 74 71 75
REMARK SMILES IDX 72 76 81 77 73 78 74 79 80 80 82 81 75 82 76 83 77 84 78 85
REMARK SMILES IDX 79 86 55 87 56 88 65 89 57 90 58 91 64 92 66 93 59 94 60 95
REMARK SMILES IDX 61 96 62 97 63 98
REMARK H PARENT 87 48 53 59
REMARK Flexibility Score: inf
ROOT
ATOM      1  C   UNL A   1      33.977  32.921  28.479  1.00  0.00     0.188 C 
ENDROOT
BRANCH   1   2
ATOM      2  O   UNL A   1      33.852  34.136  27.747  1.00  0.00    -0.376 OA
BRANCH   2   3
ATOM      3  C   UNL A   1      34.098  35.372  28.405  1.00  0.00     0.202 C 
BRANCH   3   4
ATOM      4  C   UNL A   1      32.904  36.134  29.004  1.00  0.00     0.261 C 
BRANCH   4   5
ATOM      5  O   UNL A   1      33.238  37.285  29.815  1.00  0.00    -0.463 OA
BRANCH   5   6
ATOM      6  C   UNL A   1      33.152  37.122  31.160  1.00  0.00     0.313 C 
ATOM      7  O   UNL A   1      33.158  38.067  31.948  1.00  0.00    -0.252 OA
BRANCH   6   8
ATOM      8  C   UNL A   1      33.027  35.683  31.672  1.00  0.00     0.126 C 
ATOM      9  C   UNL A   1      31.853  35.620  32.647  1.00  0.00     0.025 C 
BRANCH   8  10
ATOM     10  C   UNL A   1      34.227  34.928  32.248  1.00  0.00    -0.034 A 
ATOM     11  C   UNL A   1      36.461  33.577  33.432  1.00  0.00    -0.017 A 
ATOM     12  C   UNL A   1      36.173  33.469  32.059  1.00  0.00     0.009 A 
ATOM     13  C   UNL A   1      35.609  34.373  34.206  1.00  0.00     0.009 A 
ATOM     14  C   UNL A   1      35.084  34.140  31.472  1.00  0.00     0.005 A 
ATOM     15  C   UNL A   1      34.520  35.044  33.624  1.00  0.00     0.005 A 
BRANCH  11  16
ATOM     16  C   UNL A   1      37.656  32.934  34.011  1.00  0.00     0.001 A 
ATOM     17  C   UNL A   1      40.018  32.315  34.001  1.00  0.00    -0.007 A 
ATOM     18  C   UNL A   1      39.790  31.659  35.210  1.00  0.00     0.119 A 
ATOM     19  C   UNL A   1      38.921  32.951  33.396  1.00  0.00     0.020 A 
ATOM     20  N   UNL A   1      38.597  31.614  35.844  1.00  0.00    -0.263 NA
ATOM     21  C   UNL A   1      37.571  32.247  35.226  1.00  0.00     0.119 A 
BRANCH  17  22
ATOM     22  C   UNL A   1      41.360  32.262  33.411  1.00  0.00     0.002 C 
ATOM     23  C   UNL A   1      42.034  33.331  32.971  1.00  0.00     0.009 C 
ENDBRANCH  17  22
ENDBRANCH  11  16
ENDBRANCH   8  10
ENDBRANCH   6   8
ENDBRANCH   5   6
ENDBRANCH   4   5
ENDBRANCH   3   4
ENDBRANCH   2   3
ENDBRANCH   1   2
BRANCH   1  24
ATOM     24  C   UNL A   1      34.208  31.608  27.717  1.00  0.00     0.188 C 
BRANCH  24  25
ATOM     25  O   UNL A   1      35.565  31.257  27.543  1.00  0.00    -0.376 OA
BRANCH  25  26
ATOM     26  C   UNL A   1      35.992  30.060  28.162  1.00  0.00     0.202 C 
BRANCH  26  27
ATOM     27  C   UNL A   1      35.828  30.032  29.688  1.00  0.00     0.261 C 
BRANCH  27  28
ATOM     28  O   UNL A   1      36.718  29.149  30.397  1.00  0.00    -0.460 OA
BRANCH  28  29
ATOM     29  C   UNL A   1      37.327  29.650  31.494  1.00  0.00     0.338 C 
ATOM     30  O   UNL A   1      36.813  29.841  32.590  1.00  0.00    -0.246 OA
BRANCH  29  31
ATOM     31  C   UNL A   1      38.783  29.723  31.231  1.00  0.00     0.060 A 
ATOM     32  C   UNL A   1      39.232  30.373  30.072  1.00  0.00     0.016 A 
ATOM     33  C   UNL A   1      39.699  29.132  32.105  1.00  0.00     0.016 A 
ATOM     34  C   UNL A   1      40.590  30.371  29.747  1.00  0.00     0.010 A 
ATOM     35  C   UNL A   1      41.058  29.115  31.768  1.00  0.00     0.010 A 
ATOM     36  C   UNL A   1      41.502  29.685  30.560  1.00  0.00    -0.014 A 
BRANCH  36  37
ATOM     37  C   UNL A   1      42.841  29.332  30.018  1.00  0.00     0.031 A 
ATOM     38  C   UNL A   1      43.006  27.972  29.385  1.00  0.00     0.074 A 
ATOM     39  C   UNL A   1      43.876  30.192  30.042  1.00  0.00     0.049 A 
ATOM     40  N   UNL A   1      44.071  27.414  28.871  1.00  0.00    -0.248 NA
ATOM     41  C   UNL A   1      41.800  27.127  29.330  1.00  0.00     0.031 C 
ATOM     42  C   UNL A   1      43.840  31.548  30.583  1.00  0.00     0.029 A 
ATOM     43  N   UNL A   1      45.167  30.040  29.599  1.00  0.00    -0.354 N 
ATOM     44  C   UNL A   1      43.668  26.154  28.443  1.00  0.00     0.074 A 
ATOM     45  C   UNL A   1      42.271  26.015  28.790  1.00  0.00     0.031 C 
ATOM     46  C   UNL A   1      45.059  32.103  30.449  1.00  0.00     0.029 A 
ATOM     47  C   UNL A   1      45.969  31.132  29.840  1.00  0.00     0.049 A 
ATOM     48  H   UNL A   1      45.490  29.226  29.149  1.00  0.00     0.167 HD
ATOM     49  C   UNL A   1      44.389  25.201  27.806  1.00  0.00     0.037 A 
ATOM     50  C   UNL A   1      47.286  31.316  29.612  1.00  0.00     0.037 A 
ATOM     51  C   UNL A   1      45.778  25.342  27.458  1.00  0.00     0.049 A 
ATOM     52  C   UNL A   1      48.087  30.217  28.957  1.00  0.00     0.074 A 
ATOM     53  C   UNL A   1      46.596  24.437  26.804  1.00  0.00     0.029 A 
ATOM     54  N   UNL A   1      46.557  26.454  27.738  1.00  0.00    -0.354 N 
ATOM     55  N   UNL A   1      47.690  29.036  28.543  1.00  0.00    -0.248 NA
ATOM     56  C   UNL A   1      49.515  30.479  28.727  1.00  0.00     0.031 C 
ATOM     57  C   UNL A   1      47.882  24.980  26.737  1.00  0.00     0.029 A 
ATOM     58  C   UNL A   1      47.850  26.252  27.287  1.00  0.00     0.049 A 
ATOM     59  H   UNL A   1      46.237  27.268  28.192  1.00  0.00     0.167 HD
ATOM     60  C   UNL A   1      48.806  28.435  27.968  1.00  0.00     0.074 A 
ATOM     61  C   UNL A   1      49.894  29.384  28.082  1.00  0.00     0.031 C 
ATOM     62  C   UNL A   1      48.921  27.212  27.390  1.00  0.00     0.037 A 
BRANCH  49  63
ATOM     63  C   UNL A   1      43.692  23.910  27.469  1.00  0.00     0.058 A 
ATOM     64  C   UNL A   1      43.389  22.951  28.449  1.00  0.00     0.135 A 
ATOM     65  C   UNL A   1      43.302  23.639  26.147  1.00  0.00     0.135 A 
ATOM     66  F   UNL A   1      43.759  23.148  29.726  1.00  0.00    -0.206 F 
ATOM     67  C   UNL A   1      42.749  21.759  28.128  1.00  0.00     0.059 A 
ATOM     68  C   UNL A   1      42.633  22.467  25.808  1.00  0.00     0.059 A 
ATOM     69  F   UNL A   1      43.572  24.518  25.168  1.00  0.00    -0.206 F 
ATOM     70  C   UNL A   1      42.374  21.526  26.803  1.00  0.00     0.060 A 
BRANCH  70  71
ATOM     71  S   UNL A   1      41.540  19.977  26.404  1.00  0.00     0.124 S 
ATOM     72  O   UNL A   1      42.295  19.532  25.236  1.00  0.00    -0.237 OA
ATOM     73  O   UNL A   1      41.737  19.195  27.621  1.00  0.00    -0.237 OA
ATOM     74  O   UNL A   1      40.164  20.387  26.141  1.00  0.00    -0.744 OA
ENDBRANCH  70  71
ENDBRANCH  49  63
BRANCH  50  75
ATOM     75  C   UNL A   1      47.943  32.594  30.008  1.00  0.00     0.058 A 
ATOM     76  C   UNL A   1      48.043  33.669  29.112  1.00  0.00     0.135 A 
ATOM     77  C   UNL A   1      48.502  32.757  31.285  1.00  0.00     0.135 A 
ATOM     78  F   UNL A   1      47.538  33.560  27.873  1.00  0.00    -0.206 F 
ATOM     79  C   UNL A   1      48.689  34.852  29.459  1.00  0.00     0.059 A 
ATOM     80  C   UNL A   1      49.128  33.942  31.666  1.00  0.00     0.059 A 
ATOM     81  F   UNL A   1      48.430  31.762  32.184  1.00  0.00    -0.206 F 
ATOM     82  C   UNL A   1      49.226  34.980  30.741  1.00  0.00     0.060 A 
BRANCH  82  83
ATOM     83  S   UNL A   1      50.024  36.535  31.195  1.00  0.00     0.124 S 
ATOM     84  O   UNL A   1      49.238  36.943  32.354  1.00  0.00    -0.237 OA
ATOM     85  O   UNL A   1      51.392  36.108  31.470  1.00  0.00    -0.237 OA
ATOM     86  O   UNL A   1      49.860  37.358  30.000  1.00  0.00    -0.744 OA
ENDBRANCH  82  83
ENDBRANCH  50  75
BRANCH  62  87
ATOM     87  C   UNL A   1      50.246  26.848  26.771  1.00  0.00     0.058 A 
ATOM     88  C   UNL A   1      51.211  26.094  27.457  1.00  0.00     0.135 A 
ATOM     89  C   UNL A   1      50.532  27.224  25.448  1.00  0.00     0.135 A 
ATOM     90  F   UNL A   1      50.992  25.707  28.724  1.00  0.00    -0.206 F 
ATOM     91  C   UNL A   1      52.425  25.754  26.866  1.00  0.00     0.059 A 
ATOM     92  C   UNL A   1      51.724  26.868  24.826  1.00  0.00     0.059 A 
ATOM     93  F   UNL A   1      49.640  27.933  24.738  1.00  0.00    -0.206 F 
ATOM     94  C   UNL A   1      52.672  26.147  25.549  1.00  0.00     0.060 A 
BRANCH  94  95
ATOM     95  S   UNL A   1      54.244  25.688  24.787  1.00  0.00     0.124 S 
ATOM     96  O   UNL A   1      55.189  26.491  25.556  1.00  0.00    -0.237 OA
ATOM     97  O   UNL A   1      54.296  24.248  25.023  1.00  0.00    -0.237 OA
ATOM     98  O   UNL A   1      54.075  26.082  23.392  1.00  0.00    -0.744 OA
ENDBRANCH  94  95
ENDBRANCH  62  87
ENDBRANCH  36  37
ENDBRANCH  29  31
ENDBRANCH  28  29
ENDBRANCH  27  28
ENDBRANCH  26  27
ENDBRANCH  25  26
ENDBRANCH  24  25
ENDBRANCH   1  24
TORSDOF 23
ENDMDL
MODEL 2
REMARK VINA RESULT:      -8.5      3.921      6.792
REMARK SMILES C=Cc1cncc(-c2ccc([C@@H](C)C(=O)OCCOCCOCCOC(=O)c3ccc(-c4c5nc(c(-c6c(F)cc(S(=O)(=O)[O-])cc6F)c6ccc([nH]6)c(-c6c(F)cc(S(=O)(=O)[O-])cc6F)c6nc(c(-c7c(F)cc(S(=O)(=O)[O-])cc7F)c7ccc4[nH]7)C=C6)C=C5)cc3)cc2)c1
REMARK SMILES IDX 20 1 19 2 18 3 17 4 16 5 14 6 15 7 12 8 13 9 11 10 8 11 9 12
REMARK SMILES IDX 95 13 10 14 94 15 7 16 3 17 4 18 96 19 5 20 6 21 2 22 1 23
REMARK SMILES IDX 21 24 22 25 23 26 24 27 25 28 26 29 27 30 28 31 29 32 93 33
REMARK SMILES IDX 30 34 92 35 31 36 32 37 33 38 86 39 34 40 91 41 85 42 87 43
REMARK SMILES IDX 35 44 90 45 84 46 83 47 36 49 70 50 49 51 69 52 50 53 53 54
REMARK SMILES IDX 68 55 88 56 51 57 52 58 67 60 89 61 54 62 37 63 38 64 47 65
REMARK SMILES IDX 39 66 40 67 46 68 48 69 41 70 42 71 43 72 44 73 45 74 71 75
REMARK SMILES IDX 72 76 81 77 73 78 74 79 80 80 82 81 75 82 76 83 77 84 78 85
REMARK SMILES IDX 79 86 55 87 56 88 65 89 57 90 58 91 64 92 66 93 59 94 60 95
REMARK SMILES IDX 61 96 62 97 63 98
REMARK H PARENT 87 48 53 59
REMARK Flexibility Score: inf
ROOT
ATOM      1  C   UNL A   1      33.032  34.781  28.226  1.00  0.00     0.188 C 
ENDROOT
BRANCH   1   2
ATOM      2  O   UNL A   1      32.303  33.566  28.094  1.00  0.00    -0.376 OA
BRANCH   2   3
ATOM      3  C   UNL A   1      32.023  33.061  26.796  1.00  0.00     0.202 C 
BRANCH   3   4
ATOM      4  C   UNL A   1      31.429  31.648  26.670  1.00  0.00     0.261 C 
BRANCH   4   5
ATOM      5  O   UNL A   1      32.005  30.815  25.637  1.00  0.00    -0.463 OA
BRANCH   5   6
ATOM      6  C   UNL A   1      31.792  29.479  25.749  1.00  0.00     0.313 C 
ATOM      7  O   UNL A   1      31.426  28.947  26.796  1.00  0.00    -0.252 OA
BRANCH   6   8
ATOM      8  C   UNL A   1      32.016  28.640  24.486  1.00  0.00     0.126 C 
ATOM      9  C   UNL A   1      30.830  28.860  23.547  1.00  0.00     0.025 C 
BRANCH   8  10
ATOM     10  C   UNL A   1      32.354  27.150  24.561  1.00  0.00    -0.034 A 
ATOM     11  C   UNL A   1      33.107  24.387  24.710  1.00  0.00    -0.017 A 
ATOM     12  C   UNL A   1      31.799  24.781  24.371  1.00  0.00     0.009 A 
ATOM     13  C   UNL A   1      34.034  25.401  24.975  1.00  0.00     0.009 A 
ATOM     14  C   UNL A   1      31.429  26.137  24.287  1.00  0.00     0.005 A 
ATOM     15  C   UNL A   1      33.669  26.755  24.893  1.00  0.00     0.005 A 
BRANCH  11  16
ATOM     16  C   UNL A   1      33.495  22.964  24.711  1.00  0.00     0.001 A 
ATOM     17  C   UNL A   1      35.084  21.139  25.038  1.00  0.00    -0.007 A 
ATOM     18  C   UNL A   1      34.074  20.267  24.633  1.00  0.00     0.119 A 
ATOM     19  C   UNL A   1      34.779  22.510  25.063  1.00  0.00     0.020 A 
ATOM     20  N   UNL A   1      32.825  20.650  24.286  1.00  0.00    -0.263 NA
ATOM     21  C   UNL A   1      32.576  21.980  24.332  1.00  0.00     0.119 A 
BRANCH  17  22
ATOM     22  C   UNL A   1      36.404  20.588  25.362  1.00  0.00     0.002 C 
ATOM     23  C   UNL A   1      37.472  20.667  24.559  1.00  0.00     0.009 C 
ENDBRANCH  17  22
ENDBRANCH  11  16
ENDBRANCH   8  10
ENDBRANCH   6   8
ENDBRANCH   5   6
ENDBRANCH   4   5
ENDBRANCH   3   4
ENDBRANCH   2   3
ENDBRANCH   1   2
BRANCH   1  24
ATOM     24  C   UNL A   1      33.550  35.199  29.610  1.00  0.00     0.188 C 
BRANCH  24  25
ATOM     25  O   UNL A   1      34.929  34.978  29.817  1.00  0.00    -0.376 OA
BRANCH  25  26
ATOM     26  C   UNL A   1      35.601  34.217  28.834  1.00  0.00     0.202 C 
BRANCH  26  27
ATOM     27  C   UNL A   1      35.648  32.708  29.110  1.00  0.00     0.261 C 
BRANCH  27  28
ATOM     28  O   UNL A   1      35.270  31.858  28.010  1.00  0.00    -0.460 OA
BRANCH  28  29
ATOM     29  C   UNL A   1      35.107  30.545  28.283  1.00  0.00     0.338 C 
ATOM     30  O   UNL A   1      34.047  29.928  28.290  1.00  0.00    -0.246 OA
BRANCH  29  31
ATOM     31  C   UNL A   1      36.443  29.909  28.350  1.00  0.00     0.060 A 
ATOM     32  C   UNL A   1      36.868  29.349  29.563  1.00  0.00     0.016 A 
ATOM     33  C   UNL A   1      37.283  29.888  27.234  1.00  0.00     0.016 A 
ATOM     34  C   UNL A   1      38.160  28.832  29.684  1.00  0.00     0.010 A 
ATOM     35  C   UNL A   1      38.584  29.386  27.361  1.00  0.00     0.010 A 
ATOM     36  C   UNL A   1      39.047  28.908  28.601  1.00  0.00    -0.014 A 
BRANCH  36  37
ATOM     37  C   UNL A   1      40.506  28.750  28.841  1.00  0.00     0.031 A 
ATOM     38  C   UNL A   1      41.136  27.426  28.485  1.00  0.00     0.074 A 
ATOM     39  C   UNL A   1      41.268  29.750  29.320  1.00  0.00     0.049 A 
ATOM     40  N   UNL A   1      42.374  27.026  28.625  1.00  0.00    -0.248 NA
ATOM     41  C   UNL A   1      40.244  26.416  27.890  1.00  0.00     0.031 C 
ATOM     42  C   UNL A   1      40.795  31.088  29.663  1.00  0.00     0.029 A 
ATOM     43  N   UNL A   1      42.612  29.785  29.605  1.00  0.00    -0.354 N 
ATOM     44  C   UNL A   1      42.404  25.719  28.149  1.00  0.00     0.074 A 
ATOM     45  C   UNL A   1      41.056  25.381  27.750  1.00  0.00     0.031 C 
ATOM     46  C   UNL A   1      41.831  31.813  30.123  1.00  0.00     0.029 A 
ATOM     47  C   UNL A   1      43.036  30.981  30.135  1.00  0.00     0.049 A 
ATOM     48  H   UNL A   1      43.216  29.024  29.445  1.00  0.00     0.167 HD
ATOM     49  C   UNL A   1      43.460  24.878  28.040  1.00  0.00     0.037 A 
ATOM     50  C   UNL A   1      44.250  31.353  30.593  1.00  0.00     0.037 A 
ATOM     51  C   UNL A   1      44.802  25.217  28.434  1.00  0.00     0.049 A 
ATOM     52  C   UNL A   1      45.401  30.378  30.519  1.00  0.00     0.074 A 
ATOM     53  C   UNL A   1      45.943  24.437  28.356  1.00  0.00     0.029 A 
ATOM     54  N   UNL A   1      45.184  26.430  28.984  1.00  0.00    -0.354 N 
ATOM     55  N   UNL A   1      45.420  29.151  30.053  1.00  0.00    -0.248 NA
ATOM     56  C   UNL A   1      46.701  30.843  31.025  1.00  0.00     0.031 C 
ATOM     57  C   UNL A   1      47.004  25.160  28.908  1.00  0.00     0.029 A 
ATOM     58  C   UNL A   1      46.540  26.416  29.268  1.00  0.00     0.049 A 
ATOM     59  H   UNL A   1      44.581  27.191  29.150  1.00  0.00     0.167 HD
ATOM     60  C   UNL A   1      46.737  28.716  30.170  1.00  0.00     0.074 A 
ATOM     61  C   UNL A   1      47.487  29.812  30.747  1.00  0.00     0.031 C 
ATOM     62  C   UNL A   1      47.280  27.520  29.825  1.00  0.00     0.037 A 
BRANCH  49  63
ATOM     63  C   UNL A   1      43.198  23.499  27.496  1.00  0.00     0.058 A 
ATOM     64  C   UNL A   1      43.515  23.149  26.174  1.00  0.00     0.135 A 
ATOM     65  C   UNL A   1      42.643  22.506  28.320  1.00  0.00     0.135 A 
ATOM     66  F   UNL A   1      44.027  24.066  25.336  1.00  0.00    -0.206 F 
ATOM     67  C   UNL A   1      43.265  21.874  25.679  1.00  0.00     0.059 A 
ATOM     68  C   UNL A   1      42.414  21.215  27.855  1.00  0.00     0.059 A 
ATOM     69  F   UNL A   1      42.316  22.787  29.592  1.00  0.00    -0.206 F 
ATOM     70  C   UNL A   1      42.715  20.912  26.529  1.00  0.00     0.060 A 
BRANCH  70  71
ATOM     71  S   UNL A   1      42.402  19.261  25.872  1.00  0.00     0.124 S 
ATOM     72  O   UNL A   1      40.954  19.291  25.685  1.00  0.00    -0.237 OA
ATOM     73  O   UNL A   1      43.198  19.257  24.649  1.00  0.00    -0.237 OA
ATOM     74  O   UNL A   1      42.879  18.376  26.930  1.00  0.00    -0.744 OA
ENDBRANCH  70  71
ENDBRANCH  49  63
BRANCH  50  75
ATOM     75  C   UNL A   1      44.449  32.712  31.167  1.00  0.00     0.058 A 
ATOM     76  C   UNL A   1      44.295  32.952  32.541  1.00  0.00     0.135 A 
ATOM     77  C   UNL A   1      44.778  33.805  30.350  1.00  0.00     0.135 A 
ATOM     78  F   UNL A   1      43.965  31.946  33.365  1.00  0.00    -0.206 F 
ATOM     79  C   UNL A   1      44.440  34.227  33.082  1.00  0.00     0.059 A 
ATOM     80  C   UNL A   1      44.958  35.083  30.871  1.00  0.00     0.059 A 
ATOM     81  F   UNL A   1      44.944  33.631  29.029  1.00  0.00    -0.206 F 
ATOM     82  C   UNL A   1      44.775  35.287  32.237  1.00  0.00     0.060 A 
BRANCH  82  83
ATOM     83  S   UNL A   1      45.004  36.927  32.956  1.00  0.00     0.124 S 
ATOM     84  O   UNL A   1      43.628  37.400  33.055  1.00  0.00    -0.237 OA
ATOM     85  O   UNL A   1      45.666  36.618  34.220  1.00  0.00    -0.237 OA
ATOM     86  O   UNL A   1      45.837  37.613  31.972  1.00  0.00    -0.744 OA
ENDBRANCH  82  83
ENDBRANCH  50  75
BRANCH  62  87
ATOM     87  C   UNL A   1      48.767  27.349  29.993  1.00  0.00     0.058 A 
ATOM     88  C   UNL A   1      49.327  26.718  31.115  1.00  0.00     0.135 A 
ATOM     89  C   UNL A   1      49.644  27.784  28.985  1.00  0.00     0.135 A 
ATOM     90  F   UNL A   1      48.537  26.282  32.110  1.00  0.00    -0.206 F 
ATOM     91  C   UNL A   1      50.704  26.556  31.248  1.00  0.00     0.059 A 
ATOM     92  C   UNL A   1      51.020  27.604  29.081  1.00  0.00     0.059 A 
ATOM     93  F   UNL A   1      49.165  28.381  27.882  1.00  0.00    -0.206 F 
ATOM     94  C   UNL A   1      51.542  27.003  30.225  1.00  0.00     0.060 A 
BRANCH  94  95
ATOM     95  S   UNL A   1      53.325  26.773  30.401  1.00  0.00     0.124 S 
ATOM     96  O   UNL A   1      53.400  25.992  31.632  1.00  0.00    -0.237 OA
ATOM     97  O   UNL A   1      53.670  26.061  29.175  1.00  0.00    -0.237 OA
ATOM     98  O   UNL A   1      53.836  28.137  30.493  1.00  0.00    -0.744 OA
ENDBRANCH  94  95
ENDBRANCH  62  87
ENDBRANCH  36  37
ENDBRANCH  29  31
ENDBRANCH  28  29
ENDBRANCH  27  28
ENDBRANCH  26  27
ENDBRANCH  25  26
ENDBRANCH  24  25
ENDBRANCH   1  24
TORSDOF 23
ENDMDL
MODEL 3
REMARK VINA RESULT:      -8.2      5.037     10.838
REMARK SMILES C=Cc1cncc(-c2ccc([C@@H](C)C(=O)OCCOCCOCCOC(=O)c3ccc(-c4c5nc(c(-c6c(F)cc(S(=O)(=O)[O-])cc6F)c6ccc([nH]6)c(-c6c(F)cc(S(=O)(=O)[O-])cc6F)c6nc(c(-c7c(F)cc(S(=O)(=O)[O-])cc7F)c7ccc4[nH]7)C=C6)C=C5)cc3)cc2)c1
REMARK SMILES IDX 20 1 19 2 18 3 17 4 16 5 14 6 15 7 12 8 13 9 11 10 8 11 9 12
REMARK SMILES IDX 95 13 10 14 94 15 7 16 3 17 4 18 96 19 5 20 6 21 2 22 1 23
REMARK SMILES IDX 21 24 22 25 23 26 24 27 25 28 26 29 27 30 28 31 29 32 93 33
REMARK SMILES IDX 30 34 92 35 31 36 32 37 33 38 86 39 34 40 91 41 85 42 87 43
REMARK SMILES IDX 35 44 90 45 84 46 83 47 36 49 70 50 49 51 69 52 50 53 53 54
REMARK SMILES IDX 68 55 88 56 51 57 52 58 67 60 89 61 54 62 37 63 38 64 47 65
REMARK SMILES IDX 39 66 40 67 46 68 48 69 41 70 42 71 43 72 44 73 45 74 71 75
REMARK SMILES IDX 72 76 81 77 73 78 74 79 80 80 82 81 75 82 76 83 77 84 78 85
REMARK SMILES IDX 79 86 55 87 56 88 65 89 57 90 58 91 64 92 66 93 59 94 60 95
REMARK SMILES IDX 61 96 62 97 63 98
REMARK H PARENT 87 48 53 59
REMARK Flexibility Score: inf
ROOT
ATOM      1  C   UNL A   1      43.473  22.314  25.364  1.00  0.00     0.188 C 
ENDROOT
BRANCH   1   2
ATOM      2  O   UNL A   1      42.976  22.164  26.690  1.00  0.00    -0.376 OA
BRANCH   2   3
ATOM      3  C   UNL A   1      41.738  21.498  26.897  1.00  0.00     0.202 C 
BRANCH   3   4
ATOM      4  C   UNL A   1      40.503  22.341  27.254  1.00  0.00     0.261 C 
BRANCH   4   5
ATOM      5  O   UNL A   1      40.765  23.553  28.000  1.00  0.00    -0.463 OA
BRANCH   5   6
ATOM      6  C   UNL A   1      40.760  24.712  27.292  1.00  0.00     0.313 C 
ATOM      7  O   UNL A   1      40.139  24.848  26.239  1.00  0.00    -0.252 OA
BRANCH   6   8
ATOM      8  C   UNL A   1      41.565  25.878  27.877  1.00  0.00     0.126 C 
ATOM      9  C   UNL A   1      42.684  25.301  28.743  1.00  0.00     0.025 C 
BRANCH   8  10
ATOM     10  C   UNL A   1      40.885  27.038  28.606  1.00  0.00    -0.034 A 
ATOM     11  C   UNL A   1      39.508  29.146  29.977  1.00  0.00    -0.017 A 
ATOM     12  C   UNL A   1      40.775  29.344  29.397  1.00  0.00     0.009 A 
ATOM     13  C   UNL A   1      38.940  27.873  29.861  1.00  0.00     0.009 A 
ATOM     14  C   UNL A   1      41.449  28.314  28.714  1.00  0.00     0.005 A 
ATOM     15  C   UNL A   1      39.610  26.842  29.180  1.00  0.00     0.005 A 
BRANCH  11  16
ATOM     16  C   UNL A   1      38.782  30.261  30.614  1.00  0.00     0.001 A 
ATOM     17  C   UNL A   1      37.915  31.476  32.547  1.00  0.00    -0.007 A 
ATOM     18  C   UNL A   1      37.369  32.393  31.651  1.00  0.00     0.119 A 
ATOM     19  C   UNL A   1      38.623  30.389  32.006  1.00  0.00     0.020 A 
ATOM     20  N   UNL A   1      37.493  32.318  30.307  1.00  0.00    -0.263 NA
ATOM     21  C   UNL A   1      38.189  31.258  29.832  1.00  0.00     0.119 A 
BRANCH  17  22
ATOM     22  C   UNL A   1      37.681  31.666  33.983  1.00  0.00     0.002 C 
ATOM     23  C   UNL A   1      38.170  30.868  34.940  1.00  0.00     0.009 C 
ENDBRANCH  17  22
ENDBRANCH  11  16
ENDBRANCH   8  10
ENDBRANCH   6   8
ENDBRANCH   5   6
ENDBRANCH   4   5
ENDBRANCH   3   4
ENDBRANCH   2   3
ENDBRANCH   1   2
BRANCH   1  24
ATOM     24  C   UNL A   1      44.932  21.941  25.064  1.00  0.00     0.188 C 
BRANCH  24  25
ATOM     25  O   UNL A   1      45.832  22.172  26.128  1.00  0.00    -0.376 OA
BRANCH  25  26
ATOM     26  C   UNL A   1      46.292  23.498  26.288  1.00  0.00     0.202 C 
BRANCH  26  27
ATOM     27  C   UNL A   1      46.761  24.176  24.993  1.00  0.00     0.261 C 
BRANCH  27  28
ATOM     28  O   UNL A   1      46.060  25.379  24.626  1.00  0.00    -0.460 OA
BRANCH  28  29
ATOM     29  C   UNL A   1      46.805  26.495  24.469  1.00  0.00     0.338 C 
ATOM     30  O   UNL A   1      47.688  26.670  23.637  1.00  0.00    -0.246 OA
BRANCH  29  31
ATOM     31  C   UNL A   1      46.232  27.566  25.316  1.00  0.00     0.060 A 
ATOM     32  C   UNL A   1      47.085  28.551  25.835  1.00  0.00     0.016 A 
ATOM     33  C   UNL A   1      44.868  27.586  25.621  1.00  0.00     0.016 A 
ATOM     34  C   UNL A   1      46.591  29.515  26.717  1.00  0.00     0.010 A 
ATOM     35  C   UNL A   1      44.378  28.542  26.519  1.00  0.00     0.010 A 
ATOM     36  C   UNL A   1      45.247  29.475  27.114  1.00  0.00    -0.014 A 
BRANCH  36  37
ATOM     37  C   UNL A   1      44.826  30.213  28.334  1.00  0.00     0.031 A 
ATOM     38  C   UNL A   1      44.750  29.443  29.630  1.00  0.00     0.074 A 
ATOM     39  C   UNL A   1      44.555  31.531  28.320  1.00  0.00     0.049 A 
ATOM     40  N   UNL A   1      44.381  29.844  30.819  1.00  0.00    -0.248 NA
ATOM     41  C   UNL A   1      45.142  28.024  29.570  1.00  0.00     0.031 C 
ATOM     42  C   UNL A   1      44.631  32.400  27.148  1.00  0.00     0.029 A 
ATOM     43  N   UNL A   1      44.152  32.367  29.333  1.00  0.00    -0.354 N 
ATOM     44  C   UNL A   1      44.486  28.728  31.643  1.00  0.00     0.074 A 
ATOM     45  C   UNL A   1      44.917  27.626  30.811  1.00  0.00     0.031 C 
ATOM     46  C   UNL A   1      44.276  33.648  27.507  1.00  0.00     0.029 A 
ATOM     47  C   UNL A   1      43.919  33.660  28.927  1.00  0.00     0.049 A 
ATOM     48  H   UNL A   1      44.041  32.069  30.264  1.00  0.00     0.167 HD
ATOM     49  C   UNL A   1      44.258  28.628  32.974  1.00  0.00     0.037 A 
ATOM     50  C   UNL A   1      43.455  34.723  29.617  1.00  0.00     0.037 A 
ATOM     51  C   UNL A   1      43.833  29.727  33.801  1.00  0.00     0.049 A 
ATOM     52  C   UNL A   1      43.147  34.575  31.088  1.00  0.00     0.074 A 
ATOM     53  C   UNL A   1      43.583  29.731  35.162  1.00  0.00     0.029 A 
ATOM     54  N   UNL A   1      43.589  31.013  33.346  1.00  0.00    -0.354 N 
ATOM     55  N   UNL A   1      43.265  33.519  31.857  1.00  0.00    -0.248 NA
ATOM     56  C   UNL A   1      42.652  35.770  31.788  1.00  0.00     0.031 C 
ATOM     57  C   UNL A   1      43.137  31.006  35.520  1.00  0.00     0.029 A 
ATOM     58  C   UNL A   1      43.174  31.816  34.396  1.00  0.00     0.049 A 
ATOM     59  H   UNL A   1      43.696  31.313  32.414  1.00  0.00     0.167 HD
ATOM     60  C   UNL A   1      42.902  33.933  33.136  1.00  0.00     0.074 A 
ATOM     61  C   UNL A   1      42.563  35.337  33.038  1.00  0.00     0.031 C 
ATOM     62  C   UNL A   1      42.858  33.219  34.290  1.00  0.00     0.037 A 
BRANCH  49  63
ATOM     63  C   UNL A   1      44.439  27.278  33.612  1.00  0.00     0.058 A 
ATOM     64  C   UNL A   1      43.349  26.447  33.916  1.00  0.00     0.135 A 
ATOM     65  C   UNL A   1      45.727  26.798  33.904  1.00  0.00     0.135 A 
ATOM     66  F   UNL A   1      42.094  26.864  33.680  1.00  0.00    -0.206 F 
ATOM     67  C   UNL A   1      43.525  25.202  34.510  1.00  0.00     0.059 A 
ATOM     68  C   UNL A   1      45.929  25.543  34.469  1.00  0.00     0.059 A 
ATOM     69  F   UNL A   1      46.806  27.552  33.639  1.00  0.00    -0.206 F 
ATOM     70  C   UNL A   1      44.821  24.758  34.782  1.00  0.00     0.060 A 
BRANCH  70  71
ATOM     71  S   UNL A   1      45.032  23.138  35.549  1.00  0.00     0.124 S 
ATOM     72  O   UNL A   1      43.816  22.453  35.124  1.00  0.00    -0.237 OA
ATOM     73  O   UNL A   1      46.272  22.665  34.940  1.00  0.00    -0.237 OA
ATOM     74  O   UNL A   1      45.114  23.443  36.974  1.00  0.00    -0.744 OA
ENDBRANCH  70  71
ENDBRANCH  49  63
BRANCH  50  75
ATOM     75  C   UNL A   1      43.245  36.028  28.930  1.00  0.00     0.058 A 
ATOM     76  C   UNL A   1      42.082  36.282  28.188  1.00  0.00     0.135 A 
ATOM     77  C   UNL A   1      44.216  37.041  28.985  1.00  0.00     0.135 A 
ATOM     78  F   UNL A   1      41.130  35.342  28.089  1.00  0.00    -0.206 F 
ATOM     79  C   UNL A   1      41.895  37.483  27.510  1.00  0.00     0.059 A 
ATOM     80  C   UNL A   1      44.039  38.263  28.340  1.00  0.00     0.059 A 
ATOM     81  F   UNL A   1      45.346  36.854  29.686  1.00  0.00    -0.206 F 
ATOM     82  C   UNL A   1      42.880  38.470  27.595  1.00  0.00     0.060 A 
BRANCH  82  83
ATOM     83  S   UNL A   1      42.607  40.041  26.748  1.00  0.00     0.124 S 
ATOM     84  O   UNL A   1      41.263  39.857  26.212  1.00  0.00    -0.237 OA
ATOM     85  O   UNL A   1      42.733  41.003  27.838  1.00  0.00    -0.237 OA
ATOM     86  O   UNL A   1      43.680  40.081  25.759  1.00  0.00    -0.744 OA
ENDBRANCH  82  83
ENDBRANCH  50  75
BRANCH  62  87
ATOM     87  C   UNL A   1      42.499  33.950  35.557  1.00  0.00     0.058 A 
ATOM     88  C   UNL A   1      43.464  34.575  36.361  1.00  0.00     0.135 A 
ATOM     89  C   UNL A   1      41.153  34.067  35.944  1.00  0.00     0.135 A 
ATOM     90  F   UNL A   1      44.766  34.497  36.040  1.00  0.00    -0.206 F 
ATOM     91  C   UNL A   1      43.113  35.259  37.522  1.00  0.00     0.059 A 
ATOM     92  C   UNL A   1      40.776  34.773  37.082  1.00  0.00     0.059 A 
ATOM     93  F   UNL A   1      40.185  33.502  35.205  1.00  0.00    -0.206 F 
ATOM     94  C   UNL A   1      41.765  35.352  37.874  1.00  0.00     0.060 A 
BRANCH  94  95
ATOM     95  S   UNL A   1      41.320  36.254  39.373  1.00  0.00     0.124 S 
ATOM     96  O   UNL A   1      41.302  35.185  40.366  1.00  0.00    -0.237 OA
ATOM     97  O   UNL A   1      42.412  37.215  39.495  1.00  0.00    -0.237 OA
ATOM     98  O   UNL A   1      40.019  36.831  39.050  1.00  0.00    -0.744 OA
ENDBRANCH  94  95
ENDBRANCH  62  87
ENDBRANCH  36  37
ENDBRANCH  29  31
ENDBRANCH  28  29
ENDBRANCH  27  28
ENDBRANCH  26  27
ENDBRANCH  25  26
ENDBRANCH  24  25
ENDBRANCH   1  24
TORSDOF 23
ENDMDL
