MODEL 1
REMARK VINA RESULT:     -10.6      0.000      0.000
REMARK SMILES Cc1cc(NC(=O)N2CCO[C@@H](CC(=O)OCCOCCOCCOC(=O)c3ccc(-c4c5nc(c(-c6c(F)cc(S(=O)(=O)[O-])cc6F)c6ccc([nH]6)c(-c6c(F)cc(S(=O)(=O)[O-])cc6F)c6nc(c(-c7c(F)cc(S(=O)(=O)[O-])cc7F)c7ccc4[nH]7)C=C6)C=C5)cc3)C2)ccc1F
REMARK SMILES IDX 20 1 19 2 18 3 17 4 16 5 14 6 15 7 13 8 12 9 8 10 9 11 94 12
REMARK SMILES IDX 10 13 11 14 6 15 5 16 7 18 4 19 1 20 2 21 3 22 97 23 96 24
REMARK SMILES IDX 98 25 95 26 21 27 22 28 23 29 24 30 25 31 26 32 27 33 28 34
REMARK SMILES IDX 29 35 93 36 30 37 92 38 31 39 32 40 33 41 86 42 34 43 91 44
REMARK SMILES IDX 85 45 87 46 35 47 90 48 84 49 83 50 36 52 70 53 49 54 69 55
REMARK SMILES IDX 50 56 53 57 68 58 88 59 51 60 52 61 67 63 89 64 54 65 37 66
REMARK SMILES IDX 38 67 47 68 39 69 40 70 46 71 48 72 41 73 42 74 43 75 44 76
REMARK SMILES IDX 45 77 71 78 72 79 81 80 73 81 74 82 80 83 82 84 75 85 76 86
REMARK SMILES IDX 77 87 78 88 79 89 55 90 56 91 65 92 57 93 58 94 64 95 66 96
REMARK SMILES IDX 59 97 60 98 61 99 62 100 63 101
REMARK H PARENT 5 17 87 51 53 62
REMARK Flexibility Score: inf
ROOT
ATOM      1  C   UNL A   1      42.040  19.342  25.777  1.00  0.00     0.188 C 
ENDROOT
BRANCH   1   2
ATOM      2  O   UNL A   1      40.924  19.580  26.641  1.00  0.00    -0.376 OA
BRANCH   2   3
ATOM      3  C   UNL A   1      40.773  20.897  27.136  1.00  0.00     0.202 C 
BRANCH   3   4
ATOM      4  C   UNL A   1      40.184  21.936  26.161  1.00  0.00     0.261 C 
BRANCH   4   5
ATOM      5  O   UNL A   1      38.820  22.366  26.421  1.00  0.00    -0.463 OA
BRANCH   5   6
ATOM      6  C   UNL A   1      37.854  21.941  25.578  1.00  0.00     0.308 C 
ATOM      7  O   UNL A   1      37.827  20.799  25.121  1.00  0.00    -0.252 OA
BRANCH   6   8
ATOM      8  C   UNL A   1      36.687  22.888  25.321  1.00  0.00     0.156 C 
BRANCH   8   9
ATOM      9  C   UNL A   1      35.169  22.648  25.425  1.00  0.00     0.149 C 
ATOM     10  N   UNL A   1      32.824  23.425  25.794  1.00  0.00    -0.320 N 
ATOM     11  C   UNL A   1      32.499  23.080  24.414  1.00  0.00     0.150 C 
ATOM     12  C   UNL A   1      34.255  23.759  25.990  1.00  0.00     0.154 C 
ATOM     13  C   UNL A   1      33.422  21.973  23.908  1.00  0.00     0.182 C 
ATOM     14  O   UNL A   1      34.790  22.378  24.029  1.00  0.00    -0.374 OA
BRANCH  10  15
ATOM     15  C   UNL A   1      31.905  23.745  26.767  1.00  0.00     0.322 C 
ATOM     16  N   UNL A   1      31.505  25.033  26.996  1.00  0.00    -0.308 N 
ATOM     17  H   UNL A   1      31.199  25.181  27.920  1.00  0.00     0.171 HD
ATOM     18  O   UNL A   1      31.500  22.879  27.553  1.00  0.00    -0.248 OA
BRANCH  16  19
ATOM     19  C   UNL A   1      31.435  26.196  26.198  1.00  0.00     0.043 A 
ATOM     20  C   UNL A   1      29.312  27.552  23.314  1.00  0.00     0.047 C 
ATOM     21  C   UNL A   1      30.336  27.436  24.400  1.00  0.00    -0.013 A 
ATOM     22  C   UNL A   1      30.460  26.276  25.192  1.00  0.00     0.032 A 
ATOM     23  C   UNL A   1      31.186  28.517  24.642  1.00  0.00     0.126 A 
ATOM     24  C   UNL A   1      32.189  28.430  25.588  1.00  0.00     0.041 A 
ATOM     25  F   UNL A   1      31.060  29.644  23.929  1.00  0.00    -0.207 F 
ATOM     26  C   UNL A   1      32.329  27.253  26.321  1.00  0.00     0.029 A 
ENDBRANCH  16  19
ENDBRANCH  10  15
ENDBRANCH   8   9
ENDBRANCH   6   8
ENDBRANCH   5   6
ENDBRANCH   4   5
ENDBRANCH   3   4
ENDBRANCH   2   3
ENDBRANCH   1   2
BRANCH   1  27
ATOM     27  C   UNL A   1      43.179  18.410  26.282  1.00  0.00     0.188 C 
BRANCH  27  28
ATOM     28  O   UNL A   1      44.174  18.159  25.306  1.00  0.00    -0.376 OA
BRANCH  28  29
ATOM     29  C   UNL A   1      45.489  18.370  25.760  1.00  0.00     0.202 C 
BRANCH  29  30
ATOM     30  C   UNL A   1      46.297  19.427  24.998  1.00  0.00     0.261 C 
BRANCH  30  31
ATOM     31  O   UNL A   1      46.019  20.833  25.135  1.00  0.00    -0.460 OA
BRANCH  31  32
ATOM     32  C   UNL A   1      44.934  21.284  24.479  1.00  0.00     0.338 C 
ATOM     33  O   UNL A   1      44.581  21.038  23.348  1.00  0.00    -0.246 OA
BRANCH  32  34
ATOM     34  C   UNL A   1      44.143  22.300  25.154  1.00  0.00     0.060 A 
ATOM     35  C   UNL A   1      44.260  23.542  24.478  1.00  0.00     0.016 A 
ATOM     36  C   UNL A   1      44.193  22.178  26.535  1.00  0.00     0.016 A 
ATOM     37  C   UNL A   1      44.860  24.579  25.142  1.00  0.00     0.010 A 
ATOM     38  C   UNL A   1      44.705  23.247  27.213  1.00  0.00     0.010 A 
ATOM     39  C   UNL A   1      45.101  24.393  26.497  1.00  0.00    -0.014 A 
BRANCH  39  40
ATOM     40  C   UNL A   1      45.424  25.514  27.331  1.00  0.00     0.031 A 
ATOM     41  C   UNL A   1      44.253  26.377  27.613  1.00  0.00     0.074 A 
ATOM     42  C   UNL A   1      46.620  25.468  27.951  1.00  0.00     0.049 A 
ATOM     43  N   UNL A   1      44.302  27.570  28.081  1.00  0.00    -0.248 NA
ATOM     44  C   UNL A   1      42.874  25.976  27.255  1.00  0.00     0.031 C 
ATOM     45  C   UNL A   1      46.969  26.035  29.238  1.00  0.00     0.029 A 
ATOM     46  N   UNL A   1      47.832  24.927  27.503  1.00  0.00    -0.354 N 
ATOM     47  C   UNL A   1      43.010  27.871  28.475  1.00  0.00     0.074 A 
ATOM     48  C   UNL A   1      42.152  26.987  27.738  1.00  0.00     0.031 C 
ATOM     49  C   UNL A   1      48.310  26.077  29.337  1.00  0.00     0.029 A 
ATOM     50  C   UNL A   1      48.846  25.748  28.024  1.00  0.00     0.049 A 
ATOM     51  H   UNL A   1      47.949  24.130  26.938  1.00  0.00     0.167 HD
ATOM     52  C   UNL A   1      42.829  28.631  29.589  1.00  0.00     0.037 A 
ATOM     53  C   UNL A   1      49.560  26.643  27.260  1.00  0.00     0.037 A 
ATOM     54  C   UNL A   1      44.135  29.000  30.130  1.00  0.00     0.049 A 
ATOM     55  C   UNL A   1      49.200  28.091  27.524  1.00  0.00     0.074 A 
ATOM     56  C   UNL A   1      44.969  28.419  31.072  1.00  0.00     0.029 A 
ATOM     57  N   UNL A   1      44.934  29.836  29.384  1.00  0.00    -0.354 N 
ATOM     58  N   UNL A   1      48.269  28.483  28.346  1.00  0.00    -0.248 NA
ATOM     59  C   UNL A   1      49.803  29.200  26.786  1.00  0.00     0.031 C 
ATOM     60  C   UNL A   1      46.291  28.912  30.853  1.00  0.00     0.029 A 
ATOM     61  C   UNL A   1      46.253  29.787  29.782  1.00  0.00     0.049 A 
ATOM     62  H   UNL A   1      44.602  30.402  28.651  1.00  0.00     0.167 HD
ATOM     63  C   UNL A   1      48.119  29.835  28.254  1.00  0.00     0.074 A 
ATOM     64  C   UNL A   1      49.083  30.237  27.242  1.00  0.00     0.031 C 
ATOM     65  C   UNL A   1      47.216  30.538  28.997  1.00  0.00     0.037 A 
BRANCH  52  66
ATOM     66  C   UNL A   1      41.534  28.778  30.349  1.00  0.00     0.058 A 
ATOM     67  C   UNL A   1      40.438  29.411  29.725  1.00  0.00     0.135 A 
ATOM     68  C   UNL A   1      41.284  28.321  31.662  1.00  0.00     0.135 A 
ATOM     69  F   UNL A   1      40.510  29.862  28.465  1.00  0.00    -0.206 F 
ATOM     70  C   UNL A   1      39.215  29.613  30.355  1.00  0.00     0.059 A 
ATOM     71  C   UNL A   1      40.075  28.550  32.332  1.00  0.00     0.059 A 
ATOM     72  F   UNL A   1      42.180  27.584  32.332  1.00  0.00    -0.206 F 
ATOM     73  C   UNL A   1      39.041  29.189  31.663  1.00  0.00     0.060 A 
BRANCH  73  74
ATOM     74  S   UNL A   1      37.432  29.446  32.430  1.00  0.00     0.124 S 
ATOM     75  O   UNL A   1      36.534  29.402  31.280  1.00  0.00    -0.237 OA
ATOM     76  O   UNL A   1      37.350  28.310  33.342  1.00  0.00    -0.237 OA
ATOM     77  O   UNL A   1      37.562  30.752  33.068  1.00  0.00    -0.744 OA
ENDBRANCH  73  74
ENDBRANCH  52  66
BRANCH  53  78
ATOM     78  C   UNL A   1      49.906  26.158  25.900  1.00  0.00     0.058 A 
ATOM     79  C   UNL A   1      49.037  26.538  24.864  1.00  0.00     0.135 A 
ATOM     80  C   UNL A   1      51.255  25.919  25.611  1.00  0.00     0.135 A 
ATOM     81  F   UNL A   1      47.723  26.681  25.094  1.00  0.00    -0.206 F 
ATOM     82  C   UNL A   1      49.547  27.000  23.671  1.00  0.00     0.059 A 
ATOM     83  C   UNL A   1      51.792  26.402  24.438  1.00  0.00     0.059 A 
ATOM     84  F   UNL A   1      52.089  25.447  26.548  1.00  0.00    -0.206 F 
ATOM     85  C   UNL A   1      50.930  27.037  23.541  1.00  0.00     0.060 A 
BRANCH  85  86
ATOM     86  S   UNL A   1      51.623  28.225  22.404  1.00  0.00     0.124 S 
ATOM     87  O   UNL A   1      51.477  29.495  23.105  1.00  0.00    -0.237 OA
ATOM     88  O   UNL A   1      52.987  27.711  22.351  1.00  0.00    -0.237 OA
ATOM     89  O   UNL A   1      50.771  28.053  21.231  1.00  0.00    -0.744 OA
ENDBRANCH  85  86
ENDBRANCH  53  78
BRANCH  65  90
ATOM     90  C   UNL A   1      47.169  32.035  28.968  1.00  0.00     0.058 A 
ATOM     91  C   UNL A   1      46.641  32.721  27.861  1.00  0.00     0.135 A 
ATOM     92  C   UNL A   1      47.713  32.839  29.992  1.00  0.00     0.135 A 
ATOM     93  F   UNL A   1      46.242  32.061  26.763  1.00  0.00    -0.206 F 
ATOM     94  C   UNL A   1      46.506  34.102  27.848  1.00  0.00     0.059 A 
ATOM     95  C   UNL A   1      47.654  34.223  29.967  1.00  0.00     0.059 A 
ATOM     96  F   UNL A   1      48.296  32.324  31.081  1.00  0.00    -0.206 F 
ATOM     97  C   UNL A   1      46.997  34.842  28.918  1.00  0.00     0.060 A 
BRANCH  97  98
ATOM     98  S   UNL A   1      46.773  36.621  28.929  1.00  0.00     0.124 S 
ATOM     99  O   UNL A   1      45.339  36.758  28.697  1.00  0.00    -0.237 OA
ATOM    100  O   UNL A   1      47.233  36.958  30.273  1.00  0.00    -0.237 OA
ATOM    101  O   UNL A   1      47.627  37.077  27.837  1.00  0.00    -0.744 OA
ENDBRANCH  97  98
ENDBRANCH  65  90
ENDBRANCH  39  40
ENDBRANCH  32  34
ENDBRANCH  31  32
ENDBRANCH  30  31
ENDBRANCH  29  30
ENDBRANCH  28  29
ENDBRANCH  27  28
ENDBRANCH   1  27
TORSDOF 23
ENDMDL
MODEL 2
REMARK VINA RESULT:     -10.3      6.014     10.898
REMARK SMILES Cc1cc(NC(=O)N2CCO[C@@H](CC(=O)OCCOCCOCCOC(=O)c3ccc(-c4c5nc(c(-c6c(F)cc(S(=O)(=O)[O-])cc6F)c6ccc([nH]6)c(-c6c(F)cc(S(=O)(=O)[O-])cc6F)c6nc(c(-c7c(F)cc(S(=O)(=O)[O-])cc7F)c7ccc4[nH]7)C=C6)C=C5)cc3)C2)ccc1F
REMARK SMILES IDX 20 1 19 2 18 3 17 4 16 5 14 6 15 7 13 8 12 9 8 10 9 11 94 12
REMARK SMILES IDX 10 13 11 14 6 15 5 16 7 18 4 19 1 20 2 21 3 22 97 23 96 24
REMARK SMILES IDX 98 25 95 26 21 27 22 28 23 29 24 30 25 31 26 32 27 33 28 34
REMARK SMILES IDX 29 35 93 36 30 37 92 38 31 39 32 40 33 41 86 42 34 43 91 44
REMARK SMILES IDX 85 45 87 46 35 47 90 48 84 49 83 50 36 52 70 53 49 54 69 55
REMARK SMILES IDX 50 56 53 57 68 58 88 59 51 60 52 61 67 63 89 64 54 65 37 66
REMARK SMILES IDX 38 67 47 68 39 69 40 70 46 71 48 72 41 73 42 74 43 75 44 76
REMARK SMILES IDX 45 77 71 78 72 79 81 80 73 81 74 82 80 83 82 84 75 85 76 86
REMARK SMILES IDX 77 87 78 88 79 89 55 90 56 91 65 92 57 93 58 94 64 95 66 96
REMARK SMILES IDX 59 97 60 98 61 99 62 100 63 101
REMARK H PARENT 5 17 87 51 53 62
REMARK Flexibility Score: inf
ROOT
ATOM      1  C   UNL A   1      43.855  22.316  25.296  1.00  0.00     0.188 C 
ENDROOT
BRANCH   1   2
ATOM      2  O   UNL A   1      42.881  21.275  25.408  1.00  0.00    -0.376 OA
BRANCH   2   3
ATOM      3  C   UNL A   1      41.931  21.403  26.449  1.00  0.00     0.202 C 
BRANCH   3   4
ATOM      4  C   UNL A   1      40.447  21.314  26.042  1.00  0.00     0.261 C 
BRANCH   4   5
ATOM      5  O   UNL A   1      39.515  22.119  26.814  1.00  0.00    -0.463 OA
BRANCH   5   6
ATOM      6  C   UNL A   1      38.507  22.724  26.151  1.00  0.00     0.308 C 
ATOM      7  O   UNL A   1      38.270  23.927  26.257  1.00  0.00    -0.252 OA
BRANCH   6   8
ATOM      8  C   UNL A   1      37.746  21.890  25.125  1.00  0.00     0.156 C 
BRANCH   8   9
ATOM      9  C   UNL A   1      36.260  21.921  24.722  1.00  0.00     0.149 C 
ATOM     10  N   UNL A   1      33.842  22.318  25.207  1.00  0.00    -0.320 N 
ATOM     11  C   UNL A   1      33.835  23.415  24.246  1.00  0.00     0.150 C 
ATOM     12  C   UNL A   1      35.174  22.079  25.811  1.00  0.00     0.154 C 
ATOM     13  C   UNL A   1      34.917  23.207  23.188  1.00  0.00     0.182 C 
ATOM     14  O   UNL A   1      36.199  23.077  23.813  1.00  0.00    -0.374 OA
BRANCH  10  15
ATOM     15  C   UNL A   1      32.722  21.755  25.773  1.00  0.00     0.322 C 
ATOM     16  N   UNL A   1      32.159  20.606  25.288  1.00  0.00    -0.308 N 
ATOM     17  H   UNL A   1      31.197  20.537  25.484  1.00  0.00     0.171 HD
ATOM     18  O   UNL A   1      32.112  22.346  26.674  1.00  0.00    -0.248 OA
BRANCH  16  19
ATOM     19  C   UNL A   1      32.656  19.496  24.569  1.00  0.00     0.043 A 
ATOM     20  C   UNL A   1      35.186  16.668  25.081  1.00  0.00     0.047 C 
ATOM     21  C   UNL A   1      34.133  17.550  24.485  1.00  0.00    -0.013 A 
ATOM     22  C   UNL A   1      33.640  18.687  25.157  1.00  0.00     0.032 A 
ATOM     23  C   UNL A   1      33.617  17.228  23.229  1.00  0.00     0.126 A 
ATOM     24  C   UNL A   1      32.693  18.049  22.611  1.00  0.00     0.041 A 
ATOM     25  F   UNL A   1      34.042  16.130  22.589  1.00  0.00    -0.207 F 
ATOM     26  C   UNL A   1      32.261  19.198  23.271  1.00  0.00     0.029 A 
ENDBRANCH  16  19
ENDBRANCH  10  15
ENDBRANCH   8   9
ENDBRANCH   6   8
ENDBRANCH   5   6
ENDBRANCH   4   5
ENDBRANCH   3   4
ENDBRANCH   2   3
ENDBRANCH   1   2
BRANCH   1  27
ATOM     27  C   UNL A   1      43.533  23.700  25.933  1.00  0.00     0.188 C 
BRANCH  27  28
ATOM     28  O   UNL A   1      43.730  24.786  25.045  1.00  0.00    -0.376 OA
BRANCH  28  29
ATOM     29  C   UNL A   1      42.858  25.868  25.262  1.00  0.00     0.202 C 
BRANCH  29  30
ATOM     30  C   UNL A   1      41.544  25.533  25.976  1.00  0.00     0.261 C 
BRANCH  30  31
ATOM     31  O   UNL A   1      40.492  26.506  26.120  1.00  0.00    -0.460 OA
BRANCH  31  32
ATOM     32  C   UNL A   1      40.748  27.526  26.960  1.00  0.00     0.338 C 
ATOM     33  O   UNL A   1      40.973  28.685  26.692  1.00  0.00    -0.246 OA
BRANCH  32  34
ATOM     34  C   UNL A   1      40.907  27.186  28.364  1.00  0.00     0.060 A 
ATOM     35  C   UNL A   1      39.663  27.292  29.039  1.00  0.00     0.016 A 
ATOM     36  C   UNL A   1      42.100  27.659  28.891  1.00  0.00     0.016 A 
ATOM     37  C   UNL A   1      39.543  28.246  30.016  1.00  0.00     0.010 A 
ATOM     38  C   UNL A   1      41.991  28.540  29.927  1.00  0.00     0.010 A 
ATOM     39  C   UNL A   1      40.713  28.876  30.416  1.00  0.00    -0.014 A 
BRANCH  39  40
ATOM     40  C   UNL A   1      40.740  29.641  31.628  1.00  0.00     0.031 A 
ATOM     41  C   UNL A   1      41.035  28.816  32.823  1.00  0.00     0.074 A 
ATOM     42  C   UNL A   1      40.781  30.981  31.484  1.00  0.00     0.049 A 
ATOM     43  N   UNL A   1      40.846  29.172  34.040  1.00  0.00    -0.248 NA
ATOM     44  C   UNL A   1      41.478  27.408  32.718  1.00  0.00     0.031 C 
ATOM     45  C   UNL A   1      41.411  31.944  32.365  1.00  0.00     0.029 A 
ATOM     46  N   UNL A   1      40.192  31.787  30.502  1.00  0.00    -0.354 N 
ATOM     47  C   UNL A   1      41.534  28.252  34.811  1.00  0.00     0.074 A 
ATOM     48  C   UNL A   1      41.689  27.083  33.993  1.00  0.00     0.031 C 
ATOM     49  C   UNL A   1      40.940  33.168  32.067  1.00  0.00     0.029 A 
ATOM     50  C   UNL A   1      39.831  32.986  31.142  1.00  0.00     0.049 A 
ATOM     51  H   UNL A   1      40.058  31.560  29.555  1.00  0.00     0.167 HD
ATOM     52  C   UNL A   1      42.147  28.683  35.947  1.00  0.00     0.037 A 
ATOM     53  C   UNL A   1      38.531  33.313  31.455  1.00  0.00     0.037 A 
ATOM     54  C   UNL A   1      41.893  30.112  36.111  1.00  0.00     0.049 A 
ATOM     55  C   UNL A   1      38.224  33.233  32.937  1.00  0.00     0.074 A 
ATOM     56  C   UNL A   1      42.579  31.249  35.712  1.00  0.00     0.029 A 
ATOM     57  N   UNL A   1      40.601  30.518  36.355  1.00  0.00    -0.354 N 
ATOM     58  N   UNL A   1      39.070  32.840  33.846  1.00  0.00    -0.248 NA
ATOM     59  C   UNL A   1      36.892  33.491  33.481  1.00  0.00     0.031 C 
ATOM     60  C   UNL A   1      41.656  32.338  35.701  1.00  0.00     0.029 A 
ATOM     61  C   UNL A   1      40.419  31.859  36.093  1.00  0.00     0.049 A 
ATOM     62  H   UNL A   1      39.890  29.920  36.679  1.00  0.00     0.167 HD
ATOM     63  C   UNL A   1      38.440  32.767  35.053  1.00  0.00     0.074 A 
ATOM     64  C   UNL A   1      37.068  33.157  34.768  1.00  0.00     0.031 C 
ATOM     65  C   UNL A   1      39.069  32.384  36.202  1.00  0.00     0.037 A 
BRANCH  52  66
ATOM     66  C   UNL A   1      43.199  27.924  36.717  1.00  0.00     0.058 A 
ATOM     67  C   UNL A   1      42.839  26.732  37.381  1.00  0.00     0.135 A 
ATOM     68  C   UNL A   1      44.559  28.281  36.840  1.00  0.00     0.135 A 
ATOM     69  F   UNL A   1      41.592  26.243  37.322  1.00  0.00    -0.206 F 
ATOM     70  C   UNL A   1      43.733  25.979  38.134  1.00  0.00     0.059 A 
ATOM     71  C   UNL A   1      45.469  27.562  37.628  1.00  0.00     0.059 A 
ATOM     72  F   UNL A   1      45.081  29.309  36.157  1.00  0.00    -0.206 F 
ATOM     73  C   UNL A   1      45.046  26.403  38.263  1.00  0.00     0.060 A 
BRANCH  73  74
ATOM     74  S   UNL A   1      46.176  25.384  39.224  1.00  0.00     0.124 S 
ATOM     75  O   UNL A   1      45.270  24.418  39.839  1.00  0.00    -0.237 OA
ATOM     76  O   UNL A   1      47.058  24.856  38.189  1.00  0.00    -0.237 OA
ATOM     77  O   UNL A   1      46.792  26.332  40.147  1.00  0.00    -0.744 OA
ENDBRANCH  73  74
ENDBRANCH  52  66
BRANCH  53  78
ATOM     78  C   UNL A   1      37.531  32.929  30.427  1.00  0.00     0.058 A 
ATOM     79  C   UNL A   1      36.404  32.228  30.885  1.00  0.00     0.135 A 
ATOM     80  C   UNL A   1      37.421  33.733  29.285  1.00  0.00     0.135 A 
ATOM     81  F   UNL A   1      36.504  31.378  31.919  1.00  0.00    -0.206 F 
ATOM     82  C   UNL A   1      35.147  32.579  30.445  1.00  0.00     0.059 A 
ATOM     83  C   UNL A   1      36.174  34.122  28.849  1.00  0.00     0.059 A 
ATOM     84  F   UNL A   1      38.498  34.327  28.752  1.00  0.00    -0.206 F 
ATOM     85  C   UNL A   1      35.061  33.615  29.523  1.00  0.00     0.060 A 
BRANCH  85  86
ATOM     86  S   UNL A   1      33.545  34.553  29.472  1.00  0.00     0.124 S 
ATOM     87  O   UNL A   1      33.955  35.837  28.917  1.00  0.00    -0.237 OA
ATOM     88  O   UNL A   1      32.791  33.705  28.555  1.00  0.00    -0.237 OA
ATOM     89  O   UNL A   1      33.154  34.572  30.879  1.00  0.00    -0.744 OA
ENDBRANCH  85  86
ENDBRANCH  53  78
BRANCH  65  90
ATOM     90  C   UNL A   1      38.382  32.441  37.532  1.00  0.00     0.058 A 
ATOM     91  C   UNL A   1      38.547  33.546  38.384  1.00  0.00     0.135 A 
ATOM     92  C   UNL A   1      37.605  31.378  38.040  1.00  0.00     0.135 A 
ATOM     93  F   UNL A   1      39.390  34.542  38.072  1.00  0.00    -0.206 F 
ATOM     94  C   UNL A   1      37.853  33.662  39.580  1.00  0.00     0.059 A 
ATOM     95  C   UNL A   1      36.960  31.442  39.264  1.00  0.00     0.059 A 
ATOM     96  F   UNL A   1      37.406  30.242  37.361  1.00  0.00    -0.206 F 
ATOM     97  C   UNL A   1      37.043  32.612  39.999  1.00  0.00     0.060 A 
BRANCH  97  98
ATOM     98  S   UNL A   1      36.103  32.783  41.516  1.00  0.00     0.124 S 
ATOM     99  O   UNL A   1      34.882  32.042  41.213  1.00  0.00    -0.237 OA
ATOM    100  O   UNL A   1      37.002  32.157  42.481  1.00  0.00    -0.237 OA
ATOM    101  O   UNL A   1      35.936  34.227  41.651  1.00  0.00    -0.744 OA
ENDBRANCH  97  98
ENDBRANCH  65  90
ENDBRANCH  39  40
ENDBRANCH  32  34
ENDBRANCH  31  32
ENDBRANCH  30  31
ENDBRANCH  29  30
ENDBRANCH  28  29
ENDBRANCH  27  28
ENDBRANCH   1  27
TORSDOF 23
ENDMDL
MODEL 3
REMARK VINA RESULT:     -10.2      6.059     11.322
REMARK SMILES Cc1cc(NC(=O)N2CCO[C@@H](CC(=O)OCCOCCOCCOC(=O)c3ccc(-c4c5nc(c(-c6c(F)cc(S(=O)(=O)[O-])cc6F)c6ccc([nH]6)c(-c6c(F)cc(S(=O)(=O)[O-])cc6F)c6nc(c(-c7c(F)cc(S(=O)(=O)[O-])cc7F)c7ccc4[nH]7)C=C6)C=C5)cc3)C2)ccc1F
REMARK SMILES IDX 20 1 19 2 18 3 17 4 16 5 14 6 15 7 13 8 12 9 8 10 9 11 94 12
REMARK SMILES IDX 10 13 11 14 6 15 5 16 7 18 4 19 1 20 2 21 3 22 97 23 96 24
REMARK SMILES IDX 98 25 95 26 21 27 22 28 23 29 24 30 25 31 26 32 27 33 28 34
REMARK SMILES IDX 29 35 93 36 30 37 92 38 31 39 32 40 33 41 86 42 34 43 91 44
REMARK SMILES IDX 85 45 87 46 35 47 90 48 84 49 83 50 36 52 70 53 49 54 69 55
REMARK SMILES IDX 50 56 53 57 68 58 88 59 51 60 52 61 67 63 89 64 54 65 37 66
REMARK SMILES IDX 38 67 47 68 39 69 40 70 46 71 48 72 41 73 42 74 43 75 44 76
REMARK SMILES IDX 45 77 71 78 72 79 81 80 73 81 74 82 80 83 82 84 75 85 76 86
REMARK SMILES IDX 77 87 78 88 79 89 55 90 56 91 65 92 57 93 58 94 64 95 66 96
REMARK SMILES IDX 59 97 60 98 61 99 62 100 63 101
REMARK H PARENT 5 17 87 51 53 62
REMARK Flexibility Score: inf
ROOT
ATOM      1  C   UNL A   1      43.415  22.897  25.588  1.00  0.00     0.188 C 
ENDROOT
BRANCH   1   2
ATOM      2  O   UNL A   1      42.294  22.025  25.420  1.00  0.00    -0.376 OA
BRANCH   2   3
ATOM      3  C   UNL A   1      41.142  22.316  26.190  1.00  0.00     0.202 C 
BRANCH   3   4
ATOM      4  C   UNL A   1      40.148  21.158  26.407  1.00  0.00     0.261 C 
BRANCH   4   5
ATOM      5  O   UNL A   1      38.972  21.145  25.554  1.00  0.00    -0.463 OA
BRANCH   5   6
ATOM      6  C   UNL A   1      38.200  22.252  25.529  1.00  0.00     0.308 C 
ATOM      7  O   UNL A   1      38.292  23.146  26.369  1.00  0.00    -0.252 OA
BRANCH   6   8
ATOM      8  C   UNL A   1      37.293  22.444  24.317  1.00  0.00     0.156 C 
BRANCH   8   9
ATOM      9  C   UNL A   1      35.760  22.352  24.196  1.00  0.00     0.149 C 
ATOM     10  N   UNL A   1      33.445  22.732  25.052  1.00  0.00    -0.320 N 
ATOM     11  C   UNL A   1      33.195  23.653  23.949  1.00  0.00     0.150 C 
ATOM     12  C   UNL A   1      34.876  22.648  25.429  1.00  0.00     0.154 C 
ATOM     13  C   UNL A   1      34.085  23.312  22.754  1.00  0.00     0.182 C 
ATOM     14  O   UNL A   1      35.462  23.336  23.144  1.00  0.00    -0.374 OA
BRANCH  10  15
ATOM     15  C   UNL A   1      32.483  22.230  25.897  1.00  0.00     0.322 C 
ATOM     16  N   UNL A   1      31.920  20.998  25.710  1.00  0.00    -0.308 N 
ATOM     17  H   UNL A   1      31.014  20.927  26.090  1.00  0.00     0.171 HD
ATOM     18  O   UNL A   1      32.006  22.939  26.793  1.00  0.00    -0.248 OA
BRANCH  16  19
ATOM     19  C   UNL A   1      32.352  19.804  25.092  1.00  0.00     0.043 A 
ATOM     20  C   UNL A   1      32.388  18.256  21.590  1.00  0.00     0.047 C 
ATOM     21  C   UNL A   1      32.597  18.471  23.056  1.00  0.00    -0.013 A 
ATOM     22  C   UNL A   1      32.146  19.634  23.714  1.00  0.00     0.032 A 
ATOM     23  C   UNL A   1      33.269  17.494  23.792  1.00  0.00     0.126 A 
ATOM     24  C   UNL A   1      33.426  17.619  25.159  1.00  0.00     0.041 A 
ATOM     25  F   UNL A   1      33.742  16.399  23.180  1.00  0.00    -0.207 F 
ATOM     26  C   UNL A   1      32.923  18.751  25.797  1.00  0.00     0.029 A 
ENDBRANCH  16  19
ENDBRANCH  10  15
ENDBRANCH   8   9
ENDBRANCH   6   8
ENDBRANCH   5   6
ENDBRANCH   4   5
ENDBRANCH   3   4
ENDBRANCH   2   3
ENDBRANCH   1   2
BRANCH   1  27
ATOM     27  C   UNL A   1      43.260  24.388  25.167  1.00  0.00     0.188 C 
BRANCH  27  28
ATOM     28  O   UNL A   1      42.934  25.245  26.246  1.00  0.00    -0.376 OA
BRANCH  28  29
ATOM     29  C   UNL A   1      41.738  25.964  26.065  1.00  0.00     0.202 C 
BRANCH  29  30
ATOM     30  C   UNL A   1      41.318  26.864  27.233  1.00  0.00     0.261 C 
BRANCH  30  31
ATOM     31  O   UNL A   1      39.983  27.394  27.336  1.00  0.00    -0.460 OA
BRANCH  31  32
ATOM     32  C   UNL A   1      39.450  27.407  28.572  1.00  0.00     0.338 C 
ATOM     33  O   UNL A   1      39.332  26.489  29.352  1.00  0.00    -0.246 OA
BRANCH  32  34
ATOM     34  C   UNL A   1      38.811  28.644  28.990  1.00  0.00     0.060 A 
ATOM     35  C   UNL A   1      39.666  29.748  28.736  1.00  0.00     0.016 A 
ATOM     36  C   UNL A   1      38.089  28.496  30.164  1.00  0.00     0.016 A 
ATOM     37  C   UNL A   1      40.133  30.457  29.812  1.00  0.00     0.010 A 
ATOM     38  C   UNL A   1      38.489  29.268  31.216  1.00  0.00     0.010 A 
ATOM     39  C   UNL A   1      39.553  30.175  31.041  1.00  0.00    -0.014 A 
BRANCH  39  40
ATOM     40  C   UNL A   1      39.740  31.068  32.147  1.00  0.00     0.031 A 
ATOM     41  C   UNL A   1      40.604  30.498  33.208  1.00  0.00     0.074 A 
ATOM     42  C   UNL A   1      39.365  32.347  31.947  1.00  0.00     0.049 A 
ATOM     43  N   UNL A   1      40.708  30.946  34.405  1.00  0.00    -0.248 NA
ATOM     44  C   UNL A   1      41.362  29.242  33.016  1.00  0.00     0.031 C 
ATOM     45  C   UNL A   1      39.946  33.538  32.534  1.00  0.00     0.029 A 
ATOM     46  N   UNL A   1      38.304  32.853  31.186  1.00  0.00    -0.354 N 
ATOM     47  C   UNL A   1      41.825  30.328  34.940  1.00  0.00     0.074 A 
ATOM     48  C   UNL A   1      42.036  29.141  34.161  1.00  0.00     0.031 C 
ATOM     49  C   UNL A   1      39.087  34.561  32.362  1.00  0.00     0.029 A 
ATOM     50  C   UNL A   1      37.843  33.995  31.863  1.00  0.00     0.049 A 
ATOM     51  H   UNL A   1      37.953  32.482  30.345  1.00  0.00     0.167 HD
ATOM     52  C   UNL A   1      42.616  31.037  35.791  1.00  0.00     0.037 A 
ATOM     53  C   UNL A   1      36.666  34.027  32.575  1.00  0.00     0.037 A 
ATOM     54  C   UNL A   1      42.042  32.367  35.977  1.00  0.00     0.049 A 
ATOM     55  C   UNL A   1      36.864  34.059  34.077  1.00  0.00     0.074 A 
ATOM     56  C   UNL A   1      42.231  33.579  35.331  1.00  0.00     0.029 A 
ATOM     57  N   UNL A   1      40.829  32.468  36.618  1.00  0.00    -0.354 N 
ATOM     58  N   UNL A   1      38.023  34.005  34.670  1.00  0.00    -0.248 NA
ATOM     59  C   UNL A   1      35.748  34.046  35.020  1.00  0.00     0.031 C 
ATOM     60  C   UNL A   1      41.087  34.395  35.584  1.00  0.00     0.029 A 
ATOM     61  C   UNL A   1      40.213  33.678  36.380  1.00  0.00     0.049 A 
ATOM     62  H   UNL A   1      40.445  31.758  37.181  1.00  0.00     0.167 HD
ATOM     63  C   UNL A   1      37.841  33.930  36.019  1.00  0.00     0.074 A 
ATOM     64  C   UNL A   1      36.397  33.929  36.189  1.00  0.00     0.031 C 
ATOM     65  C   UNL A   1      38.873  33.861  36.909  1.00  0.00     0.037 A 
BRANCH  52  66
ATOM     66  C   UNL A   1      44.019  30.664  36.199  1.00  0.00     0.058 A 
ATOM     67  C   UNL A   1      44.365  30.679  37.567  1.00  0.00     0.135 A 
ATOM     68  C   UNL A   1      45.061  30.273  35.331  1.00  0.00     0.135 A 
ATOM     69  F   UNL A   1      43.471  30.991  38.515  1.00  0.00    -0.206 F 
ATOM     70  C   UNL A   1      45.639  30.375  38.035  1.00  0.00     0.059 A 
ATOM     71  C   UNL A   1      46.363  30.003  35.773  1.00  0.00     0.059 A 
ATOM     72  F   UNL A   1      44.850  30.080  34.022  1.00  0.00    -0.206 F 
ATOM     73  C   UNL A   1      46.639  30.046  37.132  1.00  0.00     0.060 A 
BRANCH  73  74
ATOM     74  S   UNL A   1      48.265  29.633  37.783  1.00  0.00     0.124 S 
ATOM     75  O   UNL A   1      48.551  30.776  38.645  1.00  0.00    -0.237 OA
ATOM     76  O   UNL A   1      48.002  28.373  38.469  1.00  0.00    -0.237 OA
ATOM     77  O   UNL A   1      49.097  29.532  36.588  1.00  0.00    -0.744 OA
ENDBRANCH  73  74
ENDBRANCH  52  66
BRANCH  53  78
ATOM     78  C   UNL A   1      35.544  33.281  31.950  1.00  0.00     0.058 A 
ATOM     79  C   UNL A   1      34.743  34.001  31.048  1.00  0.00     0.135 A 
ATOM     80  C   UNL A   1      35.684  31.897  31.789  1.00  0.00     0.135 A 
ATOM     81  F   UNL A   1      34.515  35.311  31.234  1.00  0.00    -0.206 F 
ATOM     82  C   UNL A   1      34.384  33.439  29.844  1.00  0.00     0.059 A 
ATOM     83  C   UNL A   1      35.361  31.320  30.580  1.00  0.00     0.059 A 
ATOM     84  F   UNL A   1      36.346  31.160  32.692  1.00  0.00    -0.206 F 
ATOM     85  C   UNL A   1      34.818  32.143  29.591  1.00  0.00     0.060 A 
BRANCH  85  86
ATOM     86  S   UNL A   1      35.014  31.653  27.887  1.00  0.00     0.124 S 
ATOM     87  O   UNL A   1      33.651  31.378  27.450  1.00  0.00    -0.237 OA
ATOM     88  O   UNL A   1      35.583  32.892  27.366  1.00  0.00    -0.237 OA
ATOM     89  O   UNL A   1      35.884  30.487  28.006  1.00  0.00    -0.744 OA
ENDBRANCH  85  86
ENDBRANCH  53  78
BRANCH  65  90
ATOM     90  C   UNL A   1      38.641  33.913  38.389  1.00  0.00     0.058 A 
ATOM     91  C   UNL A   1      39.044  35.025  39.146  1.00  0.00     0.135 A 
ATOM     92  C   UNL A   1      38.088  32.837  39.116  1.00  0.00     0.135 A 
ATOM     93  F   UNL A   1      39.724  36.036  38.583  1.00  0.00    -0.206 F 
ATOM     94  C   UNL A   1      38.762  35.135  40.500  1.00  0.00     0.059 A 
ATOM     95  C   UNL A   1      37.861  32.896  40.481  1.00  0.00     0.059 A 
ATOM     96  F   UNL A   1      37.708  31.694  38.534  1.00  0.00    -0.206 F 
ATOM     97  C   UNL A   1      38.149  34.071  41.153  1.00  0.00     0.060 A 
BRANCH  97  98
ATOM     98  S   UNL A   1      37.733  34.232  42.889  1.00  0.00     0.124 S 
ATOM     99  O   UNL A   1      38.448  33.110  43.489  1.00  0.00    -0.237 OA
ATOM    100  O   UNL A   1      38.268  35.557  43.189  1.00  0.00    -0.237 OA
ATOM    101  O   UNL A   1      36.278  34.121  42.902  1.00  0.00    -0.744 OA
ENDBRANCH  97  98
ENDBRANCH  65  90
ENDBRANCH  39  40
ENDBRANCH  32  34
ENDBRANCH  31  32
ENDBRANCH  30  31
ENDBRANCH  29  30
ENDBRANCH  28  29
ENDBRANCH  27  28
ENDBRANCH   1  27
TORSDOF 23
ENDMDL
