MODEL 1
REMARK VINA RESULT:     -11.2      0.000      0.000
REMARK SMILES CCn1c([C@@H]2CCC[N@@H+](Cc3ccc(C(=O)OCCOCCOCCOC(=O)c4ccc(-c5c6nc(c(-c7c(F)cc(S(=O)(=O)[O-])cc7F)c7ccc([nH]7)c(-c7c(F)cc(S(=O)(=O)[O-])cc7F)c7nc(c(-c8c(F)cc(S(=O)(=O)[O-])cc8F)c8ccc5[nH]8)C=C7)C=C6)cc4)cc3)C2)nn(C)c1=O
REMARK SMILES IDX 21 1 20 2 19 3 18 4 17 5 15 6 16 7 14 8 11 9 12 10 96 11
REMARK SMILES IDX 13 12 95 13 10 14 9 15 5 16 6 17 97 18 7 19 8 20 4 22 3 23
REMARK SMILES IDX 101 24 98 25 99 26 102 27 100 28 2 29 1 30 22 31 23 32 24 33
REMARK SMILES IDX 25 34 26 35 27 36 28 37 29 38 30 39 94 40 31 41 93 42 32 43
REMARK SMILES IDX 33 44 34 45 87 46 35 47 92 48 86 49 88 50 36 51 91 52 85 53
REMARK SMILES IDX 84 54 37 56 71 57 50 58 70 59 51 60 54 61 69 62 89 63 52 64
REMARK SMILES IDX 53 65 68 67 90 68 55 69 38 70 39 71 48 72 40 73 41 74 47 75
REMARK SMILES IDX 49 76 42 77 43 78 44 79 45 80 46 81 72 82 73 83 82 84 74 85
REMARK SMILES IDX 75 86 81 87 83 88 76 89 77 90 78 91 79 92 80 93 56 94 57 95
REMARK SMILES IDX 66 96 58 97 59 98 65 99 67 100 60 101 61 102 62 103 63 104
REMARK SMILES IDX 64 105
REMARK H PARENT 9 21 88 55 54 66
REMARK Flexibility Score: inf
ROOT
ATOM      1  C   UNL A   1      37.208  20.578  24.561  1.00  0.00     0.188 C 
ENDROOT
BRANCH   1   2
ATOM      2  O   UNL A   1      36.104  19.801  25.000  1.00  0.00    -0.376 OA
BRANCH   2   3
ATOM      3  C   UNL A   1      36.080  18.396  24.774  1.00  0.00     0.202 C 
BRANCH   3   4
ATOM      4  C   UNL A   1      34.769  17.651  24.462  1.00  0.00     0.261 C 
BRANCH   4   5
ATOM      5  O   UNL A   1      33.738  18.484  23.924  1.00  0.00    -0.460 OA
BRANCH   5   6
ATOM      6  C   UNL A   1      32.862  18.986  24.820  1.00  0.00     0.338 C 
ATOM      7  O   UNL A   1      32.517  18.482  25.875  1.00  0.00    -0.246 OA
BRANCH   6   8
ATOM      8  C   UNL A   1      32.506  20.368  24.442  1.00  0.00     0.060 A 
ATOM      9  C   UNL A   1      31.565  22.914  23.849  1.00  0.00     0.006 A 
ATOM     10  C   UNL A   1      31.674  22.506  25.187  1.00  0.00     0.010 A 
ATOM     11  C   UNL A   1      32.098  22.113  22.827  1.00  0.00     0.010 A 
ATOM     12  C   UNL A   1      32.116  21.224  25.479  1.00  0.00     0.016 A 
ATOM     13  C   UNL A   1      32.563  20.830  23.123  1.00  0.00     0.016 A 
BRANCH   9  14
ATOM     14  C   UNL A   1      30.604  24.041  23.527  1.00  0.00     0.299 C 
BRANCH  14  15
ATOM     15  N   UNL A   1      31.281  25.296  23.089  1.00  0.00    -0.331 N 
ATOM     16  C   UNL A   1      32.247  27.461  23.805  1.00  0.00     0.113 C 
ATOM     17  C   UNL A   1      33.294  27.398  22.695  1.00  0.00     0.023 C 
ATOM     18  C   UNL A   1      31.703  26.100  24.232  1.00  0.00     0.274 C 
ATOM     19  C   UNL A   1      33.052  26.342  21.626  1.00  0.00     0.062 C 
ATOM     20  C   UNL A   1      32.395  25.072  22.151  1.00  0.00     0.262 C 
ATOM     21  H   UNL A   1      30.578  25.820  22.568  1.00  0.00     0.348 HD
BRANCH  16  22
ATOM     22  C   UNL A   1      31.150  28.510  23.684  1.00  0.00     0.142 A 
ATOM     23  N   UNL A   1      30.982  29.647  24.385  1.00  0.00    -0.279 N 
ATOM     24  C   UNL A   1      29.869  30.261  23.844  1.00  0.00     0.345 A 
ATOM     25  N   UNL A   1      30.247  28.325  22.754  1.00  0.00    -0.155 NA
ATOM     26  N   UNL A   1      29.432  29.412  22.841  1.00  0.00    -0.216 N 
ATOM     27  O   UNL A   1      29.355  31.312  24.195  1.00  0.00    -0.246 OA
ATOM     28  C   UNL A   1      28.268  29.574  22.019  1.00  0.00     0.179 C 
BRANCH  23  29
ATOM     29  C   UNL A   1      31.620  30.231  25.552  1.00  0.00     0.125 C 
ATOM     30  C   UNL A   1      31.769  29.290  26.737  1.00  0.00     0.028 C 
ENDBRANCH  23  29
ENDBRANCH  16  22
ENDBRANCH  14  15
ENDBRANCH   9  14
ENDBRANCH   6   8
ENDBRANCH   5   6
ENDBRANCH   4   5
ENDBRANCH   3   4
ENDBRANCH   2   3
ENDBRANCH   1   2
BRANCH   1  31
ATOM     31  C   UNL A   1      37.485  21.969  25.170  1.00  0.00     0.188 C 
BRANCH  31  32
ATOM     32  O   UNL A   1      38.667  22.077  25.932  1.00  0.00    -0.376 OA
BRANCH  32  33
ATOM     33  C   UNL A   1      39.520  20.967  26.161  1.00  0.00     0.202 C 
BRANCH  33  34
ATOM     34  C   UNL A   1      41.047  20.971  26.023  1.00  0.00     0.261 C 
BRANCH  34  35
ATOM     35  O   UNL A   1      41.758  21.957  26.741  1.00  0.00    -0.460 OA
BRANCH  35  36
ATOM     36  C   UNL A   1      42.109  23.029  25.996  1.00  0.00     0.338 C 
ATOM     37  O   UNL A   1      42.869  23.035  25.043  1.00  0.00    -0.246 OA
BRANCH  36  38
ATOM     38  C   UNL A   1      41.427  24.218  26.521  1.00  0.00     0.060 A 
ATOM     39  C   UNL A   1      41.601  25.408  25.812  1.00  0.00     0.016 A 
ATOM     40  C   UNL A   1      40.852  24.191  27.801  1.00  0.00     0.016 A 
ATOM     41  C   UNL A   1      41.406  26.597  26.476  1.00  0.00     0.010 A 
ATOM     42  C   UNL A   1      40.664  25.382  28.467  1.00  0.00     0.010 A 
ATOM     43  C   UNL A   1      41.043  26.559  27.826  1.00  0.00    -0.014 A 
BRANCH  43  44
ATOM     44  C   UNL A   1      41.226  27.781  28.581  1.00  0.00     0.031 A 
ATOM     45  C   UNL A   1      42.337  28.653  28.160  1.00  0.00     0.074 A 
ATOM     46  C   UNL A   1      40.391  28.106  29.585  1.00  0.00     0.049 A 
ATOM     47  N   UNL A   1      43.392  28.974  28.833  1.00  0.00    -0.248 NA
ATOM     48  C   UNL A   1      42.308  29.167  26.786  1.00  0.00     0.031 C 
ATOM     49  C   UNL A   1      39.102  27.493  29.921  1.00  0.00     0.029 A 
ATOM     50  N   UNL A   1      40.478  29.148  30.453  1.00  0.00    -0.354 N 
ATOM     51  C   UNL A   1      44.073  29.891  28.042  1.00  0.00     0.074 A 
ATOM     52  C   UNL A   1      43.440  29.868  26.747  1.00  0.00     0.031 C 
ATOM     53  C   UNL A   1      38.435  28.315  30.760  1.00  0.00     0.029 A 
ATOM     54  C   UNL A   1      39.290  29.440  31.101  1.00  0.00     0.049 A 
ATOM     55  H   UNL A   1      41.312  29.649  30.607  1.00  0.00     0.167 HD
ATOM     56  C   UNL A   1      44.979  30.760  28.563  1.00  0.00     0.037 A 
ATOM     57  C   UNL A   1      39.006  30.586  31.765  1.00  0.00     0.037 A 
ATOM     58  C   UNL A   1      45.439  30.360  29.866  1.00  0.00     0.049 A 
ATOM     59  C   UNL A   1      40.302  31.218  32.140  1.00  0.00     0.074 A 
ATOM     60  C   UNL A   1      46.053  29.225  30.363  1.00  0.00     0.029 A 
ATOM     61  N   UNL A   1      44.982  31.044  30.967  1.00  0.00    -0.354 N 
ATOM     62  N   UNL A   1      41.138  30.723  33.013  1.00  0.00    -0.248 NA
ATOM     63  C   UNL A   1      40.874  32.200  31.228  1.00  0.00     0.031 C 
ATOM     64  C   UNL A   1      45.512  29.047  31.668  1.00  0.00     0.029 A 
ATOM     65  C   UNL A   1      44.624  30.100  31.898  1.00  0.00     0.049 A 
ATOM     66  H   UNL A   1      44.923  32.021  31.068  1.00  0.00     0.167 HD
ATOM     67  C   UNL A   1      42.399  31.008  32.507  1.00  0.00     0.074 A 
ATOM     68  C   UNL A   1      42.173  32.007  31.467  1.00  0.00     0.031 C 
ATOM     69  C   UNL A   1      43.479  30.216  32.778  1.00  0.00     0.037 A 
BRANCH  56  70
ATOM     70  C   UNL A   1      45.209  32.133  27.998  1.00  0.00     0.058 A 
ATOM     71  C   UNL A   1      46.489  32.511  27.558  1.00  0.00     0.135 A 
ATOM     72  C   UNL A   1      44.258  33.173  28.110  1.00  0.00     0.135 A 
ATOM     73  F   UNL A   1      47.471  31.601  27.449  1.00  0.00    -0.206 F 
ATOM     74  C   UNL A   1      46.816  33.840  27.288  1.00  0.00     0.059 A 
ATOM     75  C   UNL A   1      44.544  34.493  27.789  1.00  0.00     0.059 A 
ATOM     76  F   UNL A   1      43.041  32.965  28.629  1.00  0.00    -0.206 F 
ATOM     77  C   UNL A   1      45.837  34.824  27.420  1.00  0.00     0.060 A 
BRANCH  77  78
ATOM     78  S   UNL A   1      46.278  36.554  27.186  1.00  0.00     0.124 S 
ATOM     79  O   UNL A   1      44.969  37.193  27.246  1.00  0.00    -0.237 OA
ATOM     80  O   UNL A   1      47.164  36.803  28.317  1.00  0.00    -0.237 OA
ATOM     81  O   UNL A   1      46.926  36.559  25.878  1.00  0.00    -0.744 OA
ENDBRANCH  77  78
ENDBRANCH  56  70
BRANCH  57  82
ATOM     82  C   UNL A   1      37.708  31.312  31.762  1.00  0.00     0.058 A 
ATOM     83  C   UNL A   1      36.949  31.448  32.937  1.00  0.00     0.135 A 
ATOM     84  C   UNL A   1      37.295  32.101  30.666  1.00  0.00     0.135 A 
ATOM     85  F   UNL A   1      37.289  30.767  34.041  1.00  0.00    -0.206 F 
ATOM     86  C   UNL A   1      35.870  32.336  33.029  1.00  0.00     0.059 A 
ATOM     87  C   UNL A   1      36.210  32.971  30.726  1.00  0.00     0.059 A 
ATOM     88  F   UNL A   1      37.990  32.128  29.520  1.00  0.00    -0.206 F 
ATOM     89  C   UNL A   1      35.516  33.102  31.918  1.00  0.00     0.060 A 
BRANCH  89  90
ATOM     90  S   UNL A   1      34.227  34.359  32.072  1.00  0.00     0.124 S 
ATOM     91  O   UNL A   1      33.364  33.781  33.097  1.00  0.00    -0.237 OA
ATOM     92  O   UNL A   1      34.992  35.536  32.468  1.00  0.00    -0.237 OA
ATOM     93  O   UNL A   1      33.650  34.417  30.731  1.00  0.00    -0.744 OA
ENDBRANCH  89  90
ENDBRANCH  57  82
BRANCH  69  94
ATOM     94  C   UNL A   1      43.370  29.190  33.879  1.00  0.00     0.058 A 
ATOM     95  C   UNL A   1      42.879  27.886  33.689  1.00  0.00     0.135 A 
ATOM     96  C   UNL A   1      43.941  29.480  35.129  1.00  0.00     0.135 A 
ATOM     97  F   UNL A   1      42.424  27.488  32.494  1.00  0.00    -0.206 F 
ATOM     98  C   UNL A   1      42.915  26.930  34.706  1.00  0.00     0.059 A 
ATOM     99  C   UNL A   1      44.018  28.531  36.148  1.00  0.00     0.059 A 
ATOM    100  F   UNL A   1      44.490  30.686  35.355  1.00  0.00    -0.206 F 
ATOM    101  C   UNL A   1      43.490  27.261  35.932  1.00  0.00     0.060 A 
BRANCH 101 102
ATOM    102  S   UNL A   1      43.627  25.988  37.208  1.00  0.00     0.124 S 
ATOM    103  O   UNL A   1      43.411  26.755  38.430  1.00  0.00    -0.237 OA
ATOM    104  O   UNL A   1      42.562  25.056  36.847  1.00  0.00    -0.237 OA
ATOM    105  O   UNL A   1      44.981  25.469  37.027  1.00  0.00    -0.744 OA
ENDBRANCH 101 102
ENDBRANCH  69  94
ENDBRANCH  43  44
ENDBRANCH  36  38
ENDBRANCH  35  36
ENDBRANCH  34  35
ENDBRANCH  33  34
ENDBRANCH  32  33
ENDBRANCH  31  32
ENDBRANCH   1  31
TORSDOF 24
ENDMDL
MODEL 2
REMARK VINA RESULT:     -10.6      1.999      2.874
REMARK SMILES CCn1c([C@@H]2CCC[N@@H+](Cc3ccc(C(=O)OCCOCCOCCOC(=O)c4ccc(-c5c6nc(c(-c7c(F)cc(S(=O)(=O)[O-])cc7F)c7ccc([nH]7)c(-c7c(F)cc(S(=O)(=O)[O-])cc7F)c7nc(c(-c8c(F)cc(S(=O)(=O)[O-])cc8F)c8ccc5[nH]8)C=C7)C=C6)cc4)cc3)C2)nn(C)c1=O
REMARK SMILES IDX 21 1 20 2 19 3 18 4 17 5 15 6 16 7 14 8 11 9 12 10 96 11
REMARK SMILES IDX 13 12 95 13 10 14 9 15 5 16 6 17 97 18 7 19 8 20 4 22 3 23
REMARK SMILES IDX 101 24 98 25 99 26 102 27 100 28 2 29 1 30 22 31 23 32 24 33
REMARK SMILES IDX 25 34 26 35 27 36 28 37 29 38 30 39 94 40 31 41 93 42 32 43
REMARK SMILES IDX 33 44 34 45 87 46 35 47 92 48 86 49 88 50 36 51 91 52 85 53
REMARK SMILES IDX 84 54 37 56 71 57 50 58 70 59 51 60 54 61 69 62 89 63 52 64
REMARK SMILES IDX 53 65 68 67 90 68 55 69 38 70 39 71 48 72 40 73 41 74 47 75
REMARK SMILES IDX 49 76 42 77 43 78 44 79 45 80 46 81 72 82 73 83 82 84 74 85
REMARK SMILES IDX 75 86 81 87 83 88 76 89 77 90 78 91 79 92 80 93 56 94 57 95
REMARK SMILES IDX 66 96 58 97 59 98 65 99 67 100 60 101 61 102 62 103 63 104
REMARK SMILES IDX 64 105
REMARK H PARENT 9 21 88 55 54 66
REMARK Flexibility Score: inf
ROOT
ATOM      1  C   UNL A   1      36.556  20.507  25.024  1.00  0.00     0.188 C 
ENDROOT
BRANCH   1   2
ATOM      2  O   UNL A   1      35.514  19.599  24.701  1.00  0.00    -0.376 OA
BRANCH   2   3
ATOM      3  C   UNL A   1      35.741  18.195  24.758  1.00  0.00     0.202 C 
BRANCH   3   4
ATOM      4  C   UNL A   1      34.706  17.187  24.226  1.00  0.00     0.261 C 
BRANCH   4   5
ATOM      5  O   UNL A   1      33.625  17.786  23.507  1.00  0.00    -0.460 OA
BRANCH   5   6
ATOM      6  C   UNL A   1      32.554  18.141  24.248  1.00  0.00     0.338 C 
ATOM      7  O   UNL A   1      31.889  17.422  24.974  1.00  0.00    -0.246 OA
BRANCH   6   8
ATOM      8  C   UNL A   1      32.399  19.610  24.221  1.00  0.00     0.060 A 
ATOM      9  C   UNL A   1      31.857  22.332  24.328  1.00  0.00     0.006 A 
ATOM     10  C   UNL A   1      32.123  21.627  25.512  1.00  0.00     0.010 A 
ATOM     11  C   UNL A   1      32.044  21.708  23.086  1.00  0.00     0.010 A 
ATOM     12  C   UNL A   1      32.364  20.262  25.458  1.00  0.00     0.016 A 
ATOM     13  C   UNL A   1      32.307  20.337  23.030  1.00  0.00     0.016 A 
BRANCH   9  14
ATOM     14  C   UNL A   1      31.080  23.630  24.434  1.00  0.00     0.299 C 
BRANCH  14  15
ATOM     15  N   UNL A   1      31.944  24.827  24.646  1.00  0.00    -0.331 N 
ATOM     16  C   UNL A   1      32.189  26.998  25.812  1.00  0.00     0.113 C 
ATOM     17  C   UNL A   1      33.704  26.822  25.889  1.00  0.00     0.023 C 
ATOM     18  C   UNL A   1      31.412  25.689  25.697  1.00  0.00     0.274 C 
ATOM     19  C   UNL A   1      34.279  25.707  25.027  1.00  0.00     0.062 C 
ATOM     20  C   UNL A   1      33.361  24.500  24.887  1.00  0.00     0.262 C 
ATOM     21  H   UNL A   1      31.923  25.340  23.765  1.00  0.00     0.348 HD
BRANCH  16  22
ATOM     22  C   UNL A   1      31.648  28.076  24.883  1.00  0.00     0.142 A 
ATOM     23  N   UNL A   1      31.555  28.069  23.540  1.00  0.00    -0.279 N 
ATOM     24  C   UNL A   1      30.942  29.260  23.200  1.00  0.00     0.345 A 
ATOM     25  N   UNL A   1      31.168  29.159  25.440  1.00  0.00    -0.155 NA
ATOM     26  N   UNL A   1      30.722  29.916  24.401  1.00  0.00    -0.216 N 
ATOM     27  O   UNL A   1      30.678  29.668  22.080  1.00  0.00    -0.246 OA
ATOM     28  C   UNL A   1      30.165  31.224  24.580  1.00  0.00     0.179 C 
BRANCH  23  29
ATOM     29  C   UNL A   1      32.028  27.187  22.488  1.00  0.00     0.125 C 
ATOM     30  C   UNL A   1      33.492  27.361  22.118  1.00  0.00     0.028 C 
ENDBRANCH  23  29
ENDBRANCH  16  22
ENDBRANCH  14  15
ENDBRANCH   9  14
ENDBRANCH   6   8
ENDBRANCH   5   6
ENDBRANCH   4   5
ENDBRANCH   3   4
ENDBRANCH   2   3
ENDBRANCH   1   2
BRANCH   1  31
ATOM     31  C   UNL A   1      36.269  22.017  25.172  1.00  0.00     0.188 C 
BRANCH  31  32
ATOM     32  O   UNL A   1      37.402  22.855  25.186  1.00  0.00    -0.376 OA
BRANCH  32  33
ATOM     33  C   UNL A   1      38.471  22.663  26.100  1.00  0.00     0.202 C 
BRANCH  33  34
ATOM     34  C   UNL A   1      39.363  21.418  26.180  1.00  0.00     0.261 C 
BRANCH  34  35
ATOM     35  O   UNL A   1      40.379  21.413  27.159  1.00  0.00    -0.460 OA
BRANCH  35  36
ATOM     36  C   UNL A   1      41.610  21.145  26.670  1.00  0.00     0.338 C 
ATOM     37  O   UNL A   1      41.989  20.088  26.194  1.00  0.00    -0.246 OA
BRANCH  36  38
ATOM     38  C   UNL A   1      42.447  22.343  26.802  1.00  0.00     0.060 A 
ATOM     39  C   UNL A   1      43.070  22.543  28.035  1.00  0.00     0.016 A 
ATOM     40  C   UNL A   1      42.400  23.345  25.820  1.00  0.00     0.016 A 
ATOM     41  C   UNL A   1      43.452  23.820  28.373  1.00  0.00     0.010 A 
ATOM     42  C   UNL A   1      42.776  24.625  26.163  1.00  0.00     0.010 A 
ATOM     43  C   UNL A   1      43.199  24.857  27.470  1.00  0.00    -0.014 A 
BRANCH  43  44
ATOM     44  C   UNL A   1      43.246  26.204  27.999  1.00  0.00     0.031 A 
ATOM     45  C   UNL A   1      44.473  26.973  27.727  1.00  0.00     0.074 A 
ATOM     46  C   UNL A   1      42.200  26.723  28.667  1.00  0.00     0.049 A 
ATOM     47  N   UNL A   1      45.335  27.420  28.580  1.00  0.00    -0.248 NA
ATOM     48  C   UNL A   1      44.828  27.204  26.322  1.00  0.00     0.031 C 
ATOM     49  C   UNL A   1      40.836  26.190  28.762  1.00  0.00     0.029 A 
ATOM     50  N   UNL A   1      42.116  27.916  29.311  1.00  0.00    -0.354 N 
ATOM     51  C   UNL A   1      46.245  28.161  27.837  1.00  0.00     0.074 A 
ATOM     52  C   UNL A   1      45.967  27.882  26.450  1.00  0.00     0.031 C 
ATOM     53  C   UNL A   1      40.020  27.164  29.223  1.00  0.00     0.029 A 
ATOM     54  C   UNL A   1      40.818  28.332  29.555  1.00  0.00     0.049 A 
ATOM     55  H   UNL A   1      42.907  28.436  29.581  1.00  0.00     0.167 HD
ATOM     56  C   UNL A   1      47.031  29.115  28.402  1.00  0.00     0.037 A 
ATOM     57  C   UNL A   1      40.434  29.588  29.890  1.00  0.00     0.037 A 
ATOM     58  C   UNL A   1      47.118  28.980  29.831  1.00  0.00     0.049 A 
ATOM     59  C   UNL A   1      41.621  30.280  30.466  1.00  0.00     0.074 A 
ATOM     60  C   UNL A   1      47.521  27.965  30.680  1.00  0.00     0.029 A 
ATOM     61  N   UNL A   1      46.430  29.869  30.622  1.00  0.00    -0.354 N 
ATOM     62  N   UNL A   1      42.176  29.966  31.606  1.00  0.00    -0.248 NA
ATOM     63  C   UNL A   1      42.461  31.060  29.566  1.00  0.00     0.031 C 
ATOM     64  C   UNL A   1      46.652  28.051  31.805  1.00  0.00     0.029 A 
ATOM     65  C   UNL A   1      45.793  29.129  31.588  1.00  0.00     0.049 A 
ATOM     66  H   UNL A   1      46.398  30.847  30.515  1.00  0.00     0.167 HD
ATOM     67  C   UNL A   1      43.539  30.144  31.405  1.00  0.00     0.074 A 
ATOM     68  C   UNL A   1      43.642  30.916  30.171  1.00  0.00     0.031 C 
ATOM     69  C   UNL A   1      44.468  29.419  32.097  1.00  0.00     0.037 A 
BRANCH  56  70
ATOM     70  C   UNL A   1      47.473  30.348  27.666  1.00  0.00     0.058 A 
ATOM     71  C   UNL A   1      48.835  30.686  27.605  1.00  0.00     0.135 A 
ATOM     72  C   UNL A   1      46.566  31.342  27.232  1.00  0.00     0.135 A 
ATOM     73  F   UNL A   1      49.773  29.820  28.025  1.00  0.00    -0.206 F 
ATOM     74  C   UNL A   1      49.268  31.942  27.182  1.00  0.00     0.059 A 
ATOM     75  C   UNL A   1      46.977  32.578  26.751  1.00  0.00     0.059 A 
ATOM     76  F   UNL A   1      45.240  31.191  27.351  1.00  0.00    -0.206 F 
ATOM     77  C   UNL A   1      48.328  32.885  26.770  1.00  0.00     0.060 A 
BRANCH  77  78
ATOM     78  S   UNL A   1      48.866  34.546  26.331  1.00  0.00     0.124 S 
ATOM     79  O   UNL A   1      48.342  34.669  24.976  1.00  0.00    -0.237 OA
ATOM     80  O   UNL A   1      48.209  35.362  27.347  1.00  0.00    -0.237 OA
ATOM     81  O   UNL A   1      50.319  34.466  26.444  1.00  0.00    -0.744 OA
ENDBRANCH  77  78
ENDBRANCH  56  70
BRANCH  57  82
ATOM     82  C   UNL A   1      39.221  30.300  29.407  1.00  0.00     0.058 A 
ATOM     83  C   UNL A   1      38.700  30.059  28.124  1.00  0.00     0.135 A 
ATOM     84  C   UNL A   1      38.400  31.051  30.275  1.00  0.00     0.135 A 
ATOM     85  F   UNL A   1      39.392  29.322  27.242  1.00  0.00    -0.206 F 
ATOM     86  C   UNL A   1      37.430  30.506  27.739  1.00  0.00     0.059 A 
ATOM     87  C   UNL A   1      37.146  31.529  29.907  1.00  0.00     0.059 A 
ATOM     88  F   UNL A   1      38.746  31.271  31.552  1.00  0.00    -0.206 F 
ATOM     89  C   UNL A   1      36.656  31.232  28.645  1.00  0.00     0.060 A 
BRANCH  89  90
ATOM     90  S   UNL A   1      34.958  31.679  28.214  1.00  0.00     0.124 S 
ATOM     91  O   UNL A   1      34.365  31.906  29.528  1.00  0.00    -0.237 OA
ATOM     92  O   UNL A   1      35.153  32.865  27.387  1.00  0.00    -0.237 OA
ATOM     93  O   UNL A   1      34.468  30.501  27.503  1.00  0.00    -0.744 OA
ENDBRANCH  89  90
ENDBRANCH  57  82
BRANCH  69  94
ATOM     94  C   UNL A   1      44.024  28.632  33.305  1.00  0.00     0.058 A 
ATOM     95  C   UNL A   1      43.856  29.189  34.585  1.00  0.00     0.135 A 
ATOM     96  C   UNL A   1      43.586  27.310  33.123  1.00  0.00     0.135 A 
ATOM     97  F   UNL A   1      44.138  30.478  34.817  1.00  0.00    -0.206 F 
ATOM     98  C   UNL A   1      43.320  28.455  35.644  1.00  0.00     0.059 A 
ATOM     99  C   UNL A   1      43.017  26.568  34.158  1.00  0.00     0.059 A 
ATOM    100  F   UNL A   1      43.654  26.739  31.908  1.00  0.00    -0.206 F 
ATOM    101  C   UNL A   1      42.900  27.145  35.420  1.00  0.00     0.060 A 
BRANCH 101 102
ATOM    102  S   UNL A   1      42.112  26.235  36.769  1.00  0.00     0.124 S 
ATOM    103  O   UNL A   1      43.229  26.010  37.680  1.00  0.00    -0.237 OA
ATOM    104  O   UNL A   1      41.092  27.170  37.234  1.00  0.00    -0.237 OA
ATOM    105  O   UNL A   1      41.591  25.038  36.112  1.00  0.00    -0.744 OA
ENDBRANCH 101 102
ENDBRANCH  69  94
ENDBRANCH  43  44
ENDBRANCH  36  38
ENDBRANCH  35  36
ENDBRANCH  34  35
ENDBRANCH  33  34
ENDBRANCH  32  33
ENDBRANCH  31  32
ENDBRANCH   1  31
TORSDOF 24
ENDMDL
MODEL 3
REMARK VINA RESULT:     -10.3      3.652      9.524
REMARK SMILES CCn1c([C@@H]2CCC[N@@H+](Cc3ccc(C(=O)OCCOCCOCCOC(=O)c4ccc(-c5c6nc(c(-c7c(F)cc(S(=O)(=O)[O-])cc7F)c7ccc([nH]7)c(-c7c(F)cc(S(=O)(=O)[O-])cc7F)c7nc(c(-c8c(F)cc(S(=O)(=O)[O-])cc8F)c8ccc5[nH]8)C=C7)C=C6)cc4)cc3)C2)nn(C)c1=O
REMARK SMILES IDX 21 1 20 2 19 3 18 4 17 5 15 6 16 7 14 8 11 9 12 10 96 11
REMARK SMILES IDX 13 12 95 13 10 14 9 15 5 16 6 17 97 18 7 19 8 20 4 22 3 23
REMARK SMILES IDX 101 24 98 25 99 26 102 27 100 28 2 29 1 30 22 31 23 32 24 33
REMARK SMILES IDX 25 34 26 35 27 36 28 37 29 38 30 39 94 40 31 41 93 42 32 43
REMARK SMILES IDX 33 44 34 45 87 46 35 47 92 48 86 49 88 50 36 51 91 52 85 53
REMARK SMILES IDX 84 54 37 56 71 57 50 58 70 59 51 60 54 61 69 62 89 63 52 64
REMARK SMILES IDX 53 65 68 67 90 68 55 69 38 70 39 71 48 72 40 73 41 74 47 75
REMARK SMILES IDX 49 76 42 77 43 78 44 79 45 80 46 81 72 82 73 83 82 84 74 85
REMARK SMILES IDX 75 86 81 87 83 88 76 89 77 90 78 91 79 92 80 93 56 94 57 95
REMARK SMILES IDX 66 96 58 97 59 98 65 99 67 100 60 101 61 102 62 103 63 104
REMARK SMILES IDX 64 105
REMARK H PARENT 9 21 88 55 54 66
REMARK Flexibility Score: inf
ROOT
ATOM      1  C   UNL A   1      38.842  27.570  28.974  1.00  0.00     0.188 C 
ENDROOT
BRANCH   1   2
ATOM      2  O   UNL A   1      38.851  26.231  28.502  1.00  0.00    -0.376 OA
BRANCH   2   3
ATOM      3  C   UNL A   1      39.926  25.760  27.697  1.00  0.00     0.202 C 
BRANCH   3   4
ATOM      4  C   UNL A   1      39.690  24.804  26.513  1.00  0.00     0.261 C 
BRANCH   4   5
ATOM      5  O   UNL A   1      38.413  24.161  26.528  1.00  0.00    -0.460 OA
BRANCH   5   6
ATOM      6  C   UNL A   1      38.402  22.870  26.133  1.00  0.00     0.338 C 
ATOM      7  O   UNL A   1      39.166  21.986  26.482  1.00  0.00    -0.246 OA
BRANCH   6   8
ATOM      8  C   UNL A   1      37.183  22.605  25.343  1.00  0.00     0.060 A 
ATOM      9  C   UNL A   1      34.777  22.356  23.977  1.00  0.00     0.006 A 
ATOM     10  C   UNL A   1      35.612  23.455  23.723  1.00  0.00     0.010 A 
ATOM     11  C   UNL A   1      35.237  21.299  24.777  1.00  0.00     0.010 A 
ATOM     12  C   UNL A   1      36.799  23.592  24.428  1.00  0.00     0.016 A 
ATOM     13  C   UNL A   1      36.441  21.426  25.471  1.00  0.00     0.016 A 
BRANCH   9  14
ATOM     14  C   UNL A   1      33.304  22.492  23.644  1.00  0.00     0.299 C 
BRANCH  14  15
ATOM     15  N   UNL A   1      32.607  23.545  24.437  1.00  0.00    -0.331 N 
ATOM     16  C   UNL A   1      30.692  25.111  24.528  1.00  0.00     0.113 C 
ATOM     17  C   UNL A   1      30.607  24.970  26.046  1.00  0.00     0.023 C 
ATOM     18  C   UNL A   1      31.337  23.922  23.823  1.00  0.00     0.274 C 
ATOM     19  C   UNL A   1      31.796  24.289  26.708  1.00  0.00     0.062 C 
ATOM     20  C   UNL A   1      32.433  23.198  25.858  1.00  0.00     0.262 C 
ATOM     21  H   UNL A   1      33.226  24.355  24.422  1.00  0.00     0.348 HD
BRANCH  16  22
ATOM     22  C   UNL A   1      31.168  26.444  23.967  1.00  0.00     0.142 A 
ATOM     23  N   UNL A   1      32.398  26.992  24.010  1.00  0.00    -0.279 N 
ATOM     24  C   UNL A   1      32.306  28.177  23.306  1.00  0.00     0.345 A 
ATOM     25  N   UNL A   1      30.292  27.167  23.316  1.00  0.00    -0.155 NA
ATOM     26  N   UNL A   1      30.985  28.260  22.896  1.00  0.00    -0.216 N 
ATOM     27  O   UNL A   1      33.189  28.998  23.113  1.00  0.00    -0.246 OA
ATOM     28  C   UNL A   1      30.369  29.339  22.182  1.00  0.00     0.179 C 
BRANCH  23  29
ATOM     29  C   UNL A   1      33.641  26.658  24.681  1.00  0.00     0.125 C 
ATOM     30  C   UNL A   1      33.849  27.345  26.022  1.00  0.00     0.028 C 
ENDBRANCH  23  29
ENDBRANCH  16  22
ENDBRANCH  14  15
ENDBRANCH   9  14
ENDBRANCH   6   8
ENDBRANCH   5   6
ENDBRANCH   4   5
ENDBRANCH   3   4
ENDBRANCH   2   3
ENDBRANCH   1   2
BRANCH   1  31
ATOM     31  C   UNL A   1      39.050  28.750  28.001  1.00  0.00     0.188 C 
BRANCH  31  32
ATOM     32  O   UNL A   1      38.901  30.035  28.561  1.00  0.00    -0.376 OA
BRANCH  32  33
ATOM     33  C   UNL A   1      37.627  30.628  28.760  1.00  0.00     0.202 C 
BRANCH  33  34
ATOM     34  C   UNL A   1      37.093  31.168  30.092  1.00  0.00     0.261 C 
BRANCH  34  35
ATOM     35  O   UNL A   1      38.037  31.685  31.006  1.00  0.00    -0.460 OA
BRANCH  35  36
ATOM     36  C   UNL A   1      37.696  31.513  32.302  1.00  0.00     0.338 C 
ATOM     37  O   UNL A   1      36.796  32.079  32.898  1.00  0.00    -0.246 OA
BRANCH  36  38
ATOM     38  C   UNL A   1      38.595  30.522  32.904  1.00  0.00     0.060 A 
ATOM     39  C   UNL A   1      39.800  30.999  33.423  1.00  0.00     0.016 A 
ATOM     40  C   UNL A   1      38.352  29.152  32.725  1.00  0.00     0.016 A 
ATOM     41  C   UNL A   1      40.848  30.117  33.553  1.00  0.00     0.010 A 
ATOM     42  C   UNL A   1      39.404  28.271  32.849  1.00  0.00     0.010 A 
ATOM     43  C   UNL A   1      40.659  28.789  33.162  1.00  0.00    -0.014 A 
BRANCH  43  44
ATOM     44  C   UNL A   1      41.855  28.001  32.943  1.00  0.00     0.031 A 
ATOM     45  C   UNL A   1      42.368  27.250  34.102  1.00  0.00     0.074 A 
ATOM     46  C   UNL A   1      42.430  27.939  31.728  1.00  0.00     0.049 A 
ATOM     47  N   UNL A   1      43.496  27.405  34.711  1.00  0.00    -0.248 NA
ATOM     48  C   UNL A   1      41.476  26.255  34.710  1.00  0.00     0.031 C 
ATOM     49  C   UNL A   1      41.881  28.391  30.445  1.00  0.00     0.029 A 
ATOM     50  N   UNL A   1      43.597  27.340  31.375  1.00  0.00    -0.354 N 
ATOM     51  C   UNL A   1      43.547  26.394  35.663  1.00  0.00     0.074 A 
ATOM     52  C   UNL A   1      42.231  25.808  35.712  1.00  0.00     0.031 C 
ATOM     53  C   UNL A   1      42.606  27.845  29.445  1.00  0.00     0.029 A 
ATOM     54  C   UNL A   1      43.721  27.109  30.016  1.00  0.00     0.049 A 
ATOM     55  H   UNL A   1      44.292  27.095  32.028  1.00  0.00     0.167 HD
ATOM     56  C   UNL A   1      44.721  25.967  36.200  1.00  0.00     0.037 A 
ATOM     57  C   UNL A   1      44.610  26.271  29.429  1.00  0.00     0.037 A 
ATOM     58  C   UNL A   1      45.790  26.909  36.004  1.00  0.00     0.049 A 
ATOM     59  C   UNL A   1      45.737  26.074  30.383  1.00  0.00     0.074 A 
ATOM     60  C   UNL A   1      45.975  28.238  36.339  1.00  0.00     0.029 A 
ATOM     61  N   UNL A   1      46.757  26.626  35.070  1.00  0.00    -0.354 N 
ATOM     62  N   UNL A   1      46.586  27.006  30.723  1.00  0.00    -0.248 NA
ATOM     63  C   UNL A   1      45.670  24.939  31.294  1.00  0.00     0.031 C 
ATOM     64  C   UNL A   1      46.705  28.799  35.252  1.00  0.00     0.029 A 
ATOM     65  C   UNL A   1      46.947  27.772  34.337  1.00  0.00     0.049 A 
ATOM     66  H   UNL A   1      47.223  25.768  34.948  1.00  0.00     0.167 HD
ATOM     67  C   UNL A   1      46.850  26.781  32.067  1.00  0.00     0.074 A 
ATOM     68  C   UNL A   1      46.343  25.439  32.333  1.00  0.00     0.031 C 
ATOM     69  C   UNL A   1      47.201  27.797  32.912  1.00  0.00     0.037 A 
BRANCH  56  70
ATOM     70  C   UNL A   1      44.948  24.548  36.638  1.00  0.00     0.058 A 
ATOM     71  C   UNL A   1      45.420  24.275  37.933  1.00  0.00     0.135 A 
ATOM     72  C   UNL A   1      44.952  23.462  35.733  1.00  0.00     0.135 A 
ATOM     73  F   UNL A   1      45.484  25.248  38.856  1.00  0.00    -0.206 F 
ATOM     74  C   UNL A   1      45.903  23.017  38.294  1.00  0.00     0.059 A 
ATOM     75  C   UNL A   1      45.374  22.188  36.088  1.00  0.00     0.059 A 
ATOM     76  F   UNL A   1      44.640  23.619  34.439  1.00  0.00    -0.206 F 
ATOM     77  C   UNL A   1      45.887  21.985  37.357  1.00  0.00     0.060 A 
BRANCH  77  78
ATOM     78  S   UNL A   1      46.615  20.392  37.776  1.00  0.00     0.124 S 
ATOM     79  O   UNL A   1      48.021  20.750  37.924  1.00  0.00    -0.237 OA
ATOM     80  O   UNL A   1      45.911  20.045  39.006  1.00  0.00    -0.237 OA
ATOM     81  O   UNL A   1      46.290  19.563  36.620  1.00  0.00    -0.744 OA
ENDBRANCH  77  78
ENDBRANCH  56  70
BRANCH  57  82
ATOM     82  C   UNL A   1      44.349  25.378  28.268  1.00  0.00     0.058 A 
ATOM     83  C   UNL A   1      45.176  25.405  27.132  1.00  0.00     0.135 A 
ATOM     84  C   UNL A   1      43.435  24.305  28.340  1.00  0.00     0.135 A 
ATOM     85  F   UNL A   1      46.102  26.366  26.994  1.00  0.00    -0.206 F 
ATOM     86  C   UNL A   1      45.121  24.412  26.146  1.00  0.00     0.059 A 
ATOM     87  C   UNL A   1      43.345  23.320  27.361  1.00  0.00     0.059 A 
ATOM     88  F   UNL A   1      42.657  24.119  29.416  1.00  0.00    -0.206 F 
ATOM     89  C   UNL A   1      44.208  23.366  26.277  1.00  0.00     0.060 A 
BRANCH  89  90
ATOM     90  S   UNL A   1      44.235  22.000  25.095  1.00  0.00     0.124 S 
ATOM     91  O   UNL A   1      43.073  21.221  25.509  1.00  0.00    -0.237 OA
ATOM     92  O   UNL A   1      44.117  22.696  23.818  1.00  0.00    -0.237 OA
ATOM     93  O   UNL A   1      45.528  21.367  25.339  1.00  0.00    -0.744 OA
ENDBRANCH  89  90
ENDBRANCH  57  82
BRANCH  69  94
ATOM     94  C   UNL A   1      47.599  29.127  32.321  1.00  0.00     0.058 A 
ATOM     95  C   UNL A   1      48.910  29.448  31.927  1.00  0.00     0.135 A 
ATOM     96  C   UNL A   1      46.589  30.043  31.982  1.00  0.00     0.135 A 
ATOM     97  F   UNL A   1      49.915  28.581  32.106  1.00  0.00    -0.206 F 
ATOM     98  C   UNL A   1      49.210  30.642  31.268  1.00  0.00     0.059 A 
ATOM     99  C   UNL A   1      46.860  31.225  31.294  1.00  0.00     0.059 A 
ATOM    100  F   UNL A   1      45.305  29.766  32.268  1.00  0.00    -0.206 F 
ATOM    101  C   UNL A   1      48.177  31.523  30.952  1.00  0.00     0.060 A 
BRANCH 101 102
ATOM    102  S   UNL A   1      48.557  33.016  30.006  1.00  0.00     0.124 S 
ATOM    103  O   UNL A   1      47.282  33.726  30.029  1.00  0.00    -0.237 OA
ATOM    104  O   UNL A   1      49.634  33.622  30.784  1.00  0.00    -0.237 OA
ATOM    105  O   UNL A   1      48.961  32.498  28.701  1.00  0.00    -0.744 OA
ENDBRANCH 101 102
ENDBRANCH  69  94
ENDBRANCH  43  44
ENDBRANCH  36  38
ENDBRANCH  35  36
ENDBRANCH  34  35
ENDBRANCH  33  34
ENDBRANCH  32  33
ENDBRANCH  31  32
ENDBRANCH   1  31
TORSDOF 24
ENDMDL
