MODEL 1
REMARK VINA RESULT:     -10.6      0.000      0.000
REMARK SMILES C[C@@H]1CN(S(=O)(=O)c2cccc(C(=O)N3CCC[C@@H]3C(=O)OCCOCCOCCOC(=O)c3ccc(-c4c5nc(c(-c6c(F)cc(S(=O)(=O)[O-])cc6F)c6ccc([nH]6)c(-c6c(F)cc(S(=O)(=O)[O-])cc6F)c6nc(c(-c7c(F)cc(S(=O)(=O)[O-])cc7F)c7ccc4[nH]7)C=C6)C=C5)cc3)c2)C[C@H](C)O1
REMARK SMILES IDX 26 1 25 2 24 3 23 4 22 5 20 6 21 7 19 8 15 9 16 10 17 11
REMARK SMILES IDX 18 12 13 13 14 14 12 15 8 16 9 17 100 18 10 19 11 20 5 21
REMARK SMILES IDX 6 22 7 23 4 24 1 25 2 26 3 27 104 28 102 29 101 30 103 31
REMARK SMILES IDX 27 32 28 33 29 34 30 35 31 36 32 37 33 38 34 39 35 40 99 41
REMARK SMILES IDX 36 42 98 43 37 44 38 45 39 46 92 47 40 48 97 49 91 50 93 51
REMARK SMILES IDX 41 52 96 53 90 54 89 55 42 57 76 58 55 59 75 60 56 61 59 62
REMARK SMILES IDX 74 63 94 64 57 65 58 66 73 68 95 69 60 70 43 71 44 72 53 73
REMARK SMILES IDX 45 74 46 75 52 76 54 77 47 78 48 79 49 80 50 81 51 82 77 83
REMARK SMILES IDX 78 84 87 85 79 86 80 87 86 88 88 89 81 90 82 91 83 92 84 93
REMARK SMILES IDX 85 94 61 95 62 96 71 97 63 98 64 99 70 100 72 101 65 102
REMARK SMILES IDX 66 103 67 104 68 105 69 106
REMARK H PARENT 93 56 59 67
REMARK Flexibility Score: inf
ROOT
ATOM      1  C   UNL A   1      40.292  22.477  26.997  1.00  0.00     0.188 C 
ENDROOT
BRANCH   1   2
ATOM      2  O   UNL A   1      39.093  22.844  26.326  1.00  0.00    -0.376 OA
BRANCH   2   3
ATOM      3  C   UNL A   1      38.299  21.825  25.724  1.00  0.00     0.202 C 
BRANCH   3   4
ATOM      4  C   UNL A   1      37.046  22.264  24.960  1.00  0.00     0.261 C 
BRANCH   4   5
ATOM      5  O   UNL A   1      36.243  23.231  25.672  1.00  0.00    -0.462 OA
BRANCH   5   6
ATOM      6  C   UNL A   1      34.925  22.913  25.769  1.00  0.00     0.328 C 
ATOM      7  O   UNL A   1      34.143  23.538  26.480  1.00  0.00    -0.250 OA
BRANCH   6   8
ATOM      8  C   UNL A   1      34.474  21.713  24.902  1.00  0.00     0.195 C 
ATOM      9  N   UNL A   1      33.512  22.105  23.875  1.00  0.00    -0.325 N 
ATOM     10  C   UNL A   1      32.826  20.934  23.389  1.00  0.00     0.121 C 
ATOM     11  C   UNL A   1      32.546  20.193  24.677  1.00  0.00     0.024 C 
ATOM     12  C   UNL A   1      33.753  20.524  25.569  1.00  0.00     0.039 C 
BRANCH   9  13
ATOM     13  C   UNL A   1      33.743  23.184  23.049  1.00  0.00     0.254 C 
ATOM     14  O   UNL A   1      34.711  23.313  22.320  1.00  0.00    -0.269 OA
BRANCH  13  15
ATOM     15  C   UNL A   1      32.687  24.226  23.213  1.00  0.00     0.041 A 
ATOM     16  C   UNL A   1      32.066  26.563  23.051  1.00  0.00     0.083 A 
ATOM     17  C   UNL A   1      30.723  26.219  23.212  1.00  0.00     0.022 A 
ATOM     18  C   UNL A   1      33.044  25.574  23.096  1.00  0.00     0.035 A 
ATOM     19  C   UNL A   1      30.369  24.873  23.379  1.00  0.00     0.002 A 
ATOM     20  C   UNL A   1      31.348  23.872  23.371  1.00  0.00     0.014 A 
BRANCH  16  21
ATOM     21  S   UNL A   1      32.596  28.253  22.982  1.00  0.00     0.243 S 
ATOM     22  O   UNL A   1      31.479  29.036  22.493  1.00  0.00    -0.207 OA
ATOM     23  O   UNL A   1      33.871  28.287  22.294  1.00  0.00    -0.207 OA
BRANCH  21  24
ATOM     24  N   UNL A   1      32.888  28.750  24.614  1.00  0.00    -0.193 NA
ATOM     25  C   UNL A   1      34.912  29.453  27.095  1.00  0.00     0.040 C 
ATOM     26  C   UNL A   1      33.925  28.308  26.885  1.00  0.00     0.130 C 
ATOM     27  C   UNL A   1      33.798  27.858  25.412  1.00  0.00     0.134 C 
ATOM     28  O   UNL A   1      32.666  28.567  27.520  1.00  0.00    -0.373 OA
ATOM     29  C   UNL A   1      31.744  29.363  26.770  1.00  0.00     0.130 C 
ATOM     30  C   UNL A   1      31.568  28.851  25.338  1.00  0.00     0.134 C 
ATOM     31  C   UNL A   1      32.057  30.852  26.840  1.00  0.00     0.040 C 
ENDBRANCH  21  24
ENDBRANCH  16  21
ENDBRANCH  13  15
ENDBRANCH   9  13
ENDBRANCH   6   8
ENDBRANCH   5   6
ENDBRANCH   4   5
ENDBRANCH   3   4
ENDBRANCH   2   3
ENDBRANCH   1   2
BRANCH   1  32
ATOM     32  C   UNL A   1      41.586  22.371  26.179  1.00  0.00     0.188 C 
BRANCH  32  33
ATOM     33  O   UNL A   1      42.782  22.560  26.913  1.00  0.00    -0.376 OA
BRANCH  33  34
ATOM     34  C   UNL A   1      43.652  23.582  26.442  1.00  0.00     0.202 C 
BRANCH  34  35
ATOM     35  C   UNL A   1      43.093  24.410  25.277  1.00  0.00     0.261 C 
BRANCH  35  36
ATOM     36  O   UNL A   1      42.790  25.778  25.605  1.00  0.00    -0.460 OA
BRANCH  36  37
ATOM     37  C   UNL A   1      41.500  26.066  25.905  1.00  0.00     0.338 C 
ATOM     38  O   UNL A   1      40.508  25.692  25.311  1.00  0.00    -0.246 OA
BRANCH  37  39
ATOM     39  C   UNL A   1      41.494  26.704  27.240  1.00  0.00     0.060 A 
ATOM     40  C   UNL A   1      40.627  26.204  28.223  1.00  0.00     0.016 A 
ATOM     41  C   UNL A   1      42.366  27.755  27.528  1.00  0.00     0.016 A 
ATOM     42  C   UNL A   1      40.617  26.775  29.496  1.00  0.00     0.010 A 
ATOM     43  C   UNL A   1      42.337  28.341  28.794  1.00  0.00     0.010 A 
ATOM     44  C   UNL A   1      41.445  27.872  29.774  1.00  0.00    -0.014 A 
BRANCH  44  45
ATOM     45  C   UNL A   1      41.239  28.667  31.006  1.00  0.00     0.031 A 
ATOM     46  C   UNL A   1      40.155  29.710  30.996  1.00  0.00     0.074 A 
ATOM     47  C   UNL A   1      42.002  28.488  32.098  1.00  0.00     0.049 A 
ATOM     48  N   UNL A   1      39.835  30.583  31.912  1.00  0.00    -0.248 NA
ATOM     49  C   UNL A   1      39.323  29.776  29.782  1.00  0.00     0.031 C 
ATOM     50  C   UNL A   1      43.061  27.490  32.239  1.00  0.00     0.029 A 
ATOM     51  N   UNL A   1      42.009  29.158  33.295  1.00  0.00    -0.354 N 
ATOM     52  C   UNL A   1      38.770  31.305  31.388  1.00  0.00     0.074 A 
ATOM     53  C   UNL A   1      38.511  30.783  30.064  1.00  0.00     0.031 C 
ATOM     54  C   UNL A   1      43.631  27.629  33.452  1.00  0.00     0.029 A 
ATOM     55  C   UNL A   1      42.996  28.740  34.157  1.00  0.00     0.049 A 
ATOM     56  H   UNL A   1      41.368  29.872  33.517  1.00  0.00     0.167 HD
ATOM     57  C   UNL A   1      38.068  32.310  31.958  1.00  0.00     0.037 A 
ATOM     58  C   UNL A   1      43.356  29.221  35.364  1.00  0.00     0.037 A 
ATOM     59  C   UNL A   1      38.335  32.838  33.268  1.00  0.00     0.049 A 
ATOM     60  C   UNL A   1      42.601  30.388  35.953  1.00  0.00     0.074 A 
ATOM     61  C   UNL A   1      37.677  33.854  33.937  1.00  0.00     0.029 A 
ATOM     62  N   UNL A   1      39.350  32.397  34.104  1.00  0.00    -0.354 N 
ATOM     63  N   UNL A   1      41.581  31.047  35.456  1.00  0.00    -0.248 NA
ATOM     64  C   UNL A   1      43.046  30.876  37.266  1.00  0.00     0.031 C 
ATOM     65  C   UNL A   1      38.317  34.053  35.164  1.00  0.00     0.029 A 
ATOM     66  C   UNL A   1      39.347  33.132  35.276  1.00  0.00     0.049 A 
ATOM     67  H   UNL A   1      39.978  31.670  33.894  1.00  0.00     0.167 HD
ATOM     68  C   UNL A   1      41.248  32.007  36.406  1.00  0.00     0.074 A 
ATOM     69  C   UNL A   1      42.169  31.840  37.510  1.00  0.00     0.031 C 
ATOM     70  C   UNL A   1      40.265  32.942  36.371  1.00  0.00     0.037 A 
BRANCH  57  71
ATOM     71  C   UNL A   1      36.958  32.919  31.151  1.00  0.00     0.058 A 
ATOM     72  C   UNL A   1      35.617  32.566  31.365  1.00  0.00     0.135 A 
ATOM     73  C   UNL A   1      37.238  33.875  30.163  1.00  0.00     0.135 A 
ATOM     74  F   UNL A   1      35.300  31.636  32.280  1.00  0.00    -0.206 F 
ATOM     75  C   UNL A   1      34.591  33.127  30.613  1.00  0.00     0.059 A 
ATOM     76  C   UNL A   1      36.226  34.467  29.415  1.00  0.00     0.059 A 
ATOM     77  F   UNL A   1      38.506  34.239  29.914  1.00  0.00    -0.206 F 
ATOM     78  C   UNL A   1      34.907  34.076  29.639  1.00  0.00     0.060 A 
BRANCH  78  79
ATOM     79  S   UNL A   1      33.564  34.799  28.672  1.00  0.00     0.124 S 
ATOM     80  O   UNL A   1      34.196  36.011  28.160  1.00  0.00    -0.237 OA
ATOM     81  O   UNL A   1      33.294  33.759  27.684  1.00  0.00    -0.237 OA
ATOM     82  O   UNL A   1      32.510  35.011  29.661  1.00  0.00    -0.744 OA
ENDBRANCH  78  79
ENDBRANCH  57  71
BRANCH  58  83
ATOM     83  C   UNL A   1      44.501  28.619  36.099  1.00  0.00     0.058 A 
ATOM     84  C   UNL A   1      44.309  27.559  36.997  1.00  0.00     0.135 A 
ATOM     85  C   UNL A   1      45.806  29.109  35.935  1.00  0.00     0.135 A 
ATOM     86  F   UNL A   1      43.078  27.066  37.198  1.00  0.00    -0.206 F 
ATOM     87  C   UNL A   1      45.366  27.018  37.722  1.00  0.00     0.059 A 
ATOM     88  C   UNL A   1      46.883  28.570  36.632  1.00  0.00     0.059 A 
ATOM     89  F   UNL A   1      46.044  30.118  35.081  1.00  0.00    -0.206 F 
ATOM     90  C   UNL A   1      46.651  27.532  37.534  1.00  0.00     0.060 A 
BRANCH  90  91
ATOM     91  S   UNL A   1      48.023  26.807  38.458  1.00  0.00     0.124 S 
ATOM     92  O   UNL A   1      47.771  25.381  38.286  1.00  0.00    -0.237 OA
ATOM     93  O   UNL A   1      49.185  27.340  37.753  1.00  0.00    -0.237 OA
ATOM     94  O   UNL A   1      47.828  27.326  39.808  1.00  0.00    -0.744 OA
ENDBRANCH  90  91
ENDBRANCH  58  83
BRANCH  70  95
ATOM     95  C   UNL A   1      40.103  33.830  37.573  1.00  0.00     0.058 A 
ATOM     96  C   UNL A   1      40.764  35.064  37.672  1.00  0.00     0.135 A 
ATOM     97  C   UNL A   1      39.220  33.472  38.604  1.00  0.00     0.135 A 
ATOM     98  F   UNL A   1      41.622  35.450  36.713  1.00  0.00    -0.206 F 
ATOM     99  C   UNL A   1      40.570  35.905  38.763  1.00  0.00     0.059 A 
ATOM    100  C   UNL A   1      38.993  34.308  39.693  1.00  0.00     0.059 A 
ATOM    101  F   UNL A   1      38.554  32.309  38.550  1.00  0.00    -0.206 F 
ATOM    102  C   UNL A   1      39.680  35.519  39.767  1.00  0.00     0.060 A 
BRANCH 102 103
ATOM    103  S   UNL A   1      39.400  36.638  41.157  1.00  0.00     0.124 S 
ATOM    104  O   UNL A   1      38.172  36.095  41.728  1.00  0.00    -0.237 OA
ATOM    105  O   UNL A   1      40.607  36.454  41.958  1.00  0.00    -0.237 OA
ATOM    106  O   UNL A   1      39.274  37.945  40.520  1.00  0.00    -0.744 OA
ENDBRANCH 102 103
ENDBRANCH  70  95
ENDBRANCH  44  45
ENDBRANCH  37  39
ENDBRANCH  36  37
ENDBRANCH  35  36
ENDBRANCH  34  35
ENDBRANCH  33  34
ENDBRANCH  32  33
ENDBRANCH   1  32
TORSDOF 24
ENDMDL
MODEL 2
REMARK VINA RESULT:      -9.1      6.176      8.475
REMARK SMILES C[C@@H]1CN(S(=O)(=O)c2cccc(C(=O)N3CCC[C@@H]3C(=O)OCCOCCOCCOC(=O)c3ccc(-c4c5nc(c(-c6c(F)cc(S(=O)(=O)[O-])cc6F)c6ccc([nH]6)c(-c6c(F)cc(S(=O)(=O)[O-])cc6F)c6nc(c(-c7c(F)cc(S(=O)(=O)[O-])cc7F)c7ccc4[nH]7)C=C6)C=C5)cc3)c2)C[C@H](C)O1
REMARK SMILES IDX 26 1 25 2 24 3 23 4 22 5 20 6 21 7 19 8 15 9 16 10 17 11
REMARK SMILES IDX 18 12 13 13 14 14 12 15 8 16 9 17 100 18 10 19 11 20 5 21
REMARK SMILES IDX 6 22 7 23 4 24 1 25 2 26 3 27 104 28 102 29 101 30 103 31
REMARK SMILES IDX 27 32 28 33 29 34 30 35 31 36 32 37 33 38 34 39 35 40 99 41
REMARK SMILES IDX 36 42 98 43 37 44 38 45 39 46 92 47 40 48 97 49 91 50 93 51
REMARK SMILES IDX 41 52 96 53 90 54 89 55 42 57 76 58 55 59 75 60 56 61 59 62
REMARK SMILES IDX 74 63 94 64 57 65 58 66 73 68 95 69 60 70 43 71 44 72 53 73
REMARK SMILES IDX 45 74 46 75 52 76 54 77 47 78 48 79 49 80 50 81 51 82 77 83
REMARK SMILES IDX 78 84 87 85 79 86 80 87 86 88 88 89 81 90 82 91 83 92 84 93
REMARK SMILES IDX 85 94 61 95 62 96 71 97 63 98 64 99 70 100 72 101 65 102
REMARK SMILES IDX 66 103 67 104 68 105 69 106
REMARK H PARENT 93 56 59 67
REMARK Flexibility Score: inf
ROOT
ATOM      1  C   UNL A   1      39.972  21.524  26.507  1.00  0.00     0.188 C 
ENDROOT
BRANCH   1   2
ATOM      2  O   UNL A   1      38.852  22.241  26.001  1.00  0.00    -0.376 OA
BRANCH   2   3
ATOM      3  C   UNL A   1      37.954  21.580  25.113  1.00  0.00     0.202 C 
BRANCH   3   4
ATOM      4  C   UNL A   1      37.034  22.457  24.257  1.00  0.00     0.261 C 
BRANCH   4   5
ATOM      5  O   UNL A   1      36.217  23.364  25.029  1.00  0.00    -0.462 OA
BRANCH   5   6
ATOM      6  C   UNL A   1      35.037  22.843  25.454  1.00  0.00     0.328 C 
ATOM      7  O   UNL A   1      34.592  23.040  26.581  1.00  0.00    -0.250 OA
BRANCH   6   8
ATOM      8  C   UNL A   1      34.279  21.993  24.406  1.00  0.00     0.195 C 
ATOM      9  N   UNL A   1      33.114  22.690  23.867  1.00  0.00    -0.325 N 
ATOM     10  C   UNL A   1      32.234  21.737  23.238  1.00  0.00     0.121 C 
ATOM     11  C   UNL A   1      32.246  20.607  24.241  1.00  0.00     0.024 C 
ATOM     12  C   UNL A   1      33.668  20.640  24.824  1.00  0.00     0.039 C 
BRANCH   9  13
ATOM     13  C   UNL A   1      33.203  23.985  23.403  1.00  0.00     0.254 C 
ATOM     14  O   UNL A   1      33.858  24.340  22.439  1.00  0.00    -0.269 OA
BRANCH  13  15
ATOM     15  C   UNL A   1      32.448  24.926  24.282  1.00  0.00     0.041 A 
ATOM     16  C   UNL A   1      31.520  27.142  24.597  1.00  0.00     0.083 A 
ATOM     17  C   UNL A   1      30.812  26.690  25.711  1.00  0.00     0.022 A 
ATOM     18  C   UNL A   1      32.366  26.274  23.915  1.00  0.00     0.035 A 
ATOM     19  C   UNL A   1      30.932  25.351  26.110  1.00  0.00     0.002 A 
ATOM     20  C   UNL A   1      31.743  24.464  25.392  1.00  0.00     0.014 A 
BRANCH  16  21
ATOM     21  S   UNL A   1      31.528  28.852  24.128  1.00  0.00     0.243 S 
ATOM     22  O   UNL A   1      32.331  28.966  22.928  1.00  0.00    -0.207 OA
ATOM     23  O   UNL A   1      31.855  29.630  25.306  1.00  0.00    -0.207 OA
BRANCH  21  24
ATOM     24  N   UNL A   1      29.902  29.255  23.691  1.00  0.00    -0.193 NA
ATOM     25  C   UNL A   1      26.708  28.545  23.500  1.00  0.00     0.040 C 
ATOM     26  C   UNL A   1      27.776  28.708  22.422  1.00  0.00     0.130 C 
ATOM     27  C   UNL A   1      29.179  28.230  22.860  1.00  0.00     0.134 C 
ATOM     28  O   UNL A   1      27.765  30.025  21.856  1.00  0.00    -0.373 OA
ATOM     29  C   UNL A   1      28.492  31.020  22.582  1.00  0.00     0.130 C 
ATOM     30  C   UNL A   1      29.909  30.561  22.934  1.00  0.00     0.134 C 
ATOM     31  C   UNL A   1      27.720  31.556  23.782  1.00  0.00     0.040 C 
ENDBRANCH  21  24
ENDBRANCH  16  21
ENDBRANCH  13  15
ENDBRANCH   9  13
ENDBRANCH   6   8
ENDBRANCH   5   6
ENDBRANCH   4   5
ENDBRANCH   3   4
ENDBRANCH   2   3
ENDBRANCH   1   2
BRANCH   1  32
ATOM     32  C   UNL A   1      41.380  22.041  26.180  1.00  0.00     0.188 C 
BRANCH  32  33
ATOM     33  O   UNL A   1      42.198  22.316  27.303  1.00  0.00    -0.376 OA
BRANCH  33  34
ATOM     34  C   UNL A   1      43.284  23.208  27.085  1.00  0.00     0.202 C 
BRANCH  34  35
ATOM     35  C   UNL A   1      43.239  23.952  25.743  1.00  0.00     0.261 C 
BRANCH  35  36
ATOM     36  O   UNL A   1      43.397  25.379  25.844  1.00  0.00    -0.460 OA
BRANCH  36  37
ATOM     37  C   UNL A   1      42.282  26.102  26.111  1.00  0.00     0.338 C 
ATOM     38  O   UNL A   1      41.134  25.701  26.125  1.00  0.00    -0.246 OA
BRANCH  37  39
ATOM     39  C   UNL A   1      42.725  27.409  26.643  1.00  0.00     0.060 A 
ATOM     40  C   UNL A   1      43.608  27.431  27.732  1.00  0.00     0.016 A 
ATOM     41  C   UNL A   1      42.305  28.598  26.043  1.00  0.00     0.016 A 
ATOM     42  C   UNL A   1      44.057  28.651  28.239  1.00  0.00     0.010 A 
ATOM     43  C   UNL A   1      42.736  29.817  26.566  1.00  0.00     0.010 A 
ATOM     44  C   UNL A   1      43.592  29.850  27.681  1.00  0.00    -0.014 A 
BRANCH  44  45
ATOM     45  C   UNL A   1      43.820  31.135  28.382  1.00  0.00     0.031 A 
ATOM     46  C   UNL A   1      45.020  31.949  27.984  1.00  0.00     0.074 A 
ATOM     47  C   UNL A   1      43.001  31.560  29.359  1.00  0.00     0.049 A 
ATOM     48  N   UNL A   1      45.479  33.057  28.499  1.00  0.00    -0.248 NA
ATOM     49  C   UNL A   1      45.810  31.437  26.851  1.00  0.00     0.031 C 
ATOM     50  C   UNL A   1      41.792  30.875  29.813  1.00  0.00     0.029 A 
ATOM     51  N   UNL A   1      43.078  32.673  30.160  1.00  0.00    -0.354 N 
ATOM     52  C   UNL A   1      46.610  33.376  27.759  1.00  0.00     0.074 A 
ATOM     53  C   UNL A   1      46.783  32.332  26.772  1.00  0.00     0.031 C 
ATOM     54  C   UNL A   1      41.250  31.574  30.828  1.00  0.00     0.029 A 
ATOM     55  C   UNL A   1      42.089  32.737  31.112  1.00  0.00     0.049 A 
ATOM     56  H   UNL A   1      43.776  33.359  30.061  1.00  0.00     0.167 HD
ATOM     57  C   UNL A   1      47.432  34.442  27.887  1.00  0.00     0.037 A 
ATOM     58  C   UNL A   1      41.902  33.622  32.113  1.00  0.00     0.037 A 
ATOM     59  C   UNL A   1      47.268  35.472  28.877  1.00  0.00     0.049 A 
ATOM     60  C   UNL A   1      42.870  34.769  32.278  1.00  0.00     0.074 A 
ATOM     61  C   UNL A   1      48.045  36.597  29.085  1.00  0.00     0.029 A 
ATOM     62  N   UNL A   1      46.262  35.496  29.831  1.00  0.00    -0.354 N 
ATOM     63  N   UNL A   1      43.924  35.070  31.557  1.00  0.00    -0.248 NA
ATOM     64  C   UNL A   1      42.622  35.695  33.393  1.00  0.00     0.031 C 
ATOM     65  C   UNL A   1      47.530  37.283  30.190  1.00  0.00     0.029 A 
ATOM     66  C   UNL A   1      46.408  36.607  30.641  1.00  0.00     0.049 A 
ATOM     67  H   UNL A   1      45.550  34.822  29.918  1.00  0.00     0.167 HD
ATOM     68  C   UNL A   1      44.447  36.233  32.115  1.00  0.00     0.074 A 
ATOM     69  C   UNL A   1      43.591  36.584  33.228  1.00  0.00     0.031 C 
ATOM     70  C   UNL A   1      45.537  36.948  31.738  1.00  0.00     0.037 A 
BRANCH  57  71
ATOM     71  C   UNL A   1      48.597  34.531  26.944  1.00  0.00     0.058 A 
ATOM     72  C   UNL A   1      49.794  33.845  27.191  1.00  0.00     0.135 A 
ATOM     73  C   UNL A   1      48.507  35.301  25.774  1.00  0.00     0.135 A 
ATOM     74  F   UNL A   1      49.939  33.118  28.310  1.00  0.00    -0.206 F 
ATOM     75  C   UNL A   1      50.874  33.933  26.319  1.00  0.00     0.059 A 
ATOM     76  C   UNL A   1      49.566  35.385  24.875  1.00  0.00     0.059 A 
ATOM     77  F   UNL A   1      47.385  35.984  25.497  1.00  0.00    -0.206 F 
ATOM     78  C   UNL A   1      50.749  34.708  25.164  1.00  0.00     0.060 A 
BRANCH  78  79
ATOM     79  S   UNL A   1      52.157  34.810  24.039  1.00  0.00     0.124 S 
ATOM     80  O   UNL A   1      53.275  34.855  24.977  1.00  0.00    -0.237 OA
ATOM     81  O   UNL A   1      52.029  33.580  23.264  1.00  0.00    -0.237 OA
ATOM     82  O   UNL A   1      51.910  36.044  23.298  1.00  0.00    -0.744 OA
ENDBRANCH  78  79
ENDBRANCH  57  71
BRANCH  58  83
ATOM     83  C   UNL A   1      40.764  33.457  33.056  1.00  0.00     0.058 A 
ATOM     84  C   UNL A   1      39.509  34.022  32.785  1.00  0.00     0.135 A 
ATOM     85  C   UNL A   1      40.916  32.751  34.260  1.00  0.00     0.135 A 
ATOM     86  F   UNL A   1      39.318  34.718  31.653  1.00  0.00    -0.206 F 
ATOM     87  C   UNL A   1      38.451  33.911  33.681  1.00  0.00     0.059 A 
ATOM     88  C   UNL A   1      39.866  32.608  35.162  1.00  0.00     0.059 A 
ATOM     89  F   UNL A   1      42.095  32.185  34.563  1.00  0.00    -0.206 F 
ATOM     90  C   UNL A   1      38.640  33.203  34.869  1.00  0.00     0.060 A 
BRANCH  90  91
ATOM     91  S   UNL A   1      37.254  33.039  36.015  1.00  0.00     0.124 S 
ATOM     92  O   UNL A   1      36.116  33.293  35.138  1.00  0.00    -0.237 OA
ATOM     93  O   UNL A   1      37.403  31.666  36.486  1.00  0.00    -0.237 OA
ATOM     94  O   UNL A   1      37.524  34.068  37.015  1.00  0.00    -0.744 OA
ENDBRANCH  90  91
ENDBRANCH  58  83
BRANCH  70  95
ATOM     95  C   UNL A   1      45.846  38.204  32.503  1.00  0.00     0.058 A 
ATOM     96  C   UNL A   1      46.746  38.209  33.579  1.00  0.00     0.135 A 
ATOM     97  C   UNL A   1      45.287  39.430  32.109  1.00  0.00     0.135 A 
ATOM     98  F   UNL A   1      47.306  37.062  33.998  1.00  0.00    -0.206 F 
ATOM     99  C   UNL A   1      47.068  39.385  34.251  1.00  0.00     0.059 A 
ATOM    100  C   UNL A   1      45.612  40.621  32.751  1.00  0.00     0.059 A 
ATOM    101  F   UNL A   1      44.429  39.481  31.077  1.00  0.00    -0.206 F 
ATOM    102  C   UNL A   1      46.497  40.586  33.827  1.00  0.00     0.060 A 
BRANCH 102 103
ATOM    103  S   UNL A   1      46.955  42.113  34.675  1.00  0.00     0.124 S 
ATOM    104  O   UNL A   1      45.650  42.632  35.071  1.00  0.00    -0.237 OA
ATOM    105  O   UNL A   1      47.800  41.628  35.762  1.00  0.00    -0.237 OA
ATOM    106  O   UNL A   1      47.651  42.878  33.645  1.00  0.00    -0.744 OA
ENDBRANCH 102 103
ENDBRANCH  70  95
ENDBRANCH  44  45
ENDBRANCH  37  39
ENDBRANCH  36  37
ENDBRANCH  35  36
ENDBRANCH  34  35
ENDBRANCH  33  34
ENDBRANCH  32  33
ENDBRANCH   1  32
TORSDOF 24
ENDMDL
MODEL 3
REMARK VINA RESULT:      -8.7      6.087      9.062
REMARK SMILES C[C@@H]1CN(S(=O)(=O)c2cccc(C(=O)N3CCC[C@@H]3C(=O)OCCOCCOCCOC(=O)c3ccc(-c4c5nc(c(-c6c(F)cc(S(=O)(=O)[O-])cc6F)c6ccc([nH]6)c(-c6c(F)cc(S(=O)(=O)[O-])cc6F)c6nc(c(-c7c(F)cc(S(=O)(=O)[O-])cc7F)c7ccc4[nH]7)C=C6)C=C5)cc3)c2)C[C@H](C)O1
REMARK SMILES IDX 26 1 25 2 24 3 23 4 22 5 20 6 21 7 19 8 15 9 16 10 17 11
REMARK SMILES IDX 18 12 13 13 14 14 12 15 8 16 9 17 100 18 10 19 11 20 5 21
REMARK SMILES IDX 6 22 7 23 4 24 1 25 2 26 3 27 104 28 102 29 101 30 103 31
REMARK SMILES IDX 27 32 28 33 29 34 30 35 31 36 32 37 33 38 34 39 35 40 99 41
REMARK SMILES IDX 36 42 98 43 37 44 38 45 39 46 92 47 40 48 97 49 91 50 93 51
REMARK SMILES IDX 41 52 96 53 90 54 89 55 42 57 76 58 55 59 75 60 56 61 59 62
REMARK SMILES IDX 74 63 94 64 57 65 58 66 73 68 95 69 60 70 43 71 44 72 53 73
REMARK SMILES IDX 45 74 46 75 52 76 54 77 47 78 48 79 49 80 50 81 51 82 77 83
REMARK SMILES IDX 78 84 87 85 79 86 80 87 86 88 88 89 81 90 82 91 83 92 84 93
REMARK SMILES IDX 85 94 61 95 62 96 71 97 63 98 64 99 70 100 72 101 65 102
REMARK SMILES IDX 66 103 67 104 68 105 69 106
REMARK H PARENT 93 56 59 67
REMARK Flexibility Score: inf
ROOT
ATOM      1  C   UNL A   1      40.411  24.331  26.769  1.00  0.00     0.188 C 
ENDROOT
BRANCH   1   2
ATOM      2  O   UNL A   1      39.197  23.655  27.069  1.00  0.00    -0.376 OA
BRANCH   2   3
ATOM      3  C   UNL A   1      38.008  24.034  26.380  1.00  0.00     0.202 C 
BRANCH   3   4
ATOM      4  C   UNL A   1      37.295  22.958  25.555  1.00  0.00     0.261 C 
BRANCH   4   5
ATOM      5  O   UNL A   1      35.868  23.157  25.452  1.00  0.00    -0.462 OA
BRANCH   5   6
ATOM      6  C   UNL A   1      35.158  22.037  25.156  1.00  0.00     0.328 C 
ATOM      7  O   UNL A   1      35.500  21.248  24.280  1.00  0.00    -0.250 OA
BRANCH   6   8
ATOM      8  C   UNL A   1      33.891  21.816  26.017  1.00  0.00     0.195 C 
ATOM      9  N   UNL A   1      32.691  22.356  25.382  1.00  0.00    -0.325 N 
ATOM     10  C   UNL A   1      31.651  22.501  26.368  1.00  0.00     0.121 C 
ATOM     11  C   UNL A   1      32.418  23.087  27.532  1.00  0.00     0.024 C 
ATOM     12  C   UNL A   1      33.809  22.444  27.423  1.00  0.00     0.039 C 
BRANCH   9  13
ATOM     13  C   UNL A   1      32.386  22.074  24.067  1.00  0.00     0.254 C 
ATOM     14  O   UNL A   1      32.224  20.956  23.610  1.00  0.00    -0.269 OA
BRANCH  13  15
ATOM     15  C   UNL A   1      32.350  23.318  23.243  1.00  0.00     0.041 A 
ATOM     16  C   UNL A   1      31.542  25.588  22.988  1.00  0.00     0.083 A 
ATOM     17  C   UNL A   1      32.432  25.789  21.932  1.00  0.00     0.022 A 
ATOM     18  C   UNL A   1      31.473  24.346  23.609  1.00  0.00     0.035 A 
ATOM     19  C   UNL A   1      33.278  24.744  21.533  1.00  0.00     0.002 A 
ATOM     20  C   UNL A   1      33.245  23.509  22.192  1.00  0.00     0.014 A 
BRANCH  16  21
ATOM     21  S   UNL A   1      30.347  26.815  23.447  1.00  0.00     0.243 S 
ATOM     22  O   UNL A   1      29.238  26.125  24.072  1.00  0.00    -0.207 OA
ATOM     23  O   UNL A   1      30.125  27.666  22.294  1.00  0.00    -0.207 OA
BRANCH  21  24
ATOM     24  N   UNL A   1      31.086  27.797  24.666  1.00  0.00    -0.193 NA
ATOM     25  C   UNL A   1      31.783  30.716  25.984  1.00  0.00     0.040 C 
ATOM     26  C   UNL A   1      32.667  29.674  25.305  1.00  0.00     0.130 C 
ATOM     27  C   UNL A   1      31.961  28.911  24.161  1.00  0.00     0.134 C 
ATOM     28  O   UNL A   1      33.310  28.818  26.258  1.00  0.00    -0.373 OA
ATOM     29  C   UNL A   1      32.534  27.709  26.722  1.00  0.00     0.130 C 
ATOM     30  C   UNL A   1      31.912  26.916  25.569  1.00  0.00     0.134 C 
ATOM     31  C   UNL A   1      31.524  28.102  27.793  1.00  0.00     0.040 C 
ENDBRANCH  21  24
ENDBRANCH  16  21
ENDBRANCH  13  15
ENDBRANCH   9  13
ENDBRANCH   6   8
ENDBRANCH   5   6
ENDBRANCH   4   5
ENDBRANCH   3   4
ENDBRANCH   2   3
ENDBRANCH   1   2
BRANCH   1  32
ATOM     32  C   UNL A   1      40.987  25.300  27.811  1.00  0.00     0.188 C 
BRANCH  32  33
ATOM     33  O   UNL A   1      40.026  25.982  28.598  1.00  0.00    -0.376 OA
BRANCH  33  34
ATOM     34  C   UNL A   1      39.304  27.020  27.947  1.00  0.00     0.202 C 
BRANCH  34  35
ATOM     35  C   UNL A   1      39.837  28.434  28.218  1.00  0.00     0.261 C 
BRANCH  35  36
ATOM     36  O   UNL A   1      39.521  28.953  29.523  1.00  0.00    -0.460 OA
BRANCH  36  37
ATOM     37  C   UNL A   1      38.708  30.036  29.572  1.00  0.00     0.338 C 
ATOM     38  O   UNL A   1      37.494  30.045  29.516  1.00  0.00    -0.246 OA
BRANCH  37  39
ATOM     39  C   UNL A   1      39.543  31.191  29.972  1.00  0.00     0.060 A 
ATOM     40  C   UNL A   1      40.896  30.975  30.271  1.00  0.00     0.016 A 
ATOM     41  C   UNL A   1      39.002  32.477  30.009  1.00  0.00     0.016 A 
ATOM     42  C   UNL A   1      41.709  32.050  30.631  1.00  0.00     0.010 A 
ATOM     43  C   UNL A   1      39.810  33.548  30.392  1.00  0.00     0.010 A 
ATOM     44  C   UNL A   1      41.158  33.336  30.730  1.00  0.00    -0.014 A 
BRANCH  44  45
ATOM     45  C   UNL A   1      41.921  34.423  31.386  1.00  0.00     0.031 A 
ATOM     46  C   UNL A   1      41.884  34.499  32.888  1.00  0.00     0.074 A 
ATOM     47  C   UNL A   1      42.609  35.332  30.674  1.00  0.00     0.049 A 
ATOM     48  N   UNL A   1      42.396  35.397  33.686  1.00  0.00    -0.248 NA
ATOM     49  C   UNL A   1      41.168  33.413  33.580  1.00  0.00     0.031 C 
ATOM     50  C   UNL A   1      42.743  35.346  29.218  1.00  0.00     0.029 A 
ATOM     51  N   UNL A   1      43.314  36.434  31.088  1.00  0.00    -0.354 N 
ATOM     52  C   UNL A   1      42.063  34.990  34.972  1.00  0.00     0.074 A 
ATOM     53  C   UNL A   1      41.287  33.776  34.848  1.00  0.00     0.031 C 
ATOM     54  C   UNL A   1      43.471  36.419  28.859  1.00  0.00     0.029 A 
ATOM     55  C   UNL A   1      43.827  37.181  30.054  1.00  0.00     0.049 A 
ATOM     56  H   UNL A   1      43.440  36.668  32.035  1.00  0.00     0.167 HD
ATOM     57  C   UNL A   1      42.378  35.573  36.151  1.00  0.00     0.037 A 
ATOM     58  C   UNL A   1      44.486  38.358  30.076  1.00  0.00     0.037 A 
ATOM     59  C   UNL A   1      43.137  36.787  36.273  1.00  0.00     0.049 A 
ATOM     60  C   UNL A   1      44.769  39.024  31.400  1.00  0.00     0.074 A 
ATOM     61  C   UNL A   1      43.512  37.456  37.424  1.00  0.00     0.029 A 
ATOM     62  N   UNL A   1      43.629  37.520  35.203  1.00  0.00    -0.354 N 
ATOM     63  N   UNL A   1      44.468  38.617  32.610  1.00  0.00    -0.248 NA
ATOM     64  C   UNL A   1      45.481  40.310  31.361  1.00  0.00     0.031 C 
ATOM     65  C   UNL A   1      44.201  38.614  37.049  1.00  0.00     0.029 A 
ATOM     66  C   UNL A   1      44.290  38.643  35.667  1.00  0.00     0.049 A 
ATOM     67  H   UNL A   1      43.524  37.277  34.255  1.00  0.00     0.167 HD
ATOM     68  C   UNL A   1      44.976  39.582  33.475  1.00  0.00     0.074 A 
ATOM     69  C   UNL A   1      45.610  40.589  32.650  1.00  0.00     0.031 C 
ATOM     70  C   UNL A   1      44.927  39.630  34.830  1.00  0.00     0.037 A 
BRANCH  57  71
ATOM     71  C   UNL A   1      41.876  34.911  37.402  1.00  0.00     0.058 A 
ATOM     72  C   UNL A   1      42.593  33.878  38.023  1.00  0.00     0.135 A 
ATOM     73  C   UNL A   1      40.672  35.326  37.991  1.00  0.00     0.135 A 
ATOM     74  F   UNL A   1      43.737  33.428  37.482  1.00  0.00    -0.206 F 
ATOM     75  C   UNL A   1      42.124  33.263  39.179  1.00  0.00     0.059 A 
ATOM     76  C   UNL A   1      40.195  34.741  39.160  1.00  0.00     0.059 A 
ATOM     77  F   UNL A   1      39.945  36.304  37.430  1.00  0.00    -0.206 F 
ATOM     78  C   UNL A   1      40.922  33.701  39.738  1.00  0.00     0.060 A 
BRANCH  78  79
ATOM     79  S   UNL A   1      40.327  32.897  41.240  1.00  0.00     0.124 S 
ATOM     80  O   UNL A   1      41.005  31.605  41.166  1.00  0.00    -0.237 OA
ATOM     81  O   UNL A   1      40.796  33.799  42.287  1.00  0.00    -0.237 OA
ATOM     82  O   UNL A   1      38.879  32.857  41.053  1.00  0.00    -0.744 OA
ENDBRANCH  78  79
ENDBRANCH  57  71
BRANCH  58  83
ATOM     83  C   UNL A   1      44.913  39.001  28.804  1.00  0.00     0.058 A 
ATOM     84  C   UNL A   1      44.096  39.940  28.157  1.00  0.00     0.135 A 
ATOM     85  C   UNL A   1      46.135  38.670  28.198  1.00  0.00     0.135 A 
ATOM     86  F   UNL A   1      42.912  40.278  28.690  1.00  0.00    -0.206 F 
ATOM     87  C   UNL A   1      44.465  40.514  26.945  1.00  0.00     0.059 A 
ATOM     88  C   UNL A   1      46.536  39.247  26.997  1.00  0.00     0.059 A 
ATOM     89  F   UNL A   1      46.956  37.782  28.781  1.00  0.00    -0.206 F 
ATOM     90  C   UNL A   1      45.688  40.160  26.371  1.00  0.00     0.060 A 
BRANCH  90  91
ATOM     91  S   UNL A   1      46.174  40.929  24.811  1.00  0.00     0.124 S 
ATOM     92  O   UNL A   1      47.147  41.918  25.263  1.00  0.00    -0.237 OA
ATOM     93  O   UNL A   1      46.714  39.798  24.064  1.00  0.00    -0.237 OA
ATOM     94  O   UNL A   1      44.918  41.466  24.298  1.00  0.00    -0.744 OA
ENDBRANCH  90  91
ENDBRANCH  58  83
BRANCH  70  95
ATOM     95  C   UNL A   1      45.609  40.782  35.513  1.00  0.00     0.058 A 
ATOM     96  C   UNL A   1      46.967  40.734  35.860  1.00  0.00     0.135 A 
ATOM     97  C   UNL A   1      44.909  41.974  35.757  1.00  0.00     0.135 A 
ATOM     98  F   UNL A   1      47.680  39.615  35.650  1.00  0.00    -0.206 F 
ATOM     99  C   UNL A   1      47.605  41.824  36.445  1.00  0.00     0.059 A 
ATOM    100  C   UNL A   1      45.533  43.084  36.320  1.00  0.00     0.059 A 
ATOM    101  F   UNL A   1      43.611  42.075  35.432  1.00  0.00    -0.206 F 
ATOM    102  C   UNL A   1      46.880  42.995  36.668  1.00  0.00     0.060 A 
BRANCH 102 103
ATOM    103  S   UNL A   1      47.727  44.419  37.386  1.00  0.00     0.124 S 
ATOM    104  O   UNL A   1      46.698  44.960  38.267  1.00  0.00    -0.237 OA
ATOM    105  O   UNL A   1      48.871  43.803  38.052  1.00  0.00    -0.237 OA
ATOM    106  O   UNL A   1      48.056  45.239  36.224  1.00  0.00    -0.744 OA
ENDBRANCH 102 103
ENDBRANCH  70  95
ENDBRANCH  44  45
ENDBRANCH  37  39
ENDBRANCH  36  37
ENDBRANCH  35  36
ENDBRANCH  34  35
ENDBRANCH  33  34
ENDBRANCH  32  33
ENDBRANCH   1  32
TORSDOF 24
ENDMDL
