MODEL 1
REMARK VINA RESULT:     -10.0      0.000      0.000
REMARK SMILES CCCc1cc(OC(F)(F)F)cc2c1O[C@H](C(F)(F)F)C(C(=O)OCCOCCOCCOC(=O)c1ccc(-c3c4nc(c(-c5c(F)cc(S(=O)(=O)[O-])cc5F)c5ccc([nH]5)c(-c5c(F)cc(S(=O)(=O)[O-])cc5F)c5nc(c(-c6c(F)cc(S(=O)(=O)[O-])cc6F)c6ccc3[nH]6)C=C5)C=C4)cc1)=C2
REMARK SMILES IDX 29 1 28 2 27 3 26 4 25 5 24 6 22 7 23 8 21 9 4 10 5 11 14 12
REMARK SMILES IDX 6 13 13 14 15 15 12 16 102 17 16 18 3 19 2 20 1 21 7 22 8 23
REMARK SMILES IDX 9 24 10 25 11 26 17 27 18 28 19 29 20 30 30 31 31 32 32 33
REMARK SMILES IDX 33 34 34 35 35 36 36 37 37 38 101 39 38 40 100 41 39 42
REMARK SMILES IDX 40 43 41 44 94 45 42 46 99 47 93 48 95 49 43 50 98 51 92 52
REMARK SMILES IDX 91 53 44 55 78 56 57 57 77 58 58 59 61 60 76 61 96 62 59 63
REMARK SMILES IDX 60 64 75 66 97 67 62 68 45 69 46 70 55 71 47 72 48 73 54 74
REMARK SMILES IDX 56 75 49 76 50 77 51 78 52 79 53 80 79 81 80 82 89 83 81 84
REMARK SMILES IDX 82 85 88 86 90 87 83 88 84 89 85 90 86 91 87 92 63 93 64 94
REMARK SMILES IDX 73 95 65 96 66 97 72 98 74 99 67 100 68 101 69 102 70 103
REMARK SMILES IDX 71 104
REMARK H PARENT 95 54 61 65
REMARK Flexibility Score: inf
ROOT
ATOM      1  C   UNL A   1      31.386  32.249  26.958  1.00  0.00     0.188 C 
ENDROOT
BRANCH   1   2
ATOM      2  C   UNL A   1      31.300  31.140  25.887  1.00  0.00     0.188 C 
BRANCH   2   3
ATOM      3  O   UNL A   1      32.388  30.265  25.648  1.00  0.00    -0.376 OA
BRANCH   3   4
ATOM      4  C   UNL A   1      32.313  29.311  24.606  1.00  0.00     0.202 C 
BRANCH   4   5
ATOM      5  C   UNL A   1      30.949  28.724  24.247  1.00  0.00     0.261 C 
BRANCH   5   6
ATOM      6  O   UNL A   1      31.028  27.552  23.419  1.00  0.00    -0.460 OA
BRANCH   6   7
ATOM      7  C   UNL A   1      30.350  26.477  23.895  1.00  0.00     0.338 C 
ATOM      8  O   UNL A   1      29.144  26.378  23.986  1.00  0.00    -0.246 OA
BRANCH   7   9
ATOM      9  C   UNL A   1      31.248  25.354  24.234  1.00  0.00     0.087 C 
ATOM     10  C   UNL A   1      34.253  22.500  24.068  1.00  0.00    -0.002 A 
ATOM     11  C   UNL A   1      33.978  21.203  24.525  1.00  0.00     0.054 A 
ATOM     12  C   UNL A   1      33.198  23.418  24.045  1.00  0.00     0.131 A 
ATOM     13  C   UNL A   1      32.677  20.819  24.874  1.00  0.00     0.130 A 
ATOM     14  C   UNL A   1      31.893  23.069  24.437  1.00  0.00     0.021 A 
ATOM     15  O   UNL A   1      33.495  24.693  23.621  1.00  0.00    -0.475 OA
ATOM     16  C   UNL A   1      31.639  21.760  24.844  1.00  0.00     0.058 A 
ATOM     17  C   UNL A   1      30.836  24.081  24.340  1.00  0.00     0.027 C 
ATOM     18  C   UNL A   1      32.720  25.703  24.301  1.00  0.00     0.316 C 
BRANCH  10  19
ATOM     19  C   UNL A   1      35.653  22.952  23.708  1.00  0.00     0.039 C 
BRANCH  19  20
ATOM     20  C   UNL A   1      36.429  23.711  24.786  1.00  0.00     0.001 C 
ATOM     21  C   UNL A   1      37.055  22.792  25.825  1.00  0.00     0.004 C 
ENDBRANCH  19  20
ENDBRANCH  10  19
BRANCH  13  22
ATOM     22  O   UNL A   1      32.304  19.565  25.271  1.00  0.00    -0.406 OA
BRANCH  22  23
ATOM     23  C   UNL A   1      32.642  18.492  24.405  1.00  0.00     0.573 C 
ATOM     24  F   UNL A   1      33.979  18.313  24.336  1.00  0.00    -0.132 F 
ATOM     25  F   UNL A   1      32.052  17.344  24.800  1.00  0.00    -0.132 F 
ATOM     26  F   UNL A   1      32.200  18.783  23.161  1.00  0.00    -0.132 F 
ENDBRANCH  22  23
ENDBRANCH  13  22
BRANCH  18  27
ATOM     27  C   UNL A   1      33.261  25.957  25.728  1.00  0.00     0.430 C 
ATOM     28  F   UNL A   1      34.262  26.867  25.721  1.00  0.00    -0.167 F 
ATOM     29  F   UNL A   1      32.306  26.441  26.556  1.00  0.00    -0.167 F 
ATOM     30  F   UNL A   1      33.747  24.845  26.328  1.00  0.00    -0.167 F 
ENDBRANCH  18  27
ENDBRANCH   7   9
ENDBRANCH   6   7
ENDBRANCH   5   6
ENDBRANCH   4   5
ENDBRANCH   3   4
ENDBRANCH   2   3
ENDBRANCH   1   2
BRANCH   1  31
ATOM     31  O   UNL A   1      32.216  33.382  26.776  1.00  0.00    -0.376 OA
BRANCH  31  32
ATOM     32  C   UNL A   1      33.146  33.733  27.787  1.00  0.00     0.202 C 
BRANCH  32  33
ATOM     33  C   UNL A   1      33.774  32.626  28.634  1.00  0.00     0.261 C 
BRANCH  33  34
ATOM     34  O   UNL A   1      34.929  33.056  29.372  1.00  0.00    -0.460 OA
BRANCH  34  35
ATOM     35  C   UNL A   1      35.204  32.334  30.486  1.00  0.00     0.338 C 
ATOM     36  O   UNL A   1      34.533  32.255  31.500  1.00  0.00    -0.246 OA
BRANCH  35  37
ATOM     37  C   UNL A   1      36.413  31.523  30.264  1.00  0.00     0.060 A 
ATOM     38  C   UNL A   1      36.982  30.851  31.353  1.00  0.00     0.016 A 
ATOM     39  C   UNL A   1      37.031  31.508  29.014  1.00  0.00     0.016 A 
ATOM     40  C   UNL A   1      38.192  30.173  31.201  1.00  0.00     0.010 A 
ATOM     41  C   UNL A   1      38.253  30.850  28.870  1.00  0.00     0.010 A 
ATOM     42  C   UNL A   1      38.853  30.204  29.967  1.00  0.00    -0.014 A 
BRANCH  42  43
ATOM     43  C   UNL A   1      40.255  29.736  29.841  1.00  0.00     0.031 A 
ATOM     44  C   UNL A   1      41.356  30.740  30.040  1.00  0.00     0.074 A 
ATOM     45  C   UNL A   1      40.543  28.464  29.514  1.00  0.00     0.049 A 
ATOM     46  N   UNL A   1      42.627  30.645  29.756  1.00  0.00    -0.248 NA
ATOM     47  C   UNL A   1      40.963  32.029  30.633  1.00  0.00     0.031 C 
ATOM     48  C   UNL A   1      39.569  27.383  29.380  1.00  0.00     0.029 A 
ATOM     49  N   UNL A   1      41.746  27.876  29.208  1.00  0.00    -0.354 N 
ATOM     50  C   UNL A   1      43.181  31.873  30.102  1.00  0.00     0.074 A 
ATOM     51  C   UNL A   1      42.108  32.695  30.617  1.00  0.00     0.031 C 
ATOM     52  C   UNL A   1      40.208  26.268  28.986  1.00  0.00     0.029 A 
ATOM     53  C   UNL A   1      41.625  26.572  28.785  1.00  0.00     0.049 A 
ATOM     54  H   UNL A   1      42.609  28.342  29.283  1.00  0.00     0.167 HD
ATOM     55  C   UNL A   1      44.467  32.277  29.989  1.00  0.00     0.037 A 
ATOM     56  C   UNL A   1      42.544  25.742  28.250  1.00  0.00     0.037 A 
ATOM     57  C   UNL A   1      45.523  31.445  29.478  1.00  0.00     0.049 A 
ATOM     58  C   UNL A   1      43.956  26.238  28.054  1.00  0.00     0.074 A 
ATOM     59  C   UNL A   1      46.859  31.757  29.307  1.00  0.00     0.029 A 
ATOM     60  N   UNL A   1      45.359  30.133  29.055  1.00  0.00    -0.354 N 
ATOM     61  N   UNL A   1      44.467  27.410  28.349  1.00  0.00    -0.248 NA
ATOM     62  C   UNL A   1      44.915  25.306  27.440  1.00  0.00     0.031 C 
ATOM     63  C   UNL A   1      47.495  30.648  28.738  1.00  0.00     0.029 A 
ATOM     64  C   UNL A   1      46.567  29.626  28.609  1.00  0.00     0.049 A 
ATOM     65  H   UNL A   1      44.509  29.636  29.070  1.00  0.00     0.167 HD
ATOM     66  C   UNL A   1      45.812  27.343  27.994  1.00  0.00     0.074 A 
ATOM     67  C   UNL A   1      46.035  26.017  27.456  1.00  0.00     0.031 C 
ATOM     68  C   UNL A   1      46.775  28.290  28.110  1.00  0.00     0.037 A 
BRANCH  55  69
ATOM     69  C   UNL A   1      44.791  33.693  30.377  1.00  0.00     0.058 A 
ATOM     70  C   UNL A   1      45.217  34.030  31.670  1.00  0.00     0.135 A 
ATOM     71  C   UNL A   1      44.692  34.725  29.429  1.00  0.00     0.135 A 
ATOM     72  F   UNL A   1      45.311  33.086  32.620  1.00  0.00    -0.206 F 
ATOM     73  C   UNL A   1      45.508  35.346  32.019  1.00  0.00     0.059 A 
ATOM     74  C   UNL A   1      45.003  36.043  29.748  1.00  0.00     0.059 A 
ATOM     75  F   UNL A   1      44.284  34.458  28.178  1.00  0.00    -0.206 F 
ATOM     76  C   UNL A   1      45.397  36.345  31.051  1.00  0.00     0.060 A 
BRANCH  76  77
ATOM     77  S   UNL A   1      45.775  38.047  31.517  1.00  0.00     0.124 S 
ATOM     78  O   UNL A   1      45.740  37.964  32.974  1.00  0.00    -0.237 OA
ATOM     79  O   UNL A   1      47.094  38.249  30.926  1.00  0.00    -0.237 OA
ATOM     80  O   UNL A   1      44.694  38.817  30.909  1.00  0.00    -0.744 OA
ENDBRANCH  76  77
ENDBRANCH  55  69
BRANCH  56  81
ATOM     81  C   UNL A   1      42.152  24.372  27.822  1.00  0.00     0.058 A 
ATOM     82  C   UNL A   1      42.357  23.264  28.659  1.00  0.00     0.135 A 
ATOM     83  C   UNL A   1      41.565  24.138  26.567  1.00  0.00     0.135 A 
ATOM     84  F   UNL A   1      42.928  23.430  29.862  1.00  0.00    -0.206 F 
ATOM     85  C   UNL A   1      42.007  21.976  28.264  1.00  0.00     0.059 A 
ATOM     86  C   UNL A   1      41.183  22.864  26.161  1.00  0.00     0.059 A 
ATOM     87  F   UNL A   1      41.343  25.163  25.728  1.00  0.00    -0.206 F 
ATOM     88  C   UNL A   1      41.417  21.787  27.014  1.00  0.00     0.060 A 
BRANCH  88  89
ATOM     89  S   UNL A   1      40.924  20.116  26.531  1.00  0.00     0.124 S 
ATOM     90  O   UNL A   1      41.994  19.750  25.610  1.00  0.00    -0.237 OA
ATOM     91  O   UNL A   1      40.917  19.416  27.811  1.00  0.00    -0.237 OA
ATOM     92  O   UNL A   1      39.610  20.315  25.927  1.00  0.00    -0.744 OA
ENDBRANCH  88  89
ENDBRANCH  56  81
BRANCH  68  93
ATOM     93  C   UNL A   1      48.179  27.924  27.719  1.00  0.00     0.058 A 
ATOM     94  C   UNL A   1      49.046  27.262  28.599  1.00  0.00     0.135 A 
ATOM     95  C   UNL A   1      48.613  28.128  26.398  1.00  0.00     0.135 A 
ATOM     96  F   UNL A   1      48.683  27.049  29.874  1.00  0.00    -0.206 F 
ATOM     97  C   UNL A   1      50.294  26.808  28.182  1.00  0.00     0.059 A 
ATOM     98  C   UNL A   1      49.845  27.662  25.953  1.00  0.00     0.059 A 
ATOM     99  F   UNL A   1      47.815  28.749  25.514  1.00  0.00    -0.206 F 
ATOM    100  C   UNL A   1      50.679  27.000  26.853  1.00  0.00     0.060 A 
BRANCH 100 101
ATOM    101  S   UNL A   1      52.259  26.322  26.301  1.00  0.00     0.124 S 
ATOM    102  O   UNL A   1      53.183  26.900  27.272  1.00  0.00    -0.237 OA
ATOM    103  O   UNL A   1      52.038  24.884  26.413  1.00  0.00    -0.237 OA
ATOM    104  O   UNL A   1      52.388  26.826  24.937  1.00  0.00    -0.744 OA
ENDBRANCH 100 101
ENDBRANCH  68  93
ENDBRANCH  42  43
ENDBRANCH  35  37
ENDBRANCH  34  35
ENDBRANCH  33  34
ENDBRANCH  32  33
ENDBRANCH  31  32
ENDBRANCH   1  31
TORSDOF 25
ENDMDL
MODEL 2
REMARK VINA RESULT:      -8.8      2.142      2.781
REMARK SMILES CCCc1cc(OC(F)(F)F)cc2c1O[C@H](C(F)(F)F)C(C(=O)OCCOCCOCCOC(=O)c1ccc(-c3c4nc(c(-c5c(F)cc(S(=O)(=O)[O-])cc5F)c5ccc([nH]5)c(-c5c(F)cc(S(=O)(=O)[O-])cc5F)c5nc(c(-c6c(F)cc(S(=O)(=O)[O-])cc6F)c6ccc3[nH]6)C=C5)C=C4)cc1)=C2
REMARK SMILES IDX 29 1 28 2 27 3 26 4 25 5 24 6 22 7 23 8 21 9 4 10 5 11 14 12
REMARK SMILES IDX 6 13 13 14 15 15 12 16 102 17 16 18 3 19 2 20 1 21 7 22 8 23
REMARK SMILES IDX 9 24 10 25 11 26 17 27 18 28 19 29 20 30 30 31 31 32 32 33
REMARK SMILES IDX 33 34 34 35 35 36 36 37 37 38 101 39 38 40 100 41 39 42
REMARK SMILES IDX 40 43 41 44 94 45 42 46 99 47 93 48 95 49 43 50 98 51 92 52
REMARK SMILES IDX 91 53 44 55 78 56 57 57 77 58 58 59 61 60 76 61 96 62 59 63
REMARK SMILES IDX 60 64 75 66 97 67 62 68 45 69 46 70 55 71 47 72 48 73 54 74
REMARK SMILES IDX 56 75 49 76 50 77 51 78 52 79 53 80 79 81 80 82 89 83 81 84
REMARK SMILES IDX 82 85 88 86 90 87 83 88 84 89 85 90 86 91 87 92 63 93 64 94
REMARK SMILES IDX 73 95 65 96 66 97 72 98 74 99 67 100 68 101 69 102 70 103
REMARK SMILES IDX 71 104
REMARK H PARENT 95 54 61 65
REMARK Flexibility Score: inf
ROOT
ATOM      1  C   UNL A   1      31.501  32.271  27.185  1.00  0.00     0.188 C 
ENDROOT
BRANCH   1   2
ATOM      2  C   UNL A   1      31.386  31.173  26.105  1.00  0.00     0.188 C 
BRANCH   2   3
ATOM      3  O   UNL A   1      32.478  30.321  25.806  1.00  0.00    -0.376 OA
BRANCH   3   4
ATOM      4  C   UNL A   1      32.356  29.346  24.789  1.00  0.00     0.202 C 
BRANCH   4   5
ATOM      5  C   UNL A   1      30.984  28.727  24.528  1.00  0.00     0.261 C 
BRANCH   5   6
ATOM      6  O   UNL A   1      31.032  27.551  23.703  1.00  0.00    -0.460 OA
BRANCH   6   7
ATOM      7  C   UNL A   1      30.366  26.481  24.206  1.00  0.00     0.338 C 
ATOM      8  O   UNL A   1      29.168  26.405  24.383  1.00  0.00    -0.246 OA
BRANCH   7   9
ATOM      9  C   UNL A   1      31.261  25.332  24.457  1.00  0.00     0.087 C 
ATOM     10  C   UNL A   1      34.162  22.402  24.005  1.00  0.00    -0.002 A 
ATOM     11  C   UNL A   1      33.895  21.110  24.477  1.00  0.00     0.054 A 
ATOM     12  C   UNL A   1      33.134  23.348  24.082  1.00  0.00     0.131 A 
ATOM     13  C   UNL A   1      32.621  20.757  24.939  1.00  0.00     0.130 A 
ATOM     14  C   UNL A   1      31.860  23.029  24.588  1.00  0.00     0.021 A 
ATOM     15  O   UNL A   1      33.426  24.618  23.641  1.00  0.00    -0.475 OA
ATOM     16  C   UNL A   1      31.609  21.725  25.007  1.00  0.00     0.058 A 
ATOM     17  C   UNL A   1      30.827  24.069  24.592  1.00  0.00     0.027 C 
ATOM     18  C   UNL A   1      32.742  25.642  24.393  1.00  0.00     0.316 C 
BRANCH  10  19
ATOM     19  C   UNL A   1      35.535  22.822  23.523  1.00  0.00     0.039 C 
BRANCH  19  20
ATOM     20  C   UNL A   1      36.462  23.461  24.559  1.00  0.00     0.001 C 
ATOM     21  C   UNL A   1      37.153  22.438  25.450  1.00  0.00     0.004 C 
ENDBRANCH  19  20
ENDBRANCH  10  19
BRANCH  13  22
ATOM     22  O   UNL A   1      32.252  19.509  25.360  1.00  0.00    -0.406 OA
BRANCH  22  23
ATOM     23  C   UNL A   1      32.658  18.414  24.553  1.00  0.00     0.573 C 
ATOM     24  F   UNL A   1      33.997  18.236  24.597  1.00  0.00    -0.132 F 
ATOM     25  F   UNL A   1      32.039  17.276  24.930  1.00  0.00    -0.132 F 
ATOM     26  F   UNL A   1      32.317  18.671  23.270  1.00  0.00    -0.132 F 
ENDBRANCH  22  23
ENDBRANCH  13  22
BRANCH  18  27
ATOM     27  C   UNL A   1      33.415  25.870  25.768  1.00  0.00     0.430 C 
ATOM     28  F   UNL A   1      34.434  26.756  25.677  1.00  0.00    -0.167 F 
ATOM     29  F   UNL A   1      32.550  26.371  26.682  1.00  0.00    -0.167 F 
ATOM     30  F   UNL A   1      33.924  24.741  26.314  1.00  0.00    -0.167 F 
ENDBRANCH  18  27
ENDBRANCH   7   9
ENDBRANCH   6   7
ENDBRANCH   5   6
ENDBRANCH   4   5
ENDBRANCH   3   4
ENDBRANCH   2   3
ENDBRANCH   1   2
BRANCH   1  31
ATOM     31  O   UNL A   1      32.363  33.383  27.013  1.00  0.00    -0.376 OA
BRANCH  31  32
ATOM     32  C   UNL A   1      33.252  33.742  28.057  1.00  0.00     0.202 C 
BRANCH  32  33
ATOM     33  C   UNL A   1      33.952  32.638  28.849  1.00  0.00     0.261 C 
BRANCH  33  34
ATOM     34  O   UNL A   1      35.081  33.104  29.605  1.00  0.00    -0.460 OA
BRANCH  34  35
ATOM     35  C   UNL A   1      35.454  32.308  30.637  1.00  0.00     0.338 C 
ATOM     36  O   UNL A   1      34.759  31.922  31.561  1.00  0.00    -0.246 OA
BRANCH  35  37
ATOM     37  C   UNL A   1      36.836  31.847  30.431  1.00  0.00     0.060 A 
ATOM     38  C   UNL A   1      37.527  31.287  31.514  1.00  0.00     0.016 A 
ATOM     39  C   UNL A   1      37.474  32.055  29.209  1.00  0.00     0.016 A 
ATOM     40  C   UNL A   1      38.875  30.950  31.383  1.00  0.00     0.010 A 
ATOM     41  C   UNL A   1      38.828  31.741  29.088  1.00  0.00     0.010 A 
ATOM     42  C   UNL A   1      39.542  31.214  30.181  1.00  0.00    -0.014 A 
BRANCH  42  43
ATOM     43  C   UNL A   1      41.020  31.128  30.093  1.00  0.00     0.031 A 
ATOM     44  C   UNL A   1      41.827  32.296  30.589  1.00  0.00     0.074 A 
ATOM     45  C   UNL A   1      41.630  30.061  29.547  1.00  0.00     0.049 A 
ATOM     46  N   UNL A   1      43.092  32.567  30.410  1.00  0.00    -0.248 NA
ATOM     47  C   UNL A   1      41.100  33.296  31.388  1.00  0.00     0.031 C 
ATOM     48  C   UNL A   1      40.963  28.836  29.112  1.00  0.00     0.029 A 
ATOM     49  N   UNL A   1      42.953  29.853  29.243  1.00  0.00    -0.354 N 
ATOM     50  C   UNL A   1      43.307  33.785  31.043  1.00  0.00     0.074 A 
ATOM     51  C   UNL A   1      42.042  34.200  31.610  1.00  0.00     0.031 C 
ATOM     52  C   UNL A   1      41.876  28.015  28.564  1.00  0.00     0.029 A 
ATOM     53  C   UNL A   1      43.178  28.680  28.560  1.00  0.00     0.049 A 
ATOM     54  H   UNL A   1      43.669  30.482  29.488  1.00  0.00     0.167 HD
ATOM     55  C   UNL A   1      44.455  34.496  31.132  1.00  0.00     0.037 A 
ATOM     56  C   UNL A   1      44.296  28.225  27.956  1.00  0.00     0.037 A 
ATOM     57  C   UNL A   1      45.705  34.066  30.564  1.00  0.00     0.049 A 
ATOM     58  C   UNL A   1      45.546  29.070  27.994  1.00  0.00     0.074 A 
ATOM     59  C   UNL A   1      46.927  34.714  30.583  1.00  0.00     0.029 A 
ATOM     60  N   UNL A   1      45.891  32.876  29.876  1.00  0.00    -0.354 N 
ATOM     61  N   UNL A   1      45.736  30.238  28.563  1.00  0.00    -0.248 NA
ATOM     62  C   UNL A   1      46.732  28.545  27.298  1.00  0.00     0.031 C 
ATOM     63  C   UNL A   1      47.842  33.936  29.866  1.00  0.00     0.029 A 
ATOM     64  C   UNL A   1      47.204  32.777  29.451  1.00  0.00     0.049 A 
ATOM     65  H   UNL A   1      45.192  32.202  29.713  1.00  0.00     0.167 HD
ATOM     66  C   UNL A   1      47.068  30.567  28.327  1.00  0.00     0.074 A 
ATOM     67  C   UNL A   1      47.637  29.479  27.558  1.00  0.00     0.031 C 
ATOM     68  C   UNL A   1      47.759  31.667  28.717  1.00  0.00     0.037 A 
BRANCH  55  69
ATOM     69  C   UNL A   1      44.399  35.830  31.822  1.00  0.00     0.058 A 
ATOM     70  C   UNL A   1      44.697  35.975  33.185  1.00  0.00     0.135 A 
ATOM     71  C   UNL A   1      44.061  36.986  31.099  1.00  0.00     0.135 A 
ATOM     72  F   UNL A   1      45.008  34.901  33.928  1.00  0.00    -0.206 F 
ATOM     73  C   UNL A   1      44.636  37.215  33.815  1.00  0.00     0.059 A 
ATOM     74  C   UNL A   1      44.019  38.240  31.700  1.00  0.00     0.059 A 
ATOM     75  F   UNL A   1      43.762  36.903  29.793  1.00  0.00    -0.206 F 
ATOM     76  C   UNL A   1      44.295  38.341  33.064  1.00  0.00     0.060 A 
BRANCH  76  77
ATOM     77  S   UNL A   1      44.217  39.942  33.893  1.00  0.00     0.124 S 
ATOM     78  O   UNL A   1      44.291  39.547  35.296  1.00  0.00    -0.237 OA
ATOM     79  O   UNL A   1      45.393  40.626  33.365  1.00  0.00    -0.237 OA
ATOM     80  O   UNL A   1      42.933  40.488  33.463  1.00  0.00    -0.744 OA
ENDBRANCH  76  77
ENDBRANCH  55  69
BRANCH  56  81
ATOM     81  C   UNL A   1      44.276  26.927  27.230  1.00  0.00     0.058 A 
ATOM     82  C   UNL A   1      44.727  25.747  27.841  1.00  0.00     0.135 A 
ATOM     83  C   UNL A   1      43.808  26.836  25.909  1.00  0.00     0.135 A 
ATOM     84  F   UNL A   1      45.200  25.781  29.096  1.00  0.00    -0.206 F 
ATOM     85  C   UNL A   1      44.727  24.529  27.167  1.00  0.00     0.059 A 
ATOM     86  C   UNL A   1      43.772  25.626  25.224  1.00  0.00     0.059 A 
ATOM     87  F   UNL A   1      43.361  27.934  25.277  1.00  0.00    -0.206 F 
ATOM     88  C   UNL A   1      44.243  24.478  25.859  1.00  0.00     0.060 A 
BRANCH  88  89
ATOM     89  S   UNL A   1      44.203  22.884  25.010  1.00  0.00     0.124 S 
ATOM     90  O   UNL A   1      42.769  22.631  24.927  1.00  0.00    -0.237 OA
ATOM     91  O   UNL A   1      44.870  23.191  23.748  1.00  0.00    -0.237 OA
ATOM     92  O   UNL A   1      44.949  22.006  25.906  1.00  0.00    -0.744 OA
ENDBRANCH  88  89
ENDBRANCH  56  81
BRANCH  68  93
ATOM     93  C   UNL A   1      49.225  31.735  28.392  1.00  0.00     0.058 A 
ATOM     94  C   UNL A   1      50.193  31.115  29.194  1.00  0.00     0.135 A 
ATOM     95  C   UNL A   1      49.647  32.323  27.187  1.00  0.00     0.135 A 
ATOM     96  F   UNL A   1      49.842  30.545  30.358  1.00  0.00    -0.206 F 
ATOM     97  C   UNL A   1      51.530  31.069  28.811  1.00  0.00     0.059 A 
ATOM     98  C   UNL A   1      50.973  32.268  26.774  1.00  0.00     0.059 A 
ATOM     99  F   UNL A   1      48.757  32.921  26.380  1.00  0.00    -0.206 F 
ATOM    100  C   UNL A   1      51.908  31.637  27.592  1.00  0.00     0.060 A 
BRANCH 100 101
ATOM    101  S   UNL A   1      53.628  31.487  27.062  1.00  0.00     0.124 S 
ATOM    102  O   UNL A   1      54.340  32.037  28.212  1.00  0.00    -0.237 OA
ATOM    103  O   UNL A   1      53.768  30.048  26.859  1.00  0.00    -0.237 OA
ATOM    104  O   UNL A   1      53.682  32.293  25.846  1.00  0.00    -0.744 OA
ENDBRANCH 100 101
ENDBRANCH  68  93
ENDBRANCH  42  43
ENDBRANCH  35  37
ENDBRANCH  34  35
ENDBRANCH  33  34
ENDBRANCH  32  33
ENDBRANCH  31  32
ENDBRANCH   1  31
TORSDOF 25
ENDMDL
MODEL 3
REMARK VINA RESULT:      -8.5      5.707     10.794
REMARK SMILES CCCc1cc(OC(F)(F)F)cc2c1O[C@H](C(F)(F)F)C(C(=O)OCCOCCOCCOC(=O)c1ccc(-c3c4nc(c(-c5c(F)cc(S(=O)(=O)[O-])cc5F)c5ccc([nH]5)c(-c5c(F)cc(S(=O)(=O)[O-])cc5F)c5nc(c(-c6c(F)cc(S(=O)(=O)[O-])cc6F)c6ccc3[nH]6)C=C5)C=C4)cc1)=C2
REMARK SMILES IDX 29 1 28 2 27 3 26 4 25 5 24 6 22 7 23 8 21 9 4 10 5 11 14 12
REMARK SMILES IDX 6 13 13 14 15 15 12 16 102 17 16 18 3 19 2 20 1 21 7 22 8 23
REMARK SMILES IDX 9 24 10 25 11 26 17 27 18 28 19 29 20 30 30 31 31 32 32 33
REMARK SMILES IDX 33 34 34 35 35 36 36 37 37 38 101 39 38 40 100 41 39 42
REMARK SMILES IDX 40 43 41 44 94 45 42 46 99 47 93 48 95 49 43 50 98 51 92 52
REMARK SMILES IDX 91 53 44 55 78 56 57 57 77 58 58 59 61 60 76 61 96 62 59 63
REMARK SMILES IDX 60 64 75 66 97 67 62 68 45 69 46 70 55 71 47 72 48 73 54 74
REMARK SMILES IDX 56 75 49 76 50 77 51 78 52 79 53 80 79 81 80 82 89 83 81 84
REMARK SMILES IDX 82 85 88 86 90 87 83 88 84 89 85 90 86 91 87 92 63 93 64 94
REMARK SMILES IDX 73 95 65 96 66 97 72 98 74 99 67 100 68 101 69 102 70 103
REMARK SMILES IDX 71 104
REMARK H PARENT 95 54 61 65
REMARK Flexibility Score: inf
ROOT
ATOM      1  C   UNL A   1      34.977  29.252  27.205  1.00  0.00     0.188 C 
ENDROOT
BRANCH   1   2
ATOM      2  C   UNL A   1      36.185  29.835  27.972  1.00  0.00     0.188 C 
BRANCH   2   3
ATOM      3  O   UNL A   1      37.506  29.677  27.489  1.00  0.00    -0.376 OA
BRANCH   3   4
ATOM      4  C   UNL A   1      38.462  28.974  28.259  1.00  0.00     0.202 C 
BRANCH   4   5
ATOM      5  C   UNL A   1      39.778  28.567  27.599  1.00  0.00     0.261 C 
BRANCH   5   6
ATOM      6  O   UNL A   1      40.320  27.336  28.107  1.00  0.00    -0.460 OA
BRANCH   6   7
ATOM      7  C   UNL A   1      41.579  27.436  28.603  1.00  0.00     0.338 C 
ATOM      8  O   UNL A   1      41.917  28.095  29.564  1.00  0.00    -0.246 OA
BRANCH   7   9
ATOM      9  C   UNL A   1      42.533  26.567  27.884  1.00  0.00     0.087 C 
ATOM     10  C   UNL A   1      45.396  25.183  25.221  1.00  0.00    -0.002 A 
ATOM     11  C   UNL A   1      45.246  23.901  24.674  1.00  0.00     0.054 A 
ATOM     12  C   UNL A   1      44.370  25.664  26.041  1.00  0.00     0.131 A 
ATOM     13  C   UNL A   1      44.076  23.159  24.880  1.00  0.00     0.130 A 
ATOM     14  C   UNL A   1      43.207  24.917  26.302  1.00  0.00     0.021 A 
ATOM     15  O   UNL A   1      44.550  26.913  26.591  1.00  0.00    -0.475 OA
ATOM     16  C   UNL A   1      43.064  23.664  25.709  1.00  0.00     0.058 A 
ATOM     17  C   UNL A   1      42.161  25.515  27.138  1.00  0.00     0.027 C 
ATOM     18  C   UNL A   1      43.974  27.032  27.909  1.00  0.00     0.316 C 
BRANCH  10  19
ATOM     19  C   UNL A   1      46.658  25.999  25.037  1.00  0.00     0.039 C 
BRANCH  19  20
ATOM     20  C   UNL A   1      47.952  25.399  25.593  1.00  0.00     0.001 C 
ATOM     21  C   UNL A   1      49.201  26.097  25.072  1.00  0.00     0.004 C 
ENDBRANCH  19  20
ENDBRANCH  10  19
BRANCH  13  22
ATOM     22  O   UNL A   1      43.815  21.930  24.340  1.00  0.00    -0.406 OA
BRANCH  22  23
ATOM     23  C   UNL A   1      44.332  20.803  25.032  1.00  0.00     0.573 C 
ATOM     24  F   UNL A   1      43.477  20.371  25.985  1.00  0.00    -0.132 F 
ATOM     25  F   UNL A   1      44.607  19.793  24.181  1.00  0.00    -0.132 F 
ATOM     26  F   UNL A   1      45.484  21.161  25.643  1.00  0.00    -0.132 F 
ENDBRANCH  22  23
ENDBRANCH  13  22
BRANCH  18  27
ATOM     27  C   UNL A   1      44.860  26.339  28.972  1.00  0.00     0.430 C 
ATOM     28  F   UNL A   1      46.135  26.203  28.538  1.00  0.00    -0.167 F 
ATOM     29  F   UNL A   1      44.919  27.046  30.125  1.00  0.00    -0.167 F 
ATOM     30  F   UNL A   1      44.428  25.102  29.312  1.00  0.00    -0.167 F 
ENDBRANCH  18  27
ENDBRANCH   7   9
ENDBRANCH   6   7
ENDBRANCH   5   6
ENDBRANCH   4   5
ENDBRANCH   3   4
ENDBRANCH   2   3
ENDBRANCH   1   2
BRANCH   1  31
ATOM     31  O   UNL A   1      34.038  30.097  26.565  1.00  0.00    -0.376 OA
BRANCH  31  32
ATOM     32  C   UNL A   1      32.908  30.556  27.287  1.00  0.00     0.202 C 
BRANCH  32  33
ATOM     33  C   UNL A   1      32.625  32.057  27.348  1.00  0.00     0.261 C 
BRANCH  33  34
ATOM     34  O   UNL A   1      33.747  32.833  27.798  1.00  0.00    -0.460 OA
BRANCH  34  35
ATOM     35  C   UNL A   1      33.464  33.766  28.739  1.00  0.00     0.338 C 
ATOM     36  O   UNL A   1      32.510  34.525  28.765  1.00  0.00    -0.246 OA
BRANCH  35  37
ATOM     37  C   UNL A   1      34.433  33.665  29.843  1.00  0.00     0.060 A 
ATOM     38  C   UNL A   1      34.664  34.793  30.641  1.00  0.00     0.016 A 
ATOM     39  C   UNL A   1      35.176  32.500  30.023  1.00  0.00     0.016 A 
ATOM     40  C   UNL A   1      35.660  34.766  31.617  1.00  0.00     0.010 A 
ATOM     41  C   UNL A   1      36.189  32.483  30.982  1.00  0.00     0.010 A 
ATOM     42  C   UNL A   1      36.456  33.623  31.764  1.00  0.00    -0.014 A 
BRANCH  42  43
ATOM     43  C   UNL A   1      37.688  33.651  32.589  1.00  0.00     0.031 A 
ATOM     44  C   UNL A   1      39.013  33.646  31.879  1.00  0.00     0.074 A 
ATOM     45  C   UNL A   1      37.634  33.636  33.933  1.00  0.00     0.049 A 
ATOM     46  N   UNL A   1      40.210  33.430  32.356  1.00  0.00    -0.248 NA
ATOM     47  C   UNL A   1      38.978  33.913  30.432  1.00  0.00     0.031 C 
ATOM     48  C   UNL A   1      36.414  33.726  34.731  1.00  0.00     0.029 A 
ATOM     49  N   UNL A   1      38.638  33.511  34.861  1.00  0.00    -0.354 N 
ATOM     50  C   UNL A   1      41.067  33.501  31.264  1.00  0.00     0.074 A 
ATOM     51  C   UNL A   1      40.253  33.778  30.101  1.00  0.00     0.031 C 
ATOM     52  C   UNL A   1      36.737  33.620  36.032  1.00  0.00     0.029 A 
ATOM     53  C   UNL A   1      38.177  33.398  36.152  1.00  0.00     0.049 A 
ATOM     54  H   UNL A   1      39.593  33.503  34.625  1.00  0.00     0.167 HD
ATOM     55  C   UNL A   1      42.410  33.336  31.237  1.00  0.00     0.037 A 
ATOM     56  C   UNL A   1      38.839  33.097  37.289  1.00  0.00     0.037 A 
ATOM     57  C   UNL A   1      43.204  33.064  32.405  1.00  0.00     0.049 A 
ATOM     58  C   UNL A   1      40.324  32.835  37.227  1.00  0.00     0.074 A 
ATOM     59  C   UNL A   1      44.570  32.866  32.490  1.00  0.00     0.029 A 
ATOM     60  N   UNL A   1      42.700  32.951  33.693  1.00  0.00    -0.354 N 
ATOM     61  N   UNL A   1      41.125  32.867  36.187  1.00  0.00    -0.248 NA
ATOM     62  C   UNL A   1      40.997  32.483  38.488  1.00  0.00     0.031 C 
ATOM     63  C   UNL A   1      44.886  32.589  33.824  1.00  0.00     0.029 A 
ATOM     64  C   UNL A   1      43.726  32.672  34.578  1.00  0.00     0.049 A 
ATOM     65  H   UNL A   1      41.752  33.055  33.940  1.00  0.00     0.167 HD
ATOM     66  C   UNL A   1      42.397  32.579  36.674  1.00  0.00     0.074 A 
ATOM     67  C   UNL A   1      42.260  32.368  38.100  1.00  0.00     0.031 C 
ATOM     68  C   UNL A   1      43.572  32.502  36.002  1.00  0.00     0.037 A 
BRANCH  55  69
ATOM     69  C   UNL A   1      43.094  33.396  29.900  1.00  0.00     0.058 A 
ATOM     70  C   UNL A   1      43.463  34.613  29.307  1.00  0.00     0.135 A 
ATOM     71  C   UNL A   1      43.402  32.212  29.211  1.00  0.00     0.135 A 
ATOM     72  F   UNL A   1      43.174  35.776  29.913  1.00  0.00    -0.206 F 
ATOM     73  C   UNL A   1      44.090  34.656  28.065  1.00  0.00     0.059 A 
ATOM     74  C   UNL A   1      44.053  32.228  27.981  1.00  0.00     0.059 A 
ATOM     75  F   UNL A   1      43.067  31.020  29.731  1.00  0.00    -0.206 F 
ATOM     76  C   UNL A   1      44.380  33.458  27.410  1.00  0.00     0.060 A 
BRANCH  76  77
ATOM     77  S   UNL A   1      45.192  33.528  25.800  1.00  0.00     0.124 S 
ATOM     78  O   UNL A   1      45.424  34.961  25.653  1.00  0.00    -0.237 OA
ATOM     79  O   UNL A   1      46.383  32.713  26.013  1.00  0.00    -0.237 OA
ATOM     80  O   UNL A   1      44.200  32.958  24.892  1.00  0.00    -0.744 OA
ENDBRANCH  76  77
ENDBRANCH  55  69
BRANCH  56  81
ATOM     81  C   UNL A   1      38.100  32.986  38.575  1.00  0.00     0.058 A 
ATOM     82  C   UNL A   1      37.339  31.847  38.878  1.00  0.00     0.135 A 
ATOM     83  C   UNL A   1      38.134  34.017  39.529  1.00  0.00     0.135 A 
ATOM     84  F   UNL A   1      37.259  30.840  37.996  1.00  0.00    -0.206 F 
ATOM     85  C   UNL A   1      36.631  31.738  40.072  1.00  0.00     0.059 A 
ATOM     86  C   UNL A   1      37.457  33.919  40.741  1.00  0.00     0.059 A 
ATOM     87  F   UNL A   1      38.850  35.128  39.291  1.00  0.00    -0.206 F 
ATOM     88  C   UNL A   1      36.700  32.779  40.999  1.00  0.00     0.060 A 
BRANCH  88  89
ATOM     89  S   UNL A   1      35.815  32.606  42.565  1.00  0.00     0.124 S 
ATOM     90  O   UNL A   1      36.864  32.092  43.439  1.00  0.00    -0.237 OA
ATOM     91  O   UNL A   1      35.383  33.975  42.826  1.00  0.00    -0.237 OA
ATOM     92  O   UNL A   1      34.744  31.669  42.245  1.00  0.00    -0.744 OA
ENDBRANCH  88  89
ENDBRANCH  56  81
BRANCH  68  93
ATOM     93  C   UNL A   1      44.825  32.249  36.792  1.00  0.00     0.058 A 
ATOM     94  C   UNL A   1      45.541  33.289  37.402  1.00  0.00     0.135 A 
ATOM     95  C   UNL A   1      45.238  30.930  37.046  1.00  0.00     0.135 A 
ATOM     96  F   UNL A   1      45.192  34.567  37.186  1.00  0.00    -0.206 F 
ATOM     97  C   UNL A   1      46.619  33.030  38.243  1.00  0.00     0.059 A 
ATOM     98  C   UNL A   1      46.297  30.648  37.901  1.00  0.00     0.059 A 
ATOM     99  F   UNL A   1      44.580  29.899  36.493  1.00  0.00    -0.206 F 
ATOM    100  C   UNL A   1      46.981  31.705  38.497  1.00  0.00     0.060 A 
BRANCH 100 101
ATOM    101  S   UNL A   1      48.321  31.382  39.664  1.00  0.00     0.124 S 
ATOM    102  O   UNL A   1      49.329  30.780  38.796  1.00  0.00    -0.237 OA
ATOM    103  O   UNL A   1      48.630  32.718  40.163  1.00  0.00    -0.237 OA
ATOM    104  O   UNL A   1      47.714  30.480  40.639  1.00  0.00    -0.744 OA
ENDBRANCH 100 101
ENDBRANCH  68  93
ENDBRANCH  42  43
ENDBRANCH  35  37
ENDBRANCH  34  35
ENDBRANCH  33  34
ENDBRANCH  32  33
ENDBRANCH  31  32
ENDBRANCH   1  31
TORSDOF 25
ENDMDL
