MODEL 1
REMARK VINA RESULT:     -10.1      0.000      0.000
REMARK SMILES CC(C)[C@H](C[C@H]1Cc2ccccc21)C(=O)OCCOCCOCCOC(=O)c1ccc(-c2c3nc(c(-c4c(F)cc(S(=O)(=O)[O-])cc4F)c4ccc([nH]4)c(-c4c(F)cc(S(=O)(=O)[O-])cc4F)c4nc(c(-c5c(F)cc(S(=O)(=O)[O-])cc5F)c5ccc2[nH]5)C=C4)C=C3)cc1
REMARK SMILES IDX 21 1 20 2 19 3 18 4 17 5 16 6 14 7 15 8 4 9 2 10 1 11 3 12
REMARK SMILES IDX 5 13 6 14 7 15 13 16 8 17 12 18 9 19 11 20 10 21 22 22 23 23
REMARK SMILES IDX 24 24 25 25 26 26 27 27 28 28 29 29 93 30 30 31 92 32 31 33
REMARK SMILES IDX 32 34 33 35 86 36 34 37 91 38 85 39 87 40 35 41 90 42 84 43
REMARK SMILES IDX 83 44 36 46 70 47 49 48 69 49 50 50 53 51 68 52 88 53 51 54
REMARK SMILES IDX 52 55 67 57 89 58 54 59 37 60 38 61 47 62 39 63 40 64 46 65
REMARK SMILES IDX 48 66 41 67 42 68 43 69 44 70 45 71 71 72 72 73 81 74 73 75
REMARK SMILES IDX 74 76 80 77 82 78 75 79 76 80 77 81 78 82 79 83 55 84 56 85
REMARK SMILES IDX 65 86 57 87 58 88 64 89 66 90 59 91 60 92 61 93 62 94 63 95
REMARK H PARENT 87 45 53 56
REMARK Flexibility Score: inf
ROOT
ATOM      1  C   UNL A   1      42.109  20.629  26.954  1.00  0.00     0.188 C 
ENDROOT
BRANCH   1   2
ATOM      2  C   UNL A   1      40.765  19.940  26.714  1.00  0.00     0.188 C 
BRANCH   2   3
ATOM      3  O   UNL A   1      39.824  20.591  25.896  1.00  0.00    -0.376 OA
BRANCH   3   4
ATOM      4  C   UNL A   1      39.297  21.843  26.313  1.00  0.00     0.202 C 
BRANCH   4   5
ATOM      5  C   UNL A   1      38.037  22.464  25.699  1.00  0.00     0.261 C 
BRANCH   5   6
ATOM      6  O   UNL A   1      36.825  21.695  25.834  1.00  0.00    -0.463 OA
BRANCH   6   7
ATOM      7  C   UNL A   1      35.854  21.993  24.940  1.00  0.00     0.309 C 
ATOM      8  O   UNL A   1      36.070  22.125  23.737  1.00  0.00    -0.252 OA
BRANCH   7   9
ATOM      9  C   UNL A   1      34.432  22.109  25.492  1.00  0.00     0.102 C 
BRANCH   9  10
ATOM     10  C   UNL A   1      34.193  23.459  26.248  1.00  0.00    -0.003 C 
ATOM     11  C   UNL A   1      34.499  24.731  25.443  1.00  0.00     0.008 C 
ATOM     12  C   UNL A   1      32.754  23.543  26.773  1.00  0.00     0.008 C 
ENDBRANCH   9  10
BRANCH   9  13
ATOM     13  C   UNL A   1      33.649  20.922  26.111  1.00  0.00     0.024 C 
BRANCH  13  14
ATOM     14  C   UNL A   1      32.565  20.154  25.343  1.00  0.00     0.025 C 
ATOM     15  C   UNL A   1      32.548  20.236  23.774  1.00  0.00     0.044 C 
ATOM     16  C   UNL A   1      32.728  18.674  25.155  1.00  0.00    -0.041 A 
ATOM     17  C   UNL A   1      32.917  18.785  23.799  1.00  0.00    -0.044 A 
ATOM     18  C   UNL A   1      32.779  17.463  25.799  1.00  0.00     0.004 A 
ATOM     19  C   UNL A   1      33.300  17.720  23.025  1.00  0.00     0.004 A 
ATOM     20  C   UNL A   1      33.171  16.358  25.043  1.00  0.00     0.000 A 
ATOM     21  C   UNL A   1      33.456  16.492  23.669  1.00  0.00     0.000 A 
ENDBRANCH  13  14
ENDBRANCH   9  13
ENDBRANCH   7   9
ENDBRANCH   6   7
ENDBRANCH   5   6
ENDBRANCH   4   5
ENDBRANCH   3   4
ENDBRANCH   2   3
ENDBRANCH   1   2
BRANCH   1  22
ATOM     22  O   UNL A   1      42.249  21.867  27.621  1.00  0.00    -0.376 OA
BRANCH  22  23
ATOM     23  C   UNL A   1      43.070  22.895  27.093  1.00  0.00     0.202 C 
BRANCH  23  24
ATOM     24  C   UNL A   1      42.643  23.764  25.902  1.00  0.00     0.261 C 
BRANCH  24  25
ATOM     25  O   UNL A   1      41.585  24.685  26.152  1.00  0.00    -0.460 OA
BRANCH  25  26
ATOM     26  C   UNL A   1      41.913  25.992  25.951  1.00  0.00     0.338 C 
ATOM     27  O   UNL A   1      42.068  26.560  24.895  1.00  0.00    -0.246 OA
BRANCH  26  28
ATOM     28  C   UNL A   1      41.789  26.664  27.265  1.00  0.00     0.060 A 
ATOM     29  C   UNL A   1      40.823  26.183  28.164  1.00  0.00     0.016 A 
ATOM     30  C   UNL A   1      42.684  27.664  27.647  1.00  0.00     0.016 A 
ATOM     31  C   UNL A   1      40.752  26.703  29.454  1.00  0.00     0.010 A 
ATOM     32  C   UNL A   1      42.585  28.211  28.924  1.00  0.00     0.010 A 
ATOM     33  C   UNL A   1      41.605  27.749  29.822  1.00  0.00    -0.014 A 
BRANCH  33  34
ATOM     34  C   UNL A   1      41.314  28.545  31.034  1.00  0.00     0.031 A 
ATOM     35  C   UNL A   1      40.188  29.536  30.945  1.00  0.00     0.074 A 
ATOM     36  C   UNL A   1      42.030  28.417  32.163  1.00  0.00     0.049 A 
ATOM     37  N   UNL A   1      39.815  30.449  31.800  1.00  0.00    -0.248 NA
ATOM     38  C   UNL A   1      39.381  29.497  29.712  1.00  0.00     0.031 C 
ATOM     39  C   UNL A   1      43.107  27.454  32.384  1.00  0.00     0.029 A 
ATOM     40  N   UNL A   1      41.966  29.126  33.337  1.00  0.00    -0.354 N 
ATOM     41  C   UNL A   1      38.743  31.103  31.204  1.00  0.00     0.074 A 
ATOM     42  C   UNL A   1      38.541  30.501  29.905  1.00  0.00     0.031 C 
ATOM     43  C   UNL A   1      43.621  27.651  33.612  1.00  0.00     0.029 A 
ATOM     44  C   UNL A   1      42.937  28.779  34.245  1.00  0.00     0.049 A 
ATOM     45  H   UNL A   1      41.287  29.817  33.512  1.00  0.00     0.167 HD
ATOM     46  C   UNL A   1      37.995  32.114  31.696  1.00  0.00     0.037 A 
ATOM     47  C   UNL A   1      43.256  29.335  35.432  1.00  0.00     0.037 A 
ATOM     48  C   UNL A   1      38.208  32.710  32.986  1.00  0.00     0.049 A 
ATOM     49  C   UNL A   1      42.456  30.517  35.930  1.00  0.00     0.074 A 
ATOM     50  C   UNL A   1      37.498  33.734  33.587  1.00  0.00     0.029 A 
ATOM     51  N   UNL A   1      39.212  32.343  33.871  1.00  0.00    -0.354 N 
ATOM     52  N   UNL A   1      41.435  31.121  35.366  1.00  0.00    -0.248 NA
ATOM     53  C   UNL A   1      42.853  31.094  37.221  1.00  0.00     0.031 C 
ATOM     54  C   UNL A   1      38.108  34.025  34.811  1.00  0.00     0.029 A 
ATOM     55  C   UNL A   1      39.157  33.138  35.002  1.00  0.00     0.049 A 
ATOM     56  H   UNL A   1      39.866  31.623  33.717  1.00  0.00     0.167 HD
ATOM     57  C   UNL A   1      41.048  32.125  36.250  1.00  0.00     0.074 A 
ATOM     58  C   UNL A   1      41.940  32.042  37.388  1.00  0.00     0.031 C 
ATOM     59  C   UNL A   1      40.045  33.031  36.135  1.00  0.00     0.037 A 
BRANCH  46  60
ATOM     60  C   UNL A   1      36.903  32.661  30.819  1.00  0.00     0.058 A 
ATOM     61  C   UNL A   1      37.152  33.648  29.853  1.00  0.00     0.135 A 
ATOM     62  C   UNL A   1      35.592  32.173  30.936  1.00  0.00     0.135 A 
ATOM     63  F   UNL A   1      38.382  34.170  29.719  1.00  0.00    -0.206 F 
ATOM     64  C   UNL A   1      36.135  34.147  29.047  1.00  0.00     0.059 A 
ATOM     65  C   UNL A   1      34.566  32.634  30.120  1.00  0.00     0.059 A 
ATOM     66  F   UNL A   1      35.298  31.236  31.852  1.00  0.00    -0.206 F 
ATOM     67  C   UNL A   1      34.845  33.632  29.186  1.00  0.00     0.060 A 
BRANCH  67  68
ATOM     68  S   UNL A   1      33.540  34.280  28.122  1.00  0.00     0.124 S 
ATOM     69  O   UNL A   1      32.937  33.050  27.619  1.00  0.00    -0.237 OA
ATOM     70  O   UNL A   1      32.726  35.046  29.060  1.00  0.00    -0.237 OA
ATOM     71  O   UNL A   1      34.267  35.072  27.134  1.00  0.00    -0.744 OA
ENDBRANCH  67  68
ENDBRANCH  46  60
BRANCH  47  72
ATOM     72  C   UNL A   1      44.395  28.803  36.228  1.00  0.00     0.058 A 
ATOM     73  C   UNL A   1      44.233  27.701  37.082  1.00  0.00     0.135 A 
ATOM     74  C   UNL A   1      45.667  29.396  36.167  1.00  0.00     0.135 A 
ATOM     75  F   UNL A   1      43.034  27.109  37.191  1.00  0.00    -0.206 F 
ATOM     76  C   UNL A   1      45.283  27.215  37.855  1.00  0.00     0.059 A 
ATOM     77  C   UNL A   1      46.740  28.911  36.909  1.00  0.00     0.059 A 
ATOM     78  F   UNL A   1      45.879  30.451  35.365  1.00  0.00    -0.206 F 
ATOM     79  C   UNL A   1      46.535  27.825  37.759  1.00  0.00     0.060 A 
BRANCH  79  80
ATOM     80  S   UNL A   1      47.900  27.158  38.736  1.00  0.00     0.124 S 
ATOM     81  O   UNL A   1      48.025  28.159  39.789  1.00  0.00    -0.237 OA
ATOM     82  O   UNL A   1      47.375  25.859  39.148  1.00  0.00    -0.237 OA
ATOM     83  O   UNL A   1      49.003  27.105  37.781  1.00  0.00    -0.744 OA
ENDBRANCH  79  80
ENDBRANCH  47  72
BRANCH  59  84
ATOM     84  C   UNL A   1      39.813  33.976  37.283  1.00  0.00     0.058 A 
ATOM     85  C   UNL A   1      39.039  33.618  38.397  1.00  0.00     0.135 A 
ATOM     86  C   UNL A   1      40.443  35.233  37.301  1.00  0.00     0.135 A 
ATOM     87  F   UNL A   1      38.412  32.431  38.431  1.00  0.00    -0.206 F 
ATOM     88  C   UNL A   1      38.882  34.478  39.480  1.00  0.00     0.059 A 
ATOM     89  C   UNL A   1      40.326  36.096  38.386  1.00  0.00     0.059 A 
ATOM     90  F   UNL A   1      41.206  35.622  36.266  1.00  0.00    -0.206 F 
ATOM     91  C   UNL A   1      39.535  35.713  39.468  1.00  0.00     0.060 A 
BRANCH  91  92
ATOM     92  S   UNL A   1      39.361  36.798  40.900  1.00  0.00     0.124 S 
ATOM     93  O   UNL A   1      40.754  37.077  41.229  1.00  0.00    -0.237 OA
ATOM     94  O   UNL A   1      38.600  37.916  40.354  1.00  0.00    -0.237 OA
ATOM     95  O   UNL A   1      38.643  35.972  41.868  1.00  0.00    -0.744 OA
ENDBRANCH  91  92
ENDBRANCH  59  84
ENDBRANCH  33  34
ENDBRANCH  26  28
ENDBRANCH  25  26
ENDBRANCH  24  25
ENDBRANCH  23  24
ENDBRANCH  22  23
ENDBRANCH   1  22
TORSDOF 23
ENDMDL
MODEL 2
REMARK VINA RESULT:      -9.7      3.261      6.074
REMARK SMILES CC(C)[C@H](C[C@H]1Cc2ccccc21)C(=O)OCCOCCOCCOC(=O)c1ccc(-c2c3nc(c(-c4c(F)cc(S(=O)(=O)[O-])cc4F)c4ccc([nH]4)c(-c4c(F)cc(S(=O)(=O)[O-])cc4F)c4nc(c(-c5c(F)cc(S(=O)(=O)[O-])cc5F)c5ccc2[nH]5)C=C4)C=C3)cc1
REMARK SMILES IDX 21 1 20 2 19 3 18 4 17 5 16 6 14 7 15 8 4 9 2 10 1 11 3 12
REMARK SMILES IDX 5 13 6 14 7 15 13 16 8 17 12 18 9 19 11 20 10 21 22 22 23 23
REMARK SMILES IDX 24 24 25 25 26 26 27 27 28 28 29 29 93 30 30 31 92 32 31 33
REMARK SMILES IDX 32 34 33 35 86 36 34 37 91 38 85 39 87 40 35 41 90 42 84 43
REMARK SMILES IDX 83 44 36 46 70 47 49 48 69 49 50 50 53 51 68 52 88 53 51 54
REMARK SMILES IDX 52 55 67 57 89 58 54 59 37 60 38 61 47 62 39 63 40 64 46 65
REMARK SMILES IDX 48 66 41 67 42 68 43 69 44 70 45 71 71 72 72 73 81 74 73 75
REMARK SMILES IDX 74 76 80 77 82 78 75 79 76 80 77 81 78 82 79 83 55 84 56 85
REMARK SMILES IDX 65 86 57 87 58 88 64 89 66 90 59 91 60 92 61 93 62 94 63 95
REMARK H PARENT 87 45 53 56
REMARK Flexibility Score: inf
ROOT
ATOM      1  C   UNL A   1      42.551  20.082  26.133  1.00  0.00     0.188 C 
ENDROOT
BRANCH   1   2
ATOM      2  C   UNL A   1      43.636  21.053  25.663  1.00  0.00     0.188 C 
BRANCH   2   3
ATOM      3  O   UNL A   1      43.239  22.182  24.923  1.00  0.00    -0.376 OA
BRANCH   3   4
ATOM      4  C   UNL A   1      44.236  23.053  24.407  1.00  0.00     0.202 C 
BRANCH   4   5
ATOM      5  C   UNL A   1      44.971  24.085  25.270  1.00  0.00     0.261 C 
BRANCH   5   6
ATOM      6  O   UNL A   1      44.170  24.765  26.257  1.00  0.00    -0.463 OA
BRANCH   6   7
ATOM      7  C   UNL A   1      44.582  24.611  27.536  1.00  0.00     0.309 C 
ATOM      8  O   UNL A   1      45.059  23.562  27.964  1.00  0.00    -0.252 OA
BRANCH   7   9
ATOM      9  C   UNL A   1      44.478  25.843  28.438  1.00  0.00     0.102 C 
BRANCH   9  10
ATOM     10  C   UNL A   1      45.411  27.008  27.968  1.00  0.00    -0.003 C 
ATOM     11  C   UNL A   1      45.140  28.375  28.614  1.00  0.00     0.008 C 
ATOM     12  C   UNL A   1      46.887  26.646  28.183  1.00  0.00     0.008 C 
ENDBRANCH   9  10
BRANCH   9  13
ATOM     13  C   UNL A   1      44.329  25.771  29.980  1.00  0.00     0.024 C 
BRANCH  13  14
ATOM     14  C   UNL A   1      45.299  24.981  30.870  1.00  0.00     0.025 C 
ATOM     15  C   UNL A   1      46.253  25.771  31.837  1.00  0.00     0.044 C 
ATOM     16  C   UNL A   1      44.767  24.323  32.109  1.00  0.00    -0.041 A 
ATOM     17  C   UNL A   1      45.454  25.163  32.949  1.00  0.00    -0.044 A 
ATOM     18  C   UNL A   1      43.927  23.346  32.585  1.00  0.00     0.004 A 
ATOM     19  C   UNL A   1      45.247  25.172  34.305  1.00  0.00     0.004 A 
ATOM     20  C   UNL A   1      43.689  23.329  33.959  1.00  0.00     0.000 A 
ATOM     21  C   UNL A   1      44.325  24.255  34.810  1.00  0.00     0.000 A 
ENDBRANCH  13  14
ENDBRANCH   9  13
ENDBRANCH   7   9
ENDBRANCH   6   7
ENDBRANCH   5   6
ENDBRANCH   4   5
ENDBRANCH   3   4
ENDBRANCH   2   3
ENDBRANCH   1   2
BRANCH   1  22
ATOM     22  O   UNL A   1      41.166  20.353  26.052  1.00  0.00    -0.376 OA
BRANCH  22  23
ATOM     23  C   UNL A   1      40.537  21.229  26.971  1.00  0.00     0.202 C 
BRANCH  23  24
ATOM     24  C   UNL A   1      40.199  22.686  26.626  1.00  0.00     0.261 C 
BRANCH  24  25
ATOM     25  O   UNL A   1      40.851  23.679  27.411  1.00  0.00    -0.460 OA
BRANCH  25  26
ATOM     26  C   UNL A   1      40.872  24.921  26.852  1.00  0.00     0.338 C 
ATOM     27  O   UNL A   1      40.845  25.201  25.676  1.00  0.00    -0.246 OA
BRANCH  26  28
ATOM     28  C   UNL A   1      40.671  25.885  27.959  1.00  0.00     0.060 A 
ATOM     29  C   UNL A   1      41.556  26.970  28.058  1.00  0.00     0.016 A 
ATOM     30  C   UNL A   1      39.565  25.788  28.803  1.00  0.00     0.016 A 
ATOM     31  C   UNL A   1      41.335  27.966  29.005  1.00  0.00     0.010 A 
ATOM     32  C   UNL A   1      39.367  26.763  29.778  1.00  0.00     0.010 A 
ATOM     33  C   UNL A   1      40.263  27.841  29.897  1.00  0.00    -0.014 A 
BRANCH  33  34
ATOM     34  C   UNL A   1      40.218  28.677  31.116  1.00  0.00     0.031 A 
ATOM     35  C   UNL A   1      39.246  29.822  31.123  1.00  0.00     0.074 A 
ATOM     36  C   UNL A   1      41.021  28.449  32.169  1.00  0.00     0.049 A 
ATOM     37  N   UNL A   1      39.100  30.784  31.993  1.00  0.00    -0.248 NA
ATOM     38  C   UNL A   1      38.319  29.896  29.979  1.00  0.00     0.031 C 
ATOM     39  C   UNL A   1      41.963  27.340  32.298  1.00  0.00     0.029 A 
ATOM     40  N   UNL A   1      41.182  29.165  33.330  1.00  0.00    -0.354 N 
ATOM     41  C   UNL A   1      38.080  31.585  31.496  1.00  0.00     0.074 A 
ATOM     42  C   UNL A   1      37.659  31.014  30.236  1.00  0.00     0.031 C 
ATOM     43  C   UNL A   1      42.624  27.465  33.464  1.00  0.00     0.029 A 
ATOM     44  C   UNL A   1      42.180  28.683  34.141  1.00  0.00     0.049 A 
ATOM     45  H   UNL A   1      40.633  29.950  33.559  1.00  0.00     0.167 HD
ATOM     46  C   UNL A   1      37.541  32.698  32.042  1.00  0.00     0.037 A 
ATOM     47  C   UNL A   1      42.698  29.192  35.278  1.00  0.00     0.037 A 
ATOM     48  C   UNL A   1      37.971  33.262  33.292  1.00  0.00     0.049 A 
ATOM     49  C   UNL A   1      42.135  30.481  35.831  1.00  0.00     0.074 A 
ATOM     50  C   UNL A   1      37.484  34.381  33.941  1.00  0.00     0.029 A 
ATOM     51  N   UNL A   1      38.997  32.755  34.077  1.00  0.00    -0.354 N 
ATOM     52  N   UNL A   1      41.160  31.226  35.362  1.00  0.00    -0.248 NA
ATOM     53  C   UNL A   1      42.743  30.999  37.064  1.00  0.00     0.031 C 
ATOM     54  C   UNL A   1      38.253  34.585  35.091  1.00  0.00     0.029 A 
ATOM     55  C   UNL A   1      39.175  33.555  35.192  1.00  0.00     0.049 A 
ATOM     56  H   UNL A   1      39.519  31.946  33.872  1.00  0.00     0.167 HD
ATOM     57  C   UNL A   1      41.017  32.280  36.261  1.00  0.00     0.074 A 
ATOM     58  C   UNL A   1      42.000  32.072  37.305  1.00  0.00     0.031 C 
ATOM     59  C   UNL A   1      40.150  33.323  36.231  1.00  0.00     0.037 A 
BRANCH  46  60
ATOM     60  C   UNL A   1      36.456  33.396  31.270  1.00  0.00     0.058 A 
ATOM     61  C   UNL A   1      36.726  34.107  30.090  1.00  0.00     0.135 A 
ATOM     62  C   UNL A   1      35.125  33.333  31.709  1.00  0.00     0.135 A 
ATOM     63  F   UNL A   1      37.986  34.222  29.641  1.00  0.00    -0.206 F 
ATOM     64  C   UNL A   1      35.714  34.749  29.383  1.00  0.00     0.059 A 
ATOM     65  C   UNL A   1      34.093  33.940  31.002  1.00  0.00     0.059 A 
ATOM     66  F   UNL A   1      34.815  32.675  32.838  1.00  0.00    -0.206 F 
ATOM     67  C   UNL A   1      34.400  34.657  29.846  1.00  0.00     0.060 A 
BRANCH  67  68
ATOM     68  S   UNL A   1      33.098  35.483  28.908  1.00  0.00     0.124 S 
ATOM     69  O   UNL A   1      32.276  36.038  29.978  1.00  0.00    -0.237 OA
ATOM     70  O   UNL A   1      33.852  36.454  28.121  1.00  0.00    -0.237 OA
ATOM     71  O   UNL A   1      32.487  34.399  28.145  1.00  0.00    -0.744 OA
ENDBRANCH  67  68
ENDBRANCH  46  60
BRANCH  47  72
ATOM     72  C   UNL A   1      43.824  28.501  35.965  1.00  0.00     0.058 A 
ATOM     73  C   UNL A   1      43.590  27.457  36.872  1.00  0.00     0.135 A 
ATOM     74  C   UNL A   1      45.157  28.883  35.743  1.00  0.00     0.135 A 
ATOM     75  F   UNL A   1      42.334  27.065  37.133  1.00  0.00    -0.206 F 
ATOM     76  C   UNL A   1      44.632  26.825  37.544  1.00  0.00     0.059 A 
ATOM     77  C   UNL A   1      46.219  28.248  36.381  1.00  0.00     0.059 A 
ATOM     78  F   UNL A   1      45.438  29.875  34.883  1.00  0.00    -0.206 F 
ATOM     79  C   UNL A   1      45.945  27.227  37.289  1.00  0.00     0.060 A 
BRANCH  79  80
ATOM     80  S   UNL A   1      47.291  26.370  38.136  1.00  0.00     0.124 S 
ATOM     81  O   UNL A   1      47.727  27.381  39.093  1.00  0.00    -0.237 OA
ATOM     82  O   UNL A   1      46.609  25.209  38.699  1.00  0.00    -0.237 OA
ATOM     83  O   UNL A   1      48.232  26.074  37.058  1.00  0.00    -0.744 OA
ENDBRANCH  79  80
ENDBRANCH  47  72
BRANCH  59  84
ATOM     84  C   UNL A   1      40.179  34.297  37.378  1.00  0.00     0.058 A 
ATOM     85  C   UNL A   1      40.923  35.485  37.326  1.00  0.00     0.135 A 
ATOM     86  C   UNL A   1      39.383  34.073  38.515  1.00  0.00     0.135 A 
ATOM     87  F   UNL A   1      41.704  35.748  36.266  1.00  0.00    -0.206 F 
ATOM     88  C   UNL A   1      40.893  36.408  38.368  1.00  0.00     0.059 A 
ATOM     89  C   UNL A   1      39.313  34.995  39.554  1.00  0.00     0.059 A 
ATOM     90  F   UNL A   1      38.639  32.958  38.611  1.00  0.00    -0.206 F 
ATOM     91  C   UNL A   1      40.080  36.156  39.476  1.00  0.00     0.060 A 
BRANCH  91  92
ATOM     92  S   UNL A   1      40.014  37.384  40.797  1.00  0.00     0.124 S 
ATOM     93  O   UNL A   1      39.059  36.776  41.717  1.00  0.00    -0.237 OA
ATOM     94  O   UNL A   1      41.399  37.425  41.255  1.00  0.00    -0.237 OA
ATOM     95  O   UNL A   1      39.549  38.591  40.118  1.00  0.00    -0.744 OA
ENDBRANCH  91  92
ENDBRANCH  59  84
ENDBRANCH  33  34
ENDBRANCH  26  28
ENDBRANCH  25  26
ENDBRANCH  24  25
ENDBRANCH  23  24
ENDBRANCH  22  23
ENDBRANCH   1  22
TORSDOF 23
ENDMDL
MODEL 3
REMARK VINA RESULT:      -9.6      1.476      3.319
REMARK SMILES CC(C)[C@H](C[C@H]1Cc2ccccc21)C(=O)OCCOCCOCCOC(=O)c1ccc(-c2c3nc(c(-c4c(F)cc(S(=O)(=O)[O-])cc4F)c4ccc([nH]4)c(-c4c(F)cc(S(=O)(=O)[O-])cc4F)c4nc(c(-c5c(F)cc(S(=O)(=O)[O-])cc5F)c5ccc2[nH]5)C=C4)C=C3)cc1
REMARK SMILES IDX 21 1 20 2 19 3 18 4 17 5 16 6 14 7 15 8 4 9 2 10 1 11 3 12
REMARK SMILES IDX 5 13 6 14 7 15 13 16 8 17 12 18 9 19 11 20 10 21 22 22 23 23
REMARK SMILES IDX 24 24 25 25 26 26 27 27 28 28 29 29 93 30 30 31 92 32 31 33
REMARK SMILES IDX 32 34 33 35 86 36 34 37 91 38 85 39 87 40 35 41 90 42 84 43
REMARK SMILES IDX 83 44 36 46 70 47 49 48 69 49 50 50 53 51 68 52 88 53 51 54
REMARK SMILES IDX 52 55 67 57 89 58 54 59 37 60 38 61 47 62 39 63 40 64 46 65
REMARK SMILES IDX 48 66 41 67 42 68 43 69 44 70 45 71 71 72 72 73 81 74 73 75
REMARK SMILES IDX 74 76 80 77 82 78 75 79 76 80 77 81 78 82 79 83 55 84 56 85
REMARK SMILES IDX 65 86 57 87 58 88 64 89 66 90 59 91 60 92 61 93 62 94 63 95
REMARK H PARENT 87 45 53 56
REMARK Flexibility Score: inf
ROOT
ATOM      1  C   UNL A   1      39.951  21.574  26.384  1.00  0.00     0.188 C 
ENDROOT
BRANCH   1   2
ATOM      2  C   UNL A   1      38.724  21.473  25.476  1.00  0.00     0.188 C 
BRANCH   2   3
ATOM      3  O   UNL A   1      37.497  21.960  25.964  1.00  0.00    -0.376 OA
BRANCH   3   4
ATOM      4  C   UNL A   1      37.170  23.328  25.763  1.00  0.00     0.202 C 
BRANCH   4   5
ATOM      5  C   UNL A   1      35.727  23.836  25.670  1.00  0.00     0.261 C 
BRANCH   5   6
ATOM      6  O   UNL A   1      34.728  23.015  26.306  1.00  0.00    -0.463 OA
BRANCH   6   7
ATOM      7  C   UNL A   1      33.981  22.264  25.463  1.00  0.00     0.309 C 
ATOM      8  O   UNL A   1      34.324  21.148  25.078  1.00  0.00    -0.252 OA
BRANCH   7   9
ATOM      9  C   UNL A   1      32.633  22.852  25.041  1.00  0.00     0.102 C 
BRANCH   9  10
ATOM     10  C   UNL A   1      32.549  23.106  23.499  1.00  0.00    -0.003 C 
ATOM     11  C   UNL A   1      33.819  23.678  22.852  1.00  0.00     0.008 C 
ATOM     12  C   UNL A   1      32.152  21.824  22.755  1.00  0.00     0.008 C 
ENDBRANCH   9  10
BRANCH   9  13
ATOM     13  C   UNL A   1      31.855  23.906  25.871  1.00  0.00     0.024 C 
BRANCH  13  14
ATOM     14  C   UNL A   1      31.516  25.302  25.330  1.00  0.00     0.025 C 
ATOM     15  C   UNL A   1      30.345  26.109  25.998  1.00  0.00     0.044 C 
ATOM     16  C   UNL A   1      32.390  26.457  25.721  1.00  0.00    -0.041 A 
ATOM     17  C   UNL A   1      31.408  27.050  26.475  1.00  0.00    -0.044 A 
ATOM     18  C   UNL A   1      33.650  26.994  25.615  1.00  0.00     0.004 A 
ATOM     19  C   UNL A   1      31.656  28.136  27.276  1.00  0.00     0.004 A 
ATOM     20  C   UNL A   1      33.939  28.096  26.420  1.00  0.00     0.000 A 
ATOM     21  C   UNL A   1      32.955  28.646  27.265  1.00  0.00     0.000 A 
ENDBRANCH  13  14
ENDBRANCH   9  13
ENDBRANCH   7   9
ENDBRANCH   6   7
ENDBRANCH   5   6
ENDBRANCH   4   5
ENDBRANCH   3   4
ENDBRANCH   2   3
ENDBRANCH   1   2
BRANCH   1  22
ATOM     22  O   UNL A   1      40.931  22.585  26.270  1.00  0.00    -0.376 OA
BRANCH  22  23
ATOM     23  C   UNL A   1      42.310  22.287  26.412  1.00  0.00     0.202 C 
BRANCH  23  24
ATOM     24  C   UNL A   1      43.413  23.300  26.076  1.00  0.00     0.261 C 
BRANCH  24  25
ATOM     25  O   UNL A   1      43.492  24.438  26.929  1.00  0.00    -0.460 OA
BRANCH  25  26
ATOM     26  C   UNL A   1      42.959  25.577  26.404  1.00  0.00     0.338 C 
ATOM     27  O   UNL A   1      42.712  25.809  25.244  1.00  0.00    -0.246 OA
BRANCH  26  28
ATOM     28  C   UNL A   1      42.489  26.389  27.551  1.00  0.00     0.060 A 
ATOM     29  C   UNL A   1      43.086  27.642  27.761  1.00  0.00     0.016 A 
ATOM     30  C   UNL A   1      41.404  25.977  28.325  1.00  0.00     0.016 A 
ATOM     31  C   UNL A   1      42.596  28.491  28.749  1.00  0.00     0.010 A 
ATOM     32  C   UNL A   1      40.940  26.810  29.341  1.00  0.00     0.010 A 
ATOM     33  C   UNL A   1      41.549  28.058  29.571  1.00  0.00    -0.014 A 
BRANCH  33  34
ATOM     34  C   UNL A   1      41.256  28.774  30.831  1.00  0.00     0.031 A 
ATOM     35  C   UNL A   1      40.125  29.763  30.807  1.00  0.00     0.074 A 
ATOM     36  C   UNL A   1      41.976  28.578  31.949  1.00  0.00     0.049 A 
ATOM     37  N   UNL A   1      39.750  30.618  31.719  1.00  0.00    -0.248 NA
ATOM     38  C   UNL A   1      39.316  29.797  29.576  1.00  0.00     0.031 C 
ATOM     39  C   UNL A   1      43.058  27.609  32.106  1.00  0.00     0.029 A 
ATOM     40  N   UNL A   1      41.910  29.211  33.165  1.00  0.00    -0.354 N 
ATOM     41  C   UNL A   1      38.674  31.303  31.167  1.00  0.00     0.074 A 
ATOM     42  C   UNL A   1      38.472  30.783  29.833  1.00  0.00     0.031 C 
ATOM     43  C   UNL A   1      43.573  27.730  33.344  1.00  0.00     0.029 A 
ATOM     44  C   UNL A   1      42.885  28.812  34.048  1.00  0.00     0.049 A 
ATOM     45  H   UNL A   1      41.228  29.886  33.385  1.00  0.00     0.167 HD
ATOM     46  C   UNL A   1      37.921  32.277  31.724  1.00  0.00     0.037 A 
ATOM     47  C   UNL A   1      43.203  29.294  35.267  1.00  0.00     0.037 A 
ATOM     48  C   UNL A   1      38.134  32.791  33.049  1.00  0.00     0.049 A 
ATOM     49  C   UNL A   1      42.399  30.438  35.840  1.00  0.00     0.074 A 
ATOM     50  C   UNL A   1      37.421  33.771  33.714  1.00  0.00     0.029 A 
ATOM     51  N   UNL A   1      39.141  32.374  33.906  1.00  0.00    -0.354 N 
ATOM     52  N   UNL A   1      41.374  31.071  35.317  1.00  0.00    -0.248 NA
ATOM     53  C   UNL A   1      42.796  30.934  37.164  1.00  0.00     0.031 C 
ATOM     54  C   UNL A   1      38.032  33.988  34.953  1.00  0.00     0.029 A 
ATOM     55  C   UNL A   1      39.085  33.096  35.086  1.00  0.00     0.049 A 
ATOM     56  H   UNL A   1      39.799  31.669  33.706  1.00  0.00     0.167 HD
ATOM     57  C   UNL A   1      40.984  32.016  36.264  1.00  0.00     0.074 A 
ATOM     58  C   UNL A   1      41.879  31.865  37.393  1.00  0.00     0.031 C 
ATOM     59  C   UNL A   1      39.976  32.921  36.208  1.00  0.00     0.037 A 
BRANCH  46  60
ATOM     60  C   UNL A   1      36.825  32.873  30.885  1.00  0.00     0.058 A 
ATOM     61  C   UNL A   1      35.488  32.465  31.015  1.00  0.00     0.135 A 
ATOM     62  C   UNL A   1      37.116  33.881  29.954  1.00  0.00     0.135 A 
ATOM     63  F   UNL A   1      35.158  31.484  31.871  1.00  0.00    -0.206 F 
ATOM     64  C   UNL A   1      34.481  33.022  30.234  1.00  0.00     0.059 A 
ATOM     65  C   UNL A   1      36.121  34.475  29.184  1.00  0.00     0.059 A 
ATOM     66  F   UNL A   1      38.381  34.299  29.782  1.00  0.00    -0.206 F 
ATOM     67  C   UNL A   1      34.808  34.028  29.323  1.00  0.00     0.060 A 
BRANCH  67  68
ATOM     68  S   UNL A   1      33.486  34.751  28.329  1.00  0.00     0.124 S 
ATOM     69  O   UNL A   1      32.894  33.564  27.722  1.00  0.00    -0.237 OA
ATOM     70  O   UNL A   1      32.670  35.420  29.338  1.00  0.00    -0.237 OA
ATOM     71  O   UNL A   1      34.195  35.638  27.411  1.00  0.00    -0.744 OA
ENDBRANCH  67  68
ENDBRANCH  46  60
BRANCH  47  72
ATOM     72  C   UNL A   1      44.347  28.718  36.026  1.00  0.00     0.058 A 
ATOM     73  C   UNL A   1      45.657  29.178  35.826  1.00  0.00     0.135 A 
ATOM     74  C   UNL A   1      44.157  27.681  36.954  1.00  0.00     0.135 A 
ATOM     75  F   UNL A   1      45.896  30.155  34.937  1.00  0.00    -0.206 F 
ATOM     76  C   UNL A   1      46.738  28.625  36.506  1.00  0.00     0.059 A 
ATOM     77  C   UNL A   1      45.218  27.130  37.668  1.00  0.00     0.059 A 
ATOM     78  F   UNL A   1      42.924  27.204  37.187  1.00  0.00    -0.206 F 
ATOM     79  C   UNL A   1      46.508  27.603  37.428  1.00  0.00     0.060 A 
BRANCH  79  80
ATOM     80  S   UNL A   1      47.914  26.923  38.335  1.00  0.00     0.124 S 
ATOM     81  O   UNL A   1      47.514  27.158  39.718  1.00  0.00    -0.237 OA
ATOM     82  O   UNL A   1      47.915  25.530  37.898  1.00  0.00    -0.237 OA
ATOM     83  O   UNL A   1      49.039  27.722  37.859  1.00  0.00    -0.744 OA
ENDBRANCH  79  80
ENDBRANCH  47  72
BRANCH  59  84
ATOM     84  C   UNL A   1      39.742  33.791  37.414  1.00  0.00     0.058 A 
ATOM     85  C   UNL A   1      38.839  33.432  38.426  1.00  0.00     0.135 A 
ATOM     86  C   UNL A   1      40.495  34.965  37.595  1.00  0.00     0.135 A 
ATOM     87  F   UNL A   1      38.091  32.324  38.303  1.00  0.00    -0.206 F 
ATOM     88  C   UNL A   1      38.676  34.214  39.566  1.00  0.00     0.059 A 
ATOM     89  C   UNL A   1      40.371  35.744  38.740  1.00  0.00     0.059 A 
ATOM     90  F   UNL A   1      41.383  35.348  36.664  1.00  0.00    -0.206 F 
ATOM     91  C   UNL A   1      39.451  35.366  39.716  1.00  0.00     0.060 A 
BRANCH  91  92
ATOM     92  S   UNL A   1      39.264  36.344  41.222  1.00  0.00     0.124 S 
ATOM     93  O   UNL A   1      40.614  36.300  41.772  1.00  0.00    -0.237 OA
ATOM     94  O   UNL A   1      38.832  37.637  40.702  1.00  0.00    -0.237 OA
ATOM     95  O   UNL A   1      38.253  35.611  41.981  1.00  0.00    -0.744 OA
ENDBRANCH  91  92
ENDBRANCH  59  84
ENDBRANCH  33  34
ENDBRANCH  26  28
ENDBRANCH  25  26
ENDBRANCH  24  25
ENDBRANCH  23  24
ENDBRANCH  22  23
ENDBRANCH   1  22
TORSDOF 23
ENDMDL
