MODEL 1
REMARK VINA RESULT:     -10.9      0.000      0.000
REMARK SMILES O=C(OCCOCCOCCOC(=O)[C@@H]1CCCC[C@H]1C(=O)Nc1ccc(NC(=O)c2ccco2)cc1)c1ccc(-c2c3nc(c(-c4c(F)cc(S(=O)(=O)[O-])cc4F)c4ccc([nH]4)c(-c4c(F)cc(S(=O)(=O)[O-])cc4F)c4nc(c(-c5c(F)cc(S(=O)(=O)[O-])cc5F)c5ccc2[nH]5)C=C4)C=C3)cc1
REMARK SMILES IDX 8 1 7 2 6 3 5 4 4 5 3 6 2 7 1 8 38 9 39 10 103 11 40 12
REMARK SMILES IDX 102 13 41 14 42 15 43 16 96 17 44 18 101 19 95 20 97 21
REMARK SMILES IDX 45 22 100 23 94 24 93 25 46 27 80 28 59 29 79 30 60 31 63 32
REMARK SMILES IDX 78 33 98 34 61 35 62 36 77 38 99 39 64 40 47 41 48 42 57 43
REMARK SMILES IDX 49 44 50 45 56 46 58 47 51 48 52 49 53 50 54 51 55 52 81 53
REMARK SMILES IDX 82 54 91 55 83 56 84 57 90 58 92 59 85 60 86 61 87 62 88 63
REMARK SMILES IDX 89 64 65 65 66 66 75 67 67 68 68 69 74 70 76 71 69 72 70 73
REMARK SMILES IDX 71 74 72 75 73 76 9 77 10 78 11 79 12 80 13 81 14 82 15 83
REMARK SMILES IDX 16 84 20 85 17 86 19 87 18 88 21 89 22 90 23 91 24 93 25 94
REMARK SMILES IDX 37 95 26 96 36 97 27 98 28 99 29 100 30 102 31 103 32 104
REMARK SMILES IDX 35 105 33 106 34 107
REMARK H PARENT 97 26 63 37 23 92 28 101
REMARK Flexibility Score: inf
ROOT
ATOM      1  C   UNL A   1      45.536  19.807  25.313  1.00  0.00     0.188 C 
ENDROOT
BRANCH   1   2
ATOM      2  C   UNL A   1      45.956  21.214  24.872  1.00  0.00     0.188 C 
BRANCH   2   3
ATOM      3  O   UNL A   1      45.945  22.210  25.901  1.00  0.00    -0.376 OA
BRANCH   3   4
ATOM      4  C   UNL A   1      44.672  22.773  26.194  1.00  0.00     0.202 C 
BRANCH   4   5
ATOM      5  C   UNL A   1      44.700  24.284  26.449  1.00  0.00     0.261 C 
BRANCH   5   6
ATOM      6  O   UNL A   1      43.808  24.981  25.561  1.00  0.00    -0.460 OA
BRANCH   6   7
ATOM      7  C   UNL A   1      42.971  26.018  25.809  1.00  0.00     0.338 C 
ATOM      8  O   UNL A   1      42.386  26.511  24.844  1.00  0.00    -0.246 OA
BRANCH   7   9
ATOM      9  C   UNL A   1      42.773  26.657  27.158  1.00  0.00     0.060 A 
ATOM     10  C   UNL A   1      41.985  26.173  28.204  1.00  0.00     0.016 A 
ATOM     11  C   UNL A   1      43.474  27.859  27.387  1.00  0.00     0.016 A 
ATOM     12  C   UNL A   1      41.819  26.898  29.389  1.00  0.00     0.010 A 
ATOM     13  C   UNL A   1      43.357  28.563  28.593  1.00  0.00     0.010 A 
ATOM     14  C   UNL A   1      42.485  28.107  29.586  1.00  0.00    -0.014 A 
BRANCH  14  15
ATOM     15  C   UNL A   1      42.154  28.939  30.768  1.00  0.00     0.031 A 
ATOM     16  C   UNL A   1      41.029  29.928  30.663  1.00  0.00     0.074 A 
ATOM     17  C   UNL A   1      42.775  28.749  31.947  1.00  0.00     0.049 A 
ATOM     18  N   UNL A   1      40.535  30.712  31.586  1.00  0.00    -0.248 NA
ATOM     19  C   UNL A   1      40.341  30.019  29.365  1.00  0.00     0.031 C 
ATOM     20  C   UNL A   1      43.808  27.749  32.207  1.00  0.00     0.029 A 
ATOM     21  N   UNL A   1      42.638  29.399  33.147  1.00  0.00    -0.354 N 
ATOM     22  C   UNL A   1      39.434  31.325  31.005  1.00  0.00     0.074 A 
ATOM     23  C   UNL A   1      39.391  30.905  29.622  1.00  0.00     0.031 C 
ATOM     24  C   UNL A   1      44.264  27.903  33.462  1.00  0.00     0.029 A 
ATOM     25  C   UNL A   1      43.564  29.014  34.087  1.00  0.00     0.049 A 
ATOM     26  H   UNL A   1      41.944  30.077  33.319  1.00  0.00     0.167 HD
ATOM     27  C   UNL A   1      38.505  32.118  31.586  1.00  0.00     0.037 A 
ATOM     28  C   UNL A   1      43.838  29.519  35.304  1.00  0.00     0.037 A 
ATOM     29  C   UNL A   1      38.566  32.562  32.951  1.00  0.00     0.049 A 
ATOM     30  C   UNL A   1      42.931  30.574  35.865  1.00  0.00     0.074 A 
ATOM     31  C   UNL A   1      37.690  33.386  33.633  1.00  0.00     0.029 A 
ATOM     32  N   UNL A   1      39.576  32.224  33.842  1.00  0.00    -0.354 N 
ATOM     33  N   UNL A   1      41.879  31.126  35.310  1.00  0.00    -0.248 NA
ATOM     34  C   UNL A   1      43.211  31.038  37.229  1.00  0.00     0.031 C 
ATOM     35  C   UNL A   1      38.187  33.572  34.930  1.00  0.00     0.029 A 
ATOM     36  C   UNL A   1      39.356  32.840  35.062  1.00  0.00     0.049 A 
ATOM     37  H   UNL A   1      40.336  31.634  33.636  1.00  0.00     0.167 HD
ATOM     38  C   UNL A   1      41.335  31.959  36.276  1.00  0.00     0.074 A 
ATOM     39  C   UNL A   1      42.189  31.856  37.444  1.00  0.00     0.031 C 
ATOM     40  C   UNL A   1      40.214  32.718  36.213  1.00  0.00     0.037 A 
BRANCH  27  41
ATOM     41  C   UNL A   1      37.334  32.516  30.739  1.00  0.00     0.058 A 
ATOM     42  C   UNL A   1      37.374  33.688  29.965  1.00  0.00     0.135 A 
ATOM     43  C   UNL A   1      36.162  31.747  30.712  1.00  0.00     0.135 A 
ATOM     44  F   UNL A   1      38.465  34.471  29.977  1.00  0.00    -0.206 F 
ATOM     45  C   UNL A   1      36.280  34.099  29.212  1.00  0.00     0.059 A 
ATOM     46  C   UNL A   1      35.060  32.131  29.953  1.00  0.00     0.059 A 
ATOM     47  F   UNL A   1      36.071  30.627  31.446  1.00  0.00    -0.206 F 
ATOM     48  C   UNL A   1      35.125  33.316  29.219  1.00  0.00     0.060 A 
BRANCH  48  49
ATOM     49  S   UNL A   1      33.703  33.874  28.254  1.00  0.00     0.124 S 
ATOM     50  O   UNL A   1      34.338  34.774  27.297  1.00  0.00    -0.237 OA
ATOM     51  O   UNL A   1      33.189  32.624  27.702  1.00  0.00    -0.237 OA
ATOM     52  O   UNL A   1      32.849  34.515  29.249  1.00  0.00    -0.744 OA
ENDBRANCH  48  49
ENDBRANCH  27  41
BRANCH  28  53
ATOM     53  C   UNL A   1      45.035  29.061  36.056  1.00  0.00     0.058 A 
ATOM     54  C   UNL A   1      46.313  29.577  35.804  1.00  0.00     0.135 A 
ATOM     55  C   UNL A   1      44.914  28.059  37.032  1.00  0.00     0.135 A 
ATOM     56  F   UNL A   1      46.479  30.533  34.877  1.00  0.00    -0.206 F 
ATOM     57  C   UNL A   1      47.435  29.099  36.474  1.00  0.00     0.059 A 
ATOM     58  C   UNL A   1      46.018  27.576  37.726  1.00  0.00     0.059 A 
ATOM     59  F   UNL A   1      43.709  27.546  37.324  1.00  0.00    -0.206 F 
ATOM     60  C   UNL A   1      47.278  28.093  37.431  1.00  0.00     0.060 A 
BRANCH  60  61
ATOM     61  S   UNL A   1      48.735  27.487  38.310  1.00  0.00     0.124 S 
ATOM     62  O   UNL A   1      48.323  26.133  38.661  1.00  0.00    -0.237 OA
ATOM     63  O   UNL A   1      49.775  27.596  37.293  1.00  0.00    -0.237 OA
ATOM     64  O   UNL A   1      48.862  28.420  39.426  1.00  0.00    -0.744 OA
ENDBRANCH  60  61
ENDBRANCH  28  53
BRANCH  40  65
ATOM     65  C   UNL A   1      39.822  33.447  37.461  1.00  0.00     0.058 A 
ATOM     66  C   UNL A   1      38.774  32.998  38.278  1.00  0.00     0.135 A 
ATOM     67  C   UNL A   1      40.518  34.602  37.850  1.00  0.00     0.135 A 
ATOM     68  F   UNL A   1      38.072  31.906  37.936  1.00  0.00    -0.206 F 
ATOM     69  C   UNL A   1      38.412  33.685  39.431  1.00  0.00     0.059 A 
ATOM     70  C   UNL A   1      40.188  35.292  39.011  1.00  0.00     0.059 A 
ATOM     71  F   UNL A   1      41.531  35.067  37.102  1.00  0.00    -0.206 F 
ATOM     72  C   UNL A   1      39.123  34.833  39.787  1.00  0.00     0.060 A 
BRANCH  72  73
ATOM     73  S   UNL A   1      38.665  35.708  41.297  1.00  0.00     0.124 S 
ATOM     74  O   UNL A   1      37.504  34.942  41.737  1.00  0.00    -0.237 OA
ATOM     75  O   UNL A   1      39.863  35.574  42.118  1.00  0.00    -0.237 OA
ATOM     76  O   UNL A   1      38.384  37.063  40.827  1.00  0.00    -0.744 OA
ENDBRANCH  72  73
ENDBRANCH  40  65
ENDBRANCH  14  15
ENDBRANCH   7   9
ENDBRANCH   6   7
ENDBRANCH   5   6
ENDBRANCH   4   5
ENDBRANCH   3   4
ENDBRANCH   2   3
ENDBRANCH   1   2
BRANCH   1  77
ATOM     77  O   UNL A   1      44.481  19.171  24.595  1.00  0.00    -0.376 OA
BRANCH  77  78
ATOM     78  C   UNL A   1      43.355  18.739  25.340  1.00  0.00     0.202 C 
BRANCH  78  79
ATOM     79  C   UNL A   1      42.734  19.887  26.144  1.00  0.00     0.261 C 
BRANCH  79  80
ATOM     80  O   UNL A   1      41.510  20.423  25.600  1.00  0.00    -0.463 OA
BRANCH  80  81
ATOM     81  C   UNL A   1      40.569  20.743  26.530  1.00  0.00     0.309 C 
ATOM     82  O   UNL A   1      40.274  20.057  27.502  1.00  0.00    -0.252 OA
BRANCH  81  83
ATOM     83  C   UNL A   1      39.784  21.990  26.175  1.00  0.00     0.111 C 
ATOM     84  C   UNL A   1      40.143  23.137  27.123  1.00  0.00     0.016 C 
ATOM     85  C   UNL A   1      38.270  21.846  26.034  1.00  0.00     0.093 C 
ATOM     86  C   UNL A   1      39.609  24.449  26.558  1.00  0.00     0.001 C 
ATOM     87  C   UNL A   1      37.622  23.166  25.568  1.00  0.00     0.014 C 
ATOM     88  C   UNL A   1      38.103  24.409  26.318  1.00  0.00     0.001 C 
BRANCH  85  89
ATOM     89  C   UNL A   1      37.705  20.663  25.233  1.00  0.00     0.228 C 
ATOM     90  O   UNL A   1      38.482  19.776  24.858  1.00  0.00    -0.274 OA
ATOM     91  N   UNL A   1      36.391  20.384  25.022  1.00  0.00    -0.326 N 
ATOM     92  H   UNL A   1      36.219  19.582  24.477  1.00  0.00     0.169 HD
BRANCH  91  93
ATOM     93  C   UNL A   1      35.252  21.053  25.455  1.00  0.00     0.041 A 
ATOM     94  C   UNL A   1      34.277  21.358  24.515  1.00  0.00     0.028 A 
ATOM     95  C   UNL A   1      35.056  21.424  26.775  1.00  0.00     0.028 A 
ATOM     96  C   UNL A   1      33.028  21.812  24.940  1.00  0.00     0.028 A 
ATOM     97  C   UNL A   1      33.794  21.831  27.206  1.00  0.00     0.028 A 
ATOM     98  C   UNL A   1      32.740  21.945  26.298  1.00  0.00     0.041 A 
BRANCH  98  99
ATOM     99  N   UNL A   1      31.466  22.177  26.842  1.00  0.00    -0.319 N 
ATOM    100  C   UNL A   1      30.643  23.289  26.886  1.00  0.00     0.291 C 
ATOM    101  H   UNL A   1      31.080  21.386  27.284  1.00  0.00     0.170 HD
ATOM    102  O   UNL A   1      29.587  23.185  27.493  1.00  0.00    -0.265 OA
BRANCH 100 103
ATOM    103  C   UNL A   1      31.034  24.501  26.206  1.00  0.00     0.191 A 
ATOM    104  C   UNL A   1      30.990  24.882  24.878  1.00  0.00     0.056 A 
ATOM    105  O   UNL A   1      31.585  25.507  26.954  1.00  0.00    -0.459 OA
ATOM    106  C   UNL A   1      31.581  26.169  24.808  1.00  0.00     0.043 A 
ATOM    107  C   UNL A   1      31.920  26.505  26.097  1.00  0.00     0.196 A 
ENDBRANCH 100 103
ENDBRANCH  98  99
ENDBRANCH  91  93
ENDBRANCH  85  89
ENDBRANCH  81  83
ENDBRANCH  80  81
ENDBRANCH  79  80
ENDBRANCH  78  79
ENDBRANCH  77  78
ENDBRANCH   1  77
TORSDOF 24
ENDMDL
MODEL 2
REMARK VINA RESULT:     -10.0      0.860      7.882
REMARK SMILES O=C(OCCOCCOCCOC(=O)[C@@H]1CCCC[C@H]1C(=O)Nc1ccc(NC(=O)c2ccco2)cc1)c1ccc(-c2c3nc(c(-c4c(F)cc(S(=O)(=O)[O-])cc4F)c4ccc([nH]4)c(-c4c(F)cc(S(=O)(=O)[O-])cc4F)c4nc(c(-c5c(F)cc(S(=O)(=O)[O-])cc5F)c5ccc2[nH]5)C=C4)C=C3)cc1
REMARK SMILES IDX 8 1 7 2 6 3 5 4 4 5 3 6 2 7 1 8 38 9 39 10 103 11 40 12
REMARK SMILES IDX 102 13 41 14 42 15 43 16 96 17 44 18 101 19 95 20 97 21
REMARK SMILES IDX 45 22 100 23 94 24 93 25 46 27 80 28 59 29 79 30 60 31 63 32
REMARK SMILES IDX 78 33 98 34 61 35 62 36 77 38 99 39 64 40 47 41 48 42 57 43
REMARK SMILES IDX 49 44 50 45 56 46 58 47 51 48 52 49 53 50 54 51 55 52 81 53
REMARK SMILES IDX 82 54 91 55 83 56 84 57 90 58 92 59 85 60 86 61 87 62 88 63
REMARK SMILES IDX 89 64 65 65 66 66 75 67 67 68 68 69 74 70 76 71 69 72 70 73
REMARK SMILES IDX 71 74 72 75 73 76 9 77 10 78 11 79 12 80 13 81 14 82 15 83
REMARK SMILES IDX 16 84 20 85 17 86 19 87 18 88 21 89 22 90 23 91 24 93 25 94
REMARK SMILES IDX 37 95 26 96 36 97 27 98 28 99 29 100 30 102 31 103 32 104
REMARK SMILES IDX 35 105 33 106 34 107
REMARK H PARENT 97 26 63 37 23 92 28 101
REMARK Flexibility Score: inf
ROOT
ATOM      1  C   UNL A   1      45.774  19.425  25.378  1.00  0.00     0.188 C 
ENDROOT
BRANCH   1   2
ATOM      2  C   UNL A   1      46.092  20.865  24.960  1.00  0.00     0.188 C 
BRANCH   2   3
ATOM      3  O   UNL A   1      46.052  21.835  26.013  1.00  0.00    -0.376 OA
BRANCH   3   4
ATOM      4  C   UNL A   1      44.759  22.329  26.342  1.00  0.00     0.202 C 
BRANCH   4   5
ATOM      5  C   UNL A   1      44.734  23.813  26.722  1.00  0.00     0.261 C 
BRANCH   5   6
ATOM      6  O   UNL A   1      44.033  24.594  25.738  1.00  0.00    -0.460 OA
BRANCH   6   7
ATOM      7  C   UNL A   1      43.286  25.714  25.891  1.00  0.00     0.338 C 
ATOM      8  O   UNL A   1      42.918  26.288  24.864  1.00  0.00    -0.246 OA
BRANCH   7   9
ATOM      9  C   UNL A   1      42.950  26.348  27.214  1.00  0.00     0.060 A 
ATOM     10  C   UNL A   1      41.998  25.905  28.135  1.00  0.00     0.016 A 
ATOM     11  C   UNL A   1      43.691  27.497  27.561  1.00  0.00     0.016 A 
ATOM     12  C   UNL A   1      41.722  26.625  29.302  1.00  0.00     0.010 A 
ATOM     13  C   UNL A   1      43.458  28.192  28.755  1.00  0.00     0.010 A 
ATOM     14  C   UNL A   1      42.432  27.783  29.613  1.00  0.00    -0.014 A 
BRANCH  14  15
ATOM     15  C   UNL A   1      42.000  28.621  30.757  1.00  0.00     0.031 A 
ATOM     16  C   UNL A   1      42.715  28.476  32.070  1.00  0.00     0.074 A 
ATOM     17  C   UNL A   1      41.054  29.568  30.607  1.00  0.00     0.049 A 
ATOM     18  N   UNL A   1      42.540  29.146  33.179  1.00  0.00    -0.248 NA
ATOM     19  C   UNL A   1      43.796  27.478  32.132  1.00  0.00     0.031 C 
ATOM     20  C   UNL A   1      40.361  29.879  29.360  1.00  0.00     0.029 A 
ATOM     21  N   UNL A   1      40.502  30.435  31.516  1.00  0.00    -0.354 N 
ATOM     22  C   UNL A   1      43.537  28.708  34.039  1.00  0.00     0.074 A 
ATOM     23  C   UNL A   1      44.248  27.644  33.366  1.00  0.00     0.031 C 
ATOM     24  C   UNL A   1      39.423  30.813  29.598  1.00  0.00     0.029 A 
ATOM     25  C   UNL A   1      39.446  31.156  31.012  1.00  0.00     0.049 A 
ATOM     26  H   UNL A   1      40.829  30.531  32.439  1.00  0.00     0.167 HD
ATOM     27  C   UNL A   1      43.873  29.192  35.258  1.00  0.00     0.037 A 
ATOM     28  C   UNL A   1      38.575  31.977  31.626  1.00  0.00     0.037 A 
ATOM     29  C   UNL A   1      43.146  30.226  35.941  1.00  0.00     0.049 A 
ATOM     30  C   UNL A   1      38.819  32.340  33.060  1.00  0.00     0.074 A 
ATOM     31  C   UNL A   1      43.386  30.772  37.188  1.00  0.00     0.029 A 
ATOM     32  N   UNL A   1      42.023  30.863  35.433  1.00  0.00    -0.354 N 
ATOM     33  N   UNL A   1      39.781  31.935  33.853  1.00  0.00    -0.248 NA
ATOM     34  C   UNL A   1      37.897  33.306  33.670  1.00  0.00     0.031 C 
ATOM     35  C   UNL A   1      42.387  31.720  37.448  1.00  0.00     0.029 A 
ATOM     36  C   UNL A   1      41.544  31.783  36.349  1.00  0.00     0.049 A 
ATOM     37  H   UNL A   1      41.624  30.686  34.550  1.00  0.00     0.167 HD
ATOM     38  C   UNL A   1      39.618  32.639  35.036  1.00  0.00     0.074 A 
ATOM     39  C   UNL A   1      38.449  33.480  34.864  1.00  0.00     0.031 C 
ATOM     40  C   UNL A   1      40.384  32.614  36.155  1.00  0.00     0.037 A 
BRANCH  27  41
ATOM     41  C   UNL A   1      45.100  28.616  35.896  1.00  0.00     0.058 A 
ATOM     42  C   UNL A   1      45.008  27.517  36.766  1.00  0.00     0.135 A 
ATOM     43  C   UNL A   1      46.368  29.169  35.664  1.00  0.00     0.135 A 
ATOM     44  F   UNL A   1      43.813  26.968  37.041  1.00  0.00    -0.206 F 
ATOM     45  C   UNL A   1      46.129  27.000  37.406  1.00  0.00     0.059 A 
ATOM     46  C   UNL A   1      47.506  28.658  36.281  1.00  0.00     0.059 A 
ATOM     47  F   UNL A   1      46.504  30.228  34.852  1.00  0.00    -0.206 F 
ATOM     48  C   UNL A   1      47.373  27.583  37.162  1.00  0.00     0.060 A 
BRANCH  48  49
ATOM     49  S   UNL A   1      48.818  26.917  38.017  1.00  0.00     0.124 S 
ATOM     50  O   UNL A   1      49.390  28.124  38.604  1.00  0.00    -0.237 OA
ATOM     51  O   UNL A   1      48.219  25.977  38.959  1.00  0.00    -0.237 OA
ATOM     52  O   UNL A   1      49.597  26.310  36.941  1.00  0.00    -0.744 OA
ENDBRANCH  48  49
ENDBRANCH  27  41
BRANCH  28  53
ATOM     53  C   UNL A   1      37.380  32.483  30.901  1.00  0.00     0.058 A 
ATOM     54  C   UNL A   1      36.148  31.817  30.943  1.00  0.00     0.135 A 
ATOM     55  C   UNL A   1      37.470  33.645  30.117  1.00  0.00     0.135 A 
ATOM     56  F   UNL A   1      36.015  30.701  31.676  1.00  0.00    -0.206 F 
ATOM     57  C   UNL A   1      35.052  32.270  30.215  1.00  0.00     0.059 A 
ATOM     58  C   UNL A   1      36.385  34.125  29.393  1.00  0.00     0.059 A 
ATOM     59  F   UNL A   1      38.623  34.330  30.059  1.00  0.00    -0.206 F 
ATOM     60  C   UNL A   1      35.182  33.422  29.437  1.00  0.00     0.060 A 
BRANCH  60  61
ATOM     61  S   UNL A   1      33.752  34.015  28.505  1.00  0.00     0.124 S 
ATOM     62  O   UNL A   1      33.303  32.792  27.851  1.00  0.00    -0.237 OA
ATOM     63  O   UNL A   1      32.888  34.530  29.563  1.00  0.00    -0.237 OA
ATOM     64  O   UNL A   1      34.325  35.030  27.626  1.00  0.00    -0.744 OA
ENDBRANCH  60  61
ENDBRANCH  28  53
BRANCH  40  65
ATOM     65  C   UNL A   1      40.010  33.565  37.250  1.00  0.00     0.058 A 
ATOM     66  C   UNL A   1      38.990  33.269  38.165  1.00  0.00     0.135 A 
ATOM     67  C   UNL A   1      40.696  34.781  37.391  1.00  0.00     0.135 A 
ATOM     68  F   UNL A   1      38.298  32.123  38.059  1.00  0.00    -0.206 F 
ATOM     69  C   UNL A   1      38.644  34.161  39.174  1.00  0.00     0.059 A 
ATOM     70  C   UNL A   1      40.382  35.678  38.406  1.00  0.00     0.059 A 
ATOM     71  F   UNL A   1      41.683  35.106  36.541  1.00  0.00    -0.206 F 
ATOM     72  C   UNL A   1      39.344  35.364  39.284  1.00  0.00     0.060 A 
BRANCH  72  73
ATOM     73  S   UNL A   1      38.907  36.508  40.609  1.00  0.00     0.124 S 
ATOM     74  O   UNL A   1      40.179  36.640  41.312  1.00  0.00    -0.237 OA
ATOM     75  O   UNL A   1      38.462  37.689  39.877  1.00  0.00    -0.237 OA
ATOM     76  O   UNL A   1      37.858  35.796  41.334  1.00  0.00    -0.744 OA
ENDBRANCH  72  73
ENDBRANCH  40  65
ENDBRANCH  14  15
ENDBRANCH   7   9
ENDBRANCH   6   7
ENDBRANCH   5   6
ENDBRANCH   4   5
ENDBRANCH   3   4
ENDBRANCH   2   3
ENDBRANCH   1   2
BRANCH   1  77
ATOM     77  O   UNL A   1      44.658  18.783  24.766  1.00  0.00    -0.376 OA
BRANCH  77  78
ATOM     78  C   UNL A   1      43.473  18.666  25.534  1.00  0.00     0.202 C 
BRANCH  78  79
ATOM     79  C   UNL A   1      42.758  20.013  25.683  1.00  0.00     0.261 C 
BRANCH  79  80
ATOM     80  O   UNL A   1      41.334  19.979  25.456  1.00  0.00    -0.463 OA
BRANCH  80  81
ATOM     81  C   UNL A   1      40.582  20.446  26.490  1.00  0.00     0.309 C 
ATOM     82  O   UNL A   1      40.369  19.843  27.536  1.00  0.00    -0.252 OA
BRANCH  81  83
ATOM     83  C   UNL A   1      39.887  21.754  26.176  1.00  0.00     0.111 C 
ATOM     84  C   UNL A   1      40.328  22.846  27.154  1.00  0.00     0.016 C 
ATOM     85  C   UNL A   1      38.366  21.721  26.039  1.00  0.00     0.093 C 
ATOM     86  C   UNL A   1      39.887  24.208  26.630  1.00  0.00     0.001 C 
ATOM     87  C   UNL A   1      37.811  23.098  25.614  1.00  0.00     0.014 C 
ATOM     88  C   UNL A   1      38.380  24.281  26.397  1.00  0.00     0.001 C 
BRANCH  85  89
ATOM     89  C   UNL A   1      37.716  20.605  25.207  1.00  0.00     0.228 C 
ATOM     90  O   UNL A   1      38.383  19.597  24.944  1.00  0.00    -0.274 OA
ATOM     91  N   UNL A   1      36.405  20.519  24.854  1.00  0.00    -0.326 N 
ATOM     92  H   UNL A   1      36.172  19.730  24.313  1.00  0.00     0.169 HD
BRANCH  91  93
ATOM     93  C   UNL A   1      35.342  21.368  25.140  1.00  0.00     0.041 A 
ATOM     94  C   UNL A   1      34.752  21.276  26.393  1.00  0.00     0.028 A 
ATOM     95  C   UNL A   1      34.854  22.290  24.230  1.00  0.00     0.028 A 
ATOM     96  C   UNL A   1      33.848  22.256  26.803  1.00  0.00     0.028 A 
ATOM     97  C   UNL A   1      33.988  23.298  24.654  1.00  0.00     0.028 A 
ATOM     98  C   UNL A   1      33.545  23.338  25.977  1.00  0.00     0.041 A 
BRANCH  98  99
ATOM     99  N   UNL A   1      32.831  24.484  26.364  1.00  0.00    -0.319 N 
ATOM    100  C   UNL A   1      32.402  25.609  25.681  1.00  0.00     0.291 C 
ATOM    101  H   UNL A   1      32.585  24.488  27.318  1.00  0.00     0.170 HD
ATOM    102  O   UNL A   1      31.832  26.477  26.326  1.00  0.00    -0.265 OA
BRANCH 100 103
ATOM    103  C   UNL A   1      32.612  25.709  24.256  1.00  0.00     0.191 A 
ATOM    104  C   UNL A   1      33.620  26.276  23.499  1.00  0.00     0.056 A 
ATOM    105  O   UNL A   1      31.658  25.181  23.429  1.00  0.00    -0.459 OA
ATOM    106  C   UNL A   1      33.239  26.121  22.141  1.00  0.00     0.043 A 
ATOM    107  C   UNL A   1      32.043  25.445  22.154  1.00  0.00     0.196 A 
ENDBRANCH 100 103
ENDBRANCH  98  99
ENDBRANCH  91  93
ENDBRANCH  85  89
ENDBRANCH  81  83
ENDBRANCH  80  81
ENDBRANCH  79  80
ENDBRANCH  78  79
ENDBRANCH  77  78
ENDBRANCH   1  77
TORSDOF 24
ENDMDL
MODEL 3
REMARK VINA RESULT:      -9.3      6.624     14.756
REMARK SMILES O=C(OCCOCCOCCOC(=O)[C@@H]1CCCC[C@H]1C(=O)Nc1ccc(NC(=O)c2ccco2)cc1)c1ccc(-c2c3nc(c(-c4c(F)cc(S(=O)(=O)[O-])cc4F)c4ccc([nH]4)c(-c4c(F)cc(S(=O)(=O)[O-])cc4F)c4nc(c(-c5c(F)cc(S(=O)(=O)[O-])cc5F)c5ccc2[nH]5)C=C4)C=C3)cc1
REMARK SMILES IDX 8 1 7 2 6 3 5 4 4 5 3 6 2 7 1 8 38 9 39 10 103 11 40 12
REMARK SMILES IDX 102 13 41 14 42 15 43 16 96 17 44 18 101 19 95 20 97 21
REMARK SMILES IDX 45 22 100 23 94 24 93 25 46 27 80 28 59 29 79 30 60 31 63 32
REMARK SMILES IDX 78 33 98 34 61 35 62 36 77 38 99 39 64 40 47 41 48 42 57 43
REMARK SMILES IDX 49 44 50 45 56 46 58 47 51 48 52 49 53 50 54 51 55 52 81 53
REMARK SMILES IDX 82 54 91 55 83 56 84 57 90 58 92 59 85 60 86 61 87 62 88 63
REMARK SMILES IDX 89 64 65 65 66 66 75 67 67 68 68 69 74 70 76 71 69 72 70 73
REMARK SMILES IDX 71 74 72 75 73 76 9 77 10 78 11 79 12 80 13 81 14 82 15 83
REMARK SMILES IDX 16 84 20 85 17 86 19 87 18 88 21 89 22 90 23 91 24 93 25 94
REMARK SMILES IDX 37 95 26 96 36 97 27 98 28 99 29 100 30 102 31 103 32 104
REMARK SMILES IDX 35 105 33 106 34 107
REMARK H PARENT 97 26 63 37 23 92 28 101
REMARK Flexibility Score: inf
ROOT
ATOM      1  C   UNL A   1      37.746  34.804  33.290  1.00  0.00     0.188 C 
ENDROOT
BRANCH   1   2
ATOM      2  C   UNL A   1      36.898  33.537  33.125  1.00  0.00     0.188 C 
BRANCH   2   3
ATOM      3  O   UNL A   1      35.775  33.658  32.244  1.00  0.00    -0.376 OA
BRANCH   3   4
ATOM      4  C   UNL A   1      35.061  32.453  31.994  1.00  0.00     0.202 C 
BRANCH   4   5
ATOM      5  C   UNL A   1      35.957  31.240  31.727  1.00  0.00     0.261 C 
BRANCH   5   6
ATOM      6  O   UNL A   1      36.568  31.316  30.426  1.00  0.00    -0.460 OA
BRANCH   6   7
ATOM      7  C   UNL A   1      36.870  30.327  29.551  1.00  0.00     0.338 C 
ATOM      8  O   UNL A   1      35.959  29.562  29.231  1.00  0.00    -0.246 OA
BRANCH   7   9
ATOM      9  C   UNL A   1      38.248  30.048  29.012  1.00  0.00     0.060 A 
ATOM     10  C   UNL A   1      38.568  29.590  27.732  1.00  0.00     0.016 A 
ATOM     11  C   UNL A   1      39.323  30.298  29.890  1.00  0.00     0.016 A 
ATOM     12  C   UNL A   1      39.887  29.296  27.371  1.00  0.00     0.010 A 
ATOM     13  C   UNL A   1      40.652  30.058  29.517  1.00  0.00     0.010 A 
ATOM     14  C   UNL A   1      40.937  29.506  28.264  1.00  0.00    -0.014 A 
BRANCH  14  15
ATOM     15  C   UNL A   1      42.295  29.020  27.922  1.00  0.00     0.031 A 
ATOM     16  C   UNL A   1      43.407  30.020  27.784  1.00  0.00     0.074 A 
ATOM     17  C   UNL A   1      42.560  27.703  27.835  1.00  0.00     0.049 A 
ATOM     18  N   UNL A   1      44.676  29.811  27.549  1.00  0.00    -0.248 NA
ATOM     19  C   UNL A   1      43.056  31.437  27.977  1.00  0.00     0.031 C 
ATOM     20  C   UNL A   1      41.593  26.630  28.053  1.00  0.00     0.029 A 
ATOM     21  N   UNL A   1      43.721  27.041  27.526  1.00  0.00    -0.354 N 
ATOM     22  C   UNL A   1      45.283  31.055  27.646  1.00  0.00     0.074 A 
ATOM     23  C   UNL A   1      44.235  32.028  27.857  1.00  0.00     0.031 C 
ATOM     24  C   UNL A   1      42.181  25.449  27.796  1.00  0.00     0.029 A 
ATOM     25  C   UNL A   1      43.558  25.683  27.389  1.00  0.00     0.049 A 
ATOM     26  H   UNL A   1      44.588  27.494  27.413  1.00  0.00     0.167 HD
ATOM     27  C   UNL A   1      46.603  31.353  27.624  1.00  0.00     0.037 A 
ATOM     28  C   UNL A   1      44.411  24.738  26.956  1.00  0.00     0.037 A 
ATOM     29  C   UNL A   1      47.642  30.392  27.381  1.00  0.00     0.049 A 
ATOM     30  C   UNL A   1      45.841  25.120  26.709  1.00  0.00     0.074 A 
ATOM     31  C   UNL A   1      49.008  30.593  27.314  1.00  0.00     0.029 A 
ATOM     32  N   UNL A   1      47.423  29.041  27.152  1.00  0.00    -0.354 N 
ATOM     33  N   UNL A   1      46.403  26.298  26.828  1.00  0.00    -0.248 NA
ATOM     34  C   UNL A   1      46.761  24.044  26.321  1.00  0.00     0.031 C 
ATOM     35  C   UNL A   1      49.615  29.366  27.012  1.00  0.00     0.029 A 
ATOM     36  C   UNL A   1      48.627  28.398  26.922  1.00  0.00     0.049 A 
ATOM     37  H   UNL A   1      46.540  28.604  27.152  1.00  0.00     0.167 HD
ATOM     38  C   UNL A   1      47.754  26.097  26.589  1.00  0.00     0.074 A 
ATOM     39  C   UNL A   1      47.921  24.686  26.294  1.00  0.00     0.031 C 
ATOM     40  C   UNL A   1      48.770  26.993  26.637  1.00  0.00     0.037 A 
BRANCH  27  41
ATOM     41  C   UNL A   1      46.975  32.778  27.906  1.00  0.00     0.058 A 
ATOM     42  C   UNL A   1      47.231  33.207  29.219  1.00  0.00     0.135 A 
ATOM     43  C   UNL A   1      47.053  33.726  26.876  1.00  0.00     0.135 A 
ATOM     44  F   UNL A   1      47.144  32.342  30.243  1.00  0.00    -0.206 F 
ATOM     45  C   UNL A   1      47.529  34.534  29.505  1.00  0.00     0.059 A 
ATOM     46  C   UNL A   1      47.365  35.057  27.137  1.00  0.00     0.059 A 
ATOM     47  F   UNL A   1      46.802  33.367  25.607  1.00  0.00    -0.206 F 
ATOM     48  C   UNL A   1      47.586  35.453  28.456  1.00  0.00     0.060 A 
BRANCH  48  49
ATOM     49  S   UNL A   1      47.951  37.179  28.845  1.00  0.00     0.124 S 
ATOM     50  O   UNL A   1      48.587  37.626  27.610  1.00  0.00    -0.237 OA
ATOM     51  O   UNL A   1      46.625  37.729  29.109  1.00  0.00    -0.237 OA
ATOM     52  O   UNL A   1      48.830  37.086  30.007  1.00  0.00    -0.744 OA
ENDBRANCH  48  49
ENDBRANCH  27  41
BRANCH  28  53
ATOM     53  C   UNL A   1      43.933  23.355  26.697  1.00  0.00     0.058 A 
ATOM     54  C   UNL A   1      43.816  22.840  25.399  1.00  0.00     0.135 A 
ATOM     55  C   UNL A   1      43.550  22.529  27.766  1.00  0.00     0.135 A 
ATOM     56  F   UNL A   1      44.166  23.594  24.345  1.00  0.00    -0.206 F 
ATOM     57  C   UNL A   1      43.313  21.564  25.166  1.00  0.00     0.059 A 
ATOM     58  C   UNL A   1      43.059  21.245  27.560  1.00  0.00     0.059 A 
ATOM     59  F   UNL A   1      43.661  22.969  29.029  1.00  0.00    -0.206 F 
ATOM     60  C   UNL A   1      42.931  20.775  26.254  1.00  0.00     0.060 A 
BRANCH  60  61
ATOM     61  S   UNL A   1      42.293  19.112  25.948  1.00  0.00     0.124 S 
ATOM     62  O   UNL A   1      42.975  18.761  24.708  1.00  0.00    -0.237 OA
ATOM     63  O   UNL A   1      42.724  18.393  27.142  1.00  0.00    -0.237 OA
ATOM     64  O   UNL A   1      40.852  19.324  25.841  1.00  0.00    -0.744 OA
ENDBRANCH  60  61
ENDBRANCH  28  53
BRANCH  40  65
ATOM     65  C   UNL A   1      50.152  26.458  26.421  1.00  0.00     0.058 A 
ATOM     66  C   UNL A   1      50.699  26.329  25.136  1.00  0.00     0.135 A 
ATOM     67  C   UNL A   1      50.944  26.087  27.519  1.00  0.00     0.135 A 
ATOM     68  F   UNL A   1      49.973  26.659  24.056  1.00  0.00    -0.206 F 
ATOM     69  C   UNL A   1      51.980  25.825  24.944  1.00  0.00     0.059 A 
ATOM     70  C   UNL A   1      52.236  25.601  27.351  1.00  0.00     0.059 A 
ATOM     71  F   UNL A   1      50.464  26.198  28.768  1.00  0.00    -0.206 F 
ATOM     72  C   UNL A   1      52.739  25.460  26.058  1.00  0.00     0.060 A 
BRANCH  72  73
ATOM     73  S   UNL A   1      54.410  24.828  25.805  1.00  0.00     0.124 S 
ATOM     74  O   UNL A   1      54.143  23.461  25.371  1.00  0.00    -0.237 OA
ATOM     75  O   UNL A   1      54.939  25.727  24.784  1.00  0.00    -0.237 OA
ATOM     76  O   UNL A   1      55.023  24.962  27.125  1.00  0.00    -0.744 OA
ENDBRANCH  72  73
ENDBRANCH  40  65
ENDBRANCH  14  15
ENDBRANCH   7   9
ENDBRANCH   6   7
ENDBRANCH   5   6
ENDBRANCH   4   5
ENDBRANCH   3   4
ENDBRANCH   2   3
ENDBRANCH   1   2
BRANCH   1  77
ATOM     77  O   UNL A   1      38.461  34.972  34.512  1.00  0.00    -0.376 OA
BRANCH  77  78
ATOM     78  C   UNL A   1      39.358  33.941  34.887  1.00  0.00     0.202 C 
BRANCH  78  79
ATOM     79  C   UNL A   1      40.742  34.495  35.244  1.00  0.00     0.261 C 
BRANCH  79  80
ATOM     80  O   UNL A   1      41.796  34.148  34.324  1.00  0.00    -0.463 OA
BRANCH  80  81
ATOM     81  C   UNL A   1      41.868  34.937  33.217  1.00  0.00     0.309 C 
ATOM     82  O   UNL A   1      41.136  34.848  32.238  1.00  0.00    -0.252 OA
BRANCH  81  83
ATOM     83  C   UNL A   1      43.060  35.873  33.231  1.00  0.00     0.111 C 
ATOM     84  C   UNL A   1      42.652  37.254  33.750  1.00  0.00     0.016 C 
ATOM     85  C   UNL A   1      43.872  35.987  31.943  1.00  0.00     0.093 C 
ATOM     86  C   UNL A   1      43.902  38.067  34.068  1.00  0.00     0.001 C 
ATOM     87  C   UNL A   1      45.110  36.888  32.138  1.00  0.00     0.014 C 
ATOM     88  C   UNL A   1      44.829  38.204  32.864  1.00  0.00     0.001 C 
BRANCH  85  89
ATOM     89  C   UNL A   1      44.260  34.706  31.189  1.00  0.00     0.228 C 
ATOM     90  O   UNL A   1      44.697  33.746  31.838  1.00  0.00    -0.274 OA
ATOM     91  N   UNL A   1      44.020  34.434  29.878  1.00  0.00    -0.326 N 
ATOM     92  H   UNL A   1      44.347  33.558  29.569  1.00  0.00     0.169 HD
BRANCH  91  93
ATOM     93  C   UNL A   1      43.384  35.198  28.907  1.00  0.00     0.041 A 
ATOM     94  C   UNL A   1      42.014  35.392  29.023  1.00  0.00     0.028 A 
ATOM     95  C   UNL A   1      44.057  35.765  27.838  1.00  0.00     0.028 A 
ATOM     96  C   UNL A   1      41.380  36.334  28.213  1.00  0.00     0.028 A 
ATOM     97  C   UNL A   1      43.436  36.743  27.061  1.00  0.00     0.028 A 
ATOM     98  C   UNL A   1      42.108  37.099  27.302  1.00  0.00     0.041 A 
BRANCH  98  99
ATOM     99  N   UNL A   1      41.622  38.215  26.602  1.00  0.00    -0.319 N 
ATOM    100  C   UNL A   1      41.461  39.548  26.938  1.00  0.00     0.291 C 
ATOM    101  H   UNL A   1      41.337  38.006  25.683  1.00  0.00     0.170 HD
ATOM    102  O   UNL A   1      40.951  40.282  26.104  1.00  0.00    -0.265 OA
BRANCH 100 103
ATOM    103  C   UNL A   1      41.914  40.026  28.223  1.00  0.00     0.191 A 
ATOM    104  C   UNL A   1      43.120  39.911  28.889  1.00  0.00     0.056 A 
ATOM    105  O   UNL A   1      41.024  40.717  29.000  1.00  0.00    -0.459 OA
ATOM    106  C   UNL A   1      42.943  40.529  30.153  1.00  0.00     0.043 A 
ATOM    107  C   UNL A   1      41.654  41.008  30.167  1.00  0.00     0.196 A 
ENDBRANCH 100 103
ENDBRANCH  98  99
ENDBRANCH  91  93
ENDBRANCH  85  89
ENDBRANCH  81  83
ENDBRANCH  80  81
ENDBRANCH  79  80
ENDBRANCH  78  79
ENDBRANCH  77  78
ENDBRANCH   1  77
TORSDOF 24
ENDMDL
