MODEL 1
REMARK VINA RESULT:     -11.0      0.000      0.000
REMARK SMILES O=C(OCCOCCOCCOC(=O)[C@@H]1CCCN(c2ccc3cc(S(=O)(=O)N4CCCCC4)ccc3n2)C1)c1ccc(-c2c3nc(c(-c4c(F)cc(S(=O)(=O)[O-])cc4F)c4ccc([nH]4)c(-c4c(F)cc(S(=O)(=O)[O-])cc4F)c4nc(c(-c5c(F)cc(S(=O)(=O)[O-])cc5F)c5ccc2[nH]5)C=C4)C=C3)cc1
REMARK SMILES IDX 7 1 6 2 5 3 4 4 3 5 2 6 1 7 40 8 41 9 105 10 42 11 104 12
REMARK SMILES IDX 43 13 44 14 45 15 98 16 46 17 103 18 97 19 99 20 47 21
REMARK SMILES IDX 102 22 96 23 95 24 48 26 82 27 61 28 81 29 62 30 65 31 80 32
REMARK SMILES IDX 100 33 63 34 64 35 79 37 101 38 66 39 49 40 50 41 59 42
REMARK SMILES IDX 51 43 52 44 58 45 60 46 53 47 54 48 55 49 56 50 57 51 83 52
REMARK SMILES IDX 84 53 93 54 85 55 86 56 92 57 94 58 87 59 88 60 89 61 90 62
REMARK SMILES IDX 91 63 67 64 68 65 77 66 69 67 70 68 76 69 78 70 71 71 72 72
REMARK SMILES IDX 73 73 74 74 75 75 8 76 9 77 10 78 11 79 12 80 13 81 14 82
REMARK SMILES IDX 15 83 16 84 39 85 17 86 19 87 18 88 20 89 21 90 38 91 22 92
REMARK SMILES IDX 37 93 23 94 36 95 24 96 35 97 25 98 26 99 27 100 28 101
REMARK SMILES IDX 29 102 30 103 34 104 31 105 33 106 32 107
REMARK H PARENT 99 25 65 36
REMARK Flexibility Score: inf
ROOT
ATOM      1  C   UNL A   1      42.777  22.557  28.274  1.00  0.00     0.188 C 
ENDROOT
BRANCH   1   2
ATOM      2  O   UNL A   1      43.853  23.019  27.454  1.00  0.00    -0.376 OA
BRANCH   2   3
ATOM      3  C   UNL A   1      43.742  22.560  26.109  1.00  0.00     0.202 C 
BRANCH   3   4
ATOM      4  C   UNL A   1      43.579  23.685  25.080  1.00  0.00     0.261 C 
BRANCH   4   5
ATOM      5  O   UNL A   1      43.620  24.999  25.655  1.00  0.00    -0.460 OA
BRANCH   5   6
ATOM      6  C   UNL A   1      42.538  25.767  25.938  1.00  0.00     0.338 C 
ATOM      7  O   UNL A   1      41.811  26.128  25.014  1.00  0.00    -0.246 OA
BRANCH   6   8
ATOM      8  C   UNL A   1      42.267  26.316  27.309  1.00  0.00     0.060 A 
ATOM      9  C   UNL A   1      41.191  25.971  28.130  1.00  0.00     0.016 A 
ATOM     10  C   UNL A   1      43.129  27.336  27.759  1.00  0.00     0.016 A 
ATOM     11  C   UNL A   1      40.949  26.642  29.329  1.00  0.00     0.010 A 
ATOM     12  C   UNL A   1      42.896  28.010  28.965  1.00  0.00     0.010 A 
ATOM     13  C   UNL A   1      41.776  27.687  29.739  1.00  0.00    -0.014 A 
BRANCH  13  14
ATOM     14  C   UNL A   1      41.336  28.521  30.879  1.00  0.00     0.031 A 
ATOM     15  C   UNL A   1      42.047  28.357  32.191  1.00  0.00     0.074 A 
ATOM     16  C   UNL A   1      40.423  29.496  30.711  1.00  0.00     0.049 A 
ATOM     17  N   UNL A   1      41.987  29.112  33.256  1.00  0.00    -0.248 NA
ATOM     18  C   UNL A   1      42.991  27.232  32.301  1.00  0.00     0.031 C 
ATOM     19  C   UNL A   1      39.742  29.809  29.456  1.00  0.00     0.029 A 
ATOM     20  N   UNL A   1      39.909  30.407  31.597  1.00  0.00    -0.354 N 
ATOM     21  C   UNL A   1      42.954  28.613  34.119  1.00  0.00     0.074 A 
ATOM     22  C   UNL A   1      43.509  27.429  33.504  1.00  0.00     0.031 C 
ATOM     23  C   UNL A   1      38.830  30.770  29.671  1.00  0.00     0.029 A 
ATOM     24  C   UNL A   1      38.911  31.188  31.066  1.00  0.00     0.049 A 
ATOM     25  H   UNL A   1      40.226  30.493  32.525  1.00  0.00     0.167 HD
ATOM     26  C   UNL A   1      43.381  29.135  35.291  1.00  0.00     0.037 A 
ATOM     27  C   UNL A   1      38.161  32.149  31.638  1.00  0.00     0.037 A 
ATOM     28  C   UNL A   1      42.777  30.276  35.921  1.00  0.00     0.049 A 
ATOM     29  C   UNL A   1      38.527  32.599  33.025  1.00  0.00     0.074 A 
ATOM     30  C   UNL A   1      43.084  30.859  37.135  1.00  0.00     0.029 A 
ATOM     31  N   UNL A   1      41.716  30.995  35.385  1.00  0.00    -0.354 N 
ATOM     32  N   UNL A   1      39.484  32.156  33.805  1.00  0.00    -0.248 NA
ATOM     33  C   UNL A   1      37.757  33.716  33.587  1.00  0.00     0.031 C 
ATOM     34  C   UNL A   1      42.185  31.911  37.350  1.00  0.00     0.029 A 
ATOM     35  C   UNL A   1      41.341  32.003  36.253  1.00  0.00     0.049 A 
ATOM     36  H   UNL A   1      41.294  30.813  34.514  1.00  0.00     0.167 HD
ATOM     37  C   UNL A   1      39.467  32.971  34.929  1.00  0.00     0.074 A 
ATOM     38  C   UNL A   1      38.397  33.930  34.729  1.00  0.00     0.031 C 
ATOM     39  C   UNL A   1      40.273  32.944  36.021  1.00  0.00     0.037 A 
BRANCH  26  40
ATOM     40  C   UNL A   1      44.564  28.471  35.930  1.00  0.00     0.058 A 
ATOM     41  C   UNL A   1      45.871  28.915  35.659  1.00  0.00     0.135 A 
ATOM     42  C   UNL A   1      44.410  27.365  36.777  1.00  0.00     0.135 A 
ATOM     43  F   UNL A   1      46.074  29.954  34.833  1.00  0.00    -0.206 F 
ATOM     44  C   UNL A   1      46.983  28.267  36.183  1.00  0.00     0.059 A 
ATOM     45  C   UNL A   1      45.509  26.711  37.326  1.00  0.00     0.059 A 
ATOM     46  F   UNL A   1      43.184  26.894  37.055  1.00  0.00    -0.206 F 
ATOM     47  C   UNL A   1      46.792  27.158  37.008  1.00  0.00     0.060 A 
BRANCH  47  48
ATOM     48  S   UNL A   1      48.245  26.302  37.651  1.00  0.00     0.124 S 
ATOM     49  O   UNL A   1      47.888  26.136  39.056  1.00  0.00    -0.237 OA
ATOM     50  O   UNL A   1      48.267  25.079  36.854  1.00  0.00    -0.237 OA
ATOM     51  O   UNL A   1      49.334  27.238  37.387  1.00  0.00    -0.744 OA
ENDBRANCH  47  48
ENDBRANCH  26  40
BRANCH  27  52
ATOM     52  C   UNL A   1      37.025  32.755  30.896  1.00  0.00     0.058 A 
ATOM     53  C   UNL A   1      37.194  33.863  30.054  1.00  0.00     0.135 A 
ATOM     54  C   UNL A   1      35.730  32.228  31.028  1.00  0.00     0.135 A 
ATOM     55  F   UNL A   1      38.412  34.401  29.889  1.00  0.00    -0.206 F 
ATOM     56  C   UNL A   1      36.115  34.448  29.395  1.00  0.00     0.059 A 
ATOM     57  C   UNL A   1      34.640  32.783  30.366  1.00  0.00     0.059 A 
ATOM     58  F   UNL A   1      35.517  31.154  31.806  1.00  0.00    -0.206 F 
ATOM     59  C   UNL A   1      34.840  33.903  29.562  1.00  0.00     0.060 A 
BRANCH  59  60
ATOM     60  S   UNL A   1      33.449  34.661  28.694  1.00  0.00     0.124 S 
ATOM     61  O   UNL A   1      33.007  33.568  27.836  1.00  0.00    -0.237 OA
ATOM     62  O   UNL A   1      32.556  35.011  29.794  1.00  0.00    -0.237 OA
ATOM     63  O   UNL A   1      34.061  35.795  28.008  1.00  0.00    -0.744 OA
ENDBRANCH  59  60
ENDBRANCH  27  52
BRANCH  39  64
ATOM     64  C   UNL A   1      40.042  34.002  37.058  1.00  0.00     0.058 A 
ATOM     65  C   UNL A   1      40.638  35.268  36.957  1.00  0.00     0.135 A 
ATOM     66  C   UNL A   1      39.190  33.755  38.145  1.00  0.00     0.135 A 
ATOM     67  F   UNL A   1      41.466  35.545  35.938  1.00  0.00    -0.206 F 
ATOM     68  C   UNL A   1      40.415  36.249  37.916  1.00  0.00     0.059 A 
ATOM     69  C   UNL A   1      38.934  34.729  39.102  1.00  0.00     0.059 A 
ATOM     70  F   UNL A   1      38.590  32.560  38.278  1.00  0.00    -0.206 F 
ATOM     71  C   UNL A   1      39.563  35.968  38.985  1.00  0.00     0.060 A 
BRANCH  71  72
ATOM     72  S   UNL A   1      39.256  37.256  40.212  1.00  0.00     0.124 S 
ATOM     73  O   UNL A   1      38.504  36.522  41.224  1.00  0.00    -0.237 OA
ATOM     74  O   UNL A   1      40.607  37.658  40.592  1.00  0.00    -0.237 OA
ATOM     75  O   UNL A   1      38.499  38.257  39.467  1.00  0.00    -0.744 OA
ENDBRANCH  71  72
ENDBRANCH  39  64
ENDBRANCH  13  14
ENDBRANCH   6   8
ENDBRANCH   5   6
ENDBRANCH   4   5
ENDBRANCH   3   4
ENDBRANCH   2   3
ENDBRANCH   1   2
BRANCH   1  76
ATOM     76  C   UNL A   1      41.987  21.428  27.615  1.00  0.00     0.188 C 
BRANCH  76  77
ATOM     77  O   UNL A   1      40.597  21.671  27.417  1.00  0.00    -0.376 OA
BRANCH  77  78
ATOM     78  C   UNL A   1      39.986  20.967  26.335  1.00  0.00     0.202 C 
BRANCH  78  79
ATOM     79  C   UNL A   1      38.684  21.561  25.777  1.00  0.00     0.261 C 
BRANCH  79  80
ATOM     80  O   UNL A   1      37.873  20.631  25.028  1.00  0.00    -0.463 OA
BRANCH  80  81
ATOM     81  C   UNL A   1      36.619  21.060  24.719  1.00  0.00     0.310 C 
ATOM     82  O   UNL A   1      36.372  21.922  23.880  1.00  0.00    -0.252 OA
BRANCH  81  83
ATOM     83  C   UNL A   1      35.504  20.370  25.490  1.00  0.00     0.118 C 
ATOM     84  C   UNL A   1      34.646  19.362  24.722  1.00  0.00     0.019 C 
ATOM     85  C   UNL A   1      34.719  21.406  26.318  1.00  0.00     0.133 C 
ATOM     86  C   UNL A   1      33.333  19.932  24.200  1.00  0.00     0.022 C 
ATOM     87  N   UNL A   1      33.460  21.817  25.687  1.00  0.00    -0.356 N 
ATOM     88  C   UNL A   1      32.594  20.722  25.264  1.00  0.00     0.118 C 
BRANCH  87  89
ATOM     89  C   UNL A   1      32.929  23.095  25.712  1.00  0.00     0.129 A 
ATOM     90  C   UNL A   1      31.758  23.397  26.396  1.00  0.00     0.047 A 
ATOM     91  N   UNL A   1      33.626  24.101  25.131  1.00  0.00    -0.231 NA
ATOM     92  C   UNL A   1      31.377  24.727  26.594  1.00  0.00     0.014 A 
ATOM     93  C   UNL A   1      33.256  25.387  25.289  1.00  0.00     0.073 A 
ATOM     94  C   UNL A   1      32.147  25.756  26.061  1.00  0.00     0.002 A 
ATOM     95  C   UNL A   1      33.992  26.404  24.693  1.00  0.00     0.030 A 
ATOM     96  C   UNL A   1      31.844  27.111  26.289  1.00  0.00     0.032 A 
ATOM     97  C   UNL A   1      33.694  27.761  24.897  1.00  0.00     0.024 A 
ATOM     98  C   UNL A   1      32.633  28.119  25.722  1.00  0.00     0.083 A 
BRANCH  98  99
ATOM     99  S   UNL A   1      32.192  29.809  26.095  1.00  0.00     0.243 S 
ATOM    100  O   UNL A   1      31.444  29.752  27.343  1.00  0.00    -0.207 OA
ATOM    101  O   UNL A   1      33.394  30.598  25.995  1.00  0.00    -0.207 OA
BRANCH  99 102
ATOM    102  N   UNL A   1      31.087  30.343  24.909  1.00  0.00    -0.198 NA
ATOM    103  C   UNL A   1      30.506  29.312  24.014  1.00  0.00     0.102 C 
ATOM    104  C   UNL A   1      30.213  31.473  25.292  1.00  0.00     0.102 C 
ATOM    105  C   UNL A   1      29.778  29.942  22.831  1.00  0.00     0.017 C 
ATOM    106  C   UNL A   1      29.520  32.073  24.076  1.00  0.00     0.017 C 
ATOM    107  C   UNL A   1      28.783  31.000  23.288  1.00  0.00     0.003 C 
ENDBRANCH  99 102
ENDBRANCH  98  99
ENDBRANCH  87  89
ENDBRANCH  81  83
ENDBRANCH  80  81
ENDBRANCH  79  80
ENDBRANCH  78  79
ENDBRANCH  77  78
ENDBRANCH  76  77
ENDBRANCH   1  76
TORSDOF 23
ENDMDL
MODEL 2
REMARK VINA RESULT:     -10.1      4.227      7.091
REMARK SMILES O=C(OCCOCCOCCOC(=O)[C@@H]1CCCN(c2ccc3cc(S(=O)(=O)N4CCCCC4)ccc3n2)C1)c1ccc(-c2c3nc(c(-c4c(F)cc(S(=O)(=O)[O-])cc4F)c4ccc([nH]4)c(-c4c(F)cc(S(=O)(=O)[O-])cc4F)c4nc(c(-c5c(F)cc(S(=O)(=O)[O-])cc5F)c5ccc2[nH]5)C=C4)C=C3)cc1
REMARK SMILES IDX 7 1 6 2 5 3 4 4 3 5 2 6 1 7 40 8 41 9 105 10 42 11 104 12
REMARK SMILES IDX 43 13 44 14 45 15 98 16 46 17 103 18 97 19 99 20 47 21
REMARK SMILES IDX 102 22 96 23 95 24 48 26 82 27 61 28 81 29 62 30 65 31 80 32
REMARK SMILES IDX 100 33 63 34 64 35 79 37 101 38 66 39 49 40 50 41 59 42
REMARK SMILES IDX 51 43 52 44 58 45 60 46 53 47 54 48 55 49 56 50 57 51 83 52
REMARK SMILES IDX 84 53 93 54 85 55 86 56 92 57 94 58 87 59 88 60 89 61 90 62
REMARK SMILES IDX 91 63 67 64 68 65 77 66 69 67 70 68 76 69 78 70 71 71 72 72
REMARK SMILES IDX 73 73 74 74 75 75 8 76 9 77 10 78 11 79 12 80 13 81 14 82
REMARK SMILES IDX 15 83 16 84 39 85 17 86 19 87 18 88 20 89 21 90 38 91 22 92
REMARK SMILES IDX 37 93 23 94 36 95 24 96 35 97 25 98 26 99 27 100 28 101
REMARK SMILES IDX 29 102 30 103 34 104 31 105 33 106 32 107
REMARK H PARENT 99 25 65 36
REMARK Flexibility Score: inf
ROOT
ATOM      1  C   UNL A   1      42.207  19.714  25.869  1.00  0.00     0.188 C 
ENDROOT
BRANCH   1   2
ATOM      2  O   UNL A   1      41.874  19.613  27.256  1.00  0.00    -0.376 OA
BRANCH   2   3
ATOM      3  C   UNL A   1      41.276  20.806  27.755  1.00  0.00     0.202 C 
BRANCH   3   4
ATOM      4  C   UNL A   1      41.298  21.975  26.762  1.00  0.00     0.261 C 
BRANCH   4   5
ATOM      5  O   UNL A   1      40.984  23.241  27.361  1.00  0.00    -0.460 OA
BRANCH   5   6
ATOM      6  C   UNL A   1      41.799  24.325  27.379  1.00  0.00     0.338 C 
ATOM      7  O   UNL A   1      42.876  24.265  26.789  1.00  0.00    -0.246 OA
BRANCH   6   8
ATOM      8  C   UNL A   1      41.511  25.545  28.206  1.00  0.00     0.060 A 
ATOM      9  C   UNL A   1      42.465  26.398  28.764  1.00  0.00     0.016 A 
ATOM     10  C   UNL A   1      40.158  25.789  28.516  1.00  0.00     0.016 A 
ATOM     11  C   UNL A   1      42.100  27.425  29.635  1.00  0.00     0.010 A 
ATOM     12  C   UNL A   1      39.783  26.823  29.385  1.00  0.00     0.010 A 
ATOM     13  C   UNL A   1      40.763  27.624  29.979  1.00  0.00    -0.014 A 
BRANCH  13  14
ATOM     14  C   UNL A   1      40.459  28.555  31.087  1.00  0.00     0.031 A 
ATOM     15  C   UNL A   1      41.206  28.385  32.379  1.00  0.00     0.074 A 
ATOM     16  C   UNL A   1      39.643  29.610  30.902  1.00  0.00     0.049 A 
ATOM     17  N   UNL A   1      41.269  29.195  33.402  1.00  0.00    -0.248 NA
ATOM     18  C   UNL A   1      42.035  27.176  32.514  1.00  0.00     0.031 C 
ATOM     19  C   UNL A   1      38.943  29.927  29.659  1.00  0.00     0.029 A 
ATOM     20  N   UNL A   1      39.262  30.612  31.755  1.00  0.00    -0.354 N 
ATOM     21  C   UNL A   1      42.217  28.643  34.254  1.00  0.00     0.074 A 
ATOM     22  C   UNL A   1      42.623  27.378  33.684  1.00  0.00     0.031 C 
ATOM     23  C   UNL A   1      38.143  30.987  29.856  1.00  0.00     0.029 A 
ATOM     24  C   UNL A   1      38.326  31.464  31.221  1.00  0.00     0.049 A 
ATOM     25  H   UNL A   1      39.626  30.711  32.665  1.00  0.00     0.167 HD
ATOM     26  C   UNL A   1      42.745  29.176  35.378  1.00  0.00     0.037 A 
ATOM     27  C   UNL A   1      37.703  32.525  31.768  1.00  0.00     0.037 A 
ATOM     28  C   UNL A   1      42.287  30.403  35.968  1.00  0.00     0.049 A 
ATOM     29  C   UNL A   1      38.172  33.004  33.113  1.00  0.00     0.074 A 
ATOM     30  C   UNL A   1      42.704  31.012  37.135  1.00  0.00     0.029 A 
ATOM     31  N   UNL A   1      41.282  31.200  35.434  1.00  0.00    -0.354 N 
ATOM     32  N   UNL A   1      39.113  32.505  33.880  1.00  0.00    -0.248 NA
ATOM     33  C   UNL A   1      37.544  34.221  33.642  1.00  0.00     0.031 C 
ATOM     34  C   UNL A   1      41.926  32.160  37.327  1.00  0.00     0.029 A 
ATOM     35  C   UNL A   1      41.049  32.284  36.260  1.00  0.00     0.049 A 
ATOM     36  H   UNL A   1      40.806  31.019  34.591  1.00  0.00     0.167 HD
ATOM     37  C   UNL A   1      39.227  33.372  34.957  1.00  0.00     0.074 A 
ATOM     38  C   UNL A   1      38.251  34.425  34.746  1.00  0.00     0.031 C 
ATOM     39  C   UNL A   1      40.072  33.317  36.017  1.00  0.00     0.037 A 
BRANCH  26  40
ATOM     40  C   UNL A   1      43.882  28.426  36.007  1.00  0.00     0.058 A 
ATOM     41  C   UNL A   1      45.214  28.724  35.669  1.00  0.00     0.135 A 
ATOM     42  C   UNL A   1      43.653  27.382  36.913  1.00  0.00     0.135 A 
ATOM     43  F   UNL A   1      45.485  29.699  34.785  1.00  0.00    -0.206 F 
ATOM     44  C   UNL A   1      46.276  27.992  36.184  1.00  0.00     0.059 A 
ATOM     45  C   UNL A   1      44.703  26.646  37.455  1.00  0.00     0.059 A 
ATOM     46  F   UNL A   1      42.399  27.049  37.257  1.00  0.00    -0.206 F 
ATOM     47  C   UNL A   1      46.010  26.947  37.070  1.00  0.00     0.060 A 
BRANCH  47  48
ATOM     48  S   UNL A   1      47.397  25.980  37.702  1.00  0.00     0.124 S 
ATOM     49  O   UNL A   1      47.530  26.511  39.055  1.00  0.00    -0.237 OA
ATOM     50  O   UNL A   1      46.896  24.612  37.605  1.00  0.00    -0.237 OA
ATOM     51  O   UNL A   1      48.487  26.311  36.789  1.00  0.00    -0.744 OA
ENDBRANCH  47  48
ENDBRANCH  26  40
BRANCH  27  52
ATOM     52  C   UNL A   1      36.603  33.206  31.038  1.00  0.00     0.058 A 
ATOM     53  C   UNL A   1      36.843  34.016  29.919  1.00  0.00     0.135 A 
ATOM     54  C   UNL A   1      35.272  33.061  31.463  1.00  0.00     0.135 A 
ATOM     55  F   UNL A   1      38.096  34.183  29.469  1.00  0.00    -0.206 F 
ATOM     56  C   UNL A   1      35.809  34.683  29.266  1.00  0.00     0.059 A 
ATOM     57  C   UNL A   1      34.220  33.702  30.817  1.00  0.00     0.059 A 
ATOM     58  F   UNL A   1      34.985  32.281  32.518  1.00  0.00    -0.206 F 
ATOM     59  C   UNL A   1      34.500  34.523  29.727  1.00  0.00     0.060 A 
BRANCH  59  60
ATOM     60  S   UNL A   1      33.164  35.383  28.867  1.00  0.00     0.124 S 
ATOM     61  O   UNL A   1      32.376  35.893  29.984  1.00  0.00    -0.237 OA
ATOM     62  O   UNL A   1      33.892  36.380  28.090  1.00  0.00    -0.237 OA
ATOM     63  O   UNL A   1      32.536  34.324  28.082  1.00  0.00    -0.744 OA
ENDBRANCH  59  60
ENDBRANCH  27  52
BRANCH  39  64
ATOM     64  C   UNL A   1      39.995  34.444  37.003  1.00  0.00     0.058 A 
ATOM     65  C   UNL A   1      39.138  34.389  38.112  1.00  0.00     0.135 A 
ATOM     66  C   UNL A   1      40.813  35.575  36.852  1.00  0.00     0.135 A 
ATOM     67  F   UNL A   1      38.333  33.331  38.292  1.00  0.00    -0.206 F 
ATOM     68  C   UNL A   1      39.076  35.432  39.029  1.00  0.00     0.059 A 
ATOM     69  C   UNL A   1      40.784  36.618  37.769  1.00  0.00     0.059 A 
ATOM     70  F   UNL A   1      41.655  35.667  35.811  1.00  0.00    -0.206 F 
ATOM     71  C   UNL A   1      39.901  36.543  38.847  1.00  0.00     0.060 A 
BRANCH  71  72
ATOM     72  S   UNL A   1      39.835  37.881  40.055  1.00  0.00     0.124 S 
ATOM     73  O   UNL A   1      38.631  38.593  39.638  1.00  0.00    -0.237 OA
ATOM     74  O   UNL A   1      39.738  37.159  41.321  1.00  0.00    -0.237 OA
ATOM     75  O   UNL A   1      41.092  38.591  39.841  1.00  0.00    -0.744 OA
ENDBRANCH  71  72
ENDBRANCH  39  64
ENDBRANCH  13  14
ENDBRANCH   6   8
ENDBRANCH   5   6
ENDBRANCH   4   5
ENDBRANCH   3   4
ENDBRANCH   2   3
ENDBRANCH   1   2
BRANCH   1  76
ATOM     76  C   UNL A   1      43.624  19.230  25.575  1.00  0.00     0.188 C 
BRANCH  76  77
ATOM     77  O   UNL A   1      44.288  19.863  24.484  1.00  0.00    -0.376 OA
BRANCH  77  78
ATOM     78  C   UNL A   1      45.402  20.690  24.823  1.00  0.00     0.202 C 
BRANCH  78  79
ATOM     79  C   UNL A   1      45.094  21.960  25.630  1.00  0.00     0.261 C 
BRANCH  79  80
ATOM     80  O   UNL A   1      46.234  22.536  26.301  1.00  0.00    -0.463 OA
BRANCH  80  81
ATOM     81  C   UNL A   1      46.258  23.895  26.359  1.00  0.00     0.310 C 
ATOM     82  O   UNL A   1      46.171  24.544  27.398  1.00  0.00    -0.252 OA
BRANCH  81  83
ATOM     83  C   UNL A   1      46.422  24.585  25.013  1.00  0.00     0.118 C 
ATOM     84  C   UNL A   1      47.851  24.884  24.551  1.00  0.00     0.019 C 
ATOM     85  C   UNL A   1      45.435  25.764  24.902  1.00  0.00     0.133 C 
ATOM     86  C   UNL A   1      48.313  26.306  24.841  1.00  0.00     0.022 C 
ATOM     87  N   UNL A   1      46.056  27.065  25.174  1.00  0.00    -0.356 N 
ATOM     88  C   UNL A   1      47.278  27.335  24.424  1.00  0.00     0.118 C 
BRANCH  87  89
ATOM     89  C   UNL A   1      45.455  28.118  25.841  1.00  0.00     0.129 A 
ATOM     90  C   UNL A   1      44.081  28.184  26.038  1.00  0.00     0.047 A 
ATOM     91  N   UNL A   1      46.244  29.066  26.404  1.00  0.00    -0.231 NA
ATOM     92  C   UNL A   1      43.535  29.131  26.908  1.00  0.00     0.014 A 
ATOM     93  C   UNL A   1      45.729  30.003  27.223  1.00  0.00     0.073 A 
ATOM     94  C   UNL A   1      44.366  30.048  27.545  1.00  0.00     0.002 A 
ATOM     95  C   UNL A   1      46.557  30.960  27.798  1.00  0.00     0.030 A 
ATOM     96  C   UNL A   1      43.875  30.977  28.480  1.00  0.00     0.032 A 
ATOM     97  C   UNL A   1      46.081  31.903  28.722  1.00  0.00     0.024 A 
ATOM     98  C   UNL A   1      44.739  31.896  29.089  1.00  0.00     0.083 A 
BRANCH  98  99
ATOM     99  S   UNL A   1      44.031  33.013  30.289  1.00  0.00     0.243 S 
ATOM    100  O   UNL A   1      43.010  32.243  30.986  1.00  0.00    -0.207 OA
ATOM    101  O   UNL A   1      45.122  33.610  31.015  1.00  0.00    -0.207 OA
BRANCH  99 102
ATOM    102  N   UNL A   1      43.198  34.240  29.445  1.00  0.00    -0.198 NA
ATOM    103  C   UNL A   1      43.775  34.680  28.150  1.00  0.00     0.102 C 
ATOM    104  C   UNL A   1      41.723  34.224  29.555  1.00  0.00     0.102 C 
ATOM    105  C   UNL A   1      43.115  35.961  27.649  1.00  0.00     0.017 C 
ATOM    106  C   UNL A   1      41.117  35.528  29.054  1.00  0.00     0.017 C 
ATOM    107  C   UNL A   1      41.598  35.843  27.646  1.00  0.00     0.003 C 
ENDBRANCH  99 102
ENDBRANCH  98  99
ENDBRANCH  87  89
ENDBRANCH  81  83
ENDBRANCH  80  81
ENDBRANCH  79  80
ENDBRANCH  78  79
ENDBRANCH  77  78
ENDBRANCH  76  77
ENDBRANCH   1  76
TORSDOF 23
ENDMDL
MODEL 3
REMARK VINA RESULT:     -10.0      1.123      7.780
REMARK SMILES O=C(OCCOCCOCCOC(=O)[C@@H]1CCCN(c2ccc3cc(S(=O)(=O)N4CCCCC4)ccc3n2)C1)c1ccc(-c2c3nc(c(-c4c(F)cc(S(=O)(=O)[O-])cc4F)c4ccc([nH]4)c(-c4c(F)cc(S(=O)(=O)[O-])cc4F)c4nc(c(-c5c(F)cc(S(=O)(=O)[O-])cc5F)c5ccc2[nH]5)C=C4)C=C3)cc1
REMARK SMILES IDX 7 1 6 2 5 3 4 4 3 5 2 6 1 7 40 8 41 9 105 10 42 11 104 12
REMARK SMILES IDX 43 13 44 14 45 15 98 16 46 17 103 18 97 19 99 20 47 21
REMARK SMILES IDX 102 22 96 23 95 24 48 26 82 27 61 28 81 29 62 30 65 31 80 32
REMARK SMILES IDX 100 33 63 34 64 35 79 37 101 38 66 39 49 40 50 41 59 42
REMARK SMILES IDX 51 43 52 44 58 45 60 46 53 47 54 48 55 49 56 50 57 51 83 52
REMARK SMILES IDX 84 53 93 54 85 55 86 56 92 57 94 58 87 59 88 60 89 61 90 62
REMARK SMILES IDX 91 63 67 64 68 65 77 66 69 67 70 68 76 69 78 70 71 71 72 72
REMARK SMILES IDX 73 73 74 74 75 75 8 76 9 77 10 78 11 79 12 80 13 81 14 82
REMARK SMILES IDX 15 83 16 84 39 85 17 86 19 87 18 88 20 89 21 90 38 91 22 92
REMARK SMILES IDX 37 93 23 94 36 95 24 96 35 97 25 98 26 99 27 100 28 101
REMARK SMILES IDX 29 102 30 103 34 104 31 105 33 106 32 107
REMARK H PARENT 99 25 65 36
REMARK Flexibility Score: inf
ROOT
ATOM      1  C   UNL A   1      42.903  22.746  28.285  1.00  0.00     0.188 C 
ENDROOT
BRANCH   1   2
ATOM      2  O   UNL A   1      43.816  23.280  27.322  1.00  0.00    -0.376 OA
BRANCH   2   3
ATOM      3  C   UNL A   1      43.566  22.785  26.009  1.00  0.00     0.202 C 
BRANCH   3   4
ATOM      4  C   UNL A   1      43.123  23.863  25.012  1.00  0.00     0.261 C 
BRANCH   4   5
ATOM      5  O   UNL A   1      43.138  25.190  25.559  1.00  0.00    -0.460 OA
BRANCH   5   6
ATOM      6  C   UNL A   1      42.066  25.839  26.077  1.00  0.00     0.338 C 
ATOM      7  O   UNL A   1      41.073  26.000  25.368  1.00  0.00    -0.246 OA
BRANCH   6   8
ATOM      8  C   UNL A   1      42.087  26.496  27.427  1.00  0.00     0.060 A 
ATOM      9  C   UNL A   1      41.177  26.268  28.461  1.00  0.00     0.016 A 
ATOM     10  C   UNL A   1      43.060  27.495  27.624  1.00  0.00     0.016 A 
ATOM     11  C   UNL A   1      41.198  27.033  29.628  1.00  0.00     0.010 A 
ATOM     12  C   UNL A   1      43.092  28.263  28.796  1.00  0.00     0.010 A 
ATOM     13  C   UNL A   1      42.131  28.057  29.791  1.00  0.00    -0.014 A 
BRANCH  13  14
ATOM     14  C   UNL A   1      41.953  28.991  30.924  1.00  0.00     0.031 A 
ATOM     15  C   UNL A   1      40.881  30.037  30.817  1.00  0.00     0.074 A 
ATOM     16  C   UNL A   1      42.632  28.821  32.074  1.00  0.00     0.049 A 
ATOM     17  N   UNL A   1      40.398  30.815  31.749  1.00  0.00    -0.248 NA
ATOM     18  C   UNL A   1      40.225  30.186  29.506  1.00  0.00     0.031 C 
ATOM     19  C   UNL A   1      43.624  27.777  32.323  1.00  0.00     0.029 A 
ATOM     20  N   UNL A   1      42.592  29.521  33.251  1.00  0.00    -0.354 N 
ATOM     21  C   UNL A   1      39.324  31.471  31.164  1.00  0.00     0.074 A 
ATOM     22  C   UNL A   1      39.289  31.085  29.772  1.00  0.00     0.031 C 
ATOM     23  C   UNL A   1      44.171  27.962  33.535  1.00  0.00     0.029 A 
ATOM     24  C   UNL A   1      43.519  29.098  34.174  1.00  0.00     0.049 A 
ATOM     25  H   UNL A   1      41.960  30.257  33.419  1.00  0.00     0.167 HD
ATOM     26  C   UNL A   1      38.410  32.275  31.754  1.00  0.00     0.037 A 
ATOM     27  C   UNL A   1      43.793  29.564  35.407  1.00  0.00     0.037 A 
ATOM     28  C   UNL A   1      38.493  32.702  33.123  1.00  0.00     0.049 A 
ATOM     29  C   UNL A   1      42.876  30.603  35.991  1.00  0.00     0.074 A 
ATOM     30  C   UNL A   1      37.661  33.561  33.815  1.00  0.00     0.029 A 
ATOM     31  N   UNL A   1      39.491  32.310  34.006  1.00  0.00    -0.354 N 
ATOM     32  N   UNL A   1      41.827  31.170  35.446  1.00  0.00    -0.248 NA
ATOM     33  C   UNL A   1      43.139  31.021  37.374  1.00  0.00     0.031 C 
ATOM     34  C   UNL A   1      38.177  33.717  35.107  1.00  0.00     0.029 A 
ATOM     35  C   UNL A   1      39.310  32.926  35.230  1.00  0.00     0.049 A 
ATOM     36  H   UNL A   1      40.221  31.684  33.790  1.00  0.00     0.167 HD
ATOM     37  C   UNL A   1      41.272  31.974  36.432  1.00  0.00     0.074 A 
ATOM     38  C   UNL A   1      42.109  31.824  37.607  1.00  0.00     0.031 C 
ATOM     39  C   UNL A   1      40.161  32.752  36.381  1.00  0.00     0.037 A 
BRANCH  26  40
ATOM     40  C   UNL A   1      37.252  32.711  30.906  1.00  0.00     0.058 A 
ATOM     41  C   UNL A   1      37.402  33.740  29.959  1.00  0.00     0.135 A 
ATOM     42  C   UNL A   1      35.981  32.143  31.061  1.00  0.00     0.135 A 
ATOM     43  F   UNL A   1      38.594  34.336  29.791  1.00  0.00    -0.206 F 
ATOM     44  C   UNL A   1      36.324  34.209  29.218  1.00  0.00     0.059 A 
ATOM     45  C   UNL A   1      34.891  32.585  30.317  1.00  0.00     0.059 A 
ATOM     46  F   UNL A   1      35.783  31.167  31.962  1.00  0.00    -0.206 F 
ATOM     47  C   UNL A   1      35.069  33.631  29.410  1.00  0.00     0.060 A 
BRANCH  47  48
ATOM     48  S   UNL A   1      33.671  34.275  28.468  1.00  0.00     0.124 S 
ATOM     49  O   UNL A   1      33.350  33.139  27.610  1.00  0.00    -0.237 OA
ATOM     50  O   UNL A   1      32.698  34.572  29.515  1.00  0.00    -0.237 OA
ATOM     51  O   UNL A   1      34.228  35.439  27.786  1.00  0.00    -0.744 OA
ENDBRANCH  47  48
ENDBRANCH  26  40
BRANCH  27  52
ATOM     52  C   UNL A   1      44.957  29.036  36.166  1.00  0.00     0.058 A 
ATOM     53  C   UNL A   1      44.846  27.934  37.025  1.00  0.00     0.135 A 
ATOM     54  C   UNL A   1      46.217  29.646  36.046  1.00  0.00     0.135 A 
ATOM     55  F   UNL A   1      43.666  27.314  37.171  1.00  0.00    -0.206 F 
ATOM     56  C   UNL A   1      45.935  27.473  37.762  1.00  0.00     0.059 A 
ATOM     57  C   UNL A   1      47.322  29.193  36.758  1.00  0.00     0.059 A 
ATOM     58  F   UNL A   1      46.381  30.692  35.221  1.00  0.00    -0.206 F 
ATOM     59  C   UNL A   1      47.169  28.113  37.625  1.00  0.00     0.060 A 
BRANCH  59  60
ATOM     60  S   UNL A   1      48.577  27.501  38.577  1.00  0.00     0.124 S 
ATOM     61  O   UNL A   1      49.691  28.175  37.919  1.00  0.00    -0.237 OA
ATOM     62  O   UNL A   1      48.258  27.960  39.925  1.00  0.00    -0.237 OA
ATOM     63  O   UNL A   1      48.508  26.055  38.382  1.00  0.00    -0.744 OA
ENDBRANCH  59  60
ENDBRANCH  27  52
BRANCH  39  64
ATOM     64  C   UNL A   1      39.779  33.468  37.641  1.00  0.00     0.058 A 
ATOM     65  C   UNL A   1      40.370  34.689  37.998  1.00  0.00     0.135 A 
ATOM     66  C   UNL A   1      38.785  32.942  38.481  1.00  0.00     0.135 A 
ATOM     67  F   UNL A   1      41.330  35.225  37.228  1.00  0.00    -0.206 F 
ATOM     68  C   UNL A   1      40.007  35.354  39.163  1.00  0.00     0.059 A 
ATOM     69  C   UNL A   1      38.390  33.602  39.638  1.00  0.00     0.059 A 
ATOM     70  F   UNL A   1      38.185  31.780  38.175  1.00  0.00    -0.206 F 
ATOM     71  C   UNL A   1      39.017  34.800  39.977  1.00  0.00     0.060 A 
BRANCH  71  72
ATOM     72  S   UNL A   1      38.530  35.684  41.474  1.00  0.00     0.124 S 
ATOM     73  O   UNL A   1      37.212  35.115  41.733  1.00  0.00    -0.237 OA
ATOM     74  O   UNL A   1      39.579  35.308  42.417  1.00  0.00    -0.237 OA
ATOM     75  O   UNL A   1      38.542  37.083  41.058  1.00  0.00    -0.744 OA
ENDBRANCH  71  72
ENDBRANCH  39  64
ENDBRANCH  13  14
ENDBRANCH   6   8
ENDBRANCH   5   6
ENDBRANCH   4   5
ENDBRANCH   3   4
ENDBRANCH   2   3
ENDBRANCH   1   2
BRANCH   1  76
ATOM     76  C   UNL A   1      42.115  21.557  27.740  1.00  0.00     0.188 C 
BRANCH  76  77
ATOM     77  O   UNL A   1      40.723  21.776  27.523  1.00  0.00    -0.376 OA
BRANCH  77  78
ATOM     78  C   UNL A   1      40.115  20.980  26.506  1.00  0.00     0.202 C 
BRANCH  78  79
ATOM     79  C   UNL A   1      38.886  21.580  25.808  1.00  0.00     0.261 C 
BRANCH  79  80
ATOM     80  O   UNL A   1      38.144  20.648  24.992  1.00  0.00    -0.463 OA
BRANCH  80  81
ATOM     81  C   UNL A   1      36.872  21.019  24.684  1.00  0.00     0.310 C 
ATOM     82  O   UNL A   1      36.579  21.817  23.798  1.00  0.00    -0.252 OA
BRANCH  81  83
ATOM     83  C   UNL A   1      35.795  20.346  25.523  1.00  0.00     0.118 C 
ATOM     84  C   UNL A   1      35.034  19.184  24.880  1.00  0.00     0.019 C 
ATOM     85  C   UNL A   1      34.915  21.414  26.202  1.00  0.00     0.133 C 
ATOM     86  C   UNL A   1      33.695  19.579  24.272  1.00  0.00     0.022 C 
ATOM     87  N   UNL A   1      33.643  21.641  25.507  1.00  0.00    -0.356 N 
ATOM     88  C   UNL A   1      32.873  20.436  25.217  1.00  0.00     0.118 C 
BRANCH  87  89
ATOM     89  C   UNL A   1      33.014  22.865  25.361  1.00  0.00     0.129 A 
ATOM     90  C   UNL A   1      32.469  23.552  26.439  1.00  0.00     0.047 A 
ATOM     91  N   UNL A   1      33.019  23.457  24.142  1.00  0.00    -0.231 NA
ATOM     92  C   UNL A   1      32.053  24.878  26.297  1.00  0.00     0.014 A 
ATOM     93  C   UNL A   1      32.595  24.726  23.982  1.00  0.00     0.073 A 
ATOM     94  C   UNL A   1      32.139  25.502  25.056  1.00  0.00     0.002 A 
ATOM     95  C   UNL A   1      32.618  25.318  22.725  1.00  0.00     0.030 A 
ATOM     96  C   UNL A   1      31.797  26.855  24.875  1.00  0.00     0.032 A 
ATOM     97  C   UNL A   1      32.265  26.662  22.524  1.00  0.00     0.024 A 
ATOM     98  C   UNL A   1      31.881  27.445  23.608  1.00  0.00     0.083 A 
BRANCH  98  99
ATOM     99  S   UNL A   1      31.459  29.176  23.482  1.00  0.00     0.243 S 
ATOM    100  O   UNL A   1      31.704  29.735  24.804  1.00  0.00    -0.207 OA
ATOM    101  O   UNL A   1      32.141  29.700  22.326  1.00  0.00    -0.207 OA
BRANCH  99 102
ATOM    102  N   UNL A   1      29.776  29.295  23.226  1.00  0.00    -0.198 NA
ATOM    103  C   UNL A   1      28.964  28.083  23.500  1.00  0.00     0.102 C 
ATOM    104  C   UNL A   1      29.159  30.604  23.532  1.00  0.00     0.102 C 
ATOM    105  C   UNL A   1      27.545  28.226  22.959  1.00  0.00     0.017 C 
ATOM    106  C   UNL A   1      27.751  30.699  22.961  1.00  0.00     0.017 C 
ATOM    107  C   UNL A   1      26.900  29.525  23.421  1.00  0.00     0.003 C 
ENDBRANCH  99 102
ENDBRANCH  98  99
ENDBRANCH  87  89
ENDBRANCH  81  83
ENDBRANCH  80  81
ENDBRANCH  79  80
ENDBRANCH  78  79
ENDBRANCH  77  78
ENDBRANCH  76  77
ENDBRANCH   1  76
TORSDOF 23
ENDMDL
