MODEL 1
REMARK VINA RESULT:     -10.5      0.000      0.000
REMARK SMILES O=C(OCCOCCOCCOC(=O)[C@H]1[NH2+]CC[C@H]1c1cccc(Oc2ccccc2)c1)c1ccc(-c2c3nc(c(-c4c(F)cc(S(=O)(=O)[O-])cc4F)c4ccc([nH]4)c(-c4c(F)cc(S(=O)(=O)[O-])cc4F)c4nc(c(-c5c(F)cc(S(=O)(=O)[O-])cc5F)c5ccc2[nH]5)C=C4)C=C3)cc1
REMARK SMILES IDX 7 1 6 2 5 3 4 4 3 5 2 6 1 7 33 8 34 9 98 10 35 11 97 12
REMARK SMILES IDX 36 13 37 14 38 15 91 16 39 17 96 18 90 19 92 20 40 21 95 22
REMARK SMILES IDX 89 23 88 24 41 26 75 27 54 28 74 29 55 30 58 31 73 32 93 33
REMARK SMILES IDX 56 34 57 35 72 37 94 38 59 39 42 40 43 41 52 42 44 43 45 44
REMARK SMILES IDX 51 45 53 46 46 47 47 48 48 49 49 50 50 51 76 52 77 53 86 54
REMARK SMILES IDX 78 55 79 56 85 57 87 58 80 59 81 60 82 61 83 62 84 63 60 64
REMARK SMILES IDX 61 65 70 66 62 67 63 68 69 69 71 70 64 71 65 72 66 73 67 74
REMARK SMILES IDX 68 75 8 76 9 77 10 78 11 79 12 80 13 81 14 82 15 83 16 84
REMARK SMILES IDX 19 85 17 86 18 89 20 90 21 91 32 92 22 93 24 94 23 95 25 96
REMARK SMILES IDX 26 97 27 98 31 99 28 100 30 101 29 102
REMARK H PARENT 92 25 58 36 16 87 16 88
REMARK Flexibility Score: inf
ROOT
ATOM      1  C   UNL A   1      37.401  22.483  25.440  1.00  0.00     0.188 C 
ENDROOT
BRANCH   1   2
ATOM      2  O   UNL A   1      38.539  21.647  25.670  1.00  0.00    -0.376 OA
BRANCH   2   3
ATOM      3  C   UNL A   1      38.396  20.308  25.181  1.00  0.00     0.202 C 
BRANCH   3   4
ATOM      4  C   UNL A   1      39.379  19.275  25.761  1.00  0.00     0.261 C 
BRANCH   4   5
ATOM      5  O   UNL A   1      40.747  19.467  25.363  1.00  0.00    -0.460 OA
BRANCH   5   6
ATOM      6  C   UNL A   1      41.866  19.540  26.128  1.00  0.00     0.338 C 
ATOM      7  O   UNL A   1      42.316  18.490  26.588  1.00  0.00    -0.246 OA
BRANCH   6   8
ATOM      8  C   UNL A   1      42.581  20.814  26.457  1.00  0.00     0.060 A 
ATOM      9  C   UNL A   1      42.642  21.404  27.717  1.00  0.00     0.016 A 
ATOM     10  C   UNL A   1      43.264  21.453  25.408  1.00  0.00     0.016 A 
ATOM     11  C   UNL A   1      43.243  22.632  27.927  1.00  0.00     0.010 A 
ATOM     12  C   UNL A   1      43.911  22.676  25.613  1.00  0.00     0.010 A 
ATOM     13  C   UNL A   1      43.852  23.289  26.871  1.00  0.00    -0.014 A 
BRANCH  13  14
ATOM     14  C   UNL A   1      44.223  24.699  27.068  1.00  0.00     0.031 A 
ATOM     15  C   UNL A   1      45.663  25.062  26.923  1.00  0.00     0.074 A 
ATOM     16  C   UNL A   1      43.285  25.648  27.217  1.00  0.00     0.049 A 
ATOM     17  N   UNL A   1      46.231  26.223  27.072  1.00  0.00    -0.248 NA
ATOM     18  C   UNL A   1      46.576  23.985  26.496  1.00  0.00     0.031 C 
ATOM     19  C   UNL A   1      41.850  25.413  27.124  1.00  0.00     0.029 A 
ATOM     20  N   UNL A   1      43.380  26.986  27.486  1.00  0.00    -0.354 N 
ATOM     21  C   UNL A   1      47.562  26.025  26.739  1.00  0.00     0.074 A 
ATOM     22  C   UNL A   1      47.733  24.624  26.432  1.00  0.00     0.031 C 
ATOM     23  C   UNL A   1      41.199  26.535  27.452  1.00  0.00     0.029 A 
ATOM     24  C   UNL A   1      42.163  27.566  27.759  1.00  0.00     0.049 A 
ATOM     25  H   UNL A   1      44.231  27.481  27.485  1.00  0.00     0.167 HD
ATOM     26  C   UNL A   1      48.540  26.952  26.675  1.00  0.00     0.037 A 
ATOM     27  C   UNL A   1      41.854  28.785  28.231  1.00  0.00     0.037 A 
ATOM     28  C   UNL A   1      48.328  28.332  27.011  1.00  0.00     0.049 A 
ATOM     29  C   UNL A   1      42.986  29.752  28.365  1.00  0.00     0.074 A 
ATOM     30  C   UNL A   1      49.245  29.362  27.052  1.00  0.00     0.029 A 
ATOM     31  N   UNL A   1      47.098  28.870  27.383  1.00  0.00    -0.354 N 
ATOM     32  N   UNL A   1      44.255  29.550  28.097  1.00  0.00    -0.248 NA
ATOM     33  C   UNL A   1      42.659  31.107  28.810  1.00  0.00     0.031 C 
ATOM     34  C   UNL A   1      48.585  30.509  27.508  1.00  0.00     0.029 A 
ATOM     35  C   UNL A   1      47.241  30.211  27.691  1.00  0.00     0.049 A 
ATOM     36  H   UNL A   1      46.253  28.369  27.422  1.00  0.00     0.167 HD
ATOM     37  C   UNL A   1      44.878  30.771  28.285  1.00  0.00     0.074 A 
ATOM     38  C   UNL A   1      43.841  31.701  28.699  1.00  0.00     0.031 C 
ATOM     39  C   UNL A   1      46.181  31.098  28.108  1.00  0.00     0.037 A 
BRANCH  26  40
ATOM     40  C   UNL A   1      49.907  26.464  26.297  1.00  0.00     0.058 A 
ATOM     41  C   UNL A   1      50.800  25.938  27.244  1.00  0.00     0.135 A 
ATOM     42  C   UNL A   1      50.350  26.581  24.971  1.00  0.00     0.135 A 
ATOM     43  F   UNL A   1      50.442  25.846  28.535  1.00  0.00    -0.206 F 
ATOM     44  C   UNL A   1      52.096  25.569  26.894  1.00  0.00     0.059 A 
ATOM     45  C   UNL A   1      51.631  26.194  24.593  1.00  0.00     0.059 A 
ATOM     46  F   UNL A   1      49.544  27.103  24.033  1.00  0.00    -0.206 F 
ATOM     47  C   UNL A   1      52.501  25.703  25.565  1.00  0.00     0.060 A 
BRANCH  47  48
ATOM     48  S   UNL A   1      54.186  25.227  25.128  1.00  0.00     0.124 S 
ATOM     49  O   UNL A   1      54.380  25.951  23.877  1.00  0.00    -0.237 OA
ATOM     50  O   UNL A   1      54.952  25.712  26.268  1.00  0.00    -0.237 OA
ATOM     51  O   UNL A   1      54.105  23.771  25.004  1.00  0.00    -0.744 OA
ENDBRANCH  47  48
ENDBRANCH  26  40
BRANCH  27  52
ATOM     52  C   UNL A   1      40.450  29.131  28.586  1.00  0.00     0.058 A 
ATOM     53  C   UNL A   1      39.484  29.387  27.604  1.00  0.00     0.135 A 
ATOM     54  C   UNL A   1      40.038  29.184  29.931  1.00  0.00     0.135 A 
ATOM     55  F   UNL A   1      39.817  29.329  26.306  1.00  0.00    -0.206 F 
ATOM     56  C   UNL A   1      38.172  29.718  27.937  1.00  0.00     0.059 A 
ATOM     57  C   UNL A   1      38.728  29.491  30.288  1.00  0.00     0.059 A 
ATOM     58  F   UNL A   1      40.910  28.909  30.913  1.00  0.00    -0.206 F 
ATOM     59  C   UNL A   1      37.805  29.773  29.283  1.00  0.00     0.060 A 
BRANCH  59  60
ATOM     60  S   UNL A   1      36.101  30.202  29.698  1.00  0.00     0.124 S 
ATOM     61  O   UNL A   1      36.158  31.658  29.707  1.00  0.00    -0.237 OA
ATOM     62  O   UNL A   1      35.361  29.597  28.597  1.00  0.00    -0.237 OA
ATOM     63  O   UNL A   1      35.904  29.571  31.001  1.00  0.00    -0.744 OA
ENDBRANCH  59  60
ENDBRANCH  27  52
BRANCH  39  64
ATOM     64  C   UNL A   1      46.537  32.533  28.334  1.00  0.00     0.058 A 
ATOM     65  C   UNL A   1      46.986  32.993  29.579  1.00  0.00     0.135 A 
ATOM     66  C   UNL A   1      46.457  33.448  27.273  1.00  0.00     0.135 A 
ATOM     67  F   UNL A   1      47.060  32.154  30.625  1.00  0.00    -0.206 F 
ATOM     68  C   UNL A   1      47.322  34.325  29.774  1.00  0.00     0.059 A 
ATOM     69  C   UNL A   1      46.823  34.777  27.435  1.00  0.00     0.059 A 
ATOM     70  F   UNL A   1      46.036  33.049  26.062  1.00  0.00    -0.206 F 
ATOM     71  C   UNL A   1      47.242  35.206  28.693  1.00  0.00     0.060 A 
BRANCH  71  72
ATOM     72  S   UNL A   1      47.722  36.924  28.951  1.00  0.00     0.124 S 
ATOM     73  O   UNL A   1      48.929  36.771  29.758  1.00  0.00    -0.237 OA
ATOM     74  O   UNL A   1      47.927  37.397  27.586  1.00  0.00    -0.237 OA
ATOM     75  O   UNL A   1      46.571  37.498  29.643  1.00  0.00    -0.744 OA
ENDBRANCH  71  72
ENDBRANCH  39  64
ENDBRANCH  13  14
ENDBRANCH   6   8
ENDBRANCH   5   6
ENDBRANCH   4   5
ENDBRANCH   3   4
ENDBRANCH   2   3
ENDBRANCH   1   2
BRANCH   1  76
ATOM     76  C   UNL A   1      36.065  21.750  25.373  1.00  0.00     0.188 C 
BRANCH  76  77
ATOM     77  O   UNL A   1      34.922  22.483  25.791  1.00  0.00    -0.376 OA
BRANCH  77  78
ATOM     78  C   UNL A   1      34.300  22.037  26.985  1.00  0.00     0.202 C 
BRANCH  78  79
ATOM     79  C   UNL A   1      32.914  22.577  27.349  1.00  0.00     0.261 C 
BRANCH  79  80
ATOM     80  O   UNL A   1      32.535  23.898  26.941  1.00  0.00    -0.459 OA
BRANCH  80  81
ATOM     81  C   UNL A   1      31.183  24.086  26.871  1.00  0.00     0.365 C 
ATOM     82  O   UNL A   1      30.345  23.285  27.283  1.00  0.00    -0.245 OA
BRANCH  81  83
ATOM     83  C   UNL A   1      30.769  25.335  26.121  1.00  0.00     0.301 C 
ATOM     84  N   UNL A   1      31.690  26.491  26.252  1.00  0.00    -0.334 N 
ATOM     85  C   UNL A   1      30.539  25.184  24.597  1.00  0.00     0.095 C 
ATOM     86  C   UNL A   1      31.077  27.472  25.349  1.00  0.00     0.262 C 
ATOM     87  H   UNL A   1      32.634  26.248  25.949  1.00  0.00     0.347 HD
ATOM     88  H   UNL A   1      31.799  26.824  27.210  1.00  0.00     0.347 HD
ATOM     89  C   UNL A   1      30.428  26.680  24.211  1.00  0.00     0.076 C 
BRANCH  85  90
ATOM     90  C   UNL A   1      31.548  24.315  23.829  1.00  0.00    -0.034 A 
ATOM     91  C   UNL A   1      32.787  24.765  23.370  1.00  0.00     0.004 A 
ATOM     92  C   UNL A   1      31.193  23.000  23.453  1.00  0.00     0.051 A 
ATOM     93  C   UNL A   1      33.685  23.911  22.718  1.00  0.00     0.004 A 
ATOM     94  C   UNL A   1      32.068  22.125  22.790  1.00  0.00     0.127 A 
ATOM     95  C   UNL A   1      33.336  22.590  22.452  1.00  0.00     0.047 A 
BRANCH  94  96
ATOM     96  O   UNL A   1      31.803  20.827  22.384  1.00  0.00    -0.457 OA
BRANCH  96  97
ATOM     97  C   UNL A   1      32.269  19.757  23.110  1.00  0.00     0.127 A 
ATOM     98  C   UNL A   1      32.524  19.958  24.471  1.00  0.00     0.047 A 
ATOM     99  C   UNL A   1      32.531  18.513  22.536  1.00  0.00     0.047 A 
ATOM    100  C   UNL A   1      32.923  18.885  25.273  1.00  0.00     0.004 A 
ATOM    101  C   UNL A   1      32.870  17.428  23.348  1.00  0.00     0.004 A 
ATOM    102  C   UNL A   1      33.052  17.611  24.718  1.00  0.00     0.000 A 
ENDBRANCH  96  97
ENDBRANCH  94  96
ENDBRANCH  85  90
ENDBRANCH  81  83
ENDBRANCH  80  81
ENDBRANCH  79  80
ENDBRANCH  78  79
ENDBRANCH  77  78
ENDBRANCH  76  77
ENDBRANCH   1  76
TORSDOF 23
ENDMDL
MODEL 2
REMARK VINA RESULT:     -10.4      2.135      8.404
REMARK SMILES O=C(OCCOCCOCCOC(=O)[C@H]1[NH2+]CC[C@H]1c1cccc(Oc2ccccc2)c1)c1ccc(-c2c3nc(c(-c4c(F)cc(S(=O)(=O)[O-])cc4F)c4ccc([nH]4)c(-c4c(F)cc(S(=O)(=O)[O-])cc4F)c4nc(c(-c5c(F)cc(S(=O)(=O)[O-])cc5F)c5ccc2[nH]5)C=C4)C=C3)cc1
REMARK SMILES IDX 7 1 6 2 5 3 4 4 3 5 2 6 1 7 33 8 34 9 98 10 35 11 97 12
REMARK SMILES IDX 36 13 37 14 38 15 91 16 39 17 96 18 90 19 92 20 40 21 95 22
REMARK SMILES IDX 89 23 88 24 41 26 75 27 54 28 74 29 55 30 58 31 73 32 93 33
REMARK SMILES IDX 56 34 57 35 72 37 94 38 59 39 42 40 43 41 52 42 44 43 45 44
REMARK SMILES IDX 51 45 53 46 46 47 47 48 48 49 49 50 50 51 76 52 77 53 86 54
REMARK SMILES IDX 78 55 79 56 85 57 87 58 80 59 81 60 82 61 83 62 84 63 60 64
REMARK SMILES IDX 61 65 70 66 62 67 63 68 69 69 71 70 64 71 65 72 66 73 67 74
REMARK SMILES IDX 68 75 8 76 9 77 10 78 11 79 12 80 13 81 14 82 15 83 16 84
REMARK SMILES IDX 19 85 17 86 18 89 20 90 21 91 32 92 22 93 24 94 23 95 25 96
REMARK SMILES IDX 26 97 27 98 31 99 28 100 30 101 29 102
REMARK H PARENT 92 25 58 36 16 87 16 88
REMARK Flexibility Score: inf
ROOT
ATOM      1  C   UNL A   1      34.013  30.824  27.534  1.00  0.00     0.188 C 
ENDROOT
BRANCH   1   2
ATOM      2  O   UNL A   1      34.931  31.905  27.341  1.00  0.00    -0.376 OA
BRANCH   2   3
ATOM      3  C   UNL A   1      35.044  32.790  28.462  1.00  0.00     0.202 C 
BRANCH   3   4
ATOM      4  C   UNL A   1      36.105  32.410  29.510  1.00  0.00     0.261 C 
BRANCH   4   5
ATOM      5  O   UNL A   1      35.873  31.150  30.162  1.00  0.00    -0.460 OA
BRANCH   5   6
ATOM      6  C   UNL A   1      36.760  30.186  30.516  1.00  0.00     0.338 C 
ATOM      7  O   UNL A   1      36.401  29.353  31.348  1.00  0.00    -0.246 OA
BRANCH   6   8
ATOM      8  C   UNL A   1      38.149  30.077  29.967  1.00  0.00     0.060 A 
ATOM      9  C   UNL A   1      38.474  29.830  28.635  1.00  0.00     0.016 A 
ATOM     10  C   UNL A   1      39.211  30.260  30.870  1.00  0.00     0.016 A 
ATOM     11  C   UNL A   1      39.780  29.648  28.217  1.00  0.00     0.010 A 
ATOM     12  C   UNL A   1      40.539  30.119  30.454  1.00  0.00     0.010 A 
ATOM     13  C   UNL A   1      40.816  29.759  29.129  1.00  0.00    -0.014 A 
BRANCH  13  14
ATOM     14  C   UNL A   1      42.146  29.286  28.713  1.00  0.00     0.031 A 
ATOM     15  C   UNL A   1      43.249  30.288  28.652  1.00  0.00     0.074 A 
ATOM     16  C   UNL A   1      42.393  27.976  28.548  1.00  0.00     0.049 A 
ATOM     17  N   UNL A   1      44.488  30.116  28.293  1.00  0.00    -0.248 NA
ATOM     18  C   UNL A   1      42.929  31.652  29.110  1.00  0.00     0.031 C 
ATOM     19  C   UNL A   1      41.437  26.912  28.827  1.00  0.00     0.029 A 
ATOM     20  N   UNL A   1      43.501  27.310  28.100  1.00  0.00    -0.354 N 
ATOM     21  C   UNL A   1      45.102  31.341  28.501  1.00  0.00     0.074 A 
ATOM     22  C   UNL A   1      44.093  32.264  28.965  1.00  0.00     0.031 C 
ATOM     23  C   UNL A   1      41.953  25.743  28.432  1.00  0.00     0.029 A 
ATOM     24  C   UNL A   1      43.273  25.971  27.890  1.00  0.00     0.049 A 
ATOM     25  H   UNL A   1      44.370  27.745  27.944  1.00  0.00     0.167 HD
ATOM     26  C   UNL A   1      46.407  31.645  28.337  1.00  0.00     0.037 A 
ATOM     27  C   UNL A   1      44.030  25.029  27.302  1.00  0.00     0.037 A 
ATOM     28  C   UNL A   1      47.371  30.698  27.852  1.00  0.00     0.049 A 
ATOM     29  C   UNL A   1      45.417  25.435  26.922  1.00  0.00     0.074 A 
ATOM     30  C   UNL A   1      48.710  30.892  27.579  1.00  0.00     0.029 A 
ATOM     31  N   UNL A   1      47.086  29.369  27.552  1.00  0.00    -0.354 N 
ATOM     32  N   UNL A   1      45.985  26.609  27.072  1.00  0.00    -0.248 NA
ATOM     33  C   UNL A   1      46.282  24.404  26.345  1.00  0.00     0.031 C 
ATOM     34  C   UNL A   1      49.220  29.699  27.054  1.00  0.00     0.029 A 
ATOM     35  C   UNL A   1      48.215  28.740  27.060  1.00  0.00     0.049 A 
ATOM     36  H   UNL A   1      46.208  28.940  27.670  1.00  0.00     0.167 HD
ATOM     37  C   UNL A   1      47.296  26.449  26.662  1.00  0.00     0.074 A 
ATOM     38  C   UNL A   1      47.430  25.063  26.248  1.00  0.00     0.031 C 
ATOM     39  C   UNL A   1      48.301  27.358  26.651  1.00  0.00     0.037 A 
BRANCH  26  40
ATOM     40  C   UNL A   1      46.809  33.061  28.623  1.00  0.00     0.058 A 
ATOM     41  C   UNL A   1      47.222  33.476  29.900  1.00  0.00     0.135 A 
ATOM     42  C   UNL A   1      46.724  34.031  27.613  1.00  0.00     0.135 A 
ATOM     43  F   UNL A   1      47.277  32.596  30.913  1.00  0.00    -0.206 F 
ATOM     44  C   UNL A   1      47.510  34.810  30.172  1.00  0.00     0.059 A 
ATOM     45  C   UNL A   1      47.032  35.364  27.855  1.00  0.00     0.059 A 
ATOM     46  F   UNL A   1      46.309  33.690  26.383  1.00  0.00    -0.206 F 
ATOM     47  C   UNL A   1      47.411  35.747  29.142  1.00  0.00     0.060 A 
BRANCH  47  48
ATOM     48  S   UNL A   1      47.781  37.474  29.512  1.00  0.00     0.124 S 
ATOM     49  O   UNL A   1      47.145  38.156  28.391  1.00  0.00    -0.237 OA
ATOM     50  O   UNL A   1      47.147  37.656  30.810  1.00  0.00    -0.237 OA
ATOM     51  O   UNL A   1      49.245  37.512  29.519  1.00  0.00    -0.744 OA
ENDBRANCH  47  48
ENDBRANCH  26  40
BRANCH  27  52
ATOM     52  C   UNL A   1      43.495  23.661  27.063  1.00  0.00     0.058 A 
ATOM     53  C   UNL A   1      43.373  22.725  28.099  1.00  0.00     0.135 A 
ATOM     54  C   UNL A   1      43.063  23.270  25.781  1.00  0.00     0.135 A 
ATOM     55  F   UNL A   1      43.751  23.052  29.343  1.00  0.00    -0.206 F 
ATOM     56  C   UNL A   1      42.879  21.442  27.871  1.00  0.00     0.059 A 
ATOM     57  C   UNL A   1      42.545  22.001  25.534  1.00  0.00     0.059 A 
ATOM     58  F   UNL A   1      43.117  24.137  24.758  1.00  0.00    -0.206 F 
ATOM     59  C   UNL A   1      42.472  21.088  26.584  1.00  0.00     0.060 A 
BRANCH  59  60
ATOM     60  S   UNL A   1      41.832  19.422  26.307  1.00  0.00     0.124 S 
ATOM     61  O   UNL A   1      40.401  19.671  26.201  1.00  0.00    -0.237 OA
ATOM     62  O   UNL A   1      42.510  19.040  25.073  1.00  0.00    -0.237 OA
ATOM     63  O   UNL A   1      42.260  18.696  27.501  1.00  0.00    -0.744 OA
ENDBRANCH  59  60
ENDBRANCH  27  52
BRANCH  39  64
ATOM     64  C   UNL A   1      49.638  26.856  26.205  1.00  0.00     0.058 A 
ATOM     65  C   UNL A   1      50.040  26.925  24.864  1.00  0.00     0.135 A 
ATOM     66  C   UNL A   1      50.537  26.333  27.147  1.00  0.00     0.135 A 
ATOM     67  F   UNL A   1      49.203  27.403  23.930  1.00  0.00    -0.206 F 
ATOM     68  C   UNL A   1      51.287  26.465  24.464  1.00  0.00     0.059 A 
ATOM     69  C   UNL A   1      51.803  25.901  26.775  1.00  0.00     0.059 A 
ATOM     70  F   UNL A   1      50.194  26.253  28.442  1.00  0.00    -0.206 F 
ATOM     71  C   UNL A   1      52.161  25.960  25.429  1.00  0.00     0.060 A 
BRANCH  71  72
ATOM     72  S   UNL A   1      53.792  25.406  24.901  1.00  0.00     0.124 S 
ATOM     73  O   UNL A   1      53.583  23.968  24.768  1.00  0.00    -0.237 OA
ATOM     74  O   UNL A   1      53.979  26.139  23.653  1.00  0.00    -0.237 OA
ATOM     75  O   UNL A   1      54.662  25.817  26.000  1.00  0.00    -0.744 OA
ENDBRANCH  71  72
ENDBRANCH  39  64
ENDBRANCH  13  14
ENDBRANCH   6   8
ENDBRANCH   5   6
ENDBRANCH   4   5
ENDBRANCH   3   4
ENDBRANCH   2   3
ENDBRANCH   1   2
BRANCH   1  76
ATOM     76  C   UNL A   1      32.610  31.065  26.985  1.00  0.00     0.188 C 
BRANCH  76  77
ATOM     77  O   UNL A   1      31.714  29.963  27.038  1.00  0.00    -0.376 OA
BRANCH  77  78
ATOM     78  C   UNL A   1      32.308  28.677  26.980  1.00  0.00     0.202 C 
BRANCH  78  79
ATOM     79  C   UNL A   1      31.440  27.472  26.607  1.00  0.00     0.261 C 
BRANCH  79  80
ATOM     80  O   UNL A   1      32.062  26.235  26.233  1.00  0.00    -0.459 OA
BRANCH  80  81
ATOM     81  C   UNL A   1      31.334  25.501  25.339  1.00  0.00     0.365 C 
ATOM     82  O   UNL A   1      30.343  24.832  25.628  1.00  0.00    -0.245 OA
BRANCH  81  83
ATOM     83  C   UNL A   1      31.919  25.469  23.942  1.00  0.00     0.301 C 
ATOM     84  N   UNL A   1      33.168  26.247  23.757  1.00  0.00    -0.334 N 
ATOM     85  C   UNL A   1      32.235  24.071  23.355  1.00  0.00     0.095 C 
ATOM     86  C   UNL A   1      33.521  25.932  22.368  1.00  0.00     0.262 C 
ATOM     87  H   UNL A   1      33.895  25.939  24.403  1.00  0.00     0.347 HD
ATOM     88  H   UNL A   1      33.061  27.246  23.939  1.00  0.00     0.347 HD
ATOM     89  C   UNL A   1      33.043  24.501  22.106  1.00  0.00     0.076 C 
BRANCH  85  90
ATOM     90  C   UNL A   1      32.873  23.048  24.309  1.00  0.00    -0.034 A 
ATOM     91  C   UNL A   1      34.098  23.229  24.953  1.00  0.00     0.004 A 
ATOM     92  C   UNL A   1      32.262  21.787  24.491  1.00  0.00     0.051 A 
ATOM     93  C   UNL A   1      34.604  22.282  25.851  1.00  0.00     0.004 A 
ATOM     94  C   UNL A   1      32.753  20.813  25.375  1.00  0.00     0.127 A 
ATOM     95  C   UNL A   1      33.921  21.090  26.079  1.00  0.00     0.047 A 
BRANCH  94  96
ATOM     96  O   UNL A   1      32.220  19.557  25.613  1.00  0.00    -0.457 OA
BRANCH  96  97
ATOM     97  C   UNL A   1      32.833  18.431  25.116  1.00  0.00     0.127 A 
ATOM     98  C   UNL A   1      32.486  17.200  25.683  1.00  0.00     0.047 A 
ATOM     99  C   UNL A   1      33.801  18.480  24.112  1.00  0.00     0.047 A 
ATOM    100  C   UNL A   1      33.019  16.017  25.163  1.00  0.00     0.004 A 
ATOM    101  C   UNL A   1      34.285  17.296  23.552  1.00  0.00     0.004 A 
ATOM    102  C   UNL A   1      33.884  16.064  24.068  1.00  0.00     0.000 A 
ENDBRANCH  96  97
ENDBRANCH  94  96
ENDBRANCH  85  90
ENDBRANCH  81  83
ENDBRANCH  80  81
ENDBRANCH  79  80
ENDBRANCH  78  79
ENDBRANCH  77  78
ENDBRANCH  76  77
ENDBRANCH   1  76
TORSDOF 23
ENDMDL
MODEL 3
REMARK VINA RESULT:     -10.3      3.080      9.408
REMARK SMILES O=C(OCCOCCOCCOC(=O)[C@H]1[NH2+]CC[C@H]1c1cccc(Oc2ccccc2)c1)c1ccc(-c2c3nc(c(-c4c(F)cc(S(=O)(=O)[O-])cc4F)c4ccc([nH]4)c(-c4c(F)cc(S(=O)(=O)[O-])cc4F)c4nc(c(-c5c(F)cc(S(=O)(=O)[O-])cc5F)c5ccc2[nH]5)C=C4)C=C3)cc1
REMARK SMILES IDX 7 1 6 2 5 3 4 4 3 5 2 6 1 7 33 8 34 9 98 10 35 11 97 12
REMARK SMILES IDX 36 13 37 14 38 15 91 16 39 17 96 18 90 19 92 20 40 21 95 22
REMARK SMILES IDX 89 23 88 24 41 26 75 27 54 28 74 29 55 30 58 31 73 32 93 33
REMARK SMILES IDX 56 34 57 35 72 37 94 38 59 39 42 40 43 41 52 42 44 43 45 44
REMARK SMILES IDX 51 45 53 46 46 47 47 48 48 49 49 50 50 51 76 52 77 53 86 54
REMARK SMILES IDX 78 55 79 56 85 57 87 58 80 59 81 60 82 61 83 62 84 63 60 64
REMARK SMILES IDX 61 65 70 66 62 67 63 68 69 69 71 70 64 71 65 72 66 73 67 74
REMARK SMILES IDX 68 75 8 76 9 77 10 78 11 79 12 80 13 81 14 82 15 83 16 84
REMARK SMILES IDX 19 85 17 86 18 89 20 90 21 91 32 92 22 93 24 94 23 95 25 96
REMARK SMILES IDX 26 97 27 98 31 99 28 100 30 101 29 102
REMARK H PARENT 92 25 58 36 16 87 16 88
REMARK Flexibility Score: inf
ROOT
ATOM      1  C   UNL A   1      36.213  32.748  29.509  1.00  0.00     0.188 C 
ENDROOT
BRANCH   1   2
ATOM      2  O   UNL A   1      35.701  33.386  30.684  1.00  0.00    -0.376 OA
BRANCH   2   3
ATOM      3  C   UNL A   1      35.157  32.485  31.655  1.00  0.00     0.202 C 
BRANCH   3   4
ATOM      4  C   UNL A   1      36.184  31.681  32.471  1.00  0.00     0.261 C 
BRANCH   4   5
ATOM      5  O   UNL A   1      36.327  30.310  32.062  1.00  0.00    -0.460 OA
BRANCH   5   6
ATOM      6  C   UNL A   1      37.363  29.455  32.258  1.00  0.00     0.338 C 
ATOM      7  O   UNL A   1      37.218  28.558  33.089  1.00  0.00    -0.246 OA
BRANCH   6   8
ATOM      8  C   UNL A   1      38.672  29.538  31.536  1.00  0.00     0.060 A 
ATOM      9  C   UNL A   1      38.827  29.698  30.161  1.00  0.00     0.016 A 
ATOM     10  C   UNL A   1      39.839  29.470  32.316  1.00  0.00     0.016 A 
ATOM     11  C   UNL A   1      40.069  29.672  29.552  1.00  0.00     0.010 A 
ATOM     12  C   UNL A   1      41.104  29.483  31.719  1.00  0.00     0.010 A 
ATOM     13  C   UNL A   1      41.211  29.532  30.323  1.00  0.00    -0.014 A 
BRANCH  13  14
ATOM     14  C   UNL A   1      42.471  29.227  29.628  1.00  0.00     0.031 A 
ATOM     15  C   UNL A   1      42.643  27.850  29.080  1.00  0.00     0.074 A 
ATOM     16  C   UNL A   1      43.365  30.192  29.360  1.00  0.00     0.049 A 
ATOM     17  N   UNL A   1      43.665  27.342  28.456  1.00  0.00    -0.248 NA
ATOM     18  C   UNL A   1      41.487  26.943  29.199  1.00  0.00     0.031 C 
ATOM     19  C   UNL A   1      43.163  31.608  29.643  1.00  0.00     0.029 A 
ATOM     20  N   UNL A   1      44.616  30.145  28.808  1.00  0.00    -0.354 N 
ATOM     21  C   UNL A   1      43.272  26.065  28.089  1.00  0.00     0.074 A 
ATOM     22  C   UNL A   1      41.940  25.851  28.604  1.00  0.00     0.031 C 
ATOM     23  C   UNL A   1      44.293  32.274  29.377  1.00  0.00     0.029 A 
ATOM     24  C   UNL A   1      45.286  31.343  28.893  1.00  0.00     0.049 A 
ATOM     25  H   UNL A   1      44.997  29.337  28.394  1.00  0.00     0.167 HD
ATOM     26  C   UNL A   1      43.968  25.167  27.360  1.00  0.00     0.037 A 
ATOM     27  C   UNL A   1      46.566  31.657  28.635  1.00  0.00     0.037 A 
ATOM     28  C   UNL A   1      45.301  25.416  26.886  1.00  0.00     0.049 A 
ATOM     29  C   UNL A   1      47.402  30.582  28.019  1.00  0.00     0.074 A 
ATOM     30  C   UNL A   1      46.143  24.571  26.193  1.00  0.00     0.029 A 
ATOM     31  N   UNL A   1      45.993  26.610  27.076  1.00  0.00    -0.354 N 
ATOM     32  N   UNL A   1      47.046  29.355  27.717  1.00  0.00    -0.248 NA
ATOM     33  C   UNL A   1      48.780  30.926  27.665  1.00  0.00     0.031 C 
ATOM     34  C   UNL A   1      47.366  25.229  26.019  1.00  0.00     0.029 A 
ATOM     35  C   UNL A   1      47.266  26.510  26.547  1.00  0.00     0.049 A 
ATOM     36  H   UNL A   1      45.629  27.407  27.524  1.00  0.00     0.167 HD
ATOM     37  C   UNL A   1      48.137  28.791  27.082  1.00  0.00     0.074 A 
ATOM     38  C   UNL A   1      49.170  29.814  27.055  1.00  0.00     0.031 C 
ATOM     39  C   UNL A   1      48.266  27.552  26.550  1.00  0.00     0.037 A 
BRANCH  26  40
ATOM     40  C   UNL A   1      43.310  23.843  27.114  1.00  0.00     0.058 A 
ATOM     41  C   UNL A   1      42.679  23.538  25.897  1.00  0.00     0.135 A 
ATOM     42  C   UNL A   1      43.259  22.885  28.137  1.00  0.00     0.135 A 
ATOM     43  F   UNL A   1      42.659  24.437  24.900  1.00  0.00    -0.206 F 
ATOM     44  C   UNL A   1      41.998  22.338  25.712  1.00  0.00     0.059 A 
ATOM     45  C   UNL A   1      42.607  21.669  27.967  1.00  0.00     0.059 A 
ATOM     46  F   UNL A   1      43.824  23.139  29.329  1.00  0.00    -0.206 F 
ATOM     47  C   UNL A   1      41.967  21.411  26.755  1.00  0.00     0.060 A 
BRANCH  47  48
ATOM     48  S   UNL A   1      41.074  19.863  26.504  1.00  0.00     0.124 S 
ATOM     49  O   UNL A   1      41.040  19.322  27.857  1.00  0.00    -0.237 OA
ATOM     50  O   UNL A   1      39.799  20.323  25.972  1.00  0.00    -0.237 OA
ATOM     51  O   UNL A   1      41.920  19.134  25.558  1.00  0.00    -0.744 OA
ENDBRANCH  47  48
ENDBRANCH  26  40
BRANCH  27  52
ATOM     52  C   UNL A   1      47.095  33.013  28.947  1.00  0.00     0.058 A 
ATOM     53  C   UNL A   1      47.088  34.044  27.997  1.00  0.00     0.135 A 
ATOM     54  C   UNL A   1      47.599  33.314  30.226  1.00  0.00     0.135 A 
ATOM     55  F   UNL A   1      46.600  33.818  26.769  1.00  0.00    -0.206 F 
ATOM     56  C   UNL A   1      47.590  35.310  28.288  1.00  0.00     0.059 A 
ATOM     57  C   UNL A   1      48.086  34.577  30.548  1.00  0.00     0.059 A 
ATOM     58  F   UNL A   1      47.595  32.378  31.189  1.00  0.00    -0.206 F 
ATOM     59  C   UNL A   1      48.093  35.566  29.566  1.00  0.00     0.060 A 
BRANCH  59  60
ATOM     60  S   UNL A   1      48.739  37.213  29.927  1.00  0.00     0.124 S 
ATOM     61  O   UNL A   1      47.551  37.891  30.429  1.00  0.00    -0.237 OA
ATOM     62  O   UNL A   1      49.775  36.921  30.912  1.00  0.00    -0.237 OA
ATOM     63  O   UNL A   1      49.228  37.673  28.629  1.00  0.00    -0.744 OA
ENDBRANCH  59  60
ENDBRANCH  27  52
BRANCH  39  64
ATOM     64  C   UNL A   1      49.564  27.259  25.866  1.00  0.00     0.058 A 
ATOM     65  C   UNL A   1      50.686  26.812  26.577  1.00  0.00     0.135 A 
ATOM     66  C   UNL A   1      49.667  27.399  24.473  1.00  0.00     0.135 A 
ATOM     67  F   UNL A   1      50.634  26.682  27.913  1.00  0.00    -0.206 F 
ATOM     68  C   UNL A   1      51.881  26.535  25.930  1.00  0.00     0.059 A 
ATOM     69  C   UNL A   1      50.842  27.092  23.802  1.00  0.00     0.059 A 
ATOM     70  F   UNL A   1      48.615  27.820  23.754  1.00  0.00    -0.206 F 
ATOM     71  C   UNL A   1      51.946  26.673  24.542  1.00  0.00     0.060 A 
BRANCH  71  72
ATOM     72  S   UNL A   1      53.493  26.269  23.712  1.00  0.00     0.124 S 
ATOM     73  O   UNL A   1      54.256  27.499  23.900  1.00  0.00    -0.237 OA
ATOM     74  O   UNL A   1      53.958  25.112  24.469  1.00  0.00    -0.237 OA
ATOM     75  O   UNL A   1      53.078  25.990  22.339  1.00  0.00    -0.744 OA
ENDBRANCH  71  72
ENDBRANCH  39  64
ENDBRANCH  13  14
ENDBRANCH   6   8
ENDBRANCH   5   6
ENDBRANCH   4   5
ENDBRANCH   3   4
ENDBRANCH   2   3
ENDBRANCH   1   2
BRANCH   1  76
ATOM     76  C   UNL A   1      35.285  31.714  28.880  1.00  0.00     0.188 C 
BRANCH  76  77
ATOM     77  O   UNL A   1      35.887  30.496  28.465  1.00  0.00    -0.376 OA
BRANCH  77  78
ATOM     78  C   UNL A   1      35.162  29.739  27.510  1.00  0.00     0.202 C 
BRANCH  78  79
ATOM     79  C   UNL A   1      33.808  30.260  27.018  1.00  0.00     0.261 C 
BRANCH  79  80
ATOM     80  O   UNL A   1      33.281  29.800  25.766  1.00  0.00    -0.459 OA
BRANCH  80  81
ATOM     81  C   UNL A   1      32.659  28.586  25.842  1.00  0.00     0.365 C 
ATOM     82  O   UNL A   1      31.707  28.335  26.580  1.00  0.00    -0.245 OA
BRANCH  81  83
ATOM     83  C   UNL A   1      33.318  27.500  25.018  1.00  0.00     0.301 C 
ATOM     84  N   UNL A   1      33.488  26.196  25.703  1.00  0.00    -0.334 N 
ATOM     85  C   UNL A   1      32.647  27.151  23.667  1.00  0.00     0.095 C 
ATOM     86  C   UNL A   1      34.041  25.358  24.632  1.00  0.00     0.262 C 
ATOM     87  H   UNL A   1      32.593  25.832  26.034  1.00  0.00     0.347 HD
ATOM     88  H   UNL A   1      34.076  26.241  26.536  1.00  0.00     0.347 HD
ATOM     89  C   UNL A   1      33.435  25.864  23.321  1.00  0.00     0.076 C 
BRANCH  85  90
ATOM     90  C   UNL A   1      31.111  27.080  23.655  1.00  0.00    -0.034 A 
ATOM     91  C   UNL A   1      30.363  26.098  24.306  1.00  0.00     0.004 A 
ATOM     92  C   UNL A   1      30.376  27.990  22.863  1.00  0.00     0.051 A 
ATOM     93  C   UNL A   1      28.963  26.115  24.300  1.00  0.00     0.004 A 
ATOM     94  C   UNL A   1      28.973  28.024  22.828  1.00  0.00     0.127 A 
ATOM     95  C   UNL A   1      28.272  27.089  23.585  1.00  0.00     0.047 A 
BRANCH  94  96
ATOM     96  O   UNL A   1      28.176  28.876  22.081  1.00  0.00    -0.457 OA
BRANCH  96  97
ATOM     97  C   UNL A   1      28.286  30.239  22.218  1.00  0.00     0.127 A 
ATOM     98  C   UNL A   1      28.564  30.742  23.494  1.00  0.00     0.047 A 
ATOM     99  C   UNL A   1      28.095  31.122  21.155  1.00  0.00     0.047 A 
ATOM    100  C   UNL A   1      28.765  32.114  23.675  1.00  0.00     0.004 A 
ATOM    101  C   UNL A   1      28.356  32.483  21.323  1.00  0.00     0.004 A 
ATOM    102  C   UNL A   1      28.706  32.977  22.580  1.00  0.00     0.000 A 
ENDBRANCH  96  97
ENDBRANCH  94  96
ENDBRANCH  85  90
ENDBRANCH  81  83
ENDBRANCH  80  81
ENDBRANCH  79  80
ENDBRANCH  78  79
ENDBRANCH  77  78
ENDBRANCH  76  77
ENDBRANCH   1  76
TORSDOF 23
ENDMDL
