MODEL 1
REMARK VINA RESULT:     -11.4      0.000      0.000
REMARK SMILES Cc1nccn1CCC[NH+]1CCC2(CC1)[C@@H](C(=O)OCCOCCOCCOC(=O)c1ccc(-c3c4nc(c(-c5c(F)cc(S(=O)(=O)[O-])cc5F)c5ccc([nH]5)c(-c5c(F)cc(S(=O)(=O)[O-])cc5F)c5nc(c(-c6c(F)cc(S(=O)(=O)[O-])cc6F)c6ccc3[nH]6)C=C5)C=C4)cc1)CC(=O)N2C
REMARK SMILES IDX 23 1 22 2 21 3 20 4 19 5 17 6 18 7 16 8 10 9 11 10 15 11
REMARK SMILES IDX 12 13 14 14 13 15 100 16 97 17 98 18 101 19 99 20 9 21 8 22
REMARK SMILES IDX 7 23 6 24 1 25 2 26 3 27 4 28 5 29 24 30 25 31 26 32 27 33
REMARK SMILES IDX 28 34 29 35 30 36 31 37 32 38 96 39 33 40 95 41 34 42 35 43
REMARK SMILES IDX 36 44 89 45 37 46 94 47 88 48 90 49 38 50 93 51 87 52 86 53
REMARK SMILES IDX 39 55 73 56 52 57 72 58 53 59 56 60 71 61 91 62 54 63 55 64
REMARK SMILES IDX 70 66 92 67 57 68 40 69 41 70 50 71 42 72 43 73 49 74 51 75
REMARK SMILES IDX 44 76 45 77 46 78 47 79 48 80 74 81 75 82 84 83 76 84 77 85
REMARK SMILES IDX 83 86 85 87 78 88 79 89 80 90 81 91 82 92 58 93 59 94 68 95
REMARK SMILES IDX 60 96 61 97 67 98 69 99 62 100 63 101 64 102 65 103 66 104
REMARK H PARENT 10 12 90 54 56 65
REMARK Flexibility Score: inf
ROOT
ATOM      1  C   UNL A   1      38.089  23.448  26.217  1.00  0.00     0.188 C 
ENDROOT
BRANCH   1   2
ATOM      2  O   UNL A   1      37.010  22.801  25.562  1.00  0.00    -0.376 OA
BRANCH   2   3
ATOM      3  C   UNL A   1      35.943  23.597  25.064  1.00  0.00     0.202 C 
BRANCH   3   4
ATOM      4  C   UNL A   1      35.214  23.149  23.779  1.00  0.00     0.261 C 
BRANCH   4   5
ATOM      5  O   UNL A   1      35.018  24.145  22.739  1.00  0.00    -0.463 OA
BRANCH   5   6
ATOM      6  C   UNL A   1      33.793  24.703  22.597  1.00  0.00     0.311 C 
ATOM      7  O   UNL A   1      33.216  24.744  21.512  1.00  0.00    -0.252 OA
BRANCH   6   8
ATOM      8  C   UNL A   1      33.126  25.301  23.855  1.00  0.00     0.134 C 
ATOM      9  N   UNL A   1      32.108  22.232  26.645  1.00  0.00    -0.335 N 
ATOM     10  C   UNL A   1      32.358  23.520  27.252  1.00  0.00     0.264 C 
ATOM     11  C   UNL A   1      31.111  22.288  25.604  1.00  0.00     0.264 C 
ATOM     12  H   UNL A   1      31.652  21.700  27.385  1.00  0.00     0.348 HD
ATOM     13  C   UNL A   1      32.835  24.571  26.264  1.00  0.00     0.091 C 
ATOM     14  C   UNL A   1      31.472  23.269  24.492  1.00  0.00     0.091 C 
ATOM     15  C   UNL A   1      32.100  24.633  24.887  1.00  0.00     0.067 C 
ATOM     16  N   UNL A   1      31.038  25.670  24.971  1.00  0.00    -0.339 N 
ATOM     17  C   UNL A   1      32.507  26.640  23.427  1.00  0.00     0.118 C 
ATOM     18  C   UNL A   1      31.282  26.822  24.252  1.00  0.00     0.223 C 
ATOM     19  C   UNL A   1      29.829  25.581  25.768  1.00  0.00     0.147 C 
ATOM     20  O   UNL A   1      30.596  27.832  24.252  1.00  0.00    -0.275 OA
BRANCH   9  21
ATOM     21  C   UNL A   1      33.159  21.232  26.594  1.00  0.00     0.264 C 
BRANCH  21  22
ATOM     22  C   UNL A   1      33.402  20.330  25.371  1.00  0.00     0.083 C 
BRANCH  22  23
ATOM     23  C   UNL A   1      32.548  19.087  25.125  1.00  0.00     0.129 C 
BRANCH  23  24
ATOM     24  N   UNL A   1      33.057  17.870  24.532  1.00  0.00    -0.335 N 
ATOM     25  C   UNL A   1      32.339  18.353  22.114  1.00  0.00     0.087 C 
ATOM     26  C   UNL A   1      33.059  17.591  23.171  1.00  0.00     0.105 A 
ATOM     27  N   UNL A   1      33.836  16.558  22.910  1.00  0.00    -0.242 NA
ATOM     28  C   UNL A   1      34.343  16.156  24.108  1.00  0.00     0.131 A 
ATOM     29  C   UNL A   1      33.846  16.927  25.128  1.00  0.00     0.107 A 
ENDBRANCH  23  24
ENDBRANCH  22  23
ENDBRANCH  21  22
ENDBRANCH   9  21
ENDBRANCH   6   8
ENDBRANCH   5   6
ENDBRANCH   4   5
ENDBRANCH   3   4
ENDBRANCH   2   3
ENDBRANCH   1   2
BRANCH   1  30
ATOM     30  C   UNL A   1      39.383  22.657  26.469  1.00  0.00     0.188 C 
BRANCH  30  31
ATOM     31  O   UNL A   1      39.393  21.339  25.939  1.00  0.00    -0.376 OA
BRANCH  31  32
ATOM     32  C   UNL A   1      40.306  20.358  26.408  1.00  0.00     0.202 C 
BRANCH  32  33
ATOM     33  C   UNL A   1      41.722  20.842  26.699  1.00  0.00     0.261 C 
BRANCH  33  34
ATOM     34  O   UNL A   1      42.392  21.262  25.530  1.00  0.00    -0.460 OA
BRANCH  34  35
ATOM     35  C   UNL A   1      43.677  20.889  25.416  1.00  0.00     0.338 C 
ATOM     36  O   UNL A   1      44.124  19.743  25.437  1.00  0.00    -0.246 OA
BRANCH  35  37
ATOM     37  C   UNL A   1      44.453  22.109  25.160  1.00  0.00     0.060 A 
ATOM     38  C   UNL A   1      45.532  22.339  26.008  1.00  0.00     0.016 A 
ATOM     39  C   UNL A   1      43.818  23.129  24.442  1.00  0.00     0.016 A 
ATOM     40  C   UNL A   1      45.627  23.601  26.524  1.00  0.00     0.010 A 
ATOM     41  C   UNL A   1      43.875  24.369  24.986  1.00  0.00     0.010 A 
ATOM     42  C   UNL A   1      44.663  24.524  26.120  1.00  0.00    -0.014 A 
BRANCH  42  43
ATOM     43  C   UNL A   1      44.385  25.647  26.972  1.00  0.00     0.031 A 
ATOM     44  C   UNL A   1      45.387  26.706  26.808  1.00  0.00     0.074 A 
ATOM     45  C   UNL A   1      43.240  25.713  27.675  1.00  0.00     0.049 A 
ATOM     46  N   UNL A   1      46.422  26.925  27.548  1.00  0.00    -0.248 NA
ATOM     47  C   UNL A   1      45.419  27.391  25.504  1.00  0.00     0.031 C 
ATOM     48  C   UNL A   1      42.055  24.848  27.603  1.00  0.00     0.029 A 
ATOM     49  N   UNL A   1      42.865  26.668  28.559  1.00  0.00    -0.354 N 
ATOM     50  C   UNL A   1      47.073  27.969  26.909  1.00  0.00     0.074 A 
ATOM     51  C   UNL A   1      46.631  27.939  25.544  1.00  0.00     0.031 C 
ATOM     52  C   UNL A   1      41.023  25.455  28.239  1.00  0.00     0.029 A 
ATOM     53  C   UNL A   1      41.508  26.672  28.864  1.00  0.00     0.049 A 
ATOM     54  H   UNL A   1      43.501  27.308  28.953  1.00  0.00     0.167 HD
ATOM     55  C   UNL A   1      47.615  28.998  27.612  1.00  0.00     0.037 A 
ATOM     56  C   UNL A   1      40.872  27.699  29.486  1.00  0.00     0.037 A 
ATOM     57  C   UNL A   1      47.748  28.653  29.008  1.00  0.00     0.049 A 
ATOM     58  C   UNL A   1      41.937  28.519  30.145  1.00  0.00     0.074 A 
ATOM     59  C   UNL A   1      48.425  27.661  29.693  1.00  0.00     0.029 A 
ATOM     60  N   UNL A   1      46.781  29.116  29.871  1.00  0.00    -0.354 N 
ATOM     61  N   UNL A   1      42.696  28.079  31.117  1.00  0.00    -0.248 NA
ATOM     62  C   UNL A   1      42.496  29.626  29.381  1.00  0.00     0.031 C 
ATOM     63  C   UNL A   1      47.551  27.272  30.749  1.00  0.00     0.029 A 
ATOM     64  C   UNL A   1      46.416  28.085  30.702  1.00  0.00     0.049 A 
ATOM     65  H   UNL A   1      46.415  30.030  29.889  1.00  0.00     0.167 HD
ATOM     66  C   UNL A   1      43.968  28.570  30.841  1.00  0.00     0.074 A 
ATOM     67  C   UNL A   1      43.768  29.562  29.787  1.00  0.00     0.031 C 
ATOM     68  C   UNL A   1      45.093  27.927  31.279  1.00  0.00     0.037 A 
BRANCH  55  69
ATOM     69  C   UNL A   1      47.658  30.418  27.102  1.00  0.00     0.058 A 
ATOM     70  C   UNL A   1      48.893  31.089  27.072  1.00  0.00     0.135 A 
ATOM     71  C   UNL A   1      46.523  31.228  26.849  1.00  0.00     0.135 A 
ATOM     72  F   UNL A   1      50.035  30.427  27.313  1.00  0.00    -0.206 F 
ATOM     73  C   UNL A   1      48.987  32.465  26.861  1.00  0.00     0.059 A 
ATOM     74  C   UNL A   1      46.600  32.583  26.569  1.00  0.00     0.059 A 
ATOM     75  F   UNL A   1      45.266  30.783  26.955  1.00  0.00    -0.206 F 
ATOM     76  C   UNL A   1      47.831  33.204  26.619  1.00  0.00     0.060 A 
BRANCH  76  77
ATOM     77  S   UNL A   1      47.930  34.989  26.446  1.00  0.00     0.124 S 
ATOM     78  O   UNL A   1      48.791  35.341  27.569  1.00  0.00    -0.237 OA
ATOM     79  O   UNL A   1      48.517  35.130  25.117  1.00  0.00    -0.237 OA
ATOM     80  O   UNL A   1      46.538  35.416  26.558  1.00  0.00    -0.744 OA
ENDBRANCH  76  77
ENDBRANCH  55  69
BRANCH  56  81
ATOM     81  C   UNL A   1      39.527  28.247  29.155  1.00  0.00     0.058 A 
ATOM     82  C   UNL A   1      38.499  28.297  30.115  1.00  0.00     0.135 A 
ATOM     83  C   UNL A   1      39.306  28.986  27.975  1.00  0.00     0.135 A 
ATOM     84  F   UNL A   1      38.638  27.649  31.282  1.00  0.00    -0.206 F 
ATOM     85  C   UNL A   1      37.338  29.060  29.927  1.00  0.00     0.059 A 
ATOM     86  C   UNL A   1      38.155  29.745  27.763  1.00  0.00     0.059 A 
ATOM     87  F   UNL A   1      40.247  29.066  27.022  1.00  0.00    -0.206 F 
ATOM     88  C   UNL A   1      37.183  29.794  28.752  1.00  0.00     0.060 A 
BRANCH  88  89
ATOM     89  S   UNL A   1      35.761  30.899  28.566  1.00  0.00     0.124 S 
ATOM     90  O   UNL A   1      34.791  30.031  27.906  1.00  0.00    -0.237 OA
ATOM     91  O   UNL A   1      35.463  31.253  29.949  1.00  0.00    -0.237 OA
ATOM     92  O   UNL A   1      36.283  31.988  27.745  1.00  0.00    -0.744 OA
ENDBRANCH  88  89
ENDBRANCH  56  81
BRANCH  68  93
ATOM     93  C   UNL A   1      44.933  26.822  32.297  1.00  0.00     0.058 A 
ATOM     94  C   UNL A   1      44.821  27.026  33.686  1.00  0.00     0.135 A 
ATOM     95  C   UNL A   1      44.708  25.519  31.827  1.00  0.00     0.135 A 
ATOM     96  F   UNL A   1      44.924  28.255  34.210  1.00  0.00    -0.206 F 
ATOM     97  C   UNL A   1      44.531  25.978  34.566  1.00  0.00     0.059 A 
ATOM     98  C   UNL A   1      44.388  24.467  32.681  1.00  0.00     0.059 A 
ATOM     99  F   UNL A   1      44.740  25.268  30.508  1.00  0.00    -0.206 F 
ATOM    100  C   UNL A   1      44.311  24.701  34.052  1.00  0.00     0.060 A 
BRANCH 100 101
ATOM    101  S   UNL A   1      43.857  23.360  35.176  1.00  0.00     0.124 S 
ATOM    102  O   UNL A   1      42.402  23.464  35.207  1.00  0.00    -0.237 OA
ATOM    103  O   UNL A   1      44.394  22.182  34.500  1.00  0.00    -0.237 OA
ATOM    104  O   UNL A   1      44.534  23.714  36.422  1.00  0.00    -0.744 OA
ENDBRANCH 100 101
ENDBRANCH  68  93
ENDBRANCH  42  43
ENDBRANCH  35  37
ENDBRANCH  34  35
ENDBRANCH  33  34
ENDBRANCH  32  33
ENDBRANCH  31  32
ENDBRANCH  30  31
ENDBRANCH   1  30
TORSDOF 24
ENDMDL
MODEL 2
REMARK VINA RESULT:     -11.0      1.956      4.582
REMARK SMILES Cc1nccn1CCC[NH+]1CCC2(CC1)[C@@H](C(=O)OCCOCCOCCOC(=O)c1ccc(-c3c4nc(c(-c5c(F)cc(S(=O)(=O)[O-])cc5F)c5ccc([nH]5)c(-c5c(F)cc(S(=O)(=O)[O-])cc5F)c5nc(c(-c6c(F)cc(S(=O)(=O)[O-])cc6F)c6ccc3[nH]6)C=C5)C=C4)cc1)CC(=O)N2C
REMARK SMILES IDX 23 1 22 2 21 3 20 4 19 5 17 6 18 7 16 8 10 9 11 10 15 11
REMARK SMILES IDX 12 13 14 14 13 15 100 16 97 17 98 18 101 19 99 20 9 21 8 22
REMARK SMILES IDX 7 23 6 24 1 25 2 26 3 27 4 28 5 29 24 30 25 31 26 32 27 33
REMARK SMILES IDX 28 34 29 35 30 36 31 37 32 38 96 39 33 40 95 41 34 42 35 43
REMARK SMILES IDX 36 44 89 45 37 46 94 47 88 48 90 49 38 50 93 51 87 52 86 53
REMARK SMILES IDX 39 55 73 56 52 57 72 58 53 59 56 60 71 61 91 62 54 63 55 64
REMARK SMILES IDX 70 66 92 67 57 68 40 69 41 70 50 71 42 72 43 73 49 74 51 75
REMARK SMILES IDX 44 76 45 77 46 78 47 79 48 80 74 81 75 82 84 83 76 84 77 85
REMARK SMILES IDX 83 86 85 87 78 88 79 89 80 90 81 91 82 92 58 93 59 94 68 95
REMARK SMILES IDX 60 96 61 97 67 98 69 99 62 100 63 101 64 102 65 103 66 104
REMARK H PARENT 10 12 90 54 56 65
REMARK Flexibility Score: inf
ROOT
ATOM      1  C   UNL A   1      37.783  21.847  25.767  1.00  0.00     0.188 C 
ENDROOT
BRANCH   1   2
ATOM      2  O   UNL A   1      37.302  21.810  24.434  1.00  0.00    -0.376 OA
BRANCH   2   3
ATOM      3  C   UNL A   1      35.947  22.164  24.191  1.00  0.00     0.202 C 
BRANCH   3   4
ATOM      4  C   UNL A   1      35.644  23.410  23.330  1.00  0.00     0.261 C 
BRANCH   4   5
ATOM      5  O   UNL A   1      34.593  23.294  22.333  1.00  0.00    -0.463 OA
BRANCH   5   6
ATOM      6  C   UNL A   1      33.615  24.230  22.308  1.00  0.00     0.311 C 
ATOM      7  O   UNL A   1      33.752  25.303  21.725  1.00  0.00    -0.252 OA
BRANCH   6   8
ATOM      8  C   UNL A   1      32.298  23.911  23.049  1.00  0.00     0.134 C 
ATOM      9  N   UNL A   1      30.561  27.461  24.667  1.00  0.00    -0.335 N 
ATOM     10  C   UNL A   1      29.601  26.424  24.360  1.00  0.00     0.264 C 
ATOM     11  C   UNL A   1      31.621  27.005  25.532  1.00  0.00     0.264 C 
ATOM     12  H   UNL A   1      30.036  28.110  25.253  1.00  0.00     0.348 HD
ATOM     13  C   UNL A   1      30.217  25.215  23.675  1.00  0.00     0.091 C 
ATOM     14  C   UNL A   1      32.384  25.815  24.955  1.00  0.00     0.091 C 
ATOM     15  C   UNL A   1      31.577  24.696  24.243  1.00  0.00     0.067 C 
ATOM     16  N   UNL A   1      31.293  23.595  25.201  1.00  0.00    -0.339 N 
ATOM     17  C   UNL A   1      32.385  22.440  23.482  1.00  0.00     0.118 C 
ATOM     18  C   UNL A   1      31.641  22.333  24.767  1.00  0.00     0.223 C 
ATOM     19  C   UNL A   1      30.651  23.741  26.494  1.00  0.00     0.147 C 
ATOM     20  O   UNL A   1      31.416  21.282  25.345  1.00  0.00    -0.275 OA
BRANCH   9  21
ATOM     21  C   UNL A   1      30.803  28.535  23.721  1.00  0.00     0.264 C 
BRANCH  21  22
ATOM     22  C   UNL A   1      29.994  28.708  22.422  1.00  0.00     0.083 C 
BRANCH  22  23
ATOM     23  C   UNL A   1      28.586  29.301  22.443  1.00  0.00     0.129 C 
BRANCH  23  24
ATOM     24  N   UNL A   1      28.279  30.649  22.021  1.00  0.00    -0.335 N 
ATOM     25  C   UNL A   1      29.046  31.850  24.158  1.00  0.00     0.087 C 
ATOM     26  C   UNL A   1      28.584  31.796  22.744  1.00  0.00     0.105 A 
ATOM     27  N   UNL A   1      28.449  32.869  21.990  1.00  0.00    -0.242 NA
ATOM     28  C   UNL A   1      28.051  32.423  20.767  1.00  0.00     0.131 A 
ATOM     29  C   UNL A   1      27.902  31.059  20.773  1.00  0.00     0.107 A 
ENDBRANCH  23  24
ENDBRANCH  22  23
ENDBRANCH  21  22
ENDBRANCH   9  21
ENDBRANCH   6   8
ENDBRANCH   5   6
ENDBRANCH   4   5
ENDBRANCH   3   4
ENDBRANCH   2   3
ENDBRANCH   1   2
BRANCH   1  30
ATOM     30  C   UNL A   1      39.291  21.683  26.015  1.00  0.00     0.188 C 
BRANCH  30  31
ATOM     31  O   UNL A   1      39.746  20.339  26.079  1.00  0.00    -0.376 OA
BRANCH  31  32
ATOM     32  C   UNL A   1      40.909  19.984  26.813  1.00  0.00     0.202 C 
BRANCH  32  33
ATOM     33  C   UNL A   1      42.069  20.971  26.754  1.00  0.00     0.261 C 
BRANCH  33  34
ATOM     34  O   UNL A   1      42.558  21.139  25.441  1.00  0.00    -0.460 OA
BRANCH  34  35
ATOM     35  C   UNL A   1      43.817  20.726  25.219  1.00  0.00     0.338 C 
ATOM     36  O   UNL A   1      44.212  19.566  25.123  1.00  0.00    -0.246 OA
BRANCH  35  37
ATOM     37  C   UNL A   1      44.630  21.931  25.011  1.00  0.00     0.060 A 
ATOM     38  C   UNL A   1      45.694  22.112  25.889  1.00  0.00     0.016 A 
ATOM     39  C   UNL A   1      44.039  22.984  24.304  1.00  0.00     0.016 A 
ATOM     40  C   UNL A   1      45.809  23.359  26.438  1.00  0.00     0.010 A 
ATOM     41  C   UNL A   1      44.115  24.209  24.879  1.00  0.00     0.010 A 
ATOM     42  C   UNL A   1      44.879  24.316  26.035  1.00  0.00    -0.014 A 
BRANCH  42  43
ATOM     43  C   UNL A   1      44.611  25.425  26.907  1.00  0.00     0.031 A 
ATOM     44  C   UNL A   1      45.625  26.475  26.769  1.00  0.00     0.074 A 
ATOM     45  C   UNL A   1      43.462  25.491  27.606  1.00  0.00     0.049 A 
ATOM     46  N   UNL A   1      46.659  26.667  27.519  1.00  0.00    -0.248 NA
ATOM     47  C   UNL A   1      45.673  27.185  25.479  1.00  0.00     0.031 C 
ATOM     48  C   UNL A   1      42.267  24.642  27.510  1.00  0.00     0.029 A 
ATOM     49  N   UNL A   1      43.094  26.433  28.506  1.00  0.00    -0.354 N 
ATOM     50  C   UNL A   1      47.327  27.715  26.904  1.00  0.00     0.074 A 
ATOM     51  C   UNL A   1      46.891  27.718  25.536  1.00  0.00     0.031 C 
ATOM     52  C   UNL A   1      41.239  25.249  28.152  1.00  0.00     0.029 A 
ATOM     53  C   UNL A   1      41.736  26.447  28.804  1.00  0.00     0.049 A 
ATOM     54  H   UNL A   1      43.735  27.057  28.916  1.00  0.00     0.167 HD
ATOM     55  C   UNL A   1      47.877  28.724  27.630  1.00  0.00     0.037 A 
ATOM     56  C   UNL A   1      41.108  27.469  29.443  1.00  0.00     0.037 A 
ATOM     57  C   UNL A   1      47.998  28.349  29.020  1.00  0.00     0.049 A 
ATOM     58  C   UNL A   1      42.180  28.263  30.123  1.00  0.00     0.074 A 
ATOM     59  C   UNL A   1      48.659  27.337  29.688  1.00  0.00     0.029 A 
ATOM     60  N   UNL A   1      47.032  28.808  29.886  1.00  0.00    -0.354 N 
ATOM     61  N   UNL A   1      42.928  27.796  31.091  1.00  0.00    -0.248 NA
ATOM     62  C   UNL A   1      42.756  29.378  29.385  1.00  0.00     0.031 C 
ATOM     63  C   UNL A   1      47.775  26.937  30.732  1.00  0.00     0.029 A 
ATOM     64  C   UNL A   1      46.650  27.764  30.695  1.00  0.00     0.049 A 
ATOM     65  H   UNL A   1      46.676  29.725  29.921  1.00  0.00     0.167 HD
ATOM     66  C   UNL A   1      44.208  28.277  30.831  1.00  0.00     0.074 A 
ATOM     67  C   UNL A   1      44.025  29.291  29.796  1.00  0.00     0.031 C 
ATOM     68  C   UNL A   1      45.323  27.612  31.262  1.00  0.00     0.037 A 
BRANCH  55  69
ATOM     69  C   UNL A   1      47.939  30.153  27.149  1.00  0.00     0.058 A 
ATOM     70  C   UNL A   1      49.182  30.810  27.138  1.00  0.00     0.135 A 
ATOM     71  C   UNL A   1      46.815  30.981  26.905  1.00  0.00     0.135 A 
ATOM     72  F   UNL A   1      50.315  30.129  27.371  1.00  0.00    -0.206 F 
ATOM     73  C   UNL A   1      49.294  32.188  26.954  1.00  0.00     0.059 A 
ATOM     74  C   UNL A   1      46.910  32.340  26.652  1.00  0.00     0.059 A 
ATOM     75  F   UNL A   1      45.552  30.549  26.996  1.00  0.00    -0.206 F 
ATOM     76  C   UNL A   1      48.148  32.945  26.722  1.00  0.00     0.060 A 
BRANCH  76  77
ATOM     77  S   UNL A   1      48.269  34.733  26.584  1.00  0.00     0.124 S 
ATOM     78  O   UNL A   1      46.889  35.093  26.285  1.00  0.00    -0.237 OA
ATOM     79  O   UNL A   1      48.760  35.104  27.907  1.00  0.00    -0.237 OA
ATOM     80  O   UNL A   1      49.222  34.922  25.493  1.00  0.00    -0.744 OA
ENDBRANCH  76  77
ENDBRANCH  55  69
BRANCH  56  81
ATOM     81  C   UNL A   1      39.772  28.040  29.116  1.00  0.00     0.058 A 
ATOM     82  C   UNL A   1      38.787  28.213  30.106  1.00  0.00     0.135 A 
ATOM     83  C   UNL A   1      39.530  28.683  27.885  1.00  0.00     0.135 A 
ATOM     84  F   UNL A   1      38.949  27.663  31.319  1.00  0.00    -0.206 F 
ATOM     85  C   UNL A   1      37.647  29.003  29.896  1.00  0.00     0.059 A 
ATOM     86  C   UNL A   1      38.400  29.466  27.650  1.00  0.00     0.059 A 
ATOM     87  F   UNL A   1      40.433  28.643  26.894  1.00  0.00    -0.206 F 
ATOM     88  C   UNL A   1      37.471  29.639  28.667  1.00  0.00     0.060 A 
BRANCH  88  89
ATOM     89  S   UNL A   1      36.083  30.779  28.439  1.00  0.00     0.124 S 
ATOM     90  O   UNL A   1      35.485  30.795  29.769  1.00  0.00    -0.237 OA
ATOM     91  O   UNL A   1      36.757  32.005  28.027  1.00  0.00    -0.237 OA
ATOM     92  O   UNL A   1      35.282  30.133  27.403  1.00  0.00    -0.744 OA
ENDBRANCH  88  89
ENDBRANCH  56  81
BRANCH  68  93
ATOM     93  C   UNL A   1      45.144  26.488  32.257  1.00  0.00     0.058 A 
ATOM     94  C   UNL A   1      44.856  25.154  31.911  1.00  0.00     0.135 A 
ATOM     95  C   UNL A   1      45.452  26.742  33.602  1.00  0.00     0.135 A 
ATOM     96  F   UNL A   1      44.648  24.805  30.634  1.00  0.00    -0.206 F 
ATOM     97  C   UNL A   1      44.844  24.130  32.864  1.00  0.00     0.059 A 
ATOM     98  C   UNL A   1      45.476  25.734  34.561  1.00  0.00     0.059 A 
ATOM     99  F   UNL A   1      45.795  27.982  33.988  1.00  0.00    -0.206 F 
ATOM    100  C   UNL A   1      45.160  24.430  34.188  1.00  0.00     0.060 A 
BRANCH 100 101
ATOM    101  S   UNL A   1      45.224  23.097  35.407  1.00  0.00     0.124 S 
ATOM    102  O   UNL A   1      46.650  23.024  35.709  1.00  0.00    -0.237 OA
ATOM    103  O   UNL A   1      44.374  23.606  36.480  1.00  0.00    -0.237 OA
ATOM    104  O   UNL A   1      44.681  21.948  34.686  1.00  0.00    -0.744 OA
ENDBRANCH 100 101
ENDBRANCH  68  93
ENDBRANCH  42  43
ENDBRANCH  35  37
ENDBRANCH  34  35
ENDBRANCH  33  34
ENDBRANCH  32  33
ENDBRANCH  31  32
ENDBRANCH  30  31
ENDBRANCH   1  30
TORSDOF 24
ENDMDL
MODEL 3
REMARK VINA RESULT:      -9.6      2.954      8.723
REMARK SMILES Cc1nccn1CCC[NH+]1CCC2(CC1)[C@@H](C(=O)OCCOCCOCCOC(=O)c1ccc(-c3c4nc(c(-c5c(F)cc(S(=O)(=O)[O-])cc5F)c5ccc([nH]5)c(-c5c(F)cc(S(=O)(=O)[O-])cc5F)c5nc(c(-c6c(F)cc(S(=O)(=O)[O-])cc6F)c6ccc3[nH]6)C=C5)C=C4)cc1)CC(=O)N2C
REMARK SMILES IDX 23 1 22 2 21 3 20 4 19 5 17 6 18 7 16 8 10 9 11 10 15 11
REMARK SMILES IDX 12 13 14 14 13 15 100 16 97 17 98 18 101 19 99 20 9 21 8 22
REMARK SMILES IDX 7 23 6 24 1 25 2 26 3 27 4 28 5 29 24 30 25 31 26 32 27 33
REMARK SMILES IDX 28 34 29 35 30 36 31 37 32 38 96 39 33 40 95 41 34 42 35 43
REMARK SMILES IDX 36 44 89 45 37 46 94 47 88 48 90 49 38 50 93 51 87 52 86 53
REMARK SMILES IDX 39 55 73 56 52 57 72 58 53 59 56 60 71 61 91 62 54 63 55 64
REMARK SMILES IDX 70 66 92 67 57 68 40 69 41 70 50 71 42 72 43 73 49 74 51 75
REMARK SMILES IDX 44 76 45 77 46 78 47 79 48 80 74 81 75 82 84 83 76 84 77 85
REMARK SMILES IDX 83 86 85 87 78 88 79 89 80 90 81 91 82 92 58 93 59 94 68 95
REMARK SMILES IDX 60 96 61 97 67 98 69 99 62 100 63 101 64 102 65 103 66 104
REMARK H PARENT 10 12 90 54 56 65
REMARK Flexibility Score: inf
ROOT
ATOM      1  C   UNL A   1      37.617  22.061  25.790  1.00  0.00     0.188 C 
ENDROOT
BRANCH   1   2
ATOM      2  O   UNL A   1      37.195  21.940  24.442  1.00  0.00    -0.376 OA
BRANCH   2   3
ATOM      3  C   UNL A   1      35.837  22.217  24.128  1.00  0.00     0.202 C 
BRANCH   3   4
ATOM      4  C   UNL A   1      35.501  23.496  23.330  1.00  0.00     0.261 C 
BRANCH   4   5
ATOM      5  O   UNL A   1      34.535  23.377  22.250  1.00  0.00    -0.463 OA
BRANCH   5   6
ATOM      6  C   UNL A   1      33.510  24.258  22.196  1.00  0.00     0.311 C 
ATOM      7  O   UNL A   1      33.581  25.304  21.554  1.00  0.00    -0.252 OA
BRANCH   6   8
ATOM      8  C   UNL A   1      32.223  23.912  22.976  1.00  0.00     0.134 C 
ATOM      9  N   UNL A   1      30.464  27.426  24.649  1.00  0.00    -0.335 N 
ATOM     10  C   UNL A   1      29.517  26.369  24.371  1.00  0.00     0.264 C 
ATOM     11  C   UNL A   1      31.559  26.992  25.480  1.00  0.00     0.264 C 
ATOM     12  H   UNL A   1      29.943  28.064  25.251  1.00  0.00     0.348 HD
ATOM     13  C   UNL A   1      30.136  25.173  23.668  1.00  0.00     0.091 C 
ATOM     14  C   UNL A   1      32.328  25.819  24.880  1.00  0.00     0.091 C 
ATOM     15  C   UNL A   1      31.523  24.683  24.193  1.00  0.00     0.067 C 
ATOM     16  N   UNL A   1      31.293  23.577  25.159  1.00  0.00    -0.339 N 
ATOM     17  C   UNL A   1      32.354  22.444  23.406  1.00  0.00     0.118 C 
ATOM     18  C   UNL A   1      31.653  22.321  24.714  1.00  0.00     0.223 C 
ATOM     19  C   UNL A   1      30.688  23.710  26.471  1.00  0.00     0.147 C 
ATOM     20  O   UNL A   1      31.467  21.266  25.298  1.00  0.00    -0.275 OA
BRANCH   9  21
ATOM     21  C   UNL A   1      30.654  28.504  23.695  1.00  0.00     0.264 C 
BRANCH  21  22
ATOM     22  C   UNL A   1      29.851  28.619  22.387  1.00  0.00     0.083 C 
BRANCH  22  23
ATOM     23  C   UNL A   1      28.423  29.161  22.383  1.00  0.00     0.129 C 
BRANCH  23  24
ATOM     24  N   UNL A   1      28.055  30.448  21.834  1.00  0.00    -0.335 N 
ATOM     25  C   UNL A   1      27.665  31.660  24.065  1.00  0.00     0.087 C 
ATOM     26  C   UNL A   1      27.822  31.593  22.586  1.00  0.00     0.105 A 
ATOM     27  N   UNL A   1      27.794  32.659  21.810  1.00  0.00    -0.242 NA
ATOM     28  C   UNL A   1      28.009  32.209  20.543  1.00  0.00     0.131 A 
ATOM     29  C   UNL A   1      28.135  30.843  20.528  1.00  0.00     0.107 A 
ENDBRANCH  23  24
ENDBRANCH  22  23
ENDBRANCH  21  22
ENDBRANCH   9  21
ENDBRANCH   6   8
ENDBRANCH   5   6
ENDBRANCH   4   5
ENDBRANCH   3   4
ENDBRANCH   2   3
ENDBRANCH   1   2
BRANCH   1  30
ATOM     30  C   UNL A   1      39.110  22.289  26.080  1.00  0.00     0.188 C 
BRANCH  30  31
ATOM     31  O   UNL A   1      39.903  21.111  26.101  1.00  0.00    -0.376 OA
BRANCH  31  32
ATOM     32  C   UNL A   1      41.137  21.061  26.802  1.00  0.00     0.202 C 
BRANCH  32  33
ATOM     33  C   UNL A   1      42.031  22.289  26.679  1.00  0.00     0.261 C 
BRANCH  33  34
ATOM     34  O   UNL A   1      42.555  22.438  25.377  1.00  0.00    -0.460 OA
BRANCH  34  35
ATOM     35  C   UNL A   1      43.687  21.765  25.112  1.00  0.00     0.338 C 
ATOM     36  O   UNL A   1      43.794  20.577  24.819  1.00  0.00    -0.246 OA
BRANCH  35  37
ATOM     37  C   UNL A   1      44.780  22.745  25.142  1.00  0.00     0.060 A 
ATOM     38  C   UNL A   1      45.803  22.497  26.052  1.00  0.00     0.016 A 
ATOM     39  C   UNL A   1      44.507  24.021  24.634  1.00  0.00     0.016 A 
ATOM     40  C   UNL A   1      46.186  23.558  26.824  1.00  0.00     0.010 A 
ATOM     41  C   UNL A   1      44.845  25.066  25.427  1.00  0.00     0.010 A 
ATOM     42  C   UNL A   1      45.543  24.773  26.593  1.00  0.00    -0.014 A 
BRANCH  42  43
ATOM     43  C   UNL A   1      45.503  25.742  27.652  1.00  0.00     0.031 A 
ATOM     44  C   UNL A   1      44.156  26.299  27.819  1.00  0.00     0.074 A 
ATOM     45  C   UNL A   1      46.567  25.934  28.453  1.00  0.00     0.049 A 
ATOM     46  N   UNL A   1      43.704  27.410  27.341  1.00  0.00    -0.248 NA
ATOM     47  C   UNL A   1      43.111  25.374  28.293  1.00  0.00     0.031 C 
ATOM     48  C   UNL A   1      47.810  25.157  28.548  1.00  0.00     0.029 A 
ATOM     49  N   UNL A   1      46.702  26.844  29.447  1.00  0.00    -0.354 N 
ATOM     50  C   UNL A   1      42.367  27.412  27.709  1.00  0.00     0.074 A 
ATOM     51  C   UNL A   1      42.014  26.040  27.938  1.00  0.00     0.031 C 
ATOM     52  C   UNL A   1      48.458  25.494  29.689  1.00  0.00     0.029 A 
ATOM     53  C   UNL A   1      47.747  26.588  30.327  1.00  0.00     0.049 A 
ATOM     54  H   UNL A   1      46.107  27.623  29.539  1.00  0.00     0.167 HD
ATOM     55  C   UNL A   1      41.764  28.541  28.168  1.00  0.00     0.037 A 
ATOM     56  C   UNL A   1      47.887  27.189  31.537  1.00  0.00     0.037 A 
ATOM     57  C   UNL A   1      42.550  29.709  27.851  1.00  0.00     0.049 A 
ATOM     58  C   UNL A   1      47.034  28.419  31.499  1.00  0.00     0.074 A 
ATOM     59  C   UNL A   1      42.998  30.275  26.672  1.00  0.00     0.029 A 
ATOM     60  N   UNL A   1      43.347  30.227  28.846  1.00  0.00    -0.354 N 
ATOM     61  N   UNL A   1      47.253  29.432  30.698  1.00  0.00    -0.248 NA
ATOM     62  C   UNL A   1      45.663  28.295  31.972  1.00  0.00     0.031 C 
ATOM     63  C   UNL A   1      44.313  30.746  26.958  1.00  0.00     0.029 A 
ATOM     64  C   UNL A   1      44.581  30.506  28.308  1.00  0.00     0.049 A 
ATOM     65  H   UNL A   1      43.080  30.372  29.783  1.00  0.00     0.167 HD
ATOM     66  C   UNL A   1      45.995  29.827  30.253  1.00  0.00     0.074 A 
ATOM     67  C   UNL A   1      45.052  29.122  31.117  1.00  0.00     0.031 C 
ATOM     68  C   UNL A   1      45.827  30.453  29.049  1.00  0.00     0.037 A 
BRANCH  55  69
ATOM     69  C   UNL A   1      40.680  28.531  29.219  1.00  0.00     0.058 A 
ATOM     70  C   UNL A   1      39.405  29.016  28.879  1.00  0.00     0.135 A 
ATOM     71  C   UNL A   1      40.883  28.278  30.598  1.00  0.00     0.135 A 
ATOM     72  F   UNL A   1      39.103  29.306  27.604  1.00  0.00    -0.206 F 
ATOM     73  C   UNL A   1      38.428  29.280  29.840  1.00  0.00     0.059 A 
ATOM     74  C   UNL A   1      39.904  28.468  31.561  1.00  0.00     0.059 A 
ATOM     75  F   UNL A   1      42.067  27.929  31.113  1.00  0.00    -0.206 F 
ATOM     76  C   UNL A   1      38.694  29.010  31.180  1.00  0.00     0.060 A 
BRANCH  76  77
ATOM     77  S   UNL A   1      37.482  29.439  32.436  1.00  0.00     0.124 S 
ATOM     78  O   UNL A   1      38.116  30.591  33.067  1.00  0.00    -0.237 OA
ATOM     79  O   UNL A   1      36.298  29.717  31.629  1.00  0.00    -0.237 OA
ATOM     80  O   UNL A   1      37.405  28.232  33.256  1.00  0.00    -0.744 OA
ENDBRANCH  76  77
ENDBRANCH  55  69
BRANCH  56  81
ATOM     81  C   UNL A   1      48.307  26.544  32.812  1.00  0.00     0.058 A 
ATOM     82  C   UNL A   1      49.329  27.090  33.609  1.00  0.00     0.135 A 
ATOM     83  C   UNL A   1      47.529  25.533  33.413  1.00  0.00     0.135 A 
ATOM     84  F   UNL A   1      50.099  28.079  33.129  1.00  0.00    -0.206 F 
ATOM     85  C   UNL A   1      49.545  26.681  34.933  1.00  0.00     0.059 A 
ATOM     86  C   UNL A   1      47.730  25.104  34.725  1.00  0.00     0.059 A 
ATOM     87  F   UNL A   1      46.484  24.989  32.771  1.00  0.00    -0.206 F 
ATOM     88  C   UNL A   1      48.727  25.697  35.487  1.00  0.00     0.060 A 
BRANCH  88  89
ATOM     89  S   UNL A   1      48.900  25.270  37.238  1.00  0.00     0.124 S 
ATOM     90  O   UNL A   1      47.810  26.030  37.841  1.00  0.00    -0.237 OA
ATOM     91  O   UNL A   1      48.733  23.821  37.220  1.00  0.00    -0.237 OA
ATOM     92  O   UNL A   1      50.244  25.736  37.570  1.00  0.00    -0.744 OA
ENDBRANCH  88  89
ENDBRANCH  56  81
BRANCH  68  93
ATOM     93  C   UNL A   1      47.058  30.954  28.326  1.00  0.00     0.058 A 
ATOM     94  C   UNL A   1      47.678  32.195  28.573  1.00  0.00     0.135 A 
ATOM     95  C   UNL A   1      47.733  30.064  27.479  1.00  0.00     0.135 A 
ATOM     96  F   UNL A   1      47.151  33.064  29.445  1.00  0.00    -0.206 F 
ATOM     97  C   UNL A   1      48.894  32.543  27.977  1.00  0.00     0.059 A 
ATOM     98  C   UNL A   1      48.960  30.377  26.900  1.00  0.00     0.059 A 
ATOM     99  F   UNL A   1      47.227  28.841  27.250  1.00  0.00    -0.206 F 
ATOM    100  C   UNL A   1      49.531  31.624  27.144  1.00  0.00     0.060 A 
BRANCH 100 101
ATOM    101  S   UNL A   1      51.142  32.038  26.437  1.00  0.00     0.124 S 
ATOM    102  O   UNL A   1      51.761  30.724  26.292  1.00  0.00    -0.237 OA
ATOM    103  O   UNL A   1      50.780  32.708  25.191  1.00  0.00    -0.237 OA
ATOM    104  O   UNL A   1      51.747  32.904  27.447  1.00  0.00    -0.744 OA
ENDBRANCH 100 101
ENDBRANCH  68  93
ENDBRANCH  42  43
ENDBRANCH  35  37
ENDBRANCH  34  35
ENDBRANCH  33  34
ENDBRANCH  32  33
ENDBRANCH  31  32
ENDBRANCH  30  31
ENDBRANCH   1  30
TORSDOF 24
ENDMDL
