MODEL 1
REMARK VINA RESULT:     -10.4      0.000      0.000
REMARK SMILES O=C(OCCOCCOCCOC(=O)c1ccc2c(=O)n(CCC[NH+]3CCOCC3)c(=O)[nH]c2c1)c1ccc(-c2c3nc(c(-c4c(F)cc(S(=O)(=O)[O-])cc4F)c4ccc([nH]4)c(-c4c(F)cc(S(=O)(=O)[O-])cc4F)c4nc(c(-c5c(F)cc(S(=O)(=O)[O-])cc5F)c5ccc2[nH]5)C=C4)C=C3)cc1
REMARK SMILES IDX 8 1 7 2 6 3 5 4 4 5 3 6 2 7 1 8 36 9 37 10 101 11 38 12
REMARK SMILES IDX 100 13 39 14 40 15 41 16 94 17 42 18 99 19 93 20 95 21 43 22
REMARK SMILES IDX 98 23 92 24 91 25 44 27 78 28 57 29 77 30 58 31 61 32 76 33
REMARK SMILES IDX 96 34 59 35 60 36 75 38 97 39 62 40 45 41 46 42 55 43 47 44
REMARK SMILES IDX 48 45 54 46 56 47 49 48 50 49 51 50 52 51 53 52 79 53 80 54
REMARK SMILES IDX 89 55 81 56 82 57 88 58 90 59 83 60 84 61 85 62 86 63 87 64
REMARK SMILES IDX 63 65 64 66 73 67 65 68 66 69 72 70 74 71 67 72 68 73 69 74
REMARK SMILES IDX 70 75 71 76 9 77 10 78 11 79 12 80 13 81 14 82 15 83 16 84
REMARK SMILES IDX 35 85 17 86 34 87 18 88 33 89 19 90 31 91 20 93 21 94 32 95
REMARK SMILES IDX 22 96 23 97 24 98 25 99 26 100 30 101 27 103 29 104 28 105
REMARK H PARENT 95 26 61 37 33 92 25 102
REMARK Flexibility Score: inf
ROOT
ATOM      1  C   UNL A   1      33.872  34.674  31.456  1.00  0.00     0.188 C 
ENDROOT
BRANCH   1   2
ATOM      2  C   UNL A   1      34.276  35.954  32.178  1.00  0.00     0.188 C 
BRANCH   2   3
ATOM      3  O   UNL A   1      35.139  35.774  33.298  1.00  0.00    -0.376 OA
BRANCH   3   4
ATOM      4  C   UNL A   1      35.657  34.456  33.431  1.00  0.00     0.202 C 
BRANCH   4   5
ATOM      5  C   UNL A   1      37.012  34.194  32.750  1.00  0.00     0.261 C 
BRANCH   5   6
ATOM      6  O   UNL A   1      37.112  33.099  31.814  1.00  0.00    -0.460 OA
BRANCH   6   7
ATOM      7  C   UNL A   1      37.422  31.788  31.932  1.00  0.00     0.338 C 
ATOM      8  O   UNL A   1      36.667  31.087  32.608  1.00  0.00    -0.246 OA
BRANCH   7   9
ATOM      9  C   UNL A   1      38.648  31.139  31.367  1.00  0.00     0.060 A 
ATOM     10  C   UNL A   1      38.732  31.040  29.962  1.00  0.00     0.016 A 
ATOM     11  C   UNL A   1      39.708  30.634  32.117  1.00  0.00     0.016 A 
ATOM     12  C   UNL A   1      39.832  30.436  29.340  1.00  0.00     0.010 A 
ATOM     13  C   UNL A   1      40.791  29.999  31.506  1.00  0.00     0.010 A 
ATOM     14  C   UNL A   1      40.874  29.912  30.116  1.00  0.00    -0.014 A 
BRANCH  14  15
ATOM     15  C   UNL A   1      42.174  29.540  29.512  1.00  0.00     0.031 A 
ATOM     16  C   UNL A   1      43.227  30.549  29.149  1.00  0.00     0.074 A 
ATOM     17  C   UNL A   1      42.303  28.254  29.132  1.00  0.00     0.049 A 
ATOM     18  N   UNL A   1      44.456  30.348  28.747  1.00  0.00    -0.248 NA
ATOM     19  C   UNL A   1      42.852  31.971  29.214  1.00  0.00     0.031 C 
ATOM     20  C   UNL A   1      41.246  27.239  29.227  1.00  0.00     0.029 A 
ATOM     21  N   UNL A   1      43.341  27.595  28.538  1.00  0.00    -0.354 N 
ATOM     22  C   UNL A   1      45.043  31.610  28.664  1.00  0.00     0.074 A 
ATOM     23  C   UNL A   1      43.989  32.574  28.874  1.00  0.00     0.031 C 
ATOM     24  C   UNL A   1      41.679  26.099  28.669  1.00  0.00     0.029 A 
ATOM     25  C   UNL A   1      43.048  26.294  28.211  1.00  0.00     0.049 A 
ATOM     26  H   UNL A   1      44.214  28.013  28.361  1.00  0.00     0.167 HD
ATOM     27  C   UNL A   1      46.363  31.904  28.526  1.00  0.00     0.037 A 
ATOM     28  C   UNL A   1      43.811  25.362  27.614  1.00  0.00     0.037 A 
ATOM     29  C   UNL A   1      47.350  30.881  28.292  1.00  0.00     0.049 A 
ATOM     30  C   UNL A   1      45.242  25.709  27.334  1.00  0.00     0.074 A 
ATOM     31  C   UNL A   1      48.727  30.983  28.279  1.00  0.00     0.029 A 
ATOM     32  N   UNL A   1      47.039  29.560  27.994  1.00  0.00    -0.354 N 
ATOM     33  N   UNL A   1      45.869  26.841  27.565  1.00  0.00    -0.248 NA
ATOM     34  C   UNL A   1      46.081  24.662  26.746  1.00  0.00     0.031 C 
ATOM     35  C   UNL A   1      49.244  29.745  27.875  1.00  0.00     0.029 A 
ATOM     36  C   UNL A   1      48.190  28.862  27.683  1.00  0.00     0.049 A 
ATOM     37  H   UNL A   1      46.133  29.177  28.004  1.00  0.00     0.167 HD
ATOM     38  C   UNL A   1      47.183  26.637  27.174  1.00  0.00     0.074 A 
ATOM     39  C   UNL A   1      47.262  25.268  26.700  1.00  0.00     0.031 C 
ATOM     40  C   UNL A   1      48.230  27.499  27.207  1.00  0.00     0.037 A 
BRANCH  27  41
ATOM     41  C   UNL A   1      46.844  33.324  28.732  1.00  0.00     0.058 A 
ATOM     42  C   UNL A   1      47.074  34.150  27.625  1.00  0.00     0.135 A 
ATOM     43  C   UNL A   1      46.931  33.936  29.990  1.00  0.00     0.135 A 
ATOM     44  F   UNL A   1      46.942  33.663  26.393  1.00  0.00    -0.206 F 
ATOM     45  C   UNL A   1      47.421  35.490  27.733  1.00  0.00     0.059 A 
ATOM     46  C   UNL A   1      47.241  35.297  30.132  1.00  0.00     0.059 A 
ATOM     47  F   UNL A   1      46.688  33.225  31.101  1.00  0.00    -0.206 F 
ATOM     48  C   UNL A   1      47.489  36.063  28.994  1.00  0.00     0.060 A 
BRANCH  48  49
ATOM     49  S   UNL A   1      47.882  37.822  29.077  1.00  0.00     0.124 S 
ATOM     50  O   UNL A   1      48.080  38.144  27.666  1.00  0.00    -0.237 OA
ATOM     51  O   UNL A   1      46.673  38.373  29.682  1.00  0.00    -0.237 OA
ATOM     52  O   UNL A   1      49.081  37.866  29.905  1.00  0.00    -0.744 OA
ENDBRANCH  48  49
ENDBRANCH  27  41
BRANCH  28  53
ATOM     53  C   UNL A   1      43.230  24.027  27.323  1.00  0.00     0.058 A 
ATOM     54  C   UNL A   1      42.778  23.697  26.038  1.00  0.00     0.135 A 
ATOM     55  C   UNL A   1      43.210  23.018  28.302  1.00  0.00     0.135 A 
ATOM     56  F   UNL A   1      42.786  24.624  25.068  1.00  0.00    -0.206 F 
ATOM     57  C   UNL A   1      42.327  22.418  25.731  1.00  0.00     0.059 A 
ATOM     58  C   UNL A   1      42.783  21.726  28.013  1.00  0.00     0.059 A 
ATOM     59  F   UNL A   1      43.658  23.275  29.541  1.00  0.00    -0.206 F 
ATOM     60  C   UNL A   1      42.342  21.436  26.724  1.00  0.00     0.060 A 
BRANCH  60  61
ATOM     61  S   UNL A   1      41.822  19.761  26.289  1.00  0.00     0.124 S 
ATOM     62  O   UNL A   1      42.595  19.517  25.077  1.00  0.00    -0.237 OA
ATOM     63  O   UNL A   1      42.226  19.002  27.467  1.00  0.00    -0.237 OA
ATOM     64  O   UNL A   1      40.380  19.893  26.101  1.00  0.00    -0.744 OA
ENDBRANCH  60  61
ENDBRANCH  28  53
BRANCH  40  65
ATOM     65  C   UNL A   1      49.542  26.998  26.687  1.00  0.00     0.058 A 
ATOM     66  C   UNL A   1      50.475  26.399  27.546  1.00  0.00     0.135 A 
ATOM     67  C   UNL A   1      49.832  27.034  25.314  1.00  0.00     0.135 A 
ATOM     68  F   UNL A   1      50.244  26.355  28.868  1.00  0.00    -0.206 F 
ATOM     69  C   UNL A   1      51.656  25.855  27.063  1.00  0.00     0.059 A 
ATOM     70  C   UNL A   1      50.994  26.468  24.804  1.00  0.00     0.059 A 
ATOM     71  F   UNL A   1      48.965  27.590  24.453  1.00  0.00    -0.206 F 
ATOM     72  C   UNL A   1      51.901  25.884  25.688  1.00  0.00     0.060 A 
BRANCH  72  73
ATOM     73  S   UNL A   1      53.411  25.112  25.074  1.00  0.00     0.124 S 
ATOM     74  O   UNL A   1      53.436  25.573  23.690  1.00  0.00    -0.237 OA
ATOM     75  O   UNL A   1      54.428  25.681  25.952  1.00  0.00    -0.237 OA
ATOM     76  O   UNL A   1      53.160  23.684  25.255  1.00  0.00    -0.744 OA
ENDBRANCH  72  73
ENDBRANCH  40  65
ENDBRANCH  14  15
ENDBRANCH   7   9
ENDBRANCH   6   7
ENDBRANCH   5   6
ENDBRANCH   4   5
ENDBRANCH   3   4
ENDBRANCH   2   3
ENDBRANCH   1   2
BRANCH   1  77
ATOM     77  O   UNL A   1      32.832  34.894  30.512  1.00  0.00    -0.376 OA
BRANCH  77  78
ATOM     78  C   UNL A   1      33.295  35.478  29.290  1.00  0.00     0.202 C 
BRANCH  78  79
ATOM     79  C   UNL A   1      34.299  34.624  28.502  1.00  0.00     0.261 C 
BRANCH  79  80
ATOM     80  O   UNL A   1      33.803  33.369  27.996  1.00  0.00    -0.460 OA
BRANCH  80  81
ATOM     81  C   UNL A   1      34.301  32.229  28.527  1.00  0.00     0.338 C 
ATOM     82  O   UNL A   1      35.050  32.116  29.474  1.00  0.00    -0.246 OA
BRANCH  81  83
ATOM     83  C   UNL A   1      33.845  31.127  27.662  1.00  0.00     0.062 A 
ATOM     84  C   UNL A   1      34.621  29.969  27.691  1.00  0.00     0.016 A 
ATOM     85  C   UNL A   1      32.733  31.235  26.805  1.00  0.00     0.042 A 
ATOM     86  C   UNL A   1      34.354  28.961  26.777  1.00  0.00     0.017 A 
ATOM     87  C   UNL A   1      32.457  30.190  25.917  1.00  0.00     0.056 A 
ATOM     88  C   UNL A   1      33.316  29.107  25.856  1.00  0.00     0.064 A 
ATOM     89  N   UNL A   1      31.338  30.177  25.081  1.00  0.00    -0.307 N 
ATOM     90  C   UNL A   1      33.152  28.194  24.721  1.00  0.00     0.264 A 
ATOM     91  C   UNL A   1      30.984  29.100  24.294  1.00  0.00     0.328 A 
ATOM     92  H   UNL A   1      30.770  30.981  25.052  1.00  0.00     0.171 HD
ATOM     93  O   UNL A   1      34.150  27.701  24.220  1.00  0.00    -0.268 OA
ATOM     94  N   UNL A   1      31.879  28.039  24.230  1.00  0.00    -0.260 N 
ATOM     95  O   UNL A   1      29.920  29.140  23.677  1.00  0.00    -0.248 OA
BRANCH  94  96
ATOM     96  C   UNL A   1      31.520  26.881  23.393  1.00  0.00     0.137 C 
BRANCH  96  97
ATOM     97  C   UNL A   1      31.299  25.464  23.982  1.00  0.00     0.083 C 
BRANCH  97  98
ATOM     98  C   UNL A   1      32.415  24.398  23.967  1.00  0.00     0.264 C 
BRANCH  98  99
ATOM     99  N   UNL A   1      33.781  24.653  24.452  1.00  0.00    -0.331 N 
ATOM    100  C   UNL A   1      34.841  23.803  23.912  1.00  0.00     0.291 C 
ATOM    101  C   UNL A   1      33.805  24.539  25.943  1.00  0.00     0.291 C 
ATOM    102  H   UNL A   1      33.992  25.593  24.115  1.00  0.00     0.348 HD
ATOM    103  C   UNL A   1      34.821  22.367  24.447  1.00  0.00     0.221 C 
ATOM    104  C   UNL A   1      33.880  23.086  26.472  1.00  0.00     0.221 C 
ATOM    105  O   UNL A   1      34.956  22.348  25.870  1.00  0.00    -0.370 OA
ENDBRANCH  98  99
ENDBRANCH  97  98
ENDBRANCH  96  97
ENDBRANCH  94  96
ENDBRANCH  81  83
ENDBRANCH  80  81
ENDBRANCH  79  80
ENDBRANCH  78  79
ENDBRANCH  77  78
ENDBRANCH   1  77
TORSDOF 24
ENDMDL
MODEL 2
REMARK VINA RESULT:     -10.2      1.498      2.848
REMARK SMILES O=C(OCCOCCOCCOC(=O)c1ccc2c(=O)n(CCC[NH+]3CCOCC3)c(=O)[nH]c2c1)c1ccc(-c2c3nc(c(-c4c(F)cc(S(=O)(=O)[O-])cc4F)c4ccc([nH]4)c(-c4c(F)cc(S(=O)(=O)[O-])cc4F)c4nc(c(-c5c(F)cc(S(=O)(=O)[O-])cc5F)c5ccc2[nH]5)C=C4)C=C3)cc1
REMARK SMILES IDX 8 1 7 2 6 3 5 4 4 5 3 6 2 7 1 8 36 9 37 10 101 11 38 12
REMARK SMILES IDX 100 13 39 14 40 15 41 16 94 17 42 18 99 19 93 20 95 21 43 22
REMARK SMILES IDX 98 23 92 24 91 25 44 27 78 28 57 29 77 30 58 31 61 32 76 33
REMARK SMILES IDX 96 34 59 35 60 36 75 38 97 39 62 40 45 41 46 42 55 43 47 44
REMARK SMILES IDX 48 45 54 46 56 47 49 48 50 49 51 50 52 51 53 52 79 53 80 54
REMARK SMILES IDX 89 55 81 56 82 57 88 58 90 59 83 60 84 61 85 62 86 63 87 64
REMARK SMILES IDX 63 65 64 66 73 67 65 68 66 69 72 70 74 71 67 72 68 73 69 74
REMARK SMILES IDX 70 75 71 76 9 77 10 78 11 79 12 80 13 81 14 82 15 83 16 84
REMARK SMILES IDX 35 85 17 86 34 87 18 88 33 89 19 90 31 91 20 93 21 94 32 95
REMARK SMILES IDX 22 96 23 97 24 98 25 99 26 100 30 101 27 103 29 104 28 105
REMARK H PARENT 95 26 61 37 33 92 25 102
REMARK Flexibility Score: inf
ROOT
ATOM      1  C   UNL A   1      35.157  34.178  28.400  1.00  0.00     0.188 C 
ENDROOT
BRANCH   1   2
ATOM      2  C   UNL A   1      35.498  33.873  29.854  1.00  0.00     0.188 C 
BRANCH   2   3
ATOM      3  O   UNL A   1      36.875  34.007  30.196  1.00  0.00    -0.376 OA
BRANCH   3   4
ATOM      4  C   UNL A   1      37.134  34.006  31.594  1.00  0.00     0.202 C 
BRANCH   4   5
ATOM      5  C   UNL A   1      37.173  32.624  32.270  1.00  0.00     0.261 C 
BRANCH   5   6
ATOM      6  O   UNL A   1      36.672  31.484  31.536  1.00  0.00    -0.460 OA
BRANCH   6   7
ATOM      7  C   UNL A   1      37.215  30.312  31.137  1.00  0.00     0.338 C 
ATOM      8  O   UNL A   1      36.568  29.287  31.353  1.00  0.00    -0.246 OA
BRANCH   7   9
ATOM      9  C   UNL A   1      38.571  30.157  30.520  1.00  0.00     0.060 A 
ATOM     10  C   UNL A   1      39.671  30.071  31.401  1.00  0.00     0.016 A 
ATOM     11  C   UNL A   1      38.829  30.085  29.153  1.00  0.00     0.016 A 
ATOM     12  C   UNL A   1      40.979  29.939  30.919  1.00  0.00     0.010 A 
ATOM     13  C   UNL A   1      40.133  29.990  28.665  1.00  0.00     0.010 A 
ATOM     14  C   UNL A   1      41.216  29.895  29.539  1.00  0.00    -0.014 A 
BRANCH  14  15
ATOM     15  C   UNL A   1      42.523  29.464  28.994  1.00  0.00     0.031 A 
ATOM     16  C   UNL A   1      43.617  30.428  28.628  1.00  0.00     0.074 A 
ATOM     17  C   UNL A   1      42.628  28.161  28.669  1.00  0.00     0.049 A 
ATOM     18  N   UNL A   1      44.852  30.177  28.276  1.00  0.00    -0.248 NA
ATOM     19  C   UNL A   1      43.281  31.862  28.625  1.00  0.00     0.031 C 
ATOM     20  C   UNL A   1      41.539  27.180  28.768  1.00  0.00     0.029 A 
ATOM     21  N   UNL A   1      43.665  27.451  28.137  1.00  0.00    -0.354 N 
ATOM     22  C   UNL A   1      45.478  31.419  28.165  1.00  0.00     0.074 A 
ATOM     23  C   UNL A   1      44.445  32.419  28.301  1.00  0.00     0.031 C 
ATOM     24  C   UNL A   1      41.957  26.007  28.269  1.00  0.00     0.029 A 
ATOM     25  C   UNL A   1      43.346  26.146  27.852  1.00  0.00     0.049 A 
ATOM     26  H   UNL A   1      44.556  27.837  27.974  1.00  0.00     0.167 HD
ATOM     27  C   UNL A   1      46.809  31.671  28.060  1.00  0.00     0.037 A 
ATOM     28  C   UNL A   1      44.101  25.170  27.318  1.00  0.00     0.037 A 
ATOM     29  C   UNL A   1      47.773  30.612  27.901  1.00  0.00     0.049 A 
ATOM     30  C   UNL A   1      45.550  25.466  27.073  1.00  0.00     0.074 A 
ATOM     31  C   UNL A   1      49.153  30.675  27.930  1.00  0.00     0.029 A 
ATOM     32  N   UNL A   1      47.435  29.289  27.644  1.00  0.00    -0.354 N 
ATOM     33  N   UNL A   1      46.201  26.589  27.281  1.00  0.00    -0.248 NA
ATOM     34  C   UNL A   1      46.378  24.374  26.556  1.00  0.00     0.031 C 
ATOM     35  C   UNL A   1      49.647  29.409  27.593  1.00  0.00     0.029 A 
ATOM     36  C   UNL A   1      48.575  28.548  27.400  1.00  0.00     0.049 A 
ATOM     37  H   UNL A   1      46.518  28.932  27.638  1.00  0.00     0.167 HD
ATOM     38  C   UNL A   1      47.521  26.333  26.943  1.00  0.00     0.074 A 
ATOM     39  C   UNL A   1      47.576  24.944  26.526  1.00  0.00     0.031 C 
ATOM     40  C   UNL A   1      48.591  27.167  26.979  1.00  0.00     0.037 A 
BRANCH  27  41
ATOM     41  C   UNL A   1      47.324  33.084  28.227  1.00  0.00     0.058 A 
ATOM     42  C   UNL A   1      47.746  33.529  29.486  1.00  0.00     0.135 A 
ATOM     43  C   UNL A   1      47.558  33.953  27.152  1.00  0.00     0.135 A 
ATOM     44  F   UNL A   1      47.623  32.734  30.547  1.00  0.00    -0.206 F 
ATOM     45  C   UNL A   1      48.321  34.774  29.700  1.00  0.00     0.059 A 
ATOM     46  C   UNL A   1      48.173  35.202  27.330  1.00  0.00     0.059 A 
ATOM     47  F   UNL A   1      47.219  33.589  25.906  1.00  0.00    -0.206 F 
ATOM     48  C   UNL A   1      48.545  35.603  28.612  1.00  0.00     0.060 A 
BRANCH  48  49
ATOM     49  S   UNL A   1      49.352  37.184  28.936  1.00  0.00     0.124 S 
ATOM     50  O   UNL A   1      48.806  37.527  30.247  1.00  0.00    -0.237 OA
ATOM     51  O   UNL A   1      50.764  36.811  28.923  1.00  0.00    -0.237 OA
ATOM     52  O   UNL A   1      48.910  38.027  27.832  1.00  0.00    -0.744 OA
ENDBRANCH  48  49
ENDBRANCH  27  41
BRANCH  28  53
ATOM     53  C   UNL A   1      43.491  23.842  27.059  1.00  0.00     0.058 A 
ATOM     54  C   UNL A   1      43.333  22.903  28.088  1.00  0.00     0.135 A 
ATOM     55  C   UNL A   1      42.959  23.524  25.797  1.00  0.00     0.135 A 
ATOM     56  F   UNL A   1      43.816  23.165  29.312  1.00  0.00    -0.206 F 
ATOM     57  C   UNL A   1      42.671  21.698  27.878  1.00  0.00     0.059 A 
ATOM     58  C   UNL A   1      42.274  22.334  25.568  1.00  0.00     0.059 A 
ATOM     59  F   UNL A   1      43.059  24.401  24.785  1.00  0.00    -0.206 F 
ATOM     60  C   UNL A   1      42.137  21.426  26.616  1.00  0.00     0.060 A 
BRANCH  60  61
ATOM     61  S   UNL A   1      41.217  19.889  26.381  1.00  0.00     0.124 S 
ATOM     62  O   UNL A   1      41.992  19.239  25.332  1.00  0.00    -0.237 OA
ATOM     63  O   UNL A   1      41.299  19.281  27.705  1.00  0.00    -0.237 OA
ATOM     64  O   UNL A   1      39.887  20.347  25.991  1.00  0.00    -0.744 OA
ENDBRANCH  60  61
ENDBRANCH  28  53
BRANCH  40  65
ATOM     65  C   UNL A   1      49.905  26.609  26.523  1.00  0.00     0.058 A 
ATOM     66  C   UNL A   1      50.268  26.641  25.169  1.00  0.00     0.135 A 
ATOM     67  C   UNL A   1      50.840  26.123  27.449  1.00  0.00     0.135 A 
ATOM     68  F   UNL A   1      49.399  27.085  24.246  1.00  0.00    -0.206 F 
ATOM     69  C   UNL A   1      51.516  26.205  24.746  1.00  0.00     0.059 A 
ATOM     70  C   UNL A   1      52.106  25.710  27.053  1.00  0.00     0.059 A 
ATOM     71  F   UNL A   1      50.538  26.080  28.757  1.00  0.00    -0.206 F 
ATOM     72  C   UNL A   1      52.432  25.752  25.698  1.00  0.00     0.060 A 
BRANCH  72  73
ATOM     73  S   UNL A   1      54.071  25.254  25.134  1.00  0.00     0.124 S 
ATOM     74  O   UNL A   1      53.921  23.806  25.037  1.00  0.00    -0.237 OA
ATOM     75  O   UNL A   1      54.192  25.967  23.866  1.00  0.00    -0.237 OA
ATOM     76  O   UNL A   1      54.954  25.723  26.199  1.00  0.00    -0.744 OA
ENDBRANCH  72  73
ENDBRANCH  40  65
ENDBRANCH  14  15
ENDBRANCH   7   9
ENDBRANCH   6   7
ENDBRANCH   5   6
ENDBRANCH   4   5
ENDBRANCH   3   4
ENDBRANCH   2   3
ENDBRANCH   1   2
BRANCH   1  77
ATOM     77  O   UNL A   1      34.775  33.013  27.680  1.00  0.00    -0.376 OA
BRANCH  77  78
ATOM     78  C   UNL A   1      35.313  31.808  28.234  1.00  0.00     0.202 C 
BRANCH  78  79
ATOM     79  C   UNL A   1      34.546  30.527  27.871  1.00  0.00     0.261 C 
BRANCH  79  80
ATOM     80  O   UNL A   1      34.044  30.452  26.521  1.00  0.00    -0.460 OA
BRANCH  80  81
ATOM     81  C   UNL A   1      32.753  30.088  26.344  1.00  0.00     0.338 C 
ATOM     82  O   UNL A   1      31.762  30.770  26.492  1.00  0.00    -0.246 OA
BRANCH  81  83
ATOM     83  C   UNL A   1      32.760  28.647  26.036  1.00  0.00     0.062 A 
ATOM     84  C   UNL A   1      33.560  28.257  24.963  1.00  0.00     0.016 A 
ATOM     85  C   UNL A   1      31.968  27.711  26.730  1.00  0.00     0.042 A 
ATOM     86  C   UNL A   1      33.479  26.950  24.507  1.00  0.00     0.017 A 
ATOM     87  C   UNL A   1      31.931  26.388  26.278  1.00  0.00     0.056 A 
ATOM     88  C   UNL A   1      32.619  26.044  25.128  1.00  0.00     0.064 A 
ATOM     89  N   UNL A   1      31.233  25.377  26.942  1.00  0.00    -0.307 N 
ATOM     90  C   UNL A   1      32.314  24.736  24.539  1.00  0.00     0.264 A 
ATOM     91  C   UNL A   1      31.289  24.045  26.583  1.00  0.00     0.328 A 
ATOM     92  H   UNL A   1      30.669  25.628  27.709  1.00  0.00     0.171 HD
ATOM     93  O   UNL A   1      32.295  24.634  23.323  1.00  0.00    -0.268 OA
ATOM     94  N   UNL A   1      31.963  23.732  25.408  1.00  0.00    -0.260 N 
ATOM     95  O   UNL A   1      30.729  23.214  27.296  1.00  0.00    -0.248 OA
BRANCH  94  96
ATOM     96  C   UNL A   1      32.032  22.317  25.007  1.00  0.00     0.137 C 
BRANCH  96  97
ATOM     97  C   UNL A   1      32.895  21.277  25.766  1.00  0.00     0.083 C 
BRANCH  97  98
ATOM     98  C   UNL A   1      34.279  20.837  25.243  1.00  0.00     0.264 C 
BRANCH  98  99
ATOM     99  N   UNL A   1      35.543  21.208  25.898  1.00  0.00    -0.331 N 
ATOM    100  C   UNL A   1      35.623  22.556  26.460  1.00  0.00     0.291 C 
ATOM    101  C   UNL A   1      36.670  21.041  24.927  1.00  0.00     0.291 C 
ATOM    102  H   UNL A   1      35.603  20.578  26.698  1.00  0.00     0.348 HD
ATOM    103  C   UNL A   1      35.735  23.664  25.408  1.00  0.00     0.221 C 
ATOM    104  C   UNL A   1      36.833  22.212  23.928  1.00  0.00     0.221 C 
ATOM    105  O   UNL A   1      36.897  23.484  24.595  1.00  0.00    -0.370 OA
ENDBRANCH  98  99
ENDBRANCH  97  98
ENDBRANCH  96  97
ENDBRANCH  94  96
ENDBRANCH  81  83
ENDBRANCH  80  81
ENDBRANCH  79  80
ENDBRANCH  78  79
ENDBRANCH  77  78
ENDBRANCH   1  77
TORSDOF 24
ENDMDL
MODEL 3
REMARK VINA RESULT:     -10.1      1.287      2.462
REMARK SMILES O=C(OCCOCCOCCOC(=O)c1ccc2c(=O)n(CCC[NH+]3CCOCC3)c(=O)[nH]c2c1)c1ccc(-c2c3nc(c(-c4c(F)cc(S(=O)(=O)[O-])cc4F)c4ccc([nH]4)c(-c4c(F)cc(S(=O)(=O)[O-])cc4F)c4nc(c(-c5c(F)cc(S(=O)(=O)[O-])cc5F)c5ccc2[nH]5)C=C4)C=C3)cc1
REMARK SMILES IDX 8 1 7 2 6 3 5 4 4 5 3 6 2 7 1 8 36 9 37 10 101 11 38 12
REMARK SMILES IDX 100 13 39 14 40 15 41 16 94 17 42 18 99 19 93 20 95 21 43 22
REMARK SMILES IDX 98 23 92 24 91 25 44 27 78 28 57 29 77 30 58 31 61 32 76 33
REMARK SMILES IDX 96 34 59 35 60 36 75 38 97 39 62 40 45 41 46 42 55 43 47 44
REMARK SMILES IDX 48 45 54 46 56 47 49 48 50 49 51 50 52 51 53 52 79 53 80 54
REMARK SMILES IDX 89 55 81 56 82 57 88 58 90 59 83 60 84 61 85 62 86 63 87 64
REMARK SMILES IDX 63 65 64 66 73 67 65 68 66 69 72 70 74 71 67 72 68 73 69 74
REMARK SMILES IDX 70 75 71 76 9 77 10 78 11 79 12 80 13 81 14 82 15 83 16 84
REMARK SMILES IDX 35 85 17 86 34 87 18 88 33 89 19 90 31 91 20 93 21 94 32 95
REMARK SMILES IDX 22 96 23 97 24 98 25 99 26 100 30 101 27 103 29 104 28 105
REMARK H PARENT 95 26 61 37 33 92 25 102
REMARK Flexibility Score: inf
ROOT
ATOM      1  C   UNL A   1      34.954  34.372  28.763  1.00  0.00     0.188 C 
ENDROOT
BRANCH   1   2
ATOM      2  C   UNL A   1      35.267  33.701  30.095  1.00  0.00     0.188 C 
BRANCH   2   3
ATOM      3  O   UNL A   1      36.619  33.812  30.529  1.00  0.00    -0.376 OA
BRANCH   3   4
ATOM      4  C   UNL A   1      36.775  33.897  31.940  1.00  0.00     0.202 C 
BRANCH   4   5
ATOM      5  C   UNL A   1      37.025  32.566  32.671  1.00  0.00     0.261 C 
BRANCH   5   6
ATOM      6  O   UNL A   1      36.470  31.357  32.107  1.00  0.00    -0.460 OA
BRANCH   6   7
ATOM      7  C   UNL A   1      37.007  30.219  31.612  1.00  0.00     0.338 C 
ATOM      8  O   UNL A   1      36.366  29.178  31.763  1.00  0.00    -0.246 OA
BRANCH   7   9
ATOM      9  C   UNL A   1      38.352  30.114  30.960  1.00  0.00     0.060 A 
ATOM     10  C   UNL A   1      39.471  30.000  31.812  1.00  0.00     0.016 A 
ATOM     11  C   UNL A   1      38.581  30.115  29.586  1.00  0.00     0.016 A 
ATOM     12  C   UNL A   1      40.770  29.912  31.298  1.00  0.00     0.010 A 
ATOM     13  C   UNL A   1      39.876  30.063  29.067  1.00  0.00     0.010 A 
ATOM     14  C   UNL A   1      40.979  29.940  29.913  1.00  0.00    -0.014 A 
BRANCH  14  15
ATOM     15  C   UNL A   1      42.280  29.555  29.320  1.00  0.00     0.031 A 
ATOM     16  C   UNL A   1      43.342  30.555  28.956  1.00  0.00     0.074 A 
ATOM     17  C   UNL A   1      42.404  28.265  28.952  1.00  0.00     0.049 A 
ATOM     18  N   UNL A   1      44.572  30.343  28.564  1.00  0.00    -0.248 NA
ATOM     19  C   UNL A   1      42.975  31.980  29.007  1.00  0.00     0.031 C 
ATOM     20  C   UNL A   1      41.339  27.258  29.048  1.00  0.00     0.029 A 
ATOM     21  N   UNL A   1      43.441  27.596  28.370  1.00  0.00    -0.354 N 
ATOM     22  C   UNL A   1      45.167  31.601  28.475  1.00  0.00     0.074 A 
ATOM     23  C   UNL A   1      44.117  32.573  28.669  1.00  0.00     0.031 C 
ATOM     24  C   UNL A   1      41.769  26.111  28.502  1.00  0.00     0.029 A 
ATOM     25  C   UNL A   1      43.142  26.293  28.052  1.00  0.00     0.049 A 
ATOM     26  H   UNL A   1      44.318  28.006  28.195  1.00  0.00     0.167 HD
ATOM     27  C   UNL A   1      46.489  31.886  28.343  1.00  0.00     0.037 A 
ATOM     28  C   UNL A   1      43.904  25.352  27.468  1.00  0.00     0.037 A 
ATOM     29  C   UNL A   1      47.472  30.855  28.124  1.00  0.00     0.049 A 
ATOM     30  C   UNL A   1      45.339  25.688  27.195  1.00  0.00     0.074 A 
ATOM     31  C   UNL A   1      48.850  30.948  28.119  1.00  0.00     0.029 A 
ATOM     32  N   UNL A   1      47.155  29.533  27.835  1.00  0.00    -0.354 N 
ATOM     33  N   UNL A   1      45.971  26.818  27.421  1.00  0.00    -0.248 NA
ATOM     34  C   UNL A   1      46.175  24.631  26.621  1.00  0.00     0.031 C 
ATOM     35  C   UNL A   1      49.362  29.704  27.729  1.00  0.00     0.029 A 
ATOM     36  C   UNL A   1      48.304  28.825  27.538  1.00  0.00     0.049 A 
ATOM     37  H   UNL A   1      46.246  29.156  27.842  1.00  0.00     0.167 HD
ATOM     38  C   UNL A   1      47.286  26.602  27.040  1.00  0.00     0.074 A 
ATOM     39  C   UNL A   1      47.360  25.229  26.578  1.00  0.00     0.031 C 
ATOM     40  C   UNL A   1      48.338  27.459  27.073  1.00  0.00     0.037 A 
BRANCH  27  41
ATOM     41  C   UNL A   1      46.978  33.304  28.540  1.00  0.00     0.058 A 
ATOM     42  C   UNL A   1      47.444  33.713  29.796  1.00  0.00     0.135 A 
ATOM     43  C   UNL A   1      47.145  34.218  27.490  1.00  0.00     0.135 A 
ATOM     44  F   UNL A   1      47.385  32.877  30.831  1.00  0.00    -0.206 F 
ATOM     45  C   UNL A   1      47.998  34.964  30.032  1.00  0.00     0.059 A 
ATOM     46  C   UNL A   1      47.738  35.474  27.688  1.00  0.00     0.059 A 
ATOM     47  F   UNL A   1      46.761  33.891  26.247  1.00  0.00    -0.206 F 
ATOM     48  C   UNL A   1      48.156  35.838  28.967  1.00  0.00     0.060 A 
BRANCH  48  49
ATOM     49  S   UNL A   1      48.939  37.425  29.315  1.00  0.00     0.124 S 
ATOM     50  O   UNL A   1      50.023  37.026  30.209  1.00  0.00    -0.237 OA
ATOM     51  O   UNL A   1      49.352  37.857  27.983  1.00  0.00    -0.237 OA
ATOM     52  O   UNL A   1      47.873  38.205  29.932  1.00  0.00    -0.744 OA
ENDBRANCH  48  49
ENDBRANCH  27  41
BRANCH  28  53
ATOM     53  C   UNL A   1      43.316  24.019  27.184  1.00  0.00     0.058 A 
ATOM     54  C   UNL A   1      42.918  23.662  25.888  1.00  0.00     0.135 A 
ATOM     55  C   UNL A   1      43.237  23.035  28.185  1.00  0.00     0.135 A 
ATOM     56  F   UNL A   1      42.984  24.563  24.897  1.00  0.00    -0.206 F 
ATOM     57  C   UNL A   1      42.462  22.381  25.593  1.00  0.00     0.059 A 
ATOM     58  C   UNL A   1      42.804  21.741  27.910  1.00  0.00     0.059 A 
ATOM     59  F   UNL A   1      43.633  23.317  29.437  1.00  0.00    -0.206 F 
ATOM     60  C   UNL A   1      42.418  21.425  26.610  1.00  0.00     0.060 A 
BRANCH  60  61
ATOM     61  S   UNL A   1      41.892  19.747  26.193  1.00  0.00     0.124 S 
ATOM     62  O   UNL A   1      42.312  19.004  27.376  1.00  0.00    -0.237 OA
ATOM     63  O   UNL A   1      40.453  19.914  26.021  1.00  0.00    -0.237 OA
ATOM     64  O   UNL A   1      42.634  19.455  24.970  1.00  0.00    -0.744 OA
ENDBRANCH  60  61
ENDBRANCH  28  53
BRANCH  40  65
ATOM     65  C   UNL A   1      49.651  26.945  26.565  1.00  0.00     0.058 A 
ATOM     66  C   UNL A   1      50.491  26.182  27.390  1.00  0.00     0.135 A 
ATOM     67  C   UNL A   1      50.031  27.139  25.228  1.00  0.00     0.135 A 
ATOM     68  F   UNL A   1      50.174  25.982  28.679  1.00  0.00    -0.206 F 
ATOM     69  C   UNL A   1      51.668  25.629  26.905  1.00  0.00     0.059 A 
ATOM     70  C   UNL A   1      51.189  26.569  24.714  1.00  0.00     0.059 A 
ATOM     71  F   UNL A   1      49.254  27.856  24.401  1.00  0.00    -0.206 F 
ATOM     72  C   UNL A   1      52.003  25.819  25.563  1.00  0.00     0.060 A 
BRANCH  72  73
ATOM     73  S   UNL A   1      53.502  25.037  24.938  1.00  0.00     0.124 S 
ATOM     74  O   UNL A   1      53.310  23.653  25.358  1.00  0.00    -0.237 OA
ATOM     75  O   UNL A   1      53.405  25.284  23.503  1.00  0.00    -0.237 OA
ATOM     76  O   UNL A   1      54.572  25.757  25.622  1.00  0.00    -0.744 OA
ENDBRANCH  72  73
ENDBRANCH  40  65
ENDBRANCH  14  15
ENDBRANCH   7   9
ENDBRANCH   6   7
ENDBRANCH   5   6
ENDBRANCH   4   5
ENDBRANCH   3   4
ENDBRANCH   2   3
ENDBRANCH   1   2
BRANCH   1  77
ATOM     77  O   UNL A   1      34.643  33.430  27.744  1.00  0.00    -0.376 OA
BRANCH  77  78
ATOM     78  C   UNL A   1      34.810  32.072  28.164  1.00  0.00     0.202 C 
BRANCH  78  79
ATOM     79  C   UNL A   1      33.653  31.131  27.793  1.00  0.00     0.261 C 
BRANCH  79  80
ATOM     80  O   UNL A   1      33.580  30.733  26.410  1.00  0.00    -0.460 OA
BRANCH  80  81
ATOM     81  C   UNL A   1      32.398  30.267  25.945  1.00  0.00     0.338 C 
ATOM     82  O   UNL A   1      31.319  30.821  25.971  1.00  0.00    -0.246 OA
BRANCH  81  83
ATOM     83  C   UNL A   1      32.639  28.887  25.489  1.00  0.00     0.062 A 
ATOM     84  C   UNL A   1      32.792  27.932  26.492  1.00  0.00     0.016 A 
ATOM     85  C   UNL A   1      32.770  28.542  24.129  1.00  0.00     0.042 A 
ATOM     86  C   UNL A   1      33.195  26.652  26.141  1.00  0.00     0.017 A 
ATOM     87  C   UNL A   1      33.138  27.235  23.795  1.00  0.00     0.056 A 
ATOM     88  C   UNL A   1      33.425  26.332  24.802  1.00  0.00     0.064 A 
ATOM     89  N   UNL A   1      33.223  26.782  22.476  1.00  0.00    -0.307 N 
ATOM     90  C   UNL A   1      34.082  25.082  24.406  1.00  0.00     0.264 A 
ATOM     91  C   UNL A   1      33.460  25.466  22.133  1.00  0.00     0.328 A 
ATOM     92  H   UNL A   1      33.108  27.438  21.751  1.00  0.00     0.171 HD
ATOM     93  O   UNL A   1      34.925  24.606  25.149  1.00  0.00    -0.268 OA
ATOM     94  N   UNL A   1      33.774  24.588  23.163  1.00  0.00    -0.260 N 
ATOM     95  O   UNL A   1      33.406  25.143  20.947  1.00  0.00    -0.248 OA
BRANCH  94  96
ATOM     96  C   UNL A   1      34.032  23.180  22.816  1.00  0.00     0.137 C 
BRANCH  96  97
ATOM     97  C   UNL A   1      33.123  22.022  23.302  1.00  0.00     0.083 C 
BRANCH  97  98
ATOM     98  C   UNL A   1      33.479  21.181  24.547  1.00  0.00     0.264 C 
BRANCH  98  99
ATOM     99  N   UNL A   1      32.515  20.877  25.617  1.00  0.00    -0.331 N 
ATOM    100  C   UNL A   1      31.370  21.779  25.748  1.00  0.00     0.291 C 
ATOM    101  C   UNL A   1      33.231  20.838  26.930  1.00  0.00     0.291 C 
ATOM    102  H   UNL A   1      32.119  19.977  25.346  1.00  0.00     0.348 HD
ATOM    103  C   UNL A   1      31.723  23.152  26.329  1.00  0.00     0.221 C 
ATOM    104  C   UNL A   1      33.498  22.230  27.554  1.00  0.00     0.221 C 
ATOM    105  O   UNL A   1      32.304  23.025  27.629  1.00  0.00    -0.370 OA
ENDBRANCH  98  99
ENDBRANCH  97  98
ENDBRANCH  96  97
ENDBRANCH  94  96
ENDBRANCH  81  83
ENDBRANCH  80  81
ENDBRANCH  79  80
ENDBRANCH  78  79
ENDBRANCH  77  78
ENDBRANCH   1  77
TORSDOF 24
ENDMDL
