MODEL 1
REMARK VINA RESULT:     -10.3      0.000      0.000
REMARK SMILES C[C@@](NC(=O)[C@H]1COc2ccccc21)(C(=O)OCCOCCOCCOC(=O)c1ccc(-c2c3nc(c(-c4c(F)cc(S(=O)(=O)[O-])cc4F)c4ccc([nH]4)c(-c4c(F)cc(S(=O)(=O)[O-])cc4F)c4nc(c(-c5c(F)cc(S(=O)(=O)[O-])cc5F)c5ccc2[nH]5)C=C4)C=C3)cc1)C(F)(F)F
REMARK SMILES IDX 22 1 21 2 20 3 19 4 18 5 17 6 15 7 16 8 2 9 1 10 3 11 4 12
REMARK SMILES IDX 5 14 6 15 7 16 14 17 8 18 9 19 13 20 10 21 12 22 11 23 95 24
REMARK SMILES IDX 96 25 97 26 98 27 23 28 24 29 25 30 26 31 27 32 28 33 29 34
REMARK SMILES IDX 30 35 94 36 31 37 93 38 32 39 33 40 34 41 87 42 35 43 92 44
REMARK SMILES IDX 86 45 88 46 36 47 91 48 85 49 84 50 37 52 71 53 50 54 70 55
REMARK SMILES IDX 51 56 54 57 69 58 89 59 52 60 53 61 68 63 90 64 55 65 38 66
REMARK SMILES IDX 39 67 48 68 40 69 41 70 47 71 49 72 42 73 43 74 44 75 45 76
REMARK SMILES IDX 46 77 72 78 73 79 82 80 74 81 75 82 81 83 83 84 76 85 77 86
REMARK SMILES IDX 78 87 79 88 80 89 56 90 57 91 66 92 58 93 59 94 65 95 67 96
REMARK SMILES IDX 60 97 61 98 62 99 63 100 64 101
REMARK H PARENT 3 13 88 51 54 62
REMARK Flexibility Score: inf
ROOT
ATOM      1  C   UNL A   1      40.373  20.412  26.631  1.00  0.00     0.188 C 
ENDROOT
BRANCH   1   2
ATOM      2  C   UNL A   1      39.917  21.786  26.109  1.00  0.00     0.188 C 
BRANCH   2   3
ATOM      3  O   UNL A   1      38.516  21.848  25.952  1.00  0.00    -0.376 OA
BRANCH   3   4
ATOM      4  C   UNL A   1      37.958  23.123  25.727  1.00  0.00     0.202 C 
BRANCH   4   5
ATOM      5  C   UNL A   1      37.025  23.372  24.538  1.00  0.00     0.261 C 
BRANCH   5   6
ATOM      6  O   UNL A   1      35.866  24.223  24.687  1.00  0.00    -0.461 OA
BRANCH   6   7
ATOM      7  C   UNL A   1      34.757  23.974  23.926  1.00  0.00     0.341 C 
ATOM      8  O   UNL A   1      34.731  24.170  22.719  1.00  0.00    -0.249 OA
BRANCH   7   9
ATOM      9  C   UNL A   1      33.514  23.678  24.796  1.00  0.00     0.231 C 
ATOM     10  C   UNL A   1      32.305  23.125  24.019  1.00  0.00     0.058 C 
BRANCH   9  11
ATOM     11  N   UNL A   1      33.791  22.739  25.960  1.00  0.00    -0.332 N 
ATOM     12  C   UNL A   1      33.850  21.366  26.029  1.00  0.00     0.232 C 
ATOM     13  H   UNL A   1      33.956  23.196  26.817  1.00  0.00     0.164 HD
ATOM     14  O   UNL A   1      33.542  20.823  27.088  1.00  0.00    -0.274 OA
BRANCH  12  15
ATOM     15  C   UNL A   1      34.391  20.625  24.840  1.00  0.00     0.150 C 
ATOM     16  C   UNL A   1      35.816  20.111  25.098  1.00  0.00     0.248 C 
ATOM     17  C   UNL A   1      33.751  19.393  24.327  1.00  0.00     0.010 A 
ATOM     18  O   UNL A   1      35.847  18.669  24.983  1.00  0.00    -0.492 OA
ATOM     19  C   UNL A   1      34.671  18.358  24.361  1.00  0.00     0.123 A 
ATOM     20  C   UNL A   1      32.551  19.256  23.648  1.00  0.00     0.008 A 
ATOM     21  C   UNL A   1      34.438  17.154  23.733  1.00  0.00     0.047 A 
ATOM     22  C   UNL A   1      32.302  18.049  22.992  1.00  0.00     0.001 A 
ATOM     23  C   UNL A   1      33.243  17.006  23.029  1.00  0.00     0.004 A 
ENDBRANCH  12  15
ENDBRANCH   9  11
BRANCH   9  24
ATOM     24  C   UNL A   1      33.136  25.087  25.309  1.00  0.00     0.422 C 
ATOM     25  F   UNL A   1      33.385  26.047  24.389  1.00  0.00    -0.168 F 
ATOM     26  F   UNL A   1      31.806  25.140  25.587  1.00  0.00    -0.168 F 
ATOM     27  F   UNL A   1      33.780  25.417  26.447  1.00  0.00    -0.168 F 
ENDBRANCH   9  24
ENDBRANCH   7   9
ENDBRANCH   6   7
ENDBRANCH   5   6
ENDBRANCH   4   5
ENDBRANCH   3   4
ENDBRANCH   2   3
ENDBRANCH   1   2
BRANCH   1  28
ATOM     28  O   UNL A   1      41.172  19.560  25.823  1.00  0.00    -0.376 OA
BRANCH  28  29
ATOM     29  C   UNL A   1      42.431  19.124  26.325  1.00  0.00     0.202 C 
BRANCH  29  30
ATOM     30  C   UNL A   1      43.465  18.447  25.399  1.00  0.00     0.261 C 
BRANCH  30  31
ATOM     31  O   UNL A   1      43.889  19.196  24.250  1.00  0.00    -0.460 OA
BRANCH  31  32
ATOM     32  C   UNL A   1      45.142  19.718  24.312  1.00  0.00     0.338 C 
ATOM     33  O   UNL A   1      46.156  19.240  23.828  1.00  0.00    -0.246 OA
BRANCH  32  34
ATOM     34  C   UNL A   1      45.058  21.106  24.831  1.00  0.00     0.060 A 
ATOM     35  C   UNL A   1      44.657  22.121  23.945  1.00  0.00     0.016 A 
ATOM     36  C   UNL A   1      45.316  21.407  26.169  1.00  0.00     0.016 A 
ATOM     37  C   UNL A   1      44.510  23.434  24.391  1.00  0.00     0.010 A 
ATOM     38  C   UNL A   1      45.220  22.734  26.603  1.00  0.00     0.010 A 
ATOM     39  C   UNL A   1      44.839  23.755  25.712  1.00  0.00    -0.014 A 
BRANCH  39  40
ATOM     40  C   UNL A   1      45.028  25.177  26.088  1.00  0.00     0.031 A 
ATOM     41  C   UNL A   1      46.416  25.748  25.980  1.00  0.00     0.074 A 
ATOM     42  C   UNL A   1      44.007  25.951  26.500  1.00  0.00     0.049 A 
ATOM     43  N   UNL A   1      46.860  26.927  26.325  1.00  0.00    -0.248 NA
ATOM     44  C   UNL A   1      47.443  24.863  25.402  1.00  0.00     0.031 C 
ATOM     45  C   UNL A   1      42.608  25.537  26.588  1.00  0.00     0.029 A 
ATOM     46  N   UNL A   1      44.001  27.254  26.935  1.00  0.00    -0.354 N 
ATOM     47  C   UNL A   1      48.215  26.923  26.016  1.00  0.00     0.074 A 
ATOM     48  C   UNL A   1      48.526  25.621  25.473  1.00  0.00     0.031 C 
ATOM     49  C   UNL A   1      41.882  26.560  27.077  1.00  0.00     0.029 A 
ATOM     50  C   UNL A   1      42.769  27.687  27.366  1.00  0.00     0.049 A 
ATOM     51  H   UNL A   1      44.804  27.824  26.938  1.00  0.00     0.167 HD
ATOM     52  C   UNL A   1      49.119  27.916  26.172  1.00  0.00     0.037 A 
ATOM     53  C   UNL A   1      42.410  28.847  27.954  1.00  0.00     0.037 A 
ATOM     54  C   UNL A   1      48.811  29.210  26.719  1.00  0.00     0.049 A 
ATOM     55  C   UNL A   1      43.456  29.910  28.195  1.00  0.00     0.074 A 
ATOM     56  C   UNL A   1      49.659  30.285  26.911  1.00  0.00     0.029 A 
ATOM     57  N   UNL A   1      47.559  29.599  27.169  1.00  0.00    -0.354 N 
ATOM     58  N   UNL A   1      44.732  29.900  27.889  1.00  0.00    -0.248 NA
ATOM     59  C   UNL A   1      43.013  31.143  28.865  1.00  0.00     0.031 C 
ATOM     60  C   UNL A   1      48.931  31.311  27.523  1.00  0.00     0.029 A 
ATOM     61  C   UNL A   1      47.618  30.893  27.662  1.00  0.00     0.049 A 
ATOM     62  H   UNL A   1      46.750  29.041  27.143  1.00  0.00     0.167 HD
ATOM     63  C   UNL A   1      45.234  31.134  28.299  1.00  0.00     0.074 A 
ATOM     64  C   UNL A   1      44.123  31.868  28.867  1.00  0.00     0.031 C 
ATOM     65  C   UNL A   1      46.499  31.616  28.211  1.00  0.00     0.037 A 
BRANCH  52  66
ATOM     66  C   UNL A   1      50.539  27.632  25.774  1.00  0.00     0.058 A 
ATOM     67  C   UNL A   1      51.525  27.325  26.724  1.00  0.00     0.135 A 
ATOM     68  C   UNL A   1      50.907  27.630  24.419  1.00  0.00     0.135 A 
ATOM     69  F   UNL A   1      51.231  27.341  28.033  1.00  0.00    -0.206 F 
ATOM     70  C   UNL A   1      52.831  27.034  26.345  1.00  0.00     0.059 A 
ATOM     71  C   UNL A   1      52.201  27.317  24.016  1.00  0.00     0.059 A 
ATOM     72  F   UNL A   1      50.004  27.928  23.473  1.00  0.00    -0.206 F 
ATOM     73  C   UNL A   1      53.158  27.029  24.987  1.00  0.00     0.060 A 
BRANCH  73  74
ATOM     74  S   UNL A   1      54.851  26.624  24.511  1.00  0.00     0.124 S 
ATOM     75  O   UNL A   1      54.837  26.943  23.086  1.00  0.00    -0.237 OA
ATOM     76  O   UNL A   1      55.635  27.522  25.353  1.00  0.00    -0.237 OA
ATOM     77  O   UNL A   1      54.966  25.206  24.835  1.00  0.00    -0.744 OA
ENDBRANCH  73  74
ENDBRANCH  52  66
BRANCH  53  78
ATOM     78  C   UNL A   1      41.006  29.065  28.397  1.00  0.00     0.058 A 
ATOM     79  C   UNL A   1      39.977  29.293  27.472  1.00  0.00     0.135 A 
ATOM     80  C   UNL A   1      40.671  29.090  29.761  1.00  0.00     0.135 A 
ATOM     81  F   UNL A   1      40.248  29.297  26.157  1.00  0.00    -0.206 F 
ATOM     82  C   UNL A   1      38.674  29.564  27.879  1.00  0.00     0.059 A 
ATOM     83  C   UNL A   1      39.371  29.331  30.193  1.00  0.00     0.059 A 
ATOM     84  F   UNL A   1      41.617  28.873  30.689  1.00  0.00    -0.206 F 
ATOM     85  C   UNL A   1      38.381  29.582  29.244  1.00  0.00     0.060 A 
BRANCH  85  86
ATOM     86  S   UNL A   1      36.684  29.913  29.765  1.00  0.00     0.124 S 
ATOM     87  O   UNL A   1      35.924  29.407  28.628  1.00  0.00    -0.237 OA
ATOM     88  O   UNL A   1      36.583  29.136  30.997  1.00  0.00    -0.237 OA
ATOM     89  O   UNL A   1      36.664  31.362  29.944  1.00  0.00    -0.744 OA
ENDBRANCH  85  86
ENDBRANCH  53  78
BRANCH  65  90
ATOM     90  C   UNL A   1      46.750  33.018  28.697  1.00  0.00     0.058 A 
ATOM     91  C   UNL A   1      46.580  34.133  27.863  1.00  0.00     0.135 A 
ATOM     92  C   UNL A   1      47.102  33.251  30.038  1.00  0.00     0.135 A 
ATOM     93  F   UNL A   1      46.247  33.968  26.574  1.00  0.00    -0.206 F 
ATOM     94  C   UNL A   1      46.771  35.429  28.335  1.00  0.00     0.059 A 
ATOM     95  C   UNL A   1      47.271  34.538  30.537  1.00  0.00     0.059 A 
ATOM     96  F   UNL A   1      47.263  32.220  30.883  1.00  0.00    -0.206 F 
ATOM     97  C   UNL A   1      47.115  35.621  29.674  1.00  0.00     0.060 A 
BRANCH  97  98
ATOM     98  S   UNL A   1      47.324  37.309  30.282  1.00  0.00     0.124 S 
ATOM     99  O   UNL A   1      46.071  37.929  29.865  1.00  0.00    -0.237 OA
ATOM    100  O   UNL A   1      47.485  37.107  31.719  1.00  0.00    -0.237 OA
ATOM    101  O   UNL A   1      48.518  37.776  29.584  1.00  0.00    -0.744 OA
ENDBRANCH  97  98
ENDBRANCH  65  90
ENDBRANCH  39  40
ENDBRANCH  32  34
ENDBRANCH  31  32
ENDBRANCH  30  31
ENDBRANCH  29  30
ENDBRANCH  28  29
ENDBRANCH   1  28
TORSDOF 23
ENDMDL
MODEL 2
REMARK VINA RESULT:     -10.3      2.480      9.379
REMARK SMILES C[C@@](NC(=O)[C@H]1COc2ccccc21)(C(=O)OCCOCCOCCOC(=O)c1ccc(-c2c3nc(c(-c4c(F)cc(S(=O)(=O)[O-])cc4F)c4ccc([nH]4)c(-c4c(F)cc(S(=O)(=O)[O-])cc4F)c4nc(c(-c5c(F)cc(S(=O)(=O)[O-])cc5F)c5ccc2[nH]5)C=C4)C=C3)cc1)C(F)(F)F
REMARK SMILES IDX 22 1 21 2 20 3 19 4 18 5 17 6 15 7 16 8 2 9 1 10 3 11 4 12
REMARK SMILES IDX 5 14 6 15 7 16 14 17 8 18 9 19 13 20 10 21 12 22 11 23 95 24
REMARK SMILES IDX 96 25 97 26 98 27 23 28 24 29 25 30 26 31 27 32 28 33 29 34
REMARK SMILES IDX 30 35 94 36 31 37 93 38 32 39 33 40 34 41 87 42 35 43 92 44
REMARK SMILES IDX 86 45 88 46 36 47 91 48 85 49 84 50 37 52 71 53 50 54 70 55
REMARK SMILES IDX 51 56 54 57 69 58 89 59 52 60 53 61 68 63 90 64 55 65 38 66
REMARK SMILES IDX 39 67 48 68 40 69 41 70 47 71 49 72 42 73 43 74 44 75 45 76
REMARK SMILES IDX 46 77 72 78 73 79 82 80 74 81 75 82 81 83 83 84 76 85 77 86
REMARK SMILES IDX 78 87 79 88 80 89 56 90 57 91 66 92 58 93 59 94 65 95 67 96
REMARK SMILES IDX 60 97 61 98 62 99 63 100 64 101
REMARK H PARENT 3 13 88 51 54 62
REMARK Flexibility Score: inf
ROOT
ATOM      1  C   UNL A   1      35.964  32.626  29.188  1.00  0.00     0.188 C 
ENDROOT
BRANCH   1   2
ATOM      2  C   UNL A   1      35.108  31.386  28.878  1.00  0.00     0.188 C 
BRANCH   2   3
ATOM      3  O   UNL A   1      34.680  31.367  27.534  1.00  0.00    -0.376 OA
BRANCH   3   4
ATOM      4  C   UNL A   1      33.457  30.720  27.265  1.00  0.00     0.202 C 
BRANCH   4   5
ATOM      5  C   UNL A   1      33.412  29.453  26.403  1.00  0.00     0.261 C 
BRANCH   5   6
ATOM      6  O   UNL A   1      33.263  28.157  27.022  1.00  0.00    -0.461 OA
BRANCH   6   7
ATOM      7  C   UNL A   1      32.025  27.574  27.056  1.00  0.00     0.341 C 
ATOM      8  O   UNL A   1      31.126  27.985  27.776  1.00  0.00    -0.249 OA
BRANCH   7   9
ATOM      9  C   UNL A   1      31.998  26.229  26.295  1.00  0.00     0.231 C 
ATOM     10  C   UNL A   1      33.356  25.797  25.709  1.00  0.00     0.058 C 
BRANCH   9  11
ATOM     11  N   UNL A   1      31.454  25.071  27.116  1.00  0.00    -0.332 N 
ATOM     12  C   UNL A   1      31.369  23.724  26.847  1.00  0.00     0.232 C 
ATOM     13  H   UNL A   1      31.099  25.332  27.997  1.00  0.00     0.164 HD
ATOM     14  O   UNL A   1      30.449  23.087  27.356  1.00  0.00    -0.274 OA
BRANCH  12  15
ATOM     15  C   UNL A   1      32.467  23.098  26.037  1.00  0.00     0.150 C 
ATOM     16  C   UNL A   1      33.355  22.188  26.900  1.00  0.00     0.248 C 
ATOM     17  C   UNL A   1      32.183  22.194  24.900  1.00  0.00     0.010 A 
ATOM     18  O   UNL A   1      33.318  20.835  26.388  1.00  0.00    -0.492 OA
ATOM     19  C   UNL A   1      32.775  20.965  25.140  1.00  0.00     0.123 A 
ATOM     20  C   UNL A   1      31.674  22.505  23.650  1.00  0.00     0.008 A 
ATOM     21  C   UNL A   1      32.880  20.001  24.161  1.00  0.00     0.047 A 
ATOM     22  C   UNL A   1      31.784  21.548  22.638  1.00  0.00     0.001 A 
ATOM     23  C   UNL A   1      32.390  20.305  22.891  1.00  0.00     0.004 A 
ENDBRANCH  12  15
ENDBRANCH   9  11
BRANCH   9  24
ATOM     24  C   UNL A   1      31.057  26.548  25.109  1.00  0.00     0.422 C 
ATOM     25  F   UNL A   1      31.327  25.784  24.026  1.00  0.00    -0.168 F 
ATOM     26  F   UNL A   1      29.768  26.298  25.459  1.00  0.00    -0.168 F 
ATOM     27  F   UNL A   1      31.111  27.842  24.736  1.00  0.00    -0.168 F 
ENDBRANCH   9  24
ENDBRANCH   7   9
ENDBRANCH   6   7
ENDBRANCH   5   6
ENDBRANCH   4   5
ENDBRANCH   3   4
ENDBRANCH   2   3
ENDBRANCH   1   2
BRANCH   1  28
ATOM     28  O   UNL A   1      35.911  33.240  30.469  1.00  0.00    -0.376 OA
BRANCH  28  29
ATOM     29  C   UNL A   1      36.873  32.863  31.448  1.00  0.00     0.202 C 
BRANCH  29  30
ATOM     30  C   UNL A   1      36.604  31.692  32.418  1.00  0.00     0.261 C 
BRANCH  30  31
ATOM     31  O   UNL A   1      36.554  30.378  31.842  1.00  0.00    -0.460 OA
BRANCH  31  32
ATOM     32  C   UNL A   1      37.378  29.454  32.403  1.00  0.00     0.338 C 
ATOM     33  O   UNL A   1      37.058  28.565  33.177  1.00  0.00    -0.246 OA
BRANCH  32  34
ATOM     34  C   UNL A   1      38.697  29.513  31.725  1.00  0.00     0.060 A 
ATOM     35  C   UNL A   1      38.717  29.683  30.330  1.00  0.00     0.016 A 
ATOM     36  C   UNL A   1      39.894  29.454  32.439  1.00  0.00     0.016 A 
ATOM     37  C   UNL A   1      39.927  29.798  29.646  1.00  0.00     0.010 A 
ATOM     38  C   UNL A   1      41.109  29.516  31.747  1.00  0.00     0.010 A 
ATOM     39  C   UNL A   1      41.130  29.665  30.348  1.00  0.00    -0.014 A 
BRANCH  39  40
ATOM     40  C   UNL A   1      42.387  29.429  29.595  1.00  0.00     0.031 A 
ATOM     41  C   UNL A   1      42.589  28.068  28.986  1.00  0.00     0.074 A 
ATOM     42  C   UNL A   1      43.318  30.388  29.438  1.00  0.00     0.049 A 
ATOM     43  N   UNL A   1      43.627  27.584  28.358  1.00  0.00    -0.248 NA
ATOM     44  C   UNL A   1      41.462  27.126  29.103  1.00  0.00     0.031 C 
ATOM     45  C   UNL A   1      43.214  31.762  29.925  1.00  0.00     0.029 A 
ATOM     46  N   UNL A   1      44.549  30.337  28.831  1.00  0.00    -0.354 N 
ATOM     47  C   UNL A   1      43.284  26.282  28.015  1.00  0.00     0.074 A 
ATOM     48  C   UNL A   1      41.951  26.044  28.517  1.00  0.00     0.031 C 
ATOM     49  C   UNL A   1      44.350  32.419  29.620  1.00  0.00     0.029 A 
ATOM     50  C   UNL A   1      45.271  31.502  28.947  1.00  0.00     0.049 A 
ATOM     51  H   UNL A   1      44.882  29.542  28.356  1.00  0.00     0.167 HD
ATOM     52  C   UNL A   1      44.016  25.366  27.340  1.00  0.00     0.037 A 
ATOM     53  C   UNL A   1      46.539  31.781  28.581  1.00  0.00     0.037 A 
ATOM     54  C   UNL A   1      45.346  25.601  26.846  1.00  0.00     0.049 A 
ATOM     55  C   UNL A   1      47.367  30.713  27.904  1.00  0.00     0.074 A 
ATOM     56  C   UNL A   1      46.166  24.736  26.145  1.00  0.00     0.029 A 
ATOM     57  N   UNL A   1      46.052  26.783  27.009  1.00  0.00    -0.354 N 
ATOM     58  N   UNL A   1      47.028  29.489  27.573  1.00  0.00    -0.248 NA
ATOM     59  C   UNL A   1      48.752  31.065  27.552  1.00  0.00     0.031 C 
ATOM     60  C   UNL A   1      47.389  25.378  25.925  1.00  0.00     0.029 A 
ATOM     61  C   UNL A   1      47.310  26.661  26.442  1.00  0.00     0.049 A 
ATOM     62  H   UNL A   1      45.711  27.587  27.460  1.00  0.00     0.167 HD
ATOM     63  C   UNL A   1      48.146  28.939  26.948  1.00  0.00     0.074 A 
ATOM     64  C   UNL A   1      49.166  29.965  26.938  1.00  0.00     0.031 C 
ATOM     65  C   UNL A   1      48.310  27.697  26.427  1.00  0.00     0.037 A 
BRANCH  52  66
ATOM     66  C   UNL A   1      43.405  24.011  27.125  1.00  0.00     0.058 A 
ATOM     67  C   UNL A   1      42.827  23.648  25.899  1.00  0.00     0.135 A 
ATOM     68  C   UNL A   1      43.436  23.051  28.148  1.00  0.00     0.135 A 
ATOM     69  F   UNL A   1      42.748  24.539  24.898  1.00  0.00    -0.206 F 
ATOM     70  C   UNL A   1      42.290  22.381  25.699  1.00  0.00     0.059 A 
ATOM     71  C   UNL A   1      42.928  21.770  27.962  1.00  0.00     0.059 A 
ATOM     72  F   UNL A   1      43.968  23.352  29.343  1.00  0.00    -0.206 F 
ATOM     73  C   UNL A   1      42.349  21.447  26.735  1.00  0.00     0.060 A 
BRANCH  73  74
ATOM     74  S   UNL A   1      41.671  19.800  26.449  1.00  0.00     0.124 S 
ATOM     75  O   UNL A   1      40.252  20.095  26.271  1.00  0.00    -0.237 OA
ATOM     76  O   UNL A   1      42.384  19.373  25.250  1.00  0.00    -0.237 OA
ATOM     77  O   UNL A   1      42.012  19.075  27.669  1.00  0.00    -0.744 OA
ENDBRANCH  73  74
ENDBRANCH  52  66
BRANCH  53  78
ATOM     78  C   UNL A   1      47.132  33.115  28.873  1.00  0.00     0.058 A 
ATOM     79  C   UNL A   1      47.001  34.183  27.974  1.00  0.00     0.135 A 
ATOM     80  C   UNL A   1      47.880  33.335  30.042  1.00  0.00     0.135 A 
ATOM     81  F   UNL A   1      46.312  34.019  26.835  1.00  0.00    -0.206 F 
ATOM     82  C   UNL A   1      47.609  35.414  28.208  1.00  0.00     0.059 A 
ATOM     83  C   UNL A   1      48.474  34.564  30.312  1.00  0.00     0.059 A 
ATOM     84  F   UNL A   1      48.033  32.347  30.939  1.00  0.00    -0.206 F 
ATOM     85  C   UNL A   1      48.345  35.593  29.381  1.00  0.00     0.060 A 
BRANCH  85  86
ATOM     86  S   UNL A   1      49.113  37.199  29.688  1.00  0.00     0.124 S 
ATOM     87  O   UNL A   1      49.621  37.539  28.365  1.00  0.00    -0.237 OA
ATOM     88  O   UNL A   1      47.983  37.994  30.162  1.00  0.00    -0.237 OA
ATOM     89  O   UNL A   1      50.125  36.899  30.696  1.00  0.00    -0.744 OA
ENDBRANCH  85  86
ENDBRANCH  53  78
BRANCH  65  90
ATOM     90  C   UNL A   1      49.623  27.385  25.761  1.00  0.00     0.058 A 
ATOM     91  C   UNL A   1      50.757  27.011  26.497  1.00  0.00     0.135 A 
ATOM     92  C   UNL A   1      49.727  27.397  24.359  1.00  0.00     0.135 A 
ATOM     93  F   UNL A   1      50.714  26.985  27.838  1.00  0.00    -0.206 F 
ATOM     94  C   UNL A   1      51.955  26.680  25.869  1.00  0.00     0.059 A 
ATOM     95  C   UNL A   1      50.905  27.044  23.710  1.00  0.00     0.059 A 
ATOM     96  F   UNL A   1      48.668  27.734  23.606  1.00  0.00    -0.206 F 
ATOM     97  C   UNL A   1      52.018  26.699  24.474  1.00  0.00     0.060 A 
BRANCH  97  98
ATOM     98  S   UNL A   1      53.567  26.233  23.671  1.00  0.00     0.124 S 
ATOM     99  O   UNL A   1      53.891  24.986  24.357  1.00  0.00    -0.237 OA
ATOM    100  O   UNL A   1      53.169  26.102  22.272  1.00  0.00    -0.237 OA
ATOM    101  O   UNL A   1      54.453  27.357  23.961  1.00  0.00    -0.744 OA
ENDBRANCH  97  98
ENDBRANCH  65  90
ENDBRANCH  39  40
ENDBRANCH  32  34
ENDBRANCH  31  32
ENDBRANCH  30  31
ENDBRANCH  29  30
ENDBRANCH  28  29
ENDBRANCH   1  28
TORSDOF 23
ENDMDL
MODEL 3
REMARK VINA RESULT:     -10.2      3.252      5.694
REMARK SMILES C[C@@](NC(=O)[C@H]1COc2ccccc21)(C(=O)OCCOCCOCCOC(=O)c1ccc(-c2c3nc(c(-c4c(F)cc(S(=O)(=O)[O-])cc4F)c4ccc([nH]4)c(-c4c(F)cc(S(=O)(=O)[O-])cc4F)c4nc(c(-c5c(F)cc(S(=O)(=O)[O-])cc5F)c5ccc2[nH]5)C=C4)C=C3)cc1)C(F)(F)F
REMARK SMILES IDX 22 1 21 2 20 3 19 4 18 5 17 6 15 7 16 8 2 9 1 10 3 11 4 12
REMARK SMILES IDX 5 14 6 15 7 16 14 17 8 18 9 19 13 20 10 21 12 22 11 23 95 24
REMARK SMILES IDX 96 25 97 26 98 27 23 28 24 29 25 30 26 31 27 32 28 33 29 34
REMARK SMILES IDX 30 35 94 36 31 37 93 38 32 39 33 40 34 41 87 42 35 43 92 44
REMARK SMILES IDX 86 45 88 46 36 47 91 48 85 49 84 50 37 52 71 53 50 54 70 55
REMARK SMILES IDX 51 56 54 57 69 58 89 59 52 60 53 61 68 63 90 64 55 65 38 66
REMARK SMILES IDX 39 67 48 68 40 69 41 70 47 71 49 72 42 73 43 74 44 75 45 76
REMARK SMILES IDX 46 77 72 78 73 79 82 80 74 81 75 82 81 83 83 84 76 85 77 86
REMARK SMILES IDX 78 87 79 88 80 89 56 90 57 91 66 92 58 93 59 94 65 95 67 96
REMARK SMILES IDX 60 97 61 98 62 99 63 100 64 101
REMARK H PARENT 3 13 88 51 54 62
REMARK Flexibility Score: inf
ROOT
ATOM      1  C   UNL A   1      34.564  19.416  24.898  1.00  0.00     0.188 C 
ENDROOT
BRANCH   1   2
ATOM      2  C   UNL A   1      33.083  19.152  24.573  1.00  0.00     0.188 C 
BRANCH   2   3
ATOM      3  O   UNL A   1      32.392  20.346  24.276  1.00  0.00    -0.376 OA
BRANCH   3   4
ATOM      4  C   UNL A   1      32.242  20.670  22.912  1.00  0.00     0.202 C 
BRANCH   4   5
ATOM      5  C   UNL A   1      31.796  22.072  22.482  1.00  0.00     0.261 C 
BRANCH   5   6
ATOM      6  O   UNL A   1      32.521  23.237  22.934  1.00  0.00    -0.461 OA
BRANCH   6   7
ATOM      7  C   UNL A   1      32.137  23.848  24.097  1.00  0.00     0.341 C 
ATOM      8  O   UNL A   1      31.151  23.497  24.729  1.00  0.00    -0.249 OA
BRANCH   7   9
ATOM      9  C   UNL A   1      32.929  25.151  24.353  1.00  0.00     0.231 C 
ATOM     10  C   UNL A   1      33.349  25.907  23.078  1.00  0.00     0.058 C 
BRANCH   9  11
ATOM     11  N   UNL A   1      32.211  26.135  25.264  1.00  0.00    -0.332 N 
ATOM     12  C   UNL A   1      31.403  27.213  24.985  1.00  0.00     0.232 C 
ATOM     13  H   UNL A   1      32.352  25.972  26.225  1.00  0.00     0.164 HD
ATOM     14  O   UNL A   1      31.388  28.150  25.779  1.00  0.00    -0.274 OA
BRANCH  12  15
ATOM     15  C   UNL A   1      30.507  27.127  23.782  1.00  0.00     0.150 C 
ATOM     16  C   UNL A   1      29.283  26.240  24.054  1.00  0.00     0.248 C 
ATOM     17  C   UNL A   1      29.850  28.322  23.208  1.00  0.00     0.010 A 
ATOM     18  O   UNL A   1      28.070  27.011  23.886  1.00  0.00    -0.492 OA
ATOM     19  C   UNL A   1      28.478  28.136  23.224  1.00  0.00     0.123 A 
ATOM     20  C   UNL A   1      30.417  29.367  22.496  1.00  0.00     0.008 A 
ATOM     21  C   UNL A   1      27.619  28.973  22.547  1.00  0.00     0.047 A 
ATOM     22  C   UNL A   1      29.565  30.219  21.789  1.00  0.00     0.001 A 
ATOM     23  C   UNL A   1      28.174  30.019  21.809  1.00  0.00     0.004 A 
ENDBRANCH  12  15
ENDBRANCH   9  11
BRANCH   9  24
ATOM     24  C   UNL A   1      34.215  24.620  25.027  1.00  0.00     0.422 C 
ATOM     25  F   UNL A   1      34.895  25.598  25.667  1.00  0.00    -0.168 F 
ATOM     26  F   UNL A   1      33.899  23.682  25.959  1.00  0.00    -0.168 F 
ATOM     27  F   UNL A   1      35.054  24.027  24.154  1.00  0.00    -0.168 F 
ENDBRANCH   9  24
ENDBRANCH   7   9
ENDBRANCH   6   7
ENDBRANCH   5   6
ENDBRANCH   4   5
ENDBRANCH   3   4
ENDBRANCH   2   3
ENDBRANCH   1   2
BRANCH   1  28
ATOM     28  O   UNL A   1      35.149  20.682  24.628  1.00  0.00    -0.376 OA
BRANCH  28  29
ATOM     29  C   UNL A   1      36.126  21.190  25.530  1.00  0.00     0.202 C 
BRANCH  29  30
ATOM     30  C   UNL A   1      37.624  21.206  25.155  1.00  0.00     0.261 C 
BRANCH  30  31
ATOM     31  O   UNL A   1      38.371  22.371  25.538  1.00  0.00    -0.460 OA
BRANCH  31  32
ATOM     32  C   UNL A   1      39.395  22.159  26.405  1.00  0.00     0.338 C 
ATOM     33  O   UNL A   1      40.027  21.125  26.549  1.00  0.00    -0.246 OA
BRANCH  32  34
ATOM     34  C   UNL A   1      39.818  23.463  26.974  1.00  0.00     0.060 A 
ATOM     35  C   UNL A   1      39.199  24.629  26.491  1.00  0.00     0.016 A 
ATOM     36  C   UNL A   1      40.766  23.547  27.995  1.00  0.00     0.016 A 
ATOM     37  C   UNL A   1      39.520  25.876  27.026  1.00  0.00     0.010 A 
ATOM     38  C   UNL A   1      41.126  24.803  28.494  1.00  0.00     0.010 A 
ATOM     39  C   UNL A   1      40.522  25.973  27.997  1.00  0.00    -0.014 A 
BRANCH  39  40
ATOM     40  C   UNL A   1      41.110  27.300  28.303  1.00  0.00     0.031 A 
ATOM     41  C   UNL A   1      42.593  27.466  28.112  1.00  0.00     0.074 A 
ATOM     42  C   UNL A   1      40.360  28.335  28.724  1.00  0.00     0.049 A 
ATOM     43  N   UNL A   1      43.358  28.489  28.387  1.00  0.00    -0.248 NA
ATOM     44  C   UNL A   1      43.309  26.318  27.530  1.00  0.00     0.031 C 
ATOM     45  C   UNL A   1      38.908  28.322  28.889  1.00  0.00     0.029 A 
ATOM     46  N   UNL A   1      40.731  29.603  29.104  1.00  0.00    -0.354 N 
ATOM     47  C   UNL A   1      44.642  28.106  28.022  1.00  0.00     0.074 A 
ATOM     48  C   UNL A   1      44.559  26.753  27.522  1.00  0.00     0.031 C 
ATOM     49  C   UNL A   1      38.513  29.519  29.364  1.00  0.00     0.029 A 
ATOM     50  C   UNL A   1      39.687  30.369  29.567  1.00  0.00     0.049 A 
ATOM     51  H   UNL A   1      41.657  29.931  29.048  1.00  0.00     0.167 HD
ATOM     52  C   UNL A   1      45.789  28.818  28.097  1.00  0.00     0.037 A 
ATOM     53  C   UNL A   1      39.688  31.599  30.120  1.00  0.00     0.037 A 
ATOM     54  C   UNL A   1      45.873  30.163  28.600  1.00  0.00     0.049 A 
ATOM     55  C   UNL A   1      40.994  32.343  30.271  1.00  0.00     0.074 A 
ATOM     56  C   UNL A   1      46.990  30.971  28.710  1.00  0.00     0.029 A 
ATOM     57  N   UNL A   1      44.799  30.893  29.086  1.00  0.00    -0.354 N 
ATOM     58  N   UNL A   1      42.202  31.976  29.911  1.00  0.00    -0.248 NA
ATOM     59  C   UNL A   1      40.939  33.669  30.906  1.00  0.00     0.031 C 
ATOM     60  C   UNL A   1      46.601  32.174  29.308  1.00  0.00     0.029 A 
ATOM     61  C   UNL A   1      45.232  32.134  29.521  1.00  0.00     0.049 A 
ATOM     62  H   UNL A   1      43.868  30.576  29.118  1.00  0.00     0.167 HD
ATOM     63  C   UNL A   1      43.040  33.037  30.247  1.00  0.00     0.074 A 
ATOM     64  C   UNL A   1      42.202  34.062  30.830  1.00  0.00     0.031 C 
ATOM     65  C   UNL A   1      44.382  33.152  30.085  1.00  0.00     0.037 A 
BRANCH  52  66
ATOM     66  C   UNL A   1      47.056  28.145  27.652  1.00  0.00     0.058 A 
ATOM     67  C   UNL A   1      47.520  28.244  26.331  1.00  0.00     0.135 A 
ATOM     68  C   UNL A   1      47.835  27.425  28.571  1.00  0.00     0.135 A 
ATOM     69  F   UNL A   1      46.799  28.898  25.408  1.00  0.00    -0.206 F 
ATOM     70  C   UNL A   1      48.709  27.641  25.935  1.00  0.00     0.059 A 
ATOM     71  C   UNL A   1      49.039  26.836  28.203  1.00  0.00     0.059 A 
ATOM     72  F   UNL A   1      47.429  27.292  29.843  1.00  0.00    -0.206 F 
ATOM     73  C   UNL A   1      49.464  26.943  26.879  1.00  0.00     0.060 A 
BRANCH  73  74
ATOM     74  S   UNL A   1      51.018  26.190  26.354  1.00  0.00     0.124 S 
ATOM     75  O   UNL A   1      50.880  26.222  24.900  1.00  0.00    -0.237 OA
ATOM     76  O   UNL A   1      52.011  27.100  26.916  1.00  0.00    -0.237 OA
ATOM     77  O   UNL A   1      50.974  24.863  26.959  1.00  0.00    -0.744 OA
ENDBRANCH  73  74
ENDBRANCH  52  66
BRANCH  53  78
ATOM     78  C   UNL A   1      38.420  32.205  30.612  1.00  0.00     0.058 A 
ATOM     79  C   UNL A   1      37.939  31.940  31.903  1.00  0.00     0.135 A 
ATOM     80  C   UNL A   1      37.642  33.032  29.785  1.00  0.00     0.135 A 
ATOM     81  F   UNL A   1      38.637  31.142  32.727  1.00  0.00    -0.206 F 
ATOM     82  C   UNL A   1      36.722  32.448  32.348  1.00  0.00     0.059 A 
ATOM     83  C   UNL A   1      36.436  33.574  30.217  1.00  0.00     0.059 A 
ATOM     84  F   UNL A   1      38.059  33.322  28.542  1.00  0.00    -0.206 F 
ATOM     85  C   UNL A   1      35.977  33.265  31.495  1.00  0.00     0.060 A 
BRANCH  85  86
ATOM     86  S   UNL A   1      34.410  33.939  32.088  1.00  0.00     0.124 S 
ATOM     87  O   UNL A   1      34.865  34.998  32.980  1.00  0.00    -0.237 OA
ATOM     88  O   UNL A   1      33.775  34.376  30.848  1.00  0.00    -0.237 OA
ATOM     89  O   UNL A   1      33.777  32.794  32.737  1.00  0.00    -0.744 OA
ENDBRANCH  85  86
ENDBRANCH  53  78
BRANCH  65  90
ATOM     90  C   UNL A   1      45.030  34.445  30.500  1.00  0.00     0.058 A 
ATOM     91  C   UNL A   1      45.199  35.511  29.602  1.00  0.00     0.135 A 
ATOM     92  C   UNL A   1      45.426  34.644  31.833  1.00  0.00     0.135 A 
ATOM     93  F   UNL A   1      44.840  35.374  28.316  1.00  0.00    -0.206 F 
ATOM     94  C   UNL A   1      45.758  36.720  30.007  1.00  0.00     0.059 A 
ATOM     95  C   UNL A   1      45.961  35.853  32.265  1.00  0.00     0.059 A 
ATOM     96  F   UNL A   1      45.273  33.663  32.737  1.00  0.00    -0.206 F 
ATOM     97  C   UNL A   1      46.134  36.882  31.342  1.00  0.00     0.060 A 
BRANCH  97  98
ATOM     98  S   UNL A   1      46.825  38.467  31.861  1.00  0.00     0.124 S 
ATOM     99  O   UNL A   1      46.936  38.281  33.304  1.00  0.00    -0.237 OA
ATOM    100  O   UNL A   1      48.087  38.516  31.129  1.00  0.00    -0.237 OA
ATOM    101  O   UNL A   1      45.819  39.434  31.428  1.00  0.00    -0.744 OA
ENDBRANCH  97  98
ENDBRANCH  65  90
ENDBRANCH  39  40
ENDBRANCH  32  34
ENDBRANCH  31  32
ENDBRANCH  30  31
ENDBRANCH  29  30
ENDBRANCH  28  29
ENDBRANCH   1  28
TORSDOF 23
ENDMDL
