MODEL 1
REMARK VINA RESULT:      -9.5      0.000      0.000
REMARK SMILES O=C(OCCOCCOCCOC(=O)[C@@H]1CSCN1C(=O)c1cccc(Cl)c1)c1ccc(-c2c3nc(c(-c4c(F)cc(S(=O)(=O)[O-])cc4F)c4ccc([nH]4)c(-c4c(F)cc(S(=O)(=O)[O-])cc4F)c4nc(c(-c5c(F)cc(S(=O)(=O)[O-])cc5F)c5ccc2[nH]5)C=C4)C=C3)cc1
REMARK SMILES IDX 7 1 6 2 5 3 4 4 3 5 2 6 1 7 29 8 30 9 94 10 31 11 93 12
REMARK SMILES IDX 32 13 33 14 34 15 87 16 35 17 92 18 86 19 88 20 36 21 91 22
REMARK SMILES IDX 85 23 84 24 37 26 71 27 50 28 70 29 51 30 54 31 69 32 89 33
REMARK SMILES IDX 52 34 53 35 68 37 90 38 55 39 38 40 39 41 48 42 40 43 41 44
REMARK SMILES IDX 47 45 49 46 42 47 43 48 44 49 45 50 46 51 72 52 73 53 82 54
REMARK SMILES IDX 74 55 75 56 81 57 83 58 76 59 77 60 78 61 79 62 80 63 56 64
REMARK SMILES IDX 57 65 66 66 58 67 59 68 65 69 67 70 60 71 61 72 62 73 63 74
REMARK SMILES IDX 64 75 8 76 9 77 10 78 11 79 12 80 13 81 14 82 15 83 16 84
REMARK SMILES IDX 19 85 17 86 18 87 20 88 21 89 22 90 23 91 28 92 24 93 26 94
REMARK SMILES IDX 25 95 27 96
REMARK H PARENT 88 25 54 36
REMARK Flexibility Score: inf
ROOT
ATOM      1  C   UNL A   1      34.515  19.934  24.703  1.00  0.00     0.188 C 
ENDROOT
BRANCH   1   2
ATOM      2  O   UNL A   1      35.638  20.825  24.685  1.00  0.00    -0.376 OA
BRANCH   2   3
ATOM      3  C   UNL A   1      36.864  20.212  25.093  1.00  0.00     0.202 C 
BRANCH   3   4
ATOM      4  C   UNL A   1      38.108  21.102  24.956  1.00  0.00     0.261 C 
BRANCH   4   5
ATOM      5  O   UNL A   1      38.282  21.985  26.074  1.00  0.00    -0.460 OA
BRANCH   5   6
ATOM      6  C   UNL A   1      37.915  23.289  26.176  1.00  0.00     0.338 C 
ATOM      7  O   UNL A   1      36.809  23.615  25.744  1.00  0.00    -0.246 OA
BRANCH   6   8
ATOM      8  C   UNL A   1      38.766  24.352  26.804  1.00  0.00     0.060 A 
ATOM      9  C   UNL A   1      38.803  24.654  28.165  1.00  0.00     0.016 A 
ATOM     10  C   UNL A   1      39.626  25.071  25.955  1.00  0.00     0.016 A 
ATOM     11  C   UNL A   1      39.565  25.705  28.659  1.00  0.00     0.010 A 
ATOM     12  C   UNL A   1      40.443  26.095  26.451  1.00  0.00     0.010 A 
ATOM     13  C   UNL A   1      40.379  26.440  27.805  1.00  0.00    -0.014 A 
BRANCH  13  14
ATOM     14  C   UNL A   1      41.048  27.641  28.344  1.00  0.00     0.031 A 
ATOM     15  C   UNL A   1      42.540  27.726  28.240  1.00  0.00     0.074 A 
ATOM     16  C   UNL A   1      40.314  28.680  28.784  1.00  0.00     0.049 A 
ATOM     17  N   UNL A   1      43.339  28.678  28.635  1.00  0.00    -0.248 NA
ATOM     18  C   UNL A   1      43.220  26.600  27.578  1.00  0.00     0.031 C 
ATOM     19  C   UNL A   1      38.853  28.723  28.789  1.00  0.00     0.029 A 
ATOM     20  N   UNL A   1      40.678  29.900  29.285  1.00  0.00    -0.354 N 
ATOM     21  C   UNL A   1      44.614  28.266  28.272  1.00  0.00     0.074 A 
ATOM     22  C   UNL A   1      44.489  26.969  27.649  1.00  0.00     0.031 C 
ATOM     23  C   UNL A   1      38.439  29.899  29.282  1.00  0.00     0.029 A 
ATOM     24  C   UNL A   1      39.608  30.678  29.668  1.00  0.00     0.049 A 
ATOM     25  H   UNL A   1      41.614  30.192  29.366  1.00  0.00     0.167 HD
ATOM     26  C   UNL A   1      45.782  28.925  28.446  1.00  0.00     0.037 A 
ATOM     27  C   UNL A   1      39.586  31.872  30.288  1.00  0.00     0.037 A 
ATOM     28  C   UNL A   1      45.872  30.210  29.085  1.00  0.00     0.049 A 
ATOM     29  C   UNL A   1      40.907  32.526  30.585  1.00  0.00     0.074 A 
ATOM     30  C   UNL A   1      46.998  30.953  29.379  1.00  0.00     0.029 A 
ATOM     31  N   UNL A   1      44.776  30.939  29.535  1.00  0.00    -0.354 N 
ATOM     32  N   UNL A   1      42.115  32.107  30.283  1.00  0.00    -0.248 NA
ATOM     33  C   UNL A   1      40.873  33.806  31.299  1.00  0.00     0.031 C 
ATOM     34  C   UNL A   1      46.586  32.114  30.046  1.00  0.00     0.029 A 
ATOM     35  C   UNL A   1      45.201  32.116  30.123  1.00  0.00     0.049 A 
ATOM     36  H   UNL A   1      43.837  30.658  29.446  1.00  0.00     0.167 HD
ATOM     37  C   UNL A   1      42.985  33.082  30.749  1.00  0.00     0.074 A 
ATOM     38  C   UNL A   1      42.161  34.118  31.344  1.00  0.00     0.031 C 
ATOM     39  C   UNL A   1      44.340  33.122  30.696  1.00  0.00     0.037 A 
BRANCH  26  40
ATOM     40  C   UNL A   1      47.034  28.231  27.990  1.00  0.00     0.058 A 
ATOM     41  C   UNL A   1      47.809  27.452  28.864  1.00  0.00     0.135 A 
ATOM     42  C   UNL A   1      47.483  28.379  26.670  1.00  0.00     0.135 A 
ATOM     43  F   UNL A   1      47.443  27.308  30.148  1.00  0.00    -0.206 F 
ATOM     44  C   UNL A   1      49.002  26.866  28.450  1.00  0.00     0.059 A 
ATOM     45  C   UNL A   1      48.662  27.783  26.228  1.00  0.00     0.059 A 
ATOM     46  F   UNL A   1      46.788  29.127  25.798  1.00  0.00    -0.206 F 
ATOM     47  C   UNL A   1      49.422  27.042  27.130  1.00  0.00     0.060 A 
BRANCH  47  48
ATOM     48  S   UNL A   1      50.982  26.293  26.613  1.00  0.00     0.124 S 
ATOM     49  O   UNL A   1      50.969  26.559  25.177  1.00  0.00    -0.237 OA
ATOM     50  O   UNL A   1      51.961  27.049  27.388  1.00  0.00    -0.237 OA
ATOM     51  O   UNL A   1      50.830  24.893  26.994  1.00  0.00    -0.744 OA
ENDBRANCH  47  48
ENDBRANCH  26  40
BRANCH  27  52
ATOM     52  C   UNL A   1      38.294  32.487  30.701  1.00  0.00     0.058 A 
ATOM     53  C   UNL A   1      37.515  33.234  29.805  1.00  0.00     0.135 A 
ATOM     54  C   UNL A   1      37.813  32.341  32.014  1.00  0.00     0.135 A 
ATOM     55  F   UNL A   1      37.928  33.405  28.540  1.00  0.00    -0.206 F 
ATOM     56  C   UNL A   1      36.322  33.836  30.199  1.00  0.00     0.059 A 
ATOM     57  C   UNL A   1      36.610  32.911  32.424  1.00  0.00     0.059 A 
ATOM     58  F   UNL A   1      38.507  31.623  32.909  1.00  0.00    -0.206 F 
ATOM     59  C   UNL A   1      35.880  33.671  31.514  1.00  0.00     0.060 A 
BRANCH  59  60
ATOM     60  S   UNL A   1      34.330  34.452  32.016  1.00  0.00     0.124 S 
ATOM     61  O   UNL A   1      34.815  35.608  32.762  1.00  0.00    -0.237 OA
ATOM     62  O   UNL A   1      33.701  34.739  30.731  1.00  0.00    -0.237 OA
ATOM     63  O   UNL A   1      33.676  33.418  32.812  1.00  0.00    -0.744 OA
ENDBRANCH  59  60
ENDBRANCH  27  52
BRANCH  39  64
ATOM     64  C   UNL A   1      45.001  34.340  31.268  1.00  0.00     0.058 A 
ATOM     65  C   UNL A   1      45.416  34.389  32.606  1.00  0.00     0.135 A 
ATOM     66  C   UNL A   1      45.270  35.448  30.448  1.00  0.00     0.135 A 
ATOM     67  F   UNL A   1      45.171  33.355  33.429  1.00  0.00    -0.206 F 
ATOM     68  C   UNL A   1      46.062  35.506  33.121  1.00  0.00     0.059 A 
ATOM     69  C   UNL A   1      45.939  36.563  30.935  1.00  0.00     0.059 A 
ATOM     70  F   UNL A   1      44.900  35.440  29.158  1.00  0.00    -0.206 F 
ATOM     71  C   UNL A   1      46.321  36.587  32.276  1.00  0.00     0.060 A 
BRANCH  71  72
ATOM     72  S   UNL A   1      47.199  38.014  32.943  1.00  0.00     0.124 S 
ATOM     73  O   UNL A   1      46.109  38.773  33.545  1.00  0.00    -0.237 OA
ATOM     74  O   UNL A   1      48.135  37.397  33.877  1.00  0.00    -0.237 OA
ATOM     75  O   UNL A   1      47.809  38.617  31.762  1.00  0.00    -0.744 OA
ENDBRANCH  71  72
ENDBRANCH  39  64
ENDBRANCH  13  14
ENDBRANCH   6   8
ENDBRANCH   5   6
ENDBRANCH   4   5
ENDBRANCH   3   4
ENDBRANCH   2   3
ENDBRANCH   1   2
BRANCH   1  76
ATOM     76  C   UNL A   1      33.210  20.697  24.488  1.00  0.00     0.188 C 
BRANCH  76  77
ATOM     77  O   UNL A   1      32.573  21.215  25.654  1.00  0.00    -0.376 OA
BRANCH  77  78
ATOM     78  C   UNL A   1      33.049  22.449  26.177  1.00  0.00     0.202 C 
BRANCH  78  79
ATOM     79  C   UNL A   1      32.057  23.595  26.459  1.00  0.00     0.261 C 
BRANCH  79  80
ATOM     80  O   UNL A   1      32.592  24.920  26.582  1.00  0.00    -0.462 OA
BRANCH  80  81
ATOM     81  C   UNL A   1      32.487  25.647  25.435  1.00  0.00     0.329 C 
ATOM     82  O   UNL A   1      33.398  25.727  24.614  1.00  0.00    -0.250 OA
BRANCH  81  83
ATOM     83  C   UNL A   1      31.148  26.406  25.308  1.00  0.00     0.206 C 
ATOM     84  C   UNL A   1      30.460  26.315  23.953  1.00  0.00     0.108 C 
ATOM     85  N   UNL A   1      31.426  27.822  25.568  1.00  0.00    -0.315 N 
ATOM     86  S   UNL A   1      30.995  27.746  22.976  1.00  0.00    -0.138 SA
ATOM     87  C   UNL A   1      31.659  28.633  24.394  1.00  0.00     0.191 C 
BRANCH  85  88
ATOM     88  C   UNL A   1      31.695  28.216  26.866  1.00  0.00     0.255 C 
ATOM     89  O   UNL A   1      31.076  27.827  27.850  1.00  0.00    -0.269 OA
BRANCH  88  90
ATOM     90  C   UNL A   1      32.891  29.048  27.065  1.00  0.00     0.041 A 
ATOM     91  C   UNL A   1      34.158  28.470  27.043  1.00  0.00     0.014 A 
ATOM     92  C   UNL A   1      32.714  30.415  27.308  1.00  0.00     0.034 A 
ATOM     93  C   UNL A   1      35.270  29.273  27.295  1.00  0.00     0.002 A 
ATOM     94  C   UNL A   1      33.829  31.204  27.557  1.00  0.00     0.041 A 
ATOM     95  C   UNL A   1      35.106  30.638  27.556  1.00  0.00     0.020 A 
ATOM     96  Cl  UNL A   1      33.636  32.882  27.885  1.00  0.00    -0.084 Cl
ENDBRANCH  88  90
ENDBRANCH  85  88
ENDBRANCH  81  83
ENDBRANCH  80  81
ENDBRANCH  79  80
ENDBRANCH  78  79
ENDBRANCH  77  78
ENDBRANCH  76  77
ENDBRANCH   1  76
TORSDOF 22
ENDMDL
MODEL 2
REMARK VINA RESULT:      -9.4      4.958      9.259
REMARK SMILES O=C(OCCOCCOCCOC(=O)[C@@H]1CSCN1C(=O)c1cccc(Cl)c1)c1ccc(-c2c3nc(c(-c4c(F)cc(S(=O)(=O)[O-])cc4F)c4ccc([nH]4)c(-c4c(F)cc(S(=O)(=O)[O-])cc4F)c4nc(c(-c5c(F)cc(S(=O)(=O)[O-])cc5F)c5ccc2[nH]5)C=C4)C=C3)cc1
REMARK SMILES IDX 7 1 6 2 5 3 4 4 3 5 2 6 1 7 29 8 30 9 94 10 31 11 93 12
REMARK SMILES IDX 32 13 33 14 34 15 87 16 35 17 92 18 86 19 88 20 36 21 91 22
REMARK SMILES IDX 85 23 84 24 37 26 71 27 50 28 70 29 51 30 54 31 69 32 89 33
REMARK SMILES IDX 52 34 53 35 68 37 90 38 55 39 38 40 39 41 48 42 40 43 41 44
REMARK SMILES IDX 47 45 49 46 42 47 43 48 44 49 45 50 46 51 72 52 73 53 82 54
REMARK SMILES IDX 74 55 75 56 81 57 83 58 76 59 77 60 78 61 79 62 80 63 56 64
REMARK SMILES IDX 57 65 66 66 58 67 59 68 65 69 67 70 60 71 61 72 62 73 63 74
REMARK SMILES IDX 64 75 8 76 9 77 10 78 11 79 12 80 13 81 14 82 15 83 16 84
REMARK SMILES IDX 19 85 17 86 18 87 20 88 21 89 22 90 23 91 28 92 24 93 26 94
REMARK SMILES IDX 25 95 27 96
REMARK H PARENT 88 25 54 36
REMARK Flexibility Score: inf
ROOT
ATOM      1  C   UNL A   1      37.562  21.262  25.147  1.00  0.00     0.188 C 
ENDROOT
BRANCH   1   2
ATOM      2  O   UNL A   1      38.503  22.125  25.798  1.00  0.00    -0.376 OA
BRANCH   2   3
ATOM      3  C   UNL A   1      39.711  21.466  26.190  1.00  0.00     0.202 C 
BRANCH   3   4
ATOM      4  C   UNL A   1      40.817  22.398  26.704  1.00  0.00     0.261 C 
BRANCH   4   5
ATOM      5  O   UNL A   1      40.457  23.786  26.616  1.00  0.00    -0.460 OA
BRANCH   5   6
ATOM      6  C   UNL A   1      41.272  24.870  26.696  1.00  0.00     0.338 C 
ATOM      7  O   UNL A   1      42.187  24.967  25.878  1.00  0.00    -0.246 OA
BRANCH   6   8
ATOM      8  C   UNL A   1      41.111  25.967  27.705  1.00  0.00     0.060 A 
ATOM      9  C   UNL A   1      41.992  27.033  27.883  1.00  0.00     0.016 A 
ATOM     10  C   UNL A   1      39.955  25.938  28.506  1.00  0.00     0.016 A 
ATOM     11  C   UNL A   1      41.810  27.970  28.891  1.00  0.00     0.010 A 
ATOM     12  C   UNL A   1      39.731  26.911  29.488  1.00  0.00     0.010 A 
ATOM     13  C   UNL A   1      40.687  27.909  29.708  1.00  0.00    -0.014 A 
BRANCH  13  14
ATOM     14  C   UNL A   1      40.615  28.828  30.861  1.00  0.00     0.031 A 
ATOM     15  C   UNL A   1      39.590  29.920  30.832  1.00  0.00     0.074 A 
ATOM     16  C   UNL A   1      41.359  28.593  31.958  1.00  0.00     0.049 A 
ATOM     17  N   UNL A   1      39.337  30.836  31.724  1.00  0.00    -0.248 NA
ATOM     18  C   UNL A   1      38.713  29.969  29.649  1.00  0.00     0.031 C 
ATOM     19  C   UNL A   1      42.281  27.469  32.111  1.00  0.00     0.029 A 
ATOM     20  N   UNL A   1      41.449  29.253  33.152  1.00  0.00    -0.354 N 
ATOM     21  C   UNL A   1      38.277  31.571  31.213  1.00  0.00     0.074 A 
ATOM     22  C   UNL A   1      37.947  31.014  29.922  1.00  0.00     0.031 C 
ATOM     23  C   UNL A   1      42.857  27.521  33.321  1.00  0.00     0.029 A 
ATOM     24  C   UNL A   1      42.374  28.709  34.013  1.00  0.00     0.049 A 
ATOM     25  H   UNL A   1      40.904  30.043  33.374  1.00  0.00     0.167 HD
ATOM     26  C   UNL A   1      37.637  32.617  31.783  1.00  0.00     0.037 A 
ATOM     27  C   UNL A   1      42.801  29.145  35.213  1.00  0.00     0.037 A 
ATOM     28  C   UNL A   1      38.003  33.157  33.065  1.00  0.00     0.049 A 
ATOM     29  C   UNL A   1      42.160  30.387  35.769  1.00  0.00     0.074 A 
ATOM     30  C   UNL A   1      37.479  34.251  33.725  1.00  0.00     0.029 A 
ATOM     31  N   UNL A   1      39.000  32.632  33.880  1.00  0.00    -0.354 N 
ATOM     32  N   UNL A   1      41.190  31.108  35.256  1.00  0.00    -0.248 NA
ATOM     33  C   UNL A   1      42.663  30.879  37.055  1.00  0.00     0.031 C 
ATOM     34  C   UNL A   1      38.189  34.414  34.921  1.00  0.00     0.029 A 
ATOM     35  C   UNL A   1      39.122  33.393  35.028  1.00  0.00     0.049 A 
ATOM     36  H   UNL A   1      39.540  31.836  33.671  1.00  0.00     0.167 HD
ATOM     37  C   UNL A   1      40.947  32.126  36.167  1.00  0.00     0.074 A 
ATOM     38  C   UNL A   1      41.868  31.918  37.270  1.00  0.00     0.031 C 
ATOM     39  C   UNL A   1      40.050  33.142  36.104  1.00  0.00     0.037 A 
BRANCH  26  40
ATOM     40  C   UNL A   1      36.536  33.261  30.991  1.00  0.00     0.058 A 
ATOM     41  C   UNL A   1      36.800  34.055  29.864  1.00  0.00     0.135 A 
ATOM     42  C   UNL A   1      35.199  33.111  31.389  1.00  0.00     0.135 A 
ATOM     43  F   UNL A   1      38.064  34.261  29.462  1.00  0.00    -0.206 F 
ATOM     44  C   UNL A   1      35.778  34.700  29.175  1.00  0.00     0.059 A 
ATOM     45  C   UNL A   1      34.158  33.729  30.701  1.00  0.00     0.059 A 
ATOM     46  F   UNL A   1      34.893  32.375  32.470  1.00  0.00    -0.206 F 
ATOM     47  C   UNL A   1      34.459  34.534  29.605  1.00  0.00     0.060 A 
BRANCH  47  48
ATOM     48  S   UNL A   1      33.145  35.395  28.714  1.00  0.00     0.124 S 
ATOM     49  O   UNL A   1      33.909  36.366  27.935  1.00  0.00    -0.237 OA
ATOM     50  O   UNL A   1      32.529  34.314  27.949  1.00  0.00    -0.237 OA
ATOM     51  O   UNL A   1      32.321  35.954  29.780  1.00  0.00    -0.744 OA
ENDBRANCH  47  48
ENDBRANCH  26  40
BRANCH  27  52
ATOM     52  C   UNL A   1      43.899  28.439  35.929  1.00  0.00     0.058 A 
ATOM     53  C   UNL A   1      43.644  27.361  36.789  1.00  0.00     0.135 A 
ATOM     54  C   UNL A   1      45.238  28.838  35.768  1.00  0.00     0.135 A 
ATOM     55  F   UNL A   1      42.384  26.940  36.978  1.00  0.00    -0.206 F 
ATOM     56  C   UNL A   1      44.668  26.721  37.483  1.00  0.00     0.059 A 
ATOM     57  C   UNL A   1      46.281  28.197  36.430  1.00  0.00     0.059 A 
ATOM     58  F   UNL A   1      45.543  29.853  34.946  1.00  0.00    -0.206 F 
ATOM     59  C   UNL A   1      45.985  27.150  37.299  1.00  0.00     0.060 A 
BRANCH  59  60
ATOM     60  S   UNL A   1      47.307  26.311  38.201  1.00  0.00     0.124 S 
ATOM     61  O   UNL A   1      48.233  25.984  37.122  1.00  0.00    -0.237 OA
ATOM     62  O   UNL A   1      47.750  27.346  39.130  1.00  0.00    -0.237 OA
ATOM     63  O   UNL A   1      46.627  25.175  38.813  1.00  0.00    -0.744 OA
ENDBRANCH  59  60
ENDBRANCH  27  52
BRANCH  39  64
ATOM     64  C   UNL A   1      40.007  34.076  37.275  1.00  0.00     0.058 A 
ATOM     65  C   UNL A   1      40.768  35.253  37.301  1.00  0.00     0.135 A 
ATOM     66  C   UNL A   1      39.150  33.815  38.356  1.00  0.00     0.135 A 
ATOM     67  F   UNL A   1      41.608  35.539  36.293  1.00  0.00    -0.206 F 
ATOM     68  C   UNL A   1      40.696  36.135  38.372  1.00  0.00     0.059 A 
ATOM     69  C   UNL A   1      39.042  34.696  39.423  1.00  0.00     0.059 A 
ATOM     70  F   UNL A   1      38.395  32.705  38.367  1.00  0.00    -0.206 F 
ATOM     71  C   UNL A   1      39.827  35.849  39.427  1.00  0.00     0.060 A 
BRANCH  71  72
ATOM     72  S   UNL A   1      39.708  37.022  40.792  1.00  0.00     0.124 S 
ATOM     73  O   UNL A   1      39.016  38.138  40.158  1.00  0.00    -0.237 OA
ATOM     74  O   UNL A   1      38.936  36.275  41.780  1.00  0.00    -0.237 OA
ATOM     75  O   UNL A   1      41.102  37.266  41.150  1.00  0.00    -0.744 OA
ENDBRANCH  71  72
ENDBRANCH  39  64
ENDBRANCH  13  14
ENDBRANCH   6   8
ENDBRANCH   5   6
ENDBRANCH   4   5
ENDBRANCH   3   4
ENDBRANCH   2   3
ENDBRANCH   1   2
BRANCH   1  76
ATOM     76  C   UNL A   1      36.129  21.699  25.441  1.00  0.00     0.188 C 
BRANCH  76  77
ATOM     77  O   UNL A   1      35.967  22.914  26.171  1.00  0.00    -0.376 OA
BRANCH  77  78
ATOM     78  C   UNL A   1      34.642  23.374  26.408  1.00  0.00     0.202 C 
BRANCH  78  79
ATOM     79  C   UNL A   1      33.620  22.447  27.096  1.00  0.00     0.261 C 
BRANCH  79  80
ATOM     80  O   UNL A   1      32.347  22.276  26.461  1.00  0.00    -0.462 OA
BRANCH  80  81
ATOM     81  C   UNL A   1      31.664  23.445  26.308  1.00  0.00     0.329 C 
ATOM     82  O   UNL A   1      31.426  24.203  27.245  1.00  0.00    -0.250 OA
BRANCH  81  83
ATOM     83  C   UNL A   1      31.167  23.682  24.865  1.00  0.00     0.206 C 
ATOM     84  C   UNL A   1      31.655  22.685  23.823  1.00  0.00     0.108 C 
ATOM     85  N   UNL A   1      31.634  25.010  24.458  1.00  0.00    -0.315 N 
ATOM     86  S   UNL A   1      33.156  23.373  23.076  1.00  0.00    -0.138 SA
ATOM     87  C   UNL A   1      32.876  25.030  23.718  1.00  0.00     0.191 C 
BRANCH  85  88
ATOM     88  C   UNL A   1      31.023  26.123  25.007  1.00  0.00     0.255 C 
ATOM     89  O   UNL A   1      29.816  26.233  25.185  1.00  0.00    -0.269 OA
BRANCH  88  90
ATOM     90  C   UNL A   1      31.915  27.170  25.528  1.00  0.00     0.041 A 
ATOM     91  C   UNL A   1      33.212  26.853  25.924  1.00  0.00     0.014 A 
ATOM     92  C   UNL A   1      31.411  28.471  25.644  1.00  0.00     0.034 A 
ATOM     93  C   UNL A   1      34.014  27.854  26.471  1.00  0.00     0.002 A 
ATOM     94  C   UNL A   1      32.220  29.459  26.190  1.00  0.00     0.041 A 
ATOM     95  C   UNL A   1      33.517  29.156  26.608  1.00  0.00     0.020 A 
ATOM     96  Cl  UNL A   1      31.616  31.060  26.367  1.00  0.00    -0.084 Cl
ENDBRANCH  88  90
ENDBRANCH  85  88
ENDBRANCH  81  83
ENDBRANCH  80  81
ENDBRANCH  79  80
ENDBRANCH  78  79
ENDBRANCH  77  78
ENDBRANCH  76  77
ENDBRANCH   1  76
TORSDOF 22
ENDMDL
MODEL 3
REMARK VINA RESULT:      -9.3      5.425      8.843
REMARK SMILES O=C(OCCOCCOCCOC(=O)[C@@H]1CSCN1C(=O)c1cccc(Cl)c1)c1ccc(-c2c3nc(c(-c4c(F)cc(S(=O)(=O)[O-])cc4F)c4ccc([nH]4)c(-c4c(F)cc(S(=O)(=O)[O-])cc4F)c4nc(c(-c5c(F)cc(S(=O)(=O)[O-])cc5F)c5ccc2[nH]5)C=C4)C=C3)cc1
REMARK SMILES IDX 7 1 6 2 5 3 4 4 3 5 2 6 1 7 29 8 30 9 94 10 31 11 93 12
REMARK SMILES IDX 32 13 33 14 34 15 87 16 35 17 92 18 86 19 88 20 36 21 91 22
REMARK SMILES IDX 85 23 84 24 37 26 71 27 50 28 70 29 51 30 54 31 69 32 89 33
REMARK SMILES IDX 52 34 53 35 68 37 90 38 55 39 38 40 39 41 48 42 40 43 41 44
REMARK SMILES IDX 47 45 49 46 42 47 43 48 44 49 45 50 46 51 72 52 73 53 82 54
REMARK SMILES IDX 74 55 75 56 81 57 83 58 76 59 77 60 78 61 79 62 80 63 56 64
REMARK SMILES IDX 57 65 66 66 58 67 59 68 65 69 67 70 60 71 61 72 62 73 63 74
REMARK SMILES IDX 64 75 8 76 9 77 10 78 11 79 12 80 13 81 14 82 15 83 16 84
REMARK SMILES IDX 19 85 17 86 18 87 20 88 21 89 22 90 23 91 28 92 24 93 26 94
REMARK SMILES IDX 25 95 27 96
REMARK H PARENT 88 25 54 36
REMARK Flexibility Score: inf
ROOT
ATOM      1  C   UNL A   1      43.108  20.632  25.841  1.00  0.00     0.188 C 
ENDROOT
BRANCH   1   2
ATOM      2  O   UNL A   1      41.849  21.171  25.420  1.00  0.00    -0.376 OA
BRANCH   2   3
ATOM      3  C   UNL A   1      40.799  20.991  26.375  1.00  0.00     0.202 C 
BRANCH   3   4
ATOM      4  C   UNL A   1      40.579  22.176  27.325  1.00  0.00     0.261 C 
BRANCH   4   5
ATOM      5  O   UNL A   1      40.663  23.444  26.657  1.00  0.00    -0.460 OA
BRANCH   5   6
ATOM      6  C   UNL A   1      41.565  24.439  26.859  1.00  0.00     0.338 C 
ATOM      7  O   UNL A   1      42.623  24.399  26.231  1.00  0.00    -0.246 OA
BRANCH   6   8
ATOM      8  C   UNL A   1      41.341  25.597  27.786  1.00  0.00     0.060 A 
ATOM      9  C   UNL A   1      42.211  26.674  27.954  1.00  0.00     0.016 A 
ATOM     10  C   UNL A   1      40.136  25.616  28.511  1.00  0.00     0.016 A 
ATOM     11  C   UNL A   1      41.965  27.672  28.888  1.00  0.00     0.010 A 
ATOM     12  C   UNL A   1      39.850  26.647  29.414  1.00  0.00     0.010 A 
ATOM     13  C   UNL A   1      40.791  27.659  29.633  1.00  0.00    -0.014 A 
BRANCH  13  14
ATOM     14  C   UNL A   1      40.647  28.648  30.719  1.00  0.00     0.031 A 
ATOM     15  C   UNL A   1      41.618  28.595  31.858  1.00  0.00     0.074 A 
ATOM     16  C   UNL A   1      39.754  29.649  30.605  1.00  0.00     0.049 A 
ATOM     17  N   UNL A   1      41.692  29.357  32.913  1.00  0.00    -0.248 NA
ATOM     18  C   UNL A   1      42.664  27.560  31.785  1.00  0.00     0.031 C 
ATOM     19  C   UNL A   1      38.866  29.843  29.459  1.00  0.00     0.029 A 
ATOM     20  N   UNL A   1      39.454  30.697  31.431  1.00  0.00    -0.354 N 
ATOM     21  C   UNL A   1      42.787  28.895  33.630  1.00  0.00     0.074 A 
ATOM     22  C   UNL A   1      43.335  27.771  32.906  1.00  0.00     0.031 C 
ATOM     23  C   UNL A   1      38.110  30.933  29.656  1.00  0.00     0.029 A 
ATOM     24  C   UNL A   1      38.431  31.490  30.964  1.00  0.00     0.049 A 
ATOM     25  H   UNL A   1      39.925  30.866  32.279  1.00  0.00     0.167 HD
ATOM     26  C   UNL A   1      43.287  29.378  34.789  1.00  0.00     0.037 A 
ATOM     27  C   UNL A   1      37.807  32.530  31.548  1.00  0.00     0.037 A 
ATOM     28  C   UNL A   1      42.707  30.490  35.492  1.00  0.00     0.049 A 
ATOM     29  C   UNL A   1      38.302  32.967  32.899  1.00  0.00     0.074 A 
ATOM     30  C   UNL A   1      43.078  31.036  36.705  1.00  0.00     0.029 A 
ATOM     31  N   UNL A   1      41.619  31.225  35.032  1.00  0.00    -0.354 N 
ATOM     32  N   UNL A   1      39.310  32.493  33.596  1.00  0.00    -0.248 NA
ATOM     33  C   UNL A   1      37.588  34.073  33.545  1.00  0.00     0.031 C 
ATOM     34  C   UNL A   1      42.186  32.075  37.001  1.00  0.00     0.029 A 
ATOM     35  C   UNL A   1      41.291  32.207  35.949  1.00  0.00     0.049 A 
ATOM     36  H   UNL A   1      41.152  31.069  34.181  1.00  0.00     0.167 HD
ATOM     37  C   UNL A   1      39.367  33.256  34.753  1.00  0.00     0.074 A 
ATOM     38  C   UNL A   1      38.297  34.232  34.655  1.00  0.00     0.031 C 
ATOM     39  C   UNL A   1      40.220  33.162  35.804  1.00  0.00     0.037 A 
BRANCH  26  40
ATOM     40  C   UNL A   1      44.470  28.662  35.376  1.00  0.00     0.058 A 
ATOM     41  C   UNL A   1      44.319  27.598  36.280  1.00  0.00     0.135 A 
ATOM     42  C   UNL A   1      45.773  29.071  35.058  1.00  0.00     0.135 A 
ATOM     43  F   UNL A   1      43.094  27.191  36.647  1.00  0.00    -0.206 F 
ATOM     44  C   UNL A   1      45.420  26.983  36.869  1.00  0.00     0.059 A 
ATOM     45  C   UNL A   1      46.890  28.456  35.617  1.00  0.00     0.059 A 
ATOM     46  F   UNL A   1      45.973  30.095  34.212  1.00  0.00    -0.206 F 
ATOM     47  C   UNL A   1      46.702  27.423  36.534  1.00  0.00     0.060 A 
BRANCH  47  48
ATOM     48  S   UNL A   1      48.121  26.630  37.321  1.00  0.00     0.124 S 
ATOM     49  O   UNL A   1      49.023  27.764  37.503  1.00  0.00    -0.237 OA
ATOM     50  O   UNL A   1      47.535  26.085  38.542  1.00  0.00    -0.237 OA
ATOM     51  O   UNL A   1      48.547  25.641  36.337  1.00  0.00    -0.744 OA
ENDBRANCH  47  48
ENDBRANCH  26  40
BRANCH  27  52
ATOM     52  C   UNL A   1      36.642  33.181  30.889  1.00  0.00     0.058 A 
ATOM     53  C   UNL A   1      36.791  33.955  29.728  1.00  0.00     0.135 A 
ATOM     54  C   UNL A   1      35.346  33.046  31.416  1.00  0.00     0.135 A 
ATOM     55  F   UNL A   1      38.006  34.118  29.183  1.00  0.00    -0.206 F 
ATOM     56  C   UNL A   1      35.706  34.591  29.129  1.00  0.00     0.059 A 
ATOM     57  C   UNL A   1      34.242  33.650  30.820  1.00  0.00     0.059 A 
ATOM     58  F   UNL A   1      35.141  32.304  32.515  1.00  0.00    -0.206 F 
ATOM     59  C   UNL A   1      34.434  34.435  29.686  1.00  0.00     0.060 A 
BRANCH  59  60
ATOM     60  S   UNL A   1      33.032  35.260  28.900  1.00  0.00     0.124 S 
ATOM     61  O   UNL A   1      32.631  34.270  27.907  1.00  0.00    -0.237 OA
ATOM     62  O   UNL A   1      32.117  35.446  30.022  1.00  0.00    -0.237 OA
ATOM     63  O   UNL A   1      33.621  36.484  28.366  1.00  0.00    -0.744 OA
ENDBRANCH  59  60
ENDBRANCH  27  52
BRANCH  39  64
ATOM     64  C   UNL A   1      40.043  34.163  36.905  1.00  0.00     0.058 A 
ATOM     65  C   UNL A   1      40.577  35.457  36.813  1.00  0.00     0.135 A 
ATOM     66  C   UNL A   1      39.281  33.838  38.039  1.00  0.00     0.135 A 
ATOM     67  F   UNL A   1      41.319  35.809  35.751  1.00  0.00    -0.206 F 
ATOM     68  C   UNL A   1      40.377  36.393  37.820  1.00  0.00     0.059 A 
ATOM     69  C   UNL A   1      39.047  34.766  39.044  1.00  0.00     0.059 A 
ATOM     70  F   UNL A   1      38.742  32.615  38.164  1.00  0.00    -0.206 F 
ATOM     71  C   UNL A   1      39.608  36.038  38.930  1.00  0.00     0.060 A 
BRANCH  71  72
ATOM     72  S   UNL A   1      39.318  37.275  40.211  1.00  0.00     0.124 S 
ATOM     73  O   UNL A   1      40.675  37.735  40.485  1.00  0.00    -0.237 OA
ATOM     74  O   UNL A   1      38.448  38.230  39.533  1.00  0.00    -0.237 OA
ATOM     75  O   UNL A   1      38.685  36.511  41.282  1.00  0.00    -0.744 OA
ENDBRANCH  71  72
ENDBRANCH  39  64
ENDBRANCH  13  14
ENDBRANCH   6   8
ENDBRANCH   5   6
ENDBRANCH   4   5
ENDBRANCH   3   4
ENDBRANCH   2   3
ENDBRANCH   1   2
BRANCH   1  76
ATOM     76  C   UNL A   1      44.262  21.519  25.381  1.00  0.00     0.188 C 
BRANCH  76  77
ATOM     77  O   UNL A   1      44.904  22.304  26.383  1.00  0.00    -0.376 OA
BRANCH  77  78
ATOM     78  C   UNL A   1      46.093  22.997  26.023  1.00  0.00     0.202 C 
BRANCH  78  79
ATOM     79  C   UNL A   1      46.141  23.807  24.712  1.00  0.00     0.261 C 
BRANCH  79  80
ATOM     80  O   UNL A   1      45.484  25.082  24.695  1.00  0.00    -0.462 OA
BRANCH  80  81
ATOM     81  C   UNL A   1      46.260  26.089  25.184  1.00  0.00     0.329 C 
ATOM     82  O   UNL A   1      47.371  26.353  24.729  1.00  0.00    -0.250 OA
BRANCH  81  83
ATOM     83  C   UNL A   1      45.636  26.813  26.397  1.00  0.00     0.206 C 
ATOM     84  C   UNL A   1      45.084  28.205  26.127  1.00  0.00     0.108 C 
ATOM     85  N   UNL A   1      46.686  26.942  27.412  1.00  0.00    -0.315 N 
ATOM     86  S   UNL A   1      46.401  29.393  26.505  1.00  0.00    -0.138 SA
ATOM     87  C   UNL A   1      47.401  28.198  27.405  1.00  0.00     0.191 C 
BRANCH  85  88
ATOM     88  C   UNL A   1      47.080  25.812  28.103  1.00  0.00     0.255 C 
ATOM     89  O   UNL A   1      48.133  25.214  27.911  1.00  0.00    -0.269 OA
BRANCH  88  90
ATOM     90  C   UNL A   1      46.228  25.402  29.230  1.00  0.00     0.041 A 
ATOM     91  C   UNL A   1      46.545  25.795  30.528  1.00  0.00     0.014 A 
ATOM     92  C   UNL A   1      45.123  24.585  28.962  1.00  0.00     0.034 A 
ATOM     93  C   UNL A   1      45.754  25.340  31.582  1.00  0.00     0.002 A 
ATOM     94  C   UNL A   1      44.343  24.140  30.020  1.00  0.00     0.041 A 
ATOM     95  C   UNL A   1      44.656  24.510  31.330  1.00  0.00     0.020 A 
ATOM     96  Cl  UNL A   1      42.994  23.115  29.719  1.00  0.00    -0.084 Cl
ENDBRANCH  88  90
ENDBRANCH  85  88
ENDBRANCH  81  83
ENDBRANCH  80  81
ENDBRANCH  79  80
ENDBRANCH  78  79
ENDBRANCH  77  78
ENDBRANCH  76  77
ENDBRANCH   1  76
TORSDOF 22
ENDMDL
