MODEL 1
REMARK VINA RESULT:      -9.9      0.000      0.000
REMARK SMILES O=C(CCCN1C(=O)C(=O)/C(=C(/[O-])c2ccccc2)[C@@H]1/C=C\c1ccccc1)OCCOCCOCCOC(=O)c1ccc(-c2c3nc(c(-c4c(F)cc(S(=O)(=O)[O-])cc4F)c4ccc([nH]4)c(-c4c(F)cc(S(=O)(=O)[O-])cc4F)c4nc(c(-c5c(F)cc(S(=O)(=O)[O-])cc5F)c5ccc2[nH]5)C=C4)C=C3)cc1
REMARK SMILES IDX 33 1 32 2 31 3 30 4 29 5 2 6 1 7 3 8 4 9 5 10 6 11 7 12
REMARK SMILES IDX 20 13 8 14 9 15 11 16 10 17 12 18 13 19 21 20 22 21 23 22
REMARK SMILES IDX 24 23 28 24 25 25 27 26 26 27 14 28 15 29 19 30 16 31 18 32
REMARK SMILES IDX 17 33 34 34 35 35 36 36 37 37 38 38 39 39 40 40 41 41 42 42
REMARK SMILES IDX 106 43 43 44 105 45 44 46 45 47 46 48 99 49 47 50 104 51
REMARK SMILES IDX 98 52 100 53 48 54 103 55 97 56 96 57 49 59 83 60 62 61
REMARK SMILES IDX 82 62 63 63 66 64 81 65 101 66 64 67 65 68 80 70 102 71
REMARK SMILES IDX 67 72 50 73 51 74 60 75 52 76 53 77 59 78 61 79 54 80 55 81
REMARK SMILES IDX 56 82 57 83 58 84 84 85 85 86 94 87 86 88 87 89 93 90 95 91
REMARK SMILES IDX 88 92 89 93 90 94 91 95 92 96 68 97 69 98 78 99 70 100
REMARK SMILES IDX 71 101 77 102 79 103 72 104 73 105 74 106 75 107 76 108
REMARK H PARENT 100 58 66 69
REMARK Flexibility Score: inf
ROOT
ATOM      1  C   UNL A   1      40.276  25.416  26.695  1.00  0.00     0.188 C 
ENDROOT
BRANCH   1   2
ATOM      2  O   UNL A   1      39.992  23.904  27.028  1.00  0.00    -0.376 OA
BRANCH   2   3
ATOM      3  C   UNL A   1      40.670  22.746  27.696  1.00  0.00     0.202 C 
BRANCH   3   4
ATOM      4  C   UNL A   1      40.408  21.312  27.193  1.00  0.00     0.261 C 
BRANCH   4   5
ATOM      5  O   UNL A   1      39.658  21.289  26.005  1.00  0.00    -0.463 OA
BRANCH   5   6
ATOM      6  C   UNL A   1      39.508  19.996  25.643  1.00  0.00     0.305 C 
ATOM      7  O   UNL A   1      40.391  19.155  25.752  1.00  0.00    -0.252 OA
BRANCH   6   8
ATOM      8  C   UNL A   1      38.168  19.764  25.001  1.00  0.00     0.124 C 
BRANCH   8   9
ATOM      9  C   UNL A   1      37.252  20.984  24.724  1.00  0.00     0.033 C 
BRANCH   9  10
ATOM     10  C   UNL A   1      36.250  21.685  25.737  1.00  0.00     0.121 C 
BRANCH  10  11
ATOM     11  N   UNL A   1      35.180  22.650  25.252  1.00  0.00    -0.325 N 
ATOM     12  C   UNL A   1      35.578  23.973  25.491  1.00  0.00     0.295 C 
ATOM     13  C   UNL A   1      34.001  22.650  24.122  1.00  0.00     0.143 C 
ATOM     14  O   UNL A   1      36.640  24.403  25.887  1.00  0.00    -0.265 OA
ATOM     15  C   UNL A   1      34.463  24.885  25.104  1.00  0.00     0.248 C 
ATOM     16  C   UNL A   1      33.515  24.154  24.207  1.00  0.00     0.024 C 
ATOM     17  O   UNL A   1      34.400  26.007  25.553  1.00  0.00    -0.283 OA
ATOM     18  C   UNL A   1      32.530  24.890  23.655  1.00  0.00    -0.092 C 
ATOM     19  O   UNL A   1      31.614  24.326  22.800  1.00  0.00    -0.872 OA
BRANCH  13  20
ATOM     20  C   UNL A   1      32.782  21.432  23.702  1.00  0.00     0.003 C 
ATOM     21  C   UNL A   1      32.373  20.041  23.591  1.00  0.00     0.006 C 
BRANCH  21  22
ATOM     22  C   UNL A   1      32.719  18.369  23.920  1.00  0.00    -0.026 A 
ATOM     23  C   UNL A   1      33.403  17.367  23.145  1.00  0.00     0.008 A 
ATOM     24  C   UNL A   1      32.521  17.903  25.233  1.00  0.00     0.008 A 
ATOM     25  C   UNL A   1      34.040  16.204  23.621  1.00  0.00     0.001 A 
ATOM     26  C   UNL A   1      33.101  16.686  25.723  1.00  0.00     0.001 A 
ATOM     27  C   UNL A   1      33.915  15.872  24.939  1.00  0.00     0.000 A 
ENDBRANCH  21  22
ENDBRANCH  13  20
BRANCH  18  28
ATOM     28  C   UNL A   1      32.379  26.379  23.777  1.00  0.00    -0.033 A 
ATOM     29  C   UNL A   1      33.093  27.273  22.965  1.00  0.00     0.007 A 
ATOM     30  C   UNL A   1      31.501  26.917  24.737  1.00  0.00     0.007 A 
ATOM     31  C   UNL A   1      32.940  28.662  23.118  1.00  0.00     0.001 A 
ATOM     32  C   UNL A   1      31.341  28.300  24.881  1.00  0.00     0.001 A 
ATOM     33  C   UNL A   1      32.068  29.174  24.077  1.00  0.00     0.000 A 
ENDBRANCH  18  28
ENDBRANCH  10  11
ENDBRANCH   9  10
ENDBRANCH   8   9
ENDBRANCH   6   8
ENDBRANCH   5   6
ENDBRANCH   4   5
ENDBRANCH   3   4
ENDBRANCH   2   3
ENDBRANCH   1   2
BRANCH   1  34
ATOM     34  C   UNL A   1      40.104  26.975  27.459  1.00  0.00     0.188 C 
BRANCH  34  35
ATOM     35  O   UNL A   1      39.326  27.513  28.565  1.00  0.00    -0.376 OA
BRANCH  35  36
ATOM     36  C   UNL A   1      38.937  28.877  28.799  1.00  0.00     0.202 C 
BRANCH  36  37
ATOM     37  C   UNL A   1      38.953  29.469  30.211  1.00  0.00     0.261 C 
BRANCH  37  38
ATOM     38  O   UNL A   1      39.163  30.868  30.182  1.00  0.00    -0.460 OA
BRANCH  38  39
ATOM     39  C   UNL A   1      39.827  31.267  31.294  1.00  0.00     0.338 C 
ATOM     40  O   UNL A   1      39.353  31.457  32.402  1.00  0.00    -0.246 OA
BRANCH  39  41
ATOM     41  C   UNL A   1      41.268  31.175  31.029  1.00  0.00     0.060 A 
ATOM     42  C   UNL A   1      41.733  31.833  29.885  1.00  0.00     0.016 A 
ATOM     43  C   UNL A   1      42.144  30.505  31.885  1.00  0.00     0.016 A 
ATOM     44  C   UNL A   1      43.078  31.765  29.545  1.00  0.00     0.010 A 
ATOM     45  C   UNL A   1      43.488  30.399  31.520  1.00  0.00     0.010 A 
ATOM     46  C   UNL A   1      43.940  30.976  30.316  1.00  0.00    -0.014 A 
BRANCH  46  47
ATOM     47  C   UNL A   1      45.165  30.450  29.671  1.00  0.00     0.031 A 
ATOM     48  C   UNL A   1      46.394  31.321  29.751  1.00  0.00     0.074 A 
ATOM     49  C   UNL A   1      45.223  29.248  29.075  1.00  0.00     0.049 A 
ATOM     50  N   UNL A   1      47.576  31.145  29.224  1.00  0.00    -0.248 NA
ATOM     51  C   UNL A   1      46.266  32.561  30.539  1.00  0.00     0.031 C 
ATOM     52  C   UNL A   1      44.133  28.278  29.004  1.00  0.00     0.029 A 
ATOM     53  N   UNL A   1      46.259  28.645  28.407  1.00  0.00    -0.354 N 
ATOM     54  C   UNL A   1      48.324  32.251  29.611  1.00  0.00     0.074 A 
ATOM     55  C   UNL A   1      47.463  33.102  30.397  1.00  0.00     0.031 C 
ATOM     56  C   UNL A   1      44.553  27.209  28.301  1.00  0.00     0.029 A 
ATOM     57  C   UNL A   1      45.925  27.436  27.844  1.00  0.00     0.049 A 
ATOM     58  H   UNL A   1      47.157  29.041  28.336  1.00  0.00     0.167 HD
ATOM     59  C   UNL A   1      49.617  32.535  29.336  1.00  0.00     0.037 A 
ATOM     60  C   UNL A   1      46.637  26.629  27.030  1.00  0.00     0.037 A 
ATOM     61  C   UNL A   1      50.469  31.699  28.536  1.00  0.00     0.049 A 
ATOM     62  C   UNL A   1      48.047  27.019  26.644  1.00  0.00     0.074 A 
ATOM     63  C   UNL A   1      51.792  31.904  28.191  1.00  0.00     0.029 A 
ATOM     64  N   UNL A   1      50.078  30.507  27.945  1.00  0.00    -0.354 N 
ATOM     65  N   UNL A   1      48.750  28.065  27.016  1.00  0.00    -0.248 NA
ATOM     66  C   UNL A   1      48.760  26.120  25.725  1.00  0.00     0.031 C 
ATOM     67  C   UNL A   1      52.183  30.869  27.338  1.00  0.00     0.029 A 
ATOM     68  C   UNL A   1      51.127  29.980  27.211  1.00  0.00     0.049 A 
ATOM     69  H   UNL A   1      49.188  30.097  28.034  1.00  0.00     0.167 HD
ATOM     70  C   UNL A   1      49.995  27.927  26.405  1.00  0.00     0.074 A 
ATOM     71  C   UNL A   1      49.953  26.696  25.646  1.00  0.00     0.031 C 
ATOM     72  C   UNL A   1      51.076  28.745  26.470  1.00  0.00     0.037 A 
BRANCH  59  73
ATOM     73  C   UNL A   1      50.165  33.833  29.859  1.00  0.00     0.058 A 
ATOM     74  C   UNL A   1      50.795  33.926  31.109  1.00  0.00     0.135 A 
ATOM     75  C   UNL A   1      50.063  35.002  29.087  1.00  0.00     0.135 A 
ATOM     76  F   UNL A   1      50.892  32.845  31.900  1.00  0.00    -0.206 F 
ATOM     77  C   UNL A   1      51.283  35.137  31.588  1.00  0.00     0.059 A 
ATOM     78  C   UNL A   1      50.574  36.217  29.531  1.00  0.00     0.059 A 
ATOM     79  F   UNL A   1      49.458  34.972  27.889  1.00  0.00    -0.206 F 
ATOM     80  C   UNL A   1      51.170  36.277  30.789  1.00  0.00     0.060 A 
BRANCH  80  81
ATOM     81  S   UNL A   1      51.817  37.838  31.420  1.00  0.00     0.124 S 
ATOM     82  O   UNL A   1      53.051  37.404  32.067  1.00  0.00    -0.237 OA
ATOM     83  O   UNL A   1      51.983  38.622  30.201  1.00  0.00    -0.237 OA
ATOM     84  O   UNL A   1      50.766  38.302  32.322  1.00  0.00    -0.744 OA
ENDBRANCH  80  81
ENDBRANCH  59  73
BRANCH  60  85
ATOM     85  C   UNL A   1      46.025  25.385  26.484  1.00  0.00     0.058 A 
ATOM     86  C   UNL A   1      46.182  24.150  27.130  1.00  0.00     0.135 A 
ATOM     87  C   UNL A   1      45.293  25.404  25.285  1.00  0.00     0.135 A 
ATOM     88  F   UNL A   1      46.892  24.072  28.266  1.00  0.00    -0.206 F 
ATOM     89  C   UNL A   1      45.650  22.976  26.603  1.00  0.00     0.059 A 
ATOM     90  C   UNL A   1      44.725  24.249  24.754  1.00  0.00     0.059 A 
ATOM     91  F   UNL A   1      45.113  26.557  24.625  1.00  0.00    -0.206 F 
ATOM     92  C   UNL A   1      44.918  23.038  25.415  1.00  0.00     0.060 A 
BRANCH  92  93
ATOM     93  S   UNL A   1      44.187  21.517  24.768  1.00  0.00     0.124 S 
ATOM     94  O   UNL A   1      42.770  21.736  25.031  1.00  0.00    -0.237 OA
ATOM     95  O   UNL A   1      44.591  21.558  23.366  1.00  0.00    -0.237 OA
ATOM     96  O   UNL A   1      44.823  20.473  25.565  1.00  0.00    -0.744 OA
ENDBRANCH  92  93
ENDBRANCH  60  85
BRANCH  72  97
ATOM     97  C   UNL A   1      52.329  28.321  25.746  1.00  0.00     0.058 A 
ATOM     98  C   UNL A   1      52.570  28.668  24.408  1.00  0.00     0.135 A 
ATOM     99  C   UNL A   1      53.339  27.623  26.431  1.00  0.00     0.135 A 
ATOM    100  F   UNL A   1      51.641  29.334  23.703  1.00  0.00    -0.206 F 
ATOM    101  C   UNL A   1      53.756  28.319  23.767  1.00  0.00     0.059 A 
ATOM    102  C   UNL A   1      54.546  27.293  25.821  1.00  0.00     0.059 A 
ATOM    103  F   UNL A   1      53.170  27.279  27.717  1.00  0.00    -0.206 F 
ATOM    104  C   UNL A   1      54.740  27.635  24.484  1.00  0.00     0.060 A 
BRANCH 104 105
ATOM    105  S   UNL A   1      56.290  27.225  23.654  1.00  0.00     0.124 S 
ATOM    106  O   UNL A   1      57.140  28.344  24.047  1.00  0.00    -0.237 OA
ATOM    107  O   UNL A   1      56.628  25.934  24.246  1.00  0.00    -0.237 OA
ATOM    108  O   UNL A   1      55.922  27.183  22.243  1.00  0.00    -0.744 OA
ENDBRANCH 104 105
ENDBRANCH  72  97
ENDBRANCH  46  47
ENDBRANCH  39  41
ENDBRANCH  38  39
ENDBRANCH  37  38
ENDBRANCH  36  37
ENDBRANCH  35  36
ENDBRANCH  34  35
ENDBRANCH   1  34
TORSDOF 26
ENDMDL
MODEL 2
REMARK VINA RESULT:      -9.8      5.815     10.026
REMARK SMILES O=C(CCCN1C(=O)C(=O)/C(=C(/[O-])c2ccccc2)[C@@H]1/C=C\c1ccccc1)OCCOCCOCCOC(=O)c1ccc(-c2c3nc(c(-c4c(F)cc(S(=O)(=O)[O-])cc4F)c4ccc([nH]4)c(-c4c(F)cc(S(=O)(=O)[O-])cc4F)c4nc(c(-c5c(F)cc(S(=O)(=O)[O-])cc5F)c5ccc2[nH]5)C=C4)C=C3)cc1
REMARK SMILES IDX 33 1 32 2 31 3 30 4 29 5 2 6 1 7 3 8 4 9 5 10 6 11 7 12
REMARK SMILES IDX 20 13 8 14 9 15 11 16 10 17 12 18 13 19 21 20 22 21 23 22
REMARK SMILES IDX 24 23 28 24 25 25 27 26 26 27 14 28 15 29 19 30 16 31 18 32
REMARK SMILES IDX 17 33 34 34 35 35 36 36 37 37 38 38 39 39 40 40 41 41 42 42
REMARK SMILES IDX 106 43 43 44 105 45 44 46 45 47 46 48 99 49 47 50 104 51
REMARK SMILES IDX 98 52 100 53 48 54 103 55 97 56 96 57 49 59 83 60 62 61
REMARK SMILES IDX 82 62 63 63 66 64 81 65 101 66 64 67 65 68 80 70 102 71
REMARK SMILES IDX 67 72 50 73 51 74 60 75 52 76 53 77 59 78 61 79 54 80 55 81
REMARK SMILES IDX 56 82 57 83 58 84 84 85 85 86 94 87 86 88 87 89 93 90 95 91
REMARK SMILES IDX 88 92 89 93 90 94 91 95 92 96 68 97 69 98 78 99 70 100
REMARK SMILES IDX 71 101 77 102 79 103 72 104 73 105 74 106 75 107 76 108
REMARK H PARENT 100 58 66 69
REMARK Flexibility Score: inf
ROOT
ATOM      1  C   UNL A   1      37.989  33.900  34.316  1.00  0.00     0.188 C 
ENDROOT
BRANCH   1   2
ATOM      2  O   UNL A   1      36.451  33.825  33.991  1.00  0.00    -0.376 OA
BRANCH   2   3
ATOM      3  C   UNL A   1      35.261  34.734  33.930  1.00  0.00     0.202 C 
BRANCH   3   4
ATOM      4  C   UNL A   1      34.168  34.495  32.870  1.00  0.00     0.261 C 
BRANCH   4   5
ATOM      5  O   UNL A   1      34.075  35.551  31.947  1.00  0.00    -0.463 OA
BRANCH   5   6
ATOM      6  C   UNL A   1      32.771  35.705  31.631  1.00  0.00     0.305 C 
ATOM      7  O   UNL A   1      31.856  35.515  32.424  1.00  0.00    -0.252 OA
BRANCH   6   8
ATOM      8  C   UNL A   1      32.599  36.029  30.174  1.00  0.00     0.124 C 
BRANCH   8   9
ATOM      9  C   UNL A   1      32.998  34.964  29.120  1.00  0.00     0.033 C 
BRANCH   9  10
ATOM     10  C   UNL A   1      34.408  34.792  28.411  1.00  0.00     0.121 C 
BRANCH  10  11
ATOM     11  N   UNL A   1      35.089  33.435  28.322  1.00  0.00    -0.325 N 
ATOM     12  C   UNL A   1      36.344  33.483  28.948  1.00  0.00     0.295 C 
ATOM     13  C   UNL A   1      34.624  31.876  28.191  1.00  0.00     0.143 C 
ATOM     14  O   UNL A   1      36.849  34.366  29.606  1.00  0.00    -0.265 OA
ATOM     15  C   UNL A   1      37.027  32.173  28.748  1.00  0.00     0.248 C 
ATOM     16  C   UNL A   1      36.015  31.140  28.362  1.00  0.00     0.024 C 
ATOM     17  O   UNL A   1      38.229  32.082  28.848  1.00  0.00    -0.283 OA
ATOM     18  C   UNL A   1      36.459  29.870  28.287  1.00  0.00    -0.092 C 
ATOM     19  O   UNL A   1      35.611  28.838  27.961  1.00  0.00    -0.872 OA
BRANCH  13  20
ATOM     20  C   UNL A   1      33.424  31.097  27.143  1.00  0.00     0.003 C 
ATOM     21  C   UNL A   1      33.072  30.080  26.165  1.00  0.00     0.006 C 
BRANCH  21  22
ATOM     22  C   UNL A   1      33.537  28.653  25.286  1.00  0.00    -0.026 A 
ATOM     23  C   UNL A   1      33.647  27.277  25.693  1.00  0.00     0.008 A 
ATOM     24  C   UNL A   1      33.621  28.744  23.885  1.00  0.00     0.008 A 
ATOM     25  C   UNL A   1      33.581  26.133  24.872  1.00  0.00     0.001 A 
ATOM     26  C   UNL A   1      33.625  27.593  23.028  1.00  0.00     0.001 A 
ATOM     27  C   UNL A   1      33.537  26.292  23.518  1.00  0.00     0.000 A 
ENDBRANCH  21  22
ENDBRANCH  13  20
BRANCH  18  28
ATOM     28  C   UNL A   1      37.834  29.401  28.664  1.00  0.00    -0.033 A 
ATOM     29  C   UNL A   1      38.882  29.330  27.734  1.00  0.00     0.007 A 
ATOM     30  C   UNL A   1      38.100  29.007  29.990  1.00  0.00     0.007 A 
ATOM     31  C   UNL A   1      40.154  28.870  28.118  1.00  0.00     0.001 A 
ATOM     32  C   UNL A   1      39.370  28.559  30.373  1.00  0.00     0.001 A 
ATOM     33  C   UNL A   1      40.396  28.481  29.435  1.00  0.00     0.000 A 
ENDBRANCH  18  28
ENDBRANCH  10  11
ENDBRANCH   9  10
ENDBRANCH   8   9
ENDBRANCH   6   8
ENDBRANCH   5   6
ENDBRANCH   4   5
ENDBRANCH   3   4
ENDBRANCH   2   3
ENDBRANCH   1   2
BRANCH   1  34
ATOM     34  C   UNL A   1      39.034  33.814  35.711  1.00  0.00     0.188 C 
BRANCH  34  35
ATOM     35  O   UNL A   1      39.944  34.726  36.389  1.00  0.00    -0.376 OA
BRANCH  35  36
ATOM     36  C   UNL A   1      41.352  34.908  36.165  1.00  0.00     0.202 C 
BRANCH  36  37
ATOM     37  C   UNL A   1      42.247  35.522  37.245  1.00  0.00     0.261 C 
BRANCH  37  38
ATOM     38  O   UNL A   1      42.205  34.767  38.441  1.00  0.00    -0.460 OA
BRANCH  38  39
ATOM     39  C   UNL A   1      43.453  34.367  38.788  1.00  0.00     0.338 C 
ATOM     40  O   UNL A   1      44.145  34.820  39.685  1.00  0.00    -0.246 OA
BRANCH  39  41
ATOM     41  C   UNL A   1      43.744  33.108  38.091  1.00  0.00     0.060 A 
ATOM     42  C   UNL A   1      44.990  33.021  37.459  1.00  0.00     0.016 A 
ATOM     43  C   UNL A   1      42.853  32.033  38.085  1.00  0.00     0.016 A 
ATOM     44  C   UNL A   1      45.327  31.876  36.749  1.00  0.00     0.010 A 
ATOM     45  C   UNL A   1      43.174  30.900  37.335  1.00  0.00     0.010 A 
ATOM     46  C   UNL A   1      44.385  30.850  36.615  1.00  0.00    -0.014 A 
BRANCH  46  47
ATOM     47  C   UNL A   1      44.501  29.947  35.447  1.00  0.00     0.031 A 
ATOM     48  C   UNL A   1      44.252  30.564  34.093  1.00  0.00     0.074 A 
ATOM     49  C   UNL A   1      44.849  28.654  35.550  1.00  0.00     0.049 A 
ATOM     50  N   UNL A   1      44.223  30.003  32.915  1.00  0.00    -0.248 NA
ATOM     51  C   UNL A   1      44.008  32.018  34.073  1.00  0.00     0.031 C 
ATOM     52  C   UNL A   1      45.195  27.960  36.787  1.00  0.00     0.029 A 
ATOM     53  N   UNL A   1      44.959  27.691  34.578  1.00  0.00    -0.354 N 
ATOM     54  C   UNL A   1      43.950  31.031  32.019  1.00  0.00     0.074 A 
ATOM     55  C   UNL A   1      43.803  32.245  32.787  1.00  0.00     0.031 C 
ATOM     56  C   UNL A   1      45.453  26.670  36.500  1.00  0.00     0.029 A 
ATOM     57  C   UNL A   1      45.254  26.441  35.067  1.00  0.00     0.049 A 
ATOM     58  H   UNL A   1      44.837  27.878  33.619  1.00  0.00     0.167 HD
ATOM     59  C   UNL A   1      43.832  30.972  30.674  1.00  0.00     0.037 A 
ATOM     60  C   UNL A   1      45.321  25.252  34.433  1.00  0.00     0.037 A 
ATOM     61  C   UNL A   1      43.957  29.762  29.910  1.00  0.00     0.049 A 
ATOM     62  C   UNL A   1      45.077  25.190  32.942  1.00  0.00     0.074 A 
ATOM     63  C   UNL A   1      43.845  29.595  28.542  1.00  0.00     0.029 A 
ATOM     64  N   UNL A   1      44.209  28.509  30.450  1.00  0.00    -0.354 N 
ATOM     65  N   UNL A   1      44.823  26.167  32.101  1.00  0.00    -0.248 NA
ATOM     66  C   UNL A   1      45.127  23.862  32.313  1.00  0.00     0.031 C 
ATOM     67  C   UNL A   1      43.963  28.232  28.260  1.00  0.00     0.029 A 
ATOM     68  C   UNL A   1      44.224  27.558  29.444  1.00  0.00     0.049 A 
ATOM     69  H   UNL A   1      44.355  28.324  31.405  1.00  0.00     0.167 HD
ATOM     70  C   UNL A   1      44.719  25.574  30.844  1.00  0.00     0.074 A 
ATOM     71  C   UNL A   1      44.944  24.157  31.032  1.00  0.00     0.031 C 
ATOM     72  C   UNL A   1      44.463  26.151  29.643  1.00  0.00     0.037 A 
BRANCH  59  73
ATOM     73  C   UNL A   1      43.494  32.248  29.954  1.00  0.00     0.058 A 
ATOM     74  C   UNL A   1      42.180  32.737  29.882  1.00  0.00     0.135 A 
ATOM     75  C   UNL A   1      44.507  32.996  29.333  1.00  0.00     0.135 A 
ATOM     76  F   UNL A   1      41.169  32.045  30.432  1.00  0.00    -0.206 F 
ATOM     77  C   UNL A   1      41.879  33.910  29.200  1.00  0.00     0.059 A 
ATOM     78  C   UNL A   1      44.234  34.189  28.674  1.00  0.00     0.059 A 
ATOM     79  F   UNL A   1      45.778  32.566  29.361  1.00  0.00    -0.206 F 
ATOM     80  C   UNL A   1      42.915  34.631  28.601  1.00  0.00     0.060 A 
BRANCH  80  81
ATOM     81  S   UNL A   1      42.509  36.156  27.726  1.00  0.00     0.124 S 
ATOM     82  O   UNL A   1      43.799  36.512  27.143  1.00  0.00    -0.237 OA
ATOM     83  O   UNL A   1      41.489  35.711  26.783  1.00  0.00    -0.237 OA
ATOM     84  O   UNL A   1      42.035  37.041  28.786  1.00  0.00    -0.744 OA
ENDBRANCH  80  81
ENDBRANCH  59  73
BRANCH  60  85
ATOM     85  C   UNL A   1      45.594  24.006  35.204  1.00  0.00     0.058 A 
ATOM     86  C   UNL A   1      46.898  23.646  35.572  1.00  0.00     0.135 A 
ATOM     87  C   UNL A   1      44.553  23.133  35.561  1.00  0.00     0.135 A 
ATOM     88  F   UNL A   1      47.932  24.433  35.235  1.00  0.00    -0.206 F 
ATOM     89  C   UNL A   1      47.166  22.461  36.254  1.00  0.00     0.059 A 
ATOM     90  C   UNL A   1      44.790  21.959  36.270  1.00  0.00     0.059 A 
ATOM     91  F   UNL A   1      43.286  23.427  35.234  1.00  0.00    -0.206 F 
ATOM     92  C   UNL A   1      46.102  21.626  36.603  1.00  0.00     0.060 A 
BRANCH  92  93
ATOM     93  S   UNL A   1      46.455  20.118  37.533  1.00  0.00     0.124 S 
ATOM     94  O   UNL A   1      46.035  20.495  38.877  1.00  0.00    -0.237 OA
ATOM     95  O   UNL A   1      45.614  19.138  36.853  1.00  0.00    -0.237 OA
ATOM     96  O   UNL A   1      47.891  19.936  37.347  1.00  0.00    -0.744 OA
ENDBRANCH  92  93
ENDBRANCH  60  85
BRANCH  72  97
ATOM     97  C   UNL A   1      44.462  25.270  28.420  1.00  0.00     0.058 A 
ATOM     98  C   UNL A   1      45.603  25.099  27.622  1.00  0.00     0.135 A 
ATOM     99  C   UNL A   1      43.317  24.522  28.089  1.00  0.00     0.135 A 
ATOM    100  F   UNL A   1      46.724  25.787  27.889  1.00  0.00    -0.206 F 
ATOM    101  C   UNL A   1      45.604  24.238  26.527  1.00  0.00     0.059 A 
ATOM    102  C   UNL A   1      43.306  23.631  27.020  1.00  0.00     0.059 A 
ATOM    103  F   UNL A   1      42.201  24.633  28.826  1.00  0.00    -0.206 F 
ATOM    104  C   UNL A   1      44.452  23.505  26.237  1.00  0.00     0.060 A 
BRANCH 104 105
ATOM    105  S   UNL A   1      44.480  22.362  24.840  1.00  0.00     0.124 S 
ATOM    106  O   UNL A   1      45.687  21.589  25.116  1.00  0.00    -0.237 OA
ATOM    107  O   UNL A   1      43.219  21.645  24.998  1.00  0.00    -0.237 OA
ATOM    108  O   UNL A   1      44.552  23.243  23.679  1.00  0.00    -0.744 OA
ENDBRANCH 104 105
ENDBRANCH  72  97
ENDBRANCH  46  47
ENDBRANCH  39  41
ENDBRANCH  38  39
ENDBRANCH  37  38
ENDBRANCH  36  37
ENDBRANCH  35  36
ENDBRANCH  34  35
ENDBRANCH   1  34
TORSDOF 26
ENDMDL
MODEL 3
REMARK VINA RESULT:      -9.7      3.820      5.559
REMARK SMILES O=C(CCCN1C(=O)C(=O)/C(=C(/[O-])c2ccccc2)[C@@H]1/C=C\c1ccccc1)OCCOCCOCCOC(=O)c1ccc(-c2c3nc(c(-c4c(F)cc(S(=O)(=O)[O-])cc4F)c4ccc([nH]4)c(-c4c(F)cc(S(=O)(=O)[O-])cc4F)c4nc(c(-c5c(F)cc(S(=O)(=O)[O-])cc5F)c5ccc2[nH]5)C=C4)C=C3)cc1
REMARK SMILES IDX 33 1 32 2 31 3 30 4 29 5 2 6 1 7 3 8 4 9 5 10 6 11 7 12
REMARK SMILES IDX 20 13 8 14 9 15 11 16 10 17 12 18 13 19 21 20 22 21 23 22
REMARK SMILES IDX 24 23 28 24 25 25 27 26 26 27 14 28 15 29 19 30 16 31 18 32
REMARK SMILES IDX 17 33 34 34 35 35 36 36 37 37 38 38 39 39 40 40 41 41 42 42
REMARK SMILES IDX 106 43 43 44 105 45 44 46 45 47 46 48 99 49 47 50 104 51
REMARK SMILES IDX 98 52 100 53 48 54 103 55 97 56 96 57 49 59 83 60 62 61
REMARK SMILES IDX 82 62 63 63 66 64 81 65 101 66 64 67 65 68 80 70 102 71
REMARK SMILES IDX 67 72 50 73 51 74 60 75 52 76 53 77 59 78 61 79 54 80 55 81
REMARK SMILES IDX 56 82 57 83 58 84 84 85 85 86 94 87 86 88 87 89 93 90 95 91
REMARK SMILES IDX 88 92 89 93 90 94 91 95 92 96 68 97 69 98 78 99 70 100
REMARK SMILES IDX 71 101 77 102 79 103 72 104 73 105 74 106 75 107 76 108
REMARK H PARENT 100 58 66 69
REMARK Flexibility Score: inf
ROOT
ATOM      1  C   UNL A   1      40.077  25.125  27.266  1.00  0.00     0.188 C 
ENDROOT
BRANCH   1   2
ATOM      2  O   UNL A   1      40.008  23.553  27.289  1.00  0.00    -0.376 OA
BRANCH   2   3
ATOM      3  C   UNL A   1      40.854  22.389  27.710  1.00  0.00     0.202 C 
BRANCH   3   4
ATOM      4  C   UNL A   1      40.760  21.056  26.941  1.00  0.00     0.261 C 
BRANCH   4   5
ATOM      5  O   UNL A   1      39.726  21.058  25.989  1.00  0.00    -0.463 OA
BRANCH   5   6
ATOM      6  C   UNL A   1      39.492  19.775  25.638  1.00  0.00     0.305 C 
ATOM      7  O   UNL A   1      40.320  18.880  25.755  1.00  0.00    -0.252 OA
BRANCH   6   8
ATOM      8  C   UNL A   1      38.140  19.624  24.998  1.00  0.00     0.124 C 
BRANCH   8   9
ATOM      9  C   UNL A   1      37.295  20.896  24.733  1.00  0.00     0.033 C 
BRANCH   9  10
ATOM     10  C   UNL A   1      36.292  21.612  25.735  1.00  0.00     0.121 C 
BRANCH  10  11
ATOM     11  N   UNL A   1      35.212  22.558  25.235  1.00  0.00    -0.325 N 
ATOM     12  C   UNL A   1      35.595  23.889  25.458  1.00  0.00     0.295 C 
ATOM     13  C   UNL A   1      34.038  22.530  24.102  1.00  0.00     0.143 C 
ATOM     14  O   UNL A   1      36.651  24.336  25.852  1.00  0.00    -0.265 OA
ATOM     15  C   UNL A   1      34.472  24.783  25.056  1.00  0.00     0.248 C 
ATOM     16  C   UNL A   1      33.534  24.030  24.166  1.00  0.00     0.024 C 
ATOM     17  O   UNL A   1      34.394  25.910  25.490  1.00  0.00    -0.283 OA
ATOM     18  C   UNL A   1      32.543  24.748  23.602  1.00  0.00    -0.092 C 
ATOM     19  O   UNL A   1      31.636  24.163  22.751  1.00  0.00    -0.872 OA
BRANCH  13  20
ATOM     20  C   UNL A   1      32.834  21.294  23.693  1.00  0.00     0.003 C 
ATOM     21  C   UNL A   1      32.446  19.897  23.582  1.00  0.00     0.006 C 
BRANCH  21  22
ATOM     22  C   UNL A   1      32.825  18.229  23.900  1.00  0.00    -0.026 A 
ATOM     23  C   UNL A   1      33.833  17.360  23.351  1.00  0.00     0.008 A 
ATOM     24  C   UNL A   1      32.234  17.625  25.024  1.00  0.00     0.008 A 
ATOM     25  C   UNL A   1      34.381  16.204  23.943  1.00  0.00     0.001 A 
ATOM     26  C   UNL A   1      32.729  16.410  25.606  1.00  0.00     0.001 A 
ATOM     27  C   UNL A   1      33.842  15.737  25.106  1.00  0.00     0.000 A 
ENDBRANCH  21  22
ENDBRANCH  13  20
BRANCH  18  28
ATOM     28  C   UNL A   1      32.375  26.236  23.703  1.00  0.00    -0.033 A 
ATOM     29  C   UNL A   1      33.140  27.131  22.940  1.00  0.00     0.007 A 
ATOM     30  C   UNL A   1      31.427  26.774  24.596  1.00  0.00     0.007 A 
ATOM     31  C   UNL A   1      32.968  28.519  23.074  1.00  0.00     0.001 A 
ATOM     32  C   UNL A   1      31.249  28.157  24.720  1.00  0.00     0.001 A 
ATOM     33  C   UNL A   1      32.026  29.032  23.965  1.00  0.00     0.000 A 
ENDBRANCH  18  28
ENDBRANCH  10  11
ENDBRANCH   9  10
ENDBRANCH   8   9
ENDBRANCH   6   8
ENDBRANCH   5   6
ENDBRANCH   4   5
ENDBRANCH   3   4
ENDBRANCH   2   3
ENDBRANCH   1   2
BRANCH   1  34
ATOM     34  C   UNL A   1      39.728  26.462  28.332  1.00  0.00     0.188 C 
BRANCH  34  35
ATOM     35  O   UNL A   1      39.038  26.629  29.603  1.00  0.00    -0.376 OA
BRANCH  35  36
ATOM     36  C   UNL A   1      38.479  27.830  30.162  1.00  0.00     0.202 C 
BRANCH  36  37
ATOM     37  C   UNL A   1      38.919  28.336  31.538  1.00  0.00     0.261 C 
BRANCH  37  38
ATOM     38  O   UNL A   1      38.249  29.533  31.886  1.00  0.00    -0.460 OA
BRANCH  38  39
ATOM     39  C   UNL A   1      38.761  30.041  33.034  1.00  0.00     0.338 C 
ATOM     40  O   UNL A   1      38.519  29.672  34.171  1.00  0.00    -0.246 OA
BRANCH  39  41
ATOM     41  C   UNL A   1      39.872  30.935  32.687  1.00  0.00     0.060 A 
ATOM     42  C   UNL A   1      39.767  31.613  31.467  1.00  0.00     0.016 A 
ATOM     43  C   UNL A   1      40.961  31.141  33.537  1.00  0.00     0.016 A 
ATOM     44  C   UNL A   1      40.793  32.451  31.050  1.00  0.00     0.010 A 
ATOM     45  C   UNL A   1      42.012  31.948  33.098  1.00  0.00     0.010 A 
ATOM     46  C   UNL A   1      41.954  32.552  31.826  1.00  0.00    -0.014 A 
BRANCH  46  47
ATOM     47  C   UNL A   1      43.210  32.947  31.149  1.00  0.00     0.031 A 
ATOM     48  C   UNL A   1      43.557  34.415  31.178  1.00  0.00     0.074 A 
ATOM     49  C   UNL A   1      44.040  32.066  30.568  1.00  0.00     0.049 A 
ATOM     50  N   UNL A   1      44.552  35.048  30.617  1.00  0.00    -0.248 NA
ATOM     51  C   UNL A   1      42.652  35.285  31.954  1.00  0.00     0.031 C 
ATOM     52  C   UNL A   1      43.864  30.616  30.543  1.00  0.00     0.029 A 
ATOM     53  N   UNL A   1      45.206  32.278  29.875  1.00  0.00    -0.354 N 
ATOM     54  C   UNL A   1      44.387  36.384  30.965  1.00  0.00     0.074 A 
ATOM     55  C   UNL A   1      43.190  36.477  31.767  1.00  0.00     0.031 C 
ATOM     56  C   UNL A   1      44.875  30.070  29.842  1.00  0.00     0.029 A 
ATOM     57  C   UNL A   1      45.747  31.134  29.339  1.00  0.00     0.049 A 
ATOM     58  H   UNL A   1      45.616  33.167  29.770  1.00  0.00     0.167 HD
ATOM     59  C   UNL A   1      45.164  37.443  30.646  1.00  0.00     0.037 A 
ATOM     60  C   UNL A   1      46.802  30.974  28.513  1.00  0.00     0.037 A 
ATOM     61  C   UNL A   1      46.344  37.355  29.830  1.00  0.00     0.049 A 
ATOM     62  C   UNL A   1      47.595  32.187  28.078  1.00  0.00     0.074 A 
ATOM     63  C   UNL A   1      47.196  38.372  29.441  1.00  0.00     0.029 A 
ATOM     64  N   UNL A   1      46.831  36.185  29.268  1.00  0.00    -0.354 N 
ATOM     65  N   UNL A   1      47.436  33.447  28.414  1.00  0.00    -0.248 NA
ATOM     66  C   UNL A   1      48.711  31.955  27.149  1.00  0.00     0.031 C 
ATOM     67  C   UNL A   1      48.160  37.829  28.590  1.00  0.00     0.029 A 
ATOM     68  C   UNL A   1      47.954  36.460  28.508  1.00  0.00     0.049 A 
ATOM     69  H   UNL A   1      46.436  35.292  29.391  1.00  0.00     0.167 HD
ATOM     70  C   UNL A   1      48.452  34.148  27.766  1.00  0.00     0.074 A 
ATOM     71  C   UNL A   1      49.223  33.173  27.025  1.00  0.00     0.031 C 
ATOM     72  C   UNL A   1      48.723  35.477  27.785  1.00  0.00     0.037 A 
BRANCH  59  73
ATOM     73  C   UNL A   1      44.724  38.795  31.134  1.00  0.00     0.058 A 
ATOM     74  C   UNL A   1      45.227  39.360  32.316  1.00  0.00     0.135 A 
ATOM     75  C   UNL A   1      43.788  39.539  30.398  1.00  0.00     0.135 A 
ATOM     76  F   UNL A   1      46.102  38.678  33.073  1.00  0.00    -0.206 F 
ATOM     77  C   UNL A   1      44.799  40.605  32.764  1.00  0.00     0.059 A 
ATOM     78  C   UNL A   1      43.371  40.800  30.809  1.00  0.00     0.059 A 
ATOM     79  F   UNL A   1      43.265  39.039  29.267  1.00  0.00    -0.206 F 
ATOM     80  C   UNL A   1      43.872  41.318  32.001  1.00  0.00     0.060 A 
BRANCH  80  81
ATOM     81  S   UNL A   1      43.334  42.936  32.592  1.00  0.00     0.124 S 
ATOM     82  O   UNL A   1      42.270  42.569  33.522  1.00  0.00    -0.237 OA
ATOM     83  O   UNL A   1      44.550  43.465  33.199  1.00  0.00    -0.237 OA
ATOM     84  O   UNL A   1      42.896  43.615  31.376  1.00  0.00    -0.744 OA
ENDBRANCH  80  81
ENDBRANCH  59  73
BRANCH  60  85
ATOM     85  C   UNL A   1      47.158  29.620  28.004  1.00  0.00     0.058 A 
ATOM     86  C   UNL A   1      47.931  28.732  28.766  1.00  0.00     0.135 A 
ATOM     87  C   UNL A   1      46.755  29.198  26.726  1.00  0.00     0.135 A 
ATOM     88  F   UNL A   1      48.362  29.095  29.984  1.00  0.00    -0.206 F 
ATOM     89  C   UNL A   1      48.304  27.482  28.279  1.00  0.00     0.059 A 
ATOM     90  C   UNL A   1      47.088  27.942  26.228  1.00  0.00     0.059 A 
ATOM     91  F   UNL A   1      46.015  30.007  25.952  1.00  0.00    -0.206 F 
ATOM     92  C   UNL A   1      47.873  27.095  27.009  1.00  0.00     0.060 A 
BRANCH  92  93
ATOM     93  S   UNL A   1      48.319  25.450  26.408  1.00  0.00     0.124 S 
ATOM     94  O   UNL A   1      49.649  25.687  25.860  1.00  0.00    -0.237 OA
ATOM     95  O   UNL A   1      48.264  24.654  27.630  1.00  0.00    -0.237 OA
ATOM     96  O   UNL A   1      47.276  25.155  25.430  1.00  0.00    -0.744 OA
ENDBRANCH  92  93
ENDBRANCH  60  85
BRANCH  72  97
ATOM     97  C   UNL A   1      49.931  35.965  27.027  1.00  0.00     0.058 A 
ATOM     98  C   UNL A   1      49.868  36.320  25.671  1.00  0.00     0.135 A 
ATOM     99  C   UNL A   1      51.155  36.155  27.694  1.00  0.00     0.135 A 
ATOM    100  F   UNL A   1      48.726  36.160  24.983  1.00  0.00    -0.206 F 
ATOM    101  C   UNL A   1      50.978  36.823  24.997  1.00  0.00     0.059 A 
ATOM    102  C   UNL A   1      52.267  36.687  27.050  1.00  0.00     0.059 A 
ATOM    103  F   UNL A   1      51.269  35.848  28.996  1.00  0.00    -0.206 F 
ATOM    104  C   UNL A   1      52.172  37.007  25.697  1.00  0.00     0.060 A 
BRANCH 104 105
ATOM    105  S   UNL A   1      53.592  37.698  24.822  1.00  0.00     0.124 S 
ATOM    106  O   UNL A   1      53.511  39.107  25.195  1.00  0.00    -0.237 OA
ATOM    107  O   UNL A   1      54.707  36.953  25.399  1.00  0.00    -0.237 OA
ATOM    108  O   UNL A   1      53.307  37.404  23.421  1.00  0.00    -0.744 OA
ENDBRANCH 104 105
ENDBRANCH  72  97
ENDBRANCH  46  47
ENDBRANCH  39  41
ENDBRANCH  38  39
ENDBRANCH  37  38
ENDBRANCH  36  37
ENDBRANCH  35  36
ENDBRANCH  34  35
ENDBRANCH   1  34
TORSDOF 26
ENDMDL
