MODEL 1
REMARK VINA RESULT:      -9.0      0.000      0.000
REMARK SMILES COc1ccc(/C=C2/SC(=S)N(CC(=O)OCCOCCOCCOC(=O)c3ccc(-c4c5nc(c(-c6c(F)cc(S(=O)(=O)[O-])cc6F)c6ccc([nH]6)c(-c6c(F)cc(S(=O)(=O)[O-])cc6F)c6nc(c(-c7c(F)cc(S(=O)(=O)[O-])cc7F)c7ccc4[nH]7)C=C6)C=C5)cc3)C2=O)cc1[N+](=O)[O-]
REMARK SMILES IDX 20 1 19 2 18 3 17 4 16 5 14 6 15 7 13 8 12 9 7 10 8 11 9 12
REMARK SMILES IDX 94 13 10 14 95 15 11 16 6 17 3 18 4 19 97 20 5 21 96 22 2 23
REMARK SMILES IDX 1 24 98 25 99 26 100 27 21 28 22 29 23 30 24 31 25 32 26 33
REMARK SMILES IDX 27 34 28 35 29 36 93 37 30 38 92 39 31 40 32 41 33 42 86 43
REMARK SMILES IDX 34 44 91 45 85 46 87 47 35 48 90 49 84 50 83 51 36 53 70 54
REMARK SMILES IDX 49 55 69 56 50 57 53 58 68 59 88 60 51 61 52 62 67 64 89 65
REMARK SMILES IDX 54 66 37 67 38 68 47 69 39 70 40 71 46 72 48 73 41 74 42 75
REMARK SMILES IDX 43 76 44 77 45 78 71 79 72 80 81 81 73 82 74 83 80 84 82 85
REMARK SMILES IDX 75 86 76 87 77 88 78 89 79 90 55 91 56 92 65 93 57 94 58 95
REMARK SMILES IDX 64 96 66 97 59 98 60 99 61 100 62 101 63 102
REMARK H PARENT 87 52 53 63
REMARK Flexibility Score: inf
ROOT
ATOM      1  C   UNL A   1      33.869  36.333  32.416  1.00  0.00     0.188 C 
ENDROOT
BRANCH   1   2
ATOM      2  O   UNL A   1      33.954  36.365  30.993  1.00  0.00    -0.376 OA
BRANCH   2   3
ATOM      3  C   UNL A   1      33.269  35.359  30.258  1.00  0.00     0.202 C 
BRANCH   3   4
ATOM      4  C   UNL A   1      32.909  35.726  28.812  1.00  0.00     0.261 C 
BRANCH   4   5
ATOM      5  O   UNL A   1      33.404  34.780  27.825  1.00  0.00    -0.462 OA
BRANCH   5   6
ATOM      6  C   UNL A   1      32.672  33.652  27.634  1.00  0.00     0.326 C 
ATOM      7  O   UNL A   1      31.718  33.591  26.864  1.00  0.00    -0.250 OA
BRANCH   6   8
ATOM      8  C   UNL A   1      33.187  32.385  28.371  1.00  0.00     0.250 C 
BRANCH   8   9
ATOM      9  N   UNL A   1      34.061  31.341  27.772  1.00  0.00    -0.282 N 
ATOM     10  C   UNL A   1      34.618  27.998  26.226  1.00  0.00     0.029 C 
ATOM     11  C   UNL A   1      34.631  29.165  26.911  1.00  0.00     0.081 C 
ATOM     12  S   UNL A   1      36.159  29.932  27.250  1.00  0.00    -0.054 SA
ATOM     13  C   UNL A   1      33.561  30.076  27.448  1.00  0.00     0.266 C 
ATOM     14  C   UNL A   1      35.433  31.447  27.767  1.00  0.00     0.148 C 
ATOM     15  O   UNL A   1      32.413  29.710  27.663  1.00  0.00    -0.268 OA
ATOM     16  S   UNL A   1      36.361  32.766  28.191  1.00  0.00    -0.052 S 
BRANCH  10  17
ATOM     17  C   UNL A   1      33.550  27.168  25.622  1.00  0.00    -0.017 A 
ATOM     18  C   UNL A   1      31.363  25.716  24.413  1.00  0.00     0.196 A 
ATOM     19  C   UNL A   1      32.232  25.137  25.360  1.00  0.00     0.054 A 
ATOM     20  C   UNL A   1      31.668  27.020  24.022  1.00  0.00     0.311 A 
ATOM     21  C   UNL A   1      33.286  25.849  25.978  1.00  0.00     0.012 A 
ATOM     22  C   UNL A   1      32.785  27.716  24.574  1.00  0.00     0.098 A 
BRANCH  18  23
ATOM     23  O   UNL A   1      30.393  24.843  24.016  1.00  0.00    -0.490 OA
ATOM     24  C   UNL A   1      30.662  23.694  23.224  1.00  0.00     0.278 C 
ENDBRANCH  18  23
BRANCH  20  25
ATOM     25  N   UNL A   1      30.813  27.816  23.160  1.00  0.00     0.066 N 
ATOM     26  O   UNL A   1      29.978  28.549  23.708  1.00  0.00    -0.258 OA
ATOM     27  O   UNL A   1      30.893  27.651  21.933  1.00  0.00    -0.258 OA
ENDBRANCH  20  25
ENDBRANCH  10  17
ENDBRANCH   8   9
ENDBRANCH   6   8
ENDBRANCH   5   6
ENDBRANCH   4   5
ENDBRANCH   3   4
ENDBRANCH   2   3
ENDBRANCH   1   2
BRANCH   1  28
ATOM     28  C   UNL A   1      33.589  34.975  33.082  1.00  0.00     0.188 C 
BRANCH  28  29
ATOM     29  O   UNL A   1      34.768  34.210  33.163  1.00  0.00    -0.376 OA
BRANCH  29  30
ATOM     30  C   UNL A   1      34.681  32.830  32.965  1.00  0.00     0.202 C 
BRANCH  30  31
ATOM     31  C   UNL A   1      35.455  32.155  31.817  1.00  0.00     0.261 C 
BRANCH  31  32
ATOM     32  O   UNL A   1      36.261  30.973  32.017  1.00  0.00    -0.460 OA
BRANCH  32  33
ATOM     33  C   UNL A   1      37.572  31.253  32.159  1.00  0.00     0.338 C 
ATOM     34  O   UNL A   1      37.993  32.008  33.019  1.00  0.00    -0.246 OA
BRANCH  33  35
ATOM     35  C   UNL A   1      38.557  30.572  31.306  1.00  0.00     0.060 A 
ATOM     36  C   UNL A   1      39.618  29.946  31.973  1.00  0.00     0.016 A 
ATOM     37  C   UNL A   1      38.645  30.814  29.940  1.00  0.00     0.016 A 
ATOM     38  C   UNL A   1      40.794  29.623  31.310  1.00  0.00     0.010 A 
ATOM     39  C   UNL A   1      39.817  30.453  29.259  1.00  0.00     0.010 A 
ATOM     40  C   UNL A   1      40.906  29.879  29.943  1.00  0.00    -0.014 A 
BRANCH  40  41
ATOM     41  C   UNL A   1      42.152  29.500  29.235  1.00  0.00     0.031 A 
ATOM     42  C   UNL A   1      42.368  28.096  28.746  1.00  0.00     0.074 A 
ATOM     43  C   UNL A   1      43.083  30.452  29.030  1.00  0.00     0.049 A 
ATOM     44  N   UNL A   1      43.429  27.567  28.194  1.00  0.00    -0.248 NA
ATOM     45  C   UNL A   1      41.240  27.164  28.887  1.00  0.00     0.031 C 
ATOM     46  C   UNL A   1      42.940  31.860  29.411  1.00  0.00     0.029 A 
ATOM     47  N   UNL A   1      44.331  30.384  28.471  1.00  0.00    -0.354 N 
ATOM     48  C   UNL A   1      43.105  26.240  27.932  1.00  0.00     0.074 A 
ATOM     49  C   UNL A   1      41.746  26.042  28.391  1.00  0.00     0.031 C 
ATOM     50  C   UNL A   1      44.062  32.519  29.090  1.00  0.00     0.029 A 
ATOM     51  C   UNL A   1      45.024  31.569  28.544  1.00  0.00     0.049 A 
ATOM     52  H   UNL A   1      44.696  29.567  28.059  1.00  0.00     0.167 HD
ATOM     53  C   UNL A   1      43.883  25.278  27.377  1.00  0.00     0.037 A 
ATOM     54  C   UNL A   1      46.306  31.849  28.248  1.00  0.00     0.037 A 
ATOM     55  C   UNL A   1      45.247  25.498  26.963  1.00  0.00     0.049 A 
ATOM     56  C   UNL A   1      47.174  30.746  27.713  1.00  0.00     0.074 A 
ATOM     57  C   UNL A   1      46.140  24.596  26.409  1.00  0.00     0.029 A 
ATOM     58  N   UNL A   1      45.923  26.707  27.070  1.00  0.00    -0.354 N 
ATOM     59  N   UNL A   1      46.862  29.492  27.485  1.00  0.00    -0.248 NA
ATOM     60  C   UNL A   1      48.563  31.093  27.393  1.00  0.00     0.031 C 
ATOM     61  C   UNL A   1      47.367  25.244  26.235  1.00  0.00     0.029 A 
ATOM     62  C   UNL A   1      47.224  26.569  26.617  1.00  0.00     0.049 A 
ATOM     63  H   UNL A   1      45.533  27.542  27.417  1.00  0.00     0.167 HD
ATOM     64  C   UNL A   1      48.008  28.905  26.963  1.00  0.00     0.074 A 
ATOM     65  C   UNL A   1      49.016  29.947  26.904  1.00  0.00     0.031 C 
ATOM     66  C   UNL A   1      48.207  27.625  26.564  1.00  0.00     0.037 A 
BRANCH  53  67
ATOM     67  C   UNL A   1      43.304  23.894  27.237  1.00  0.00     0.058 A 
ATOM     68  C   UNL A   1      43.167  23.028  28.334  1.00  0.00     0.135 A 
ATOM     69  C   UNL A   1      42.843  23.438  25.989  1.00  0.00     0.135 A 
ATOM     70  F   UNL A   1      43.601  23.401  29.548  1.00  0.00    -0.206 F 
ATOM     71  C   UNL A   1      42.617  21.755  28.195  1.00  0.00     0.059 A 
ATOM     72  C   UNL A   1      42.267  22.179  25.832  1.00  0.00     0.059 A 
ATOM     73  F   UNL A   1      42.949  24.220  24.903  1.00  0.00    -0.206 F 
ATOM     74  C   UNL A   1      42.170  21.339  26.939  1.00  0.00     0.060 A 
BRANCH  74  75
ATOM     75  S   UNL A   1      41.465  19.684  26.774  1.00  0.00     0.124 S 
ATOM     76  O   UNL A   1      42.272  18.927  27.727  1.00  0.00    -0.237 OA
ATOM     77  O   UNL A   1      40.073  19.899  27.156  1.00  0.00    -0.237 OA
ATOM     78  O   UNL A   1      41.684  19.357  25.369  1.00  0.00    -0.744 OA
ENDBRANCH  74  75
ENDBRANCH  53  67
BRANCH  54  79
ATOM     79  C   UNL A   1      46.834  33.219  28.482  1.00  0.00     0.058 A 
ATOM     80  C   UNL A   1      47.407  33.574  29.710  1.00  0.00     0.135 A 
ATOM     81  C   UNL A   1      46.812  34.189  27.465  1.00  0.00     0.135 A 
ATOM     82  F   UNL A   1      47.448  32.685  30.713  1.00  0.00    -0.206 F 
ATOM     83  C   UNL A   1      47.931  34.844  29.928  1.00  0.00     0.059 A 
ATOM     84  C   UNL A   1      47.357  35.455  27.649  1.00  0.00     0.059 A 
ATOM     85  F   UNL A   1      46.292  33.893  26.264  1.00  0.00    -0.206 F 
ATOM     86  C   UNL A   1      47.905  35.777  28.889  1.00  0.00     0.060 A 
BRANCH  86  87
ATOM     87  S   UNL A   1      48.634  37.405  29.168  1.00  0.00     0.124 S 
ATOM     88  O   UNL A   1      47.707  38.269  28.447  1.00  0.00    -0.237 OA
ATOM     89  O   UNL A   1      48.603  37.509  30.624  1.00  0.00    -0.237 OA
ATOM     90  O   UNL A   1      49.967  37.281  28.585  1.00  0.00    -0.744 OA
ENDBRANCH  86  87
ENDBRANCH  54  79
BRANCH  66  91
ATOM     91  C   UNL A   1      49.553  27.296  25.979  1.00  0.00     0.058 A 
ATOM     92  C   UNL A   1      50.615  26.837  26.772  1.00  0.00     0.135 A 
ATOM     93  C   UNL A   1      49.769  27.418  24.598  1.00  0.00     0.135 A 
ATOM     94  F   UNL A   1      50.463  26.711  28.100  1.00  0.00    -0.206 F 
ATOM     95  C   UNL A   1      51.857  26.538  26.219  1.00  0.00     0.059 A 
ATOM     96  C   UNL A   1      50.991  27.096  24.018  1.00  0.00     0.059 A 
ATOM     97  F   UNL A   1      48.782  27.845  23.793  1.00  0.00    -0.206 F 
ATOM     98  C   UNL A   1      52.034  26.672  24.841  1.00  0.00     0.060 A 
BRANCH  98  99
ATOM     99  S   UNL A   1      53.642  26.261  24.131  1.00  0.00     0.124 S 
ATOM    100  O   UNL A   1      54.250  27.582  23.999  1.00  0.00    -0.237 OA
ATOM    101  O   UNL A   1      54.223  25.396  25.153  1.00  0.00    -0.237 OA
ATOM    102  O   UNL A   1      53.301  25.598  22.877  1.00  0.00    -0.744 OA
ENDBRANCH  98  99
ENDBRANCH  66  91
ENDBRANCH  40  41
ENDBRANCH  33  35
ENDBRANCH  32  33
ENDBRANCH  31  32
ENDBRANCH  30  31
ENDBRANCH  29  30
ENDBRANCH  28  29
ENDBRANCH   1  28
TORSDOF 24
ENDMDL
MODEL 2
REMARK VINA RESULT:      -8.9      3.762      6.430
REMARK SMILES COc1ccc(/C=C2/SC(=S)N(CC(=O)OCCOCCOCCOC(=O)c3ccc(-c4c5nc(c(-c6c(F)cc(S(=O)(=O)[O-])cc6F)c6ccc([nH]6)c(-c6c(F)cc(S(=O)(=O)[O-])cc6F)c6nc(c(-c7c(F)cc(S(=O)(=O)[O-])cc7F)c7ccc4[nH]7)C=C6)C=C5)cc3)C2=O)cc1[N+](=O)[O-]
REMARK SMILES IDX 20 1 19 2 18 3 17 4 16 5 14 6 15 7 13 8 12 9 7 10 8 11 9 12
REMARK SMILES IDX 94 13 10 14 95 15 11 16 6 17 3 18 4 19 97 20 5 21 96 22 2 23
REMARK SMILES IDX 1 24 98 25 99 26 100 27 21 28 22 29 23 30 24 31 25 32 26 33
REMARK SMILES IDX 27 34 28 35 29 36 93 37 30 38 92 39 31 40 32 41 33 42 86 43
REMARK SMILES IDX 34 44 91 45 85 46 87 47 35 48 90 49 84 50 83 51 36 53 70 54
REMARK SMILES IDX 49 55 69 56 50 57 53 58 68 59 88 60 51 61 52 62 67 64 89 65
REMARK SMILES IDX 54 66 37 67 38 68 47 69 39 70 40 71 46 72 48 73 41 74 42 75
REMARK SMILES IDX 43 76 44 77 45 78 71 79 72 80 81 81 73 82 74 83 80 84 82 85
REMARK SMILES IDX 75 86 76 87 77 88 78 89 79 90 55 91 56 92 65 93 57 94 58 95
REMARK SMILES IDX 64 96 66 97 59 98 60 99 61 100 62 101 63 102
REMARK H PARENT 87 52 53 63
REMARK Flexibility Score: inf
ROOT
ATOM      1  C   UNL A   1      33.978  34.299  29.668  1.00  0.00     0.188 C 
ENDROOT
BRANCH   1   2
ATOM      2  O   UNL A   1      34.931  34.469  28.620  1.00  0.00    -0.376 OA
BRANCH   2   3
ATOM      3  C   UNL A   1      35.414  33.307  27.958  1.00  0.00     0.202 C 
BRANCH   3   4
ATOM      4  C   UNL A   1      36.777  32.792  28.439  1.00  0.00     0.261 C 
BRANCH   4   5
ATOM      5  O   UNL A   1      37.764  33.841  28.641  1.00  0.00    -0.462 OA
BRANCH   5   6
ATOM      6  C   UNL A   1      38.857  33.521  29.382  1.00  0.00     0.326 C 
ATOM      7  O   UNL A   1      39.132  32.372  29.714  1.00  0.00    -0.250 OA
BRANCH   6   8
ATOM      8  C   UNL A   1      39.821  34.697  29.697  1.00  0.00     0.250 C 
BRANCH   8   9
ATOM      9  N   UNL A   1      40.911  34.664  30.709  1.00  0.00    -0.282 N 
ATOM     10  C   UNL A   1      42.154  34.327  34.204  1.00  0.00     0.029 C 
ATOM     11  C   UNL A   1      41.876  34.632  32.915  1.00  0.00     0.081 C 
ATOM     12  S   UNL A   1      43.175  35.118  31.861  1.00  0.00    -0.054 SA
ATOM     13  C   UNL A   1      40.628  34.595  32.077  1.00  0.00     0.266 C 
ATOM     14  C   UNL A   1      42.213  34.980  30.396  1.00  0.00     0.148 C 
ATOM     15  O   UNL A   1      39.499  34.604  32.552  1.00  0.00    -0.268 OA
ATOM     16  S   UNL A   1      42.872  35.234  28.885  1.00  0.00    -0.052 S 
BRANCH  10  17
ATOM     17  C   UNL A   1      41.375  33.732  35.315  1.00  0.00    -0.017 A 
ATOM     18  C   UNL A   1      39.768  32.451  37.347  1.00  0.00     0.196 A 
ATOM     19  C   UNL A   1      40.250  33.770  37.475  1.00  0.00     0.054 A 
ATOM     20  C   UNL A   1      40.181  31.757  36.211  1.00  0.00     0.311 A 
ATOM     21  C   UNL A   1      41.013  34.413  36.472  1.00  0.00     0.012 A 
ATOM     22  C   UNL A   1      41.025  32.369  35.236  1.00  0.00     0.098 A 
BRANCH  18  23
ATOM     23  O   UNL A   1      39.008  32.085  38.420  1.00  0.00    -0.490 OA
ATOM     24  C   UNL A   1      37.660  32.499  38.593  1.00  0.00     0.278 C 
ENDBRANCH  18  23
BRANCH  20  25
ATOM     25  N   UNL A   1      39.680  30.443  35.850  1.00  0.00     0.066 N 
ATOM     26  O   UNL A   1      38.454  30.319  35.718  1.00  0.00    -0.258 OA
ATOM     27  O   UNL A   1      40.484  29.500  35.791  1.00  0.00    -0.258 OA
ENDBRANCH  20  25
ENDBRANCH  10  17
ENDBRANCH   8   9
ENDBRANCH   6   8
ENDBRANCH   5   6
ENDBRANCH   4   5
ENDBRANCH   3   4
ENDBRANCH   2   3
ENDBRANCH   1   2
BRANCH   1  28
ATOM     28  C   UNL A   1      34.511  34.236  31.110  1.00  0.00     0.188 C 
BRANCH  28  29
ATOM     29  O   UNL A   1      34.184  33.002  31.705  1.00  0.00    -0.376 OA
BRANCH  29  30
ATOM     30  C   UNL A   1      35.159  32.351  32.464  1.00  0.00     0.202 C 
BRANCH  30  31
ATOM     31  C   UNL A   1      36.227  31.477  31.780  1.00  0.00     0.261 C 
BRANCH  31  32
ATOM     32  O   UNL A   1      36.099  30.042  31.672  1.00  0.00    -0.460 OA
BRANCH  32  33
ATOM     33  C   UNL A   1      37.186  29.386  32.126  1.00  0.00     0.338 C 
ATOM     34  O   UNL A   1      37.139  28.609  33.064  1.00  0.00    -0.246 OA
BRANCH  33  35
ATOM     35  C   UNL A   1      38.471  29.538  31.426  1.00  0.00     0.060 A 
ATOM     36  C   UNL A   1      38.450  29.301  30.045  1.00  0.00     0.016 A 
ATOM     37  C   UNL A   1      39.683  29.564  32.106  1.00  0.00     0.016 A 
ATOM     38  C   UNL A   1      39.616  29.020  29.347  1.00  0.00     0.010 A 
ATOM     39  C   UNL A   1      40.868  29.318  31.395  1.00  0.00     0.010 A 
ATOM     40  C   UNL A   1      40.839  29.022  30.018  1.00  0.00    -0.014 A 
BRANCH  40  41
ATOM     41  C   UNL A   1      42.083  28.754  29.258  1.00  0.00     0.031 A 
ATOM     42  C   UNL A   1      42.360  27.396  28.681  1.00  0.00     0.074 A 
ATOM     43  C   UNL A   1      42.955  29.767  29.087  1.00  0.00     0.049 A 
ATOM     44  N   UNL A   1      43.432  26.959  28.072  1.00  0.00    -0.248 NA
ATOM     45  C   UNL A   1      41.288  26.396  28.795  1.00  0.00     0.031 C 
ATOM     46  C   UNL A   1      42.747  31.141  29.554  1.00  0.00     0.029 A 
ATOM     47  N   UNL A   1      44.189  29.801  28.493  1.00  0.00    -0.354 N 
ATOM     48  C   UNL A   1      43.173  25.633  27.741  1.00  0.00     0.074 A 
ATOM     49  C   UNL A   1      41.839  25.334  28.220  1.00  0.00     0.031 C 
ATOM     50  C   UNL A   1      43.823  31.878  29.244  1.00  0.00     0.029 A 
ATOM     51  C   UNL A   1      44.818  31.016  28.619  1.00  0.00     0.049 A 
ATOM     52  H   UNL A   1      44.586  29.031  28.024  1.00  0.00     0.167 HD
ATOM     53  C   UNL A   1      43.985  24.750  27.109  1.00  0.00     0.037 A 
ATOM     54  C   UNL A   1      46.075  31.383  28.308  1.00  0.00     0.037 A 
ATOM     55  C   UNL A   1      45.323  25.068  26.675  1.00  0.00     0.049 A 
ATOM     56  C   UNL A   1      46.986  30.363  27.687  1.00  0.00     0.074 A 
ATOM     57  C   UNL A   1      46.246  24.250  26.046  1.00  0.00     0.029 A 
ATOM     58  N   UNL A   1      45.935  26.305  26.837  1.00  0.00    -0.354 N 
ATOM     59  N   UNL A   1      46.735  29.109  27.392  1.00  0.00    -0.248 NA
ATOM     60  C   UNL A   1      48.344  30.804  27.353  1.00  0.00     0.031 C 
ATOM     61  C   UNL A   1      47.432  24.975  25.880  1.00  0.00     0.029 A 
ATOM     62  C   UNL A   1      47.229  26.266  26.343  1.00  0.00     0.049 A 
ATOM     63  H   UNL A   1      45.511  27.095  27.243  1.00  0.00     0.167 HD
ATOM     64  C   UNL A   1      47.895  28.617  26.808  1.00  0.00     0.074 A 
ATOM     65  C   UNL A   1      48.844  29.715  26.785  1.00  0.00     0.031 C 
ATOM     66  C   UNL A   1      48.152  27.375  26.329  1.00  0.00     0.037 A 
BRANCH  53  67
ATOM     67  C   UNL A   1      43.477  23.346  26.902  1.00  0.00     0.058 A 
ATOM     68  C   UNL A   1      43.023  22.894  25.652  1.00  0.00     0.135 A 
ATOM     69  C   UNL A   1      43.481  22.424  27.963  1.00  0.00     0.135 A 
ATOM     70  F   UNL A   1      42.983  23.731  24.604  1.00  0.00    -0.206 F 
ATOM     71  C   UNL A   1      42.569  21.589  25.469  1.00  0.00     0.059 A 
ATOM     72  C   UNL A   1      43.056  21.107  27.797  1.00  0.00     0.059 A 
ATOM     73  F   UNL A   1      43.902  22.798  29.182  1.00  0.00    -0.206 F 
ATOM     74  C   UNL A   1      42.588  20.703  26.548  1.00  0.00     0.060 A 
BRANCH  74  75
ATOM     75  S   UNL A   1      41.993  19.016  26.295  1.00  0.00     0.124 S 
ATOM     76  O   UNL A   1      42.991  18.491  25.368  1.00  0.00    -0.237 OA
ATOM     77  O   UNL A   1      42.032  18.465  27.645  1.00  0.00    -0.237 OA
ATOM     78  O   UNL A   1      40.658  19.206  25.736  1.00  0.00    -0.744 OA
ENDBRANCH  74  75
ENDBRANCH  53  67
BRANCH  54  79
ATOM     79  C   UNL A   1      46.535  32.764  28.609  1.00  0.00     0.058 A 
ATOM     80  C   UNL A   1      46.690  33.714  27.591  1.00  0.00     0.135 A 
ATOM     81  C   UNL A   1      46.789  33.174  29.930  1.00  0.00     0.135 A 
ATOM     82  F   UNL A   1      46.463  33.371  26.314  1.00  0.00    -0.206 F 
ATOM     83  C   UNL A   1      47.090  35.017  27.866  1.00  0.00     0.059 A 
ATOM     84  C   UNL A   1      47.159  34.479  30.233  1.00  0.00     0.059 A 
ATOM     85  F   UNL A   1      46.636  32.308  30.944  1.00  0.00    -0.206 F 
ATOM     86  C   UNL A   1      47.318  35.392  29.193  1.00  0.00     0.060 A 
BRANCH  86  87
ATOM     87  S   UNL A   1      47.787  37.100  29.541  1.00  0.00     0.124 S 
ATOM     88  O   UNL A   1      46.496  37.776  29.486  1.00  0.00    -0.237 OA
ATOM     89  O   UNL A   1      48.393  36.988  30.865  1.00  0.00    -0.237 OA
ATOM     90  O   UNL A   1      48.715  37.421  28.461  1.00  0.00    -0.744 OA
ENDBRANCH  86  87
ENDBRANCH  54  79
BRANCH  66  91
ATOM     91  C   UNL A   1      49.497  27.156  25.692  1.00  0.00     0.058 A 
ATOM     92  C   UNL A   1      50.631  26.822  26.447  1.00  0.00     0.135 A 
ATOM     93  C   UNL A   1      49.640  27.256  24.299  1.00  0.00     0.135 A 
ATOM     94  F   UNL A   1      50.548  26.723  27.784  1.00  0.00    -0.206 F 
ATOM     95  C   UNL A   1      51.869  26.623  25.846  1.00  0.00     0.059 A 
ATOM     96  C   UNL A   1      50.861  27.031  23.673  1.00  0.00     0.059 A 
ATOM     97  F   UNL A   1      48.583  27.563  23.530  1.00  0.00    -0.206 F 
ATOM     98  C   UNL A   1      51.974  26.731  24.458  1.00  0.00     0.060 A 
BRANCH  98  99
ATOM     99  S   UNL A   1      53.581  26.451  23.686  1.00  0.00     0.124 S 
ATOM    100  O   UNL A   1      53.212  26.323  22.280  1.00  0.00    -0.237 OA
ATOM    101  O   UNL A   1      54.313  27.663  24.041  1.00  0.00    -0.237 OA
ATOM    102  O   UNL A   1      54.058  25.229  24.325  1.00  0.00    -0.744 OA
ENDBRANCH  98  99
ENDBRANCH  66  91
ENDBRANCH  40  41
ENDBRANCH  33  35
ENDBRANCH  32  33
ENDBRANCH  31  32
ENDBRANCH  30  31
ENDBRANCH  29  30
ENDBRANCH  28  29
ENDBRANCH   1  28
TORSDOF 24
ENDMDL
MODEL 3
REMARK VINA RESULT:      -8.4      7.827     11.444
REMARK SMILES COc1ccc(/C=C2/SC(=S)N(CC(=O)OCCOCCOCCOC(=O)c3ccc(-c4c5nc(c(-c6c(F)cc(S(=O)(=O)[O-])cc6F)c6ccc([nH]6)c(-c6c(F)cc(S(=O)(=O)[O-])cc6F)c6nc(c(-c7c(F)cc(S(=O)(=O)[O-])cc7F)c7ccc4[nH]7)C=C6)C=C5)cc3)C2=O)cc1[N+](=O)[O-]
REMARK SMILES IDX 20 1 19 2 18 3 17 4 16 5 14 6 15 7 13 8 12 9 7 10 8 11 9 12
REMARK SMILES IDX 94 13 10 14 95 15 11 16 6 17 3 18 4 19 97 20 5 21 96 22 2 23
REMARK SMILES IDX 1 24 98 25 99 26 100 27 21 28 22 29 23 30 24 31 25 32 26 33
REMARK SMILES IDX 27 34 28 35 29 36 93 37 30 38 92 39 31 40 32 41 33 42 86 43
REMARK SMILES IDX 34 44 91 45 85 46 87 47 35 48 90 49 84 50 83 51 36 53 70 54
REMARK SMILES IDX 49 55 69 56 50 57 53 58 68 59 88 60 51 61 52 62 67 64 89 65
REMARK SMILES IDX 54 66 37 67 38 68 47 69 39 70 40 71 46 72 48 73 41 74 42 75
REMARK SMILES IDX 43 76 44 77 45 78 71 79 72 80 81 81 73 82 74 83 80 84 82 85
REMARK SMILES IDX 75 86 76 87 77 88 78 89 79 90 55 91 56 92 65 93 57 94 58 95
REMARK SMILES IDX 64 96 66 97 59 98 60 99 61 100 62 101 63 102
REMARK H PARENT 87 52 53 63
REMARK Flexibility Score: inf
ROOT
ATOM      1  C   UNL A   1      33.269  34.040  28.651  1.00  0.00     0.188 C 
ENDROOT
BRANCH   1   2
ATOM      2  O   UNL A   1      34.252  33.019  28.816  1.00  0.00    -0.376 OA
BRANCH   2   3
ATOM      3  C   UNL A   1      35.412  33.067  27.996  1.00  0.00     0.202 C 
BRANCH   3   4
ATOM      4  C   UNL A   1      36.678  32.452  28.607  1.00  0.00     0.261 C 
BRANCH   4   5
ATOM      5  O   UNL A   1      36.521  32.038  29.993  1.00  0.00    -0.462 OA
BRANCH   5   6
ATOM      6  C   UNL A   1      36.736  30.726  30.270  1.00  0.00     0.326 C 
ATOM      7  O   UNL A   1      35.979  29.829  29.908  1.00  0.00    -0.250 OA
BRANCH   6   8
ATOM      8  C   UNL A   1      38.076  30.401  30.985  1.00  0.00     0.250 C 
BRANCH   8   9
ATOM      9  N   UNL A   1      39.329  29.977  30.306  1.00  0.00    -0.282 N 
ATOM     10  C   UNL A   1      41.583  27.381  28.872  1.00  0.00     0.029 C 
ATOM     11  C   UNL A   1      40.977  28.427  29.481  1.00  0.00     0.081 C 
ATOM     12  S   UNL A   1      41.786  29.970  29.517  1.00  0.00    -0.054 SA
ATOM     13  C   UNL A   1      39.639  28.623  30.139  1.00  0.00     0.266 C 
ATOM     14  C   UNL A   1      40.366  30.848  30.066  1.00  0.00     0.148 C 
ATOM     15  O   UNL A   1      38.956  27.699  30.562  1.00  0.00    -0.268 OA
ATOM     16  S   UNL A   1      40.377  32.505  30.257  1.00  0.00    -0.052 S 
BRANCH  10  17
ATOM     17  C   UNL A   1      41.152  26.013  28.501  1.00  0.00    -0.017 A 
ATOM     18  C   UNL A   1      40.501  23.306  27.724  1.00  0.00     0.196 A 
ATOM     19  C   UNL A   1      39.558  24.354  27.702  1.00  0.00     0.054 A 
ATOM     20  C   UNL A   1      41.761  23.629  28.227  1.00  0.00     0.311 A 
ATOM     21  C   UNL A   1      39.876  25.687  28.052  1.00  0.00     0.012 A 
ATOM     22  C   UNL A   1      42.065  24.952  28.668  1.00  0.00     0.098 A 
BRANCH  18  23
ATOM     23  O   UNL A   1      39.963  22.133  27.283  1.00  0.00    -0.490 OA
ATOM     24  C   UNL A   1      39.476  21.952  25.960  1.00  0.00     0.278 C 
ENDBRANCH  18  23
BRANCH  20  25
ATOM     25  N   UNL A   1      42.889  22.715  28.203  1.00  0.00     0.066 N 
ATOM     26  O   UNL A   1      43.521  22.566  29.258  1.00  0.00    -0.258 OA
ATOM     27  O   UNL A   1      43.219  22.213  27.118  1.00  0.00    -0.258 OA
ENDBRANCH  20  25
ENDBRANCH  10  17
ENDBRANCH   8   9
ENDBRANCH   6   8
ENDBRANCH   5   6
ENDBRANCH   4   5
ENDBRANCH   3   4
ENDBRANCH   2   3
ENDBRANCH   1   2
BRANCH   1  28
ATOM     28  C   UNL A   1      33.685  35.486  28.972  1.00  0.00     0.188 C 
BRANCH  28  29
ATOM     29  O   UNL A   1      32.662  36.151  29.675  1.00  0.00    -0.376 OA
BRANCH  29  30
ATOM     30  C   UNL A   1      32.899  36.520  31.001  1.00  0.00     0.202 C 
BRANCH  30  31
ATOM     31  C   UNL A   1      33.365  35.475  32.032  1.00  0.00     0.261 C 
BRANCH  31  32
ATOM     32  O   UNL A   1      34.761  35.236  32.314  1.00  0.00    -0.460 OA
BRANCH  32  33
ATOM     33  C   UNL A   1      35.047  33.927  32.457  1.00  0.00     0.338 C 
ATOM     34  O   UNL A   1      34.288  33.045  32.093  1.00  0.00    -0.246 OA
BRANCH  33  35
ATOM     35  C   UNL A   1      36.355  33.523  32.996  1.00  0.00     0.060 A 
ATOM     36  C   UNL A   1      36.325  32.751  34.165  1.00  0.00     0.016 A 
ATOM     37  C   UNL A   1      37.538  34.138  32.603  1.00  0.00     0.016 A 
ATOM     38  C   UNL A   1      37.440  32.643  34.984  1.00  0.00     0.010 A 
ATOM     39  C   UNL A   1      38.679  33.998  33.409  1.00  0.00     0.010 A 
ATOM     40  C   UNL A   1      38.630  33.271  34.613  1.00  0.00    -0.014 A 
BRANCH  40  41
ATOM     41  C   UNL A   1      39.827  33.121  35.476  1.00  0.00     0.031 A 
ATOM     42  C   UNL A   1      40.710  31.911  35.371  1.00  0.00     0.074 A 
ATOM     43  C   UNL A   1      40.109  34.107  36.349  1.00  0.00     0.049 A 
ATOM     44  N   UNL A   1      41.737  31.572  36.106  1.00  0.00    -0.248 NA
ATOM     45  C   UNL A   1      40.405  30.959  34.294  1.00  0.00     0.031 C 
ATOM     46  C   UNL A   1      39.349  35.354  36.482  1.00  0.00     0.029 A 
ATOM     47  N   UNL A   1      41.093  34.216  37.296  1.00  0.00    -0.354 N 
ATOM     48  C   UNL A   1      42.196  30.363  35.591  1.00  0.00     0.074 A 
ATOM     49  C   UNL A   1      41.329  30.025  34.480  1.00  0.00     0.031 C 
ATOM     50  C   UNL A   1      39.884  36.093  37.464  1.00  0.00     0.029 A 
ATOM     51  C   UNL A   1      40.979  35.346  38.070  1.00  0.00     0.049 A 
ATOM     52  H   UNL A   1      41.810  33.551  37.410  1.00  0.00     0.167 HD
ATOM     53  C   UNL A   1      43.233  29.605  36.022  1.00  0.00     0.037 A 
ATOM     54  C   UNL A   1      41.650  35.716  39.176  1.00  0.00     0.037 A 
ATOM     55  C   UNL A   1      44.057  29.952  37.155  1.00  0.00     0.049 A 
ATOM     56  C   UNL A   1      42.740  34.818  39.686  1.00  0.00     0.074 A 
ATOM     57  C   UNL A   1      45.120  29.251  37.699  1.00  0.00     0.029 A 
ATOM     58  N   UNL A   1      43.898  31.095  37.929  1.00  0.00    -0.354 N 
ATOM     59  N   UNL A   1      43.154  33.671  39.201  1.00  0.00    -0.248 NA
ATOM     60  C   UNL A   1      43.456  35.262  40.887  1.00  0.00     0.031 C 
ATOM     61  C   UNL A   1      45.566  29.942  38.831  1.00  0.00     0.029 A 
ATOM     62  C   UNL A   1      44.826  31.107  38.957  1.00  0.00     0.049 A 
ATOM     63  H   UNL A   1      43.225  31.795  37.769  1.00  0.00     0.167 HD
ATOM     64  C   UNL A   1      44.201  33.269  40.019  1.00  0.00     0.074 A 
ATOM     65  C   UNL A   1      44.360  34.302  41.025  1.00  0.00     0.031 C 
ATOM     66  C   UNL A   1      44.966  32.152  39.944  1.00  0.00     0.037 A 
BRANCH  53  67
ATOM     67  C   UNL A   1      43.503  28.304  35.310  1.00  0.00     0.058 A 
ATOM     68  C   UNL A   1      44.440  28.203  34.270  1.00  0.00     0.135 A 
ATOM     69  C   UNL A   1      42.839  27.128  35.702  1.00  0.00     0.135 A 
ATOM     70  F   UNL A   1      45.096  29.294  33.842  1.00  0.00    -0.206 F 
ATOM     71  C   UNL A   1      44.691  26.992  33.628  1.00  0.00     0.059 A 
ATOM     72  C   UNL A   1      43.092  25.901  35.091  1.00  0.00     0.059 A 
ATOM     73  F   UNL A   1      41.930  27.162  36.689  1.00  0.00    -0.206 F 
ATOM     74  C   UNL A   1      44.011  25.846  34.045  1.00  0.00     0.060 A 
BRANCH  74  75
ATOM     75  S   UNL A   1      44.344  24.284  33.200  1.00  0.00     0.124 S 
ATOM     76  O   UNL A   1      43.253  23.448  33.694  1.00  0.00    -0.237 OA
ATOM     77  O   UNL A   1      44.262  24.665  31.795  1.00  0.00    -0.237 OA
ATOM     78  O   UNL A   1      45.675  23.918  33.672  1.00  0.00    -0.744 OA
ENDBRANCH  74  75
ENDBRANCH  53  67
BRANCH  54  79
ATOM     79  C   UNL A   1      41.282  36.976  39.873  1.00  0.00     0.058 A 
ATOM     80  C   UNL A   1      41.940  38.181  39.588  1.00  0.00     0.135 A 
ATOM     81  C   UNL A   1      40.235  37.010  40.810  1.00  0.00     0.135 A 
ATOM     82  F   UNL A   1      42.949  38.200  38.704  1.00  0.00    -0.206 F 
ATOM     83  C   UNL A   1      41.582  39.371  40.213  1.00  0.00     0.059 A 
ATOM     84  C   UNL A   1      39.839  38.193  41.424  1.00  0.00     0.059 A 
ATOM     85  F   UNL A   1      39.559  35.888  41.104  1.00  0.00    -0.206 F 
ATOM     86  C   UNL A   1      40.527  39.367  41.127  1.00  0.00     0.060 A 
BRANCH  86  87
ATOM     87  S   UNL A   1      40.039  40.928  41.893  1.00  0.00     0.124 S 
ATOM     88  O   UNL A   1      41.296  41.367  42.488  1.00  0.00    -0.237 OA
ATOM     89  O   UNL A   1      39.572  41.700  40.744  1.00  0.00    -0.237 OA
ATOM     90  O   UNL A   1      38.998  40.530  42.836  1.00  0.00    -0.744 OA
ENDBRANCH  86  87
ENDBRANCH  54  79
BRANCH  66  91
ATOM     91  C   UNL A   1      46.077  32.018  40.948  1.00  0.00     0.058 A 
ATOM     92  C   UNL A   1      45.872  31.444  42.211  1.00  0.00     0.135 A 
ATOM     93  C   UNL A   1      47.374  32.448  40.624  1.00  0.00     0.135 A 
ATOM     94  F   UNL A   1      44.649  31.025  42.573  1.00  0.00    -0.206 F 
ATOM     95  C   UNL A   1      46.908  31.329  43.132  1.00  0.00     0.059 A 
ATOM     96  C   UNL A   1      48.432  32.315  41.517  1.00  0.00     0.059 A 
ATOM     97  F   UNL A   1      47.626  32.996  39.424  1.00  0.00    -0.206 F 
ATOM     98  C   UNL A   1      48.184  31.767  42.775  1.00  0.00     0.060 A 
BRANCH  98  99
ATOM     99  S   UNL A   1      49.526  31.593  43.969  1.00  0.00     0.124 S 
ATOM    100  O   UNL A   1      49.153  32.583  44.976  1.00  0.00    -0.237 OA
ATOM    101  O   UNL A   1      49.402  30.198  44.378  1.00  0.00    -0.237 OA
ATOM    102  O   UNL A   1      50.719  31.908  43.190  1.00  0.00    -0.744 OA
ENDBRANCH  98  99
ENDBRANCH  66  91
ENDBRANCH  40  41
ENDBRANCH  33  35
ENDBRANCH  32  33
ENDBRANCH  31  32
ENDBRANCH  30  31
ENDBRANCH  29  30
ENDBRANCH  28  29
ENDBRANCH   1  28
TORSDOF 24
ENDMDL
