MODEL 1
REMARK VINA RESULT:     -10.1      0.000      0.000
REMARK SMILES COc1cc([N+](=O)[O-])cc2c1=N[C@H](C(=O)OCCOCCOCCOC(=O)c1ccc(-c3c4nc(c(-c5c(F)cc(S(=O)(=O)[O-])cc5F)c5ccc([nH]5)c(-c5c(F)cc(S(=O)(=O)[O-])cc5F)c5nc(c(-c6c(F)cc(S(=O)(=O)[O-])cc6F)c6ccc3[nH]6)C=C5)C=C4)cc1)C=2CC[NH3+]
REMARK SMILES IDX 20 1 19 2 18 3 17 4 16 5 14 6 15 7 13 8 3 9 4 10 11 11 5 12
REMARK SMILES IDX 10 13 12 14 9 15 94 16 2 17 1 18 6 19 7 20 8 21 95 22 96 23
REMARK SMILES IDX 97 24 21 28 22 29 23 30 24 31 25 32 26 33 27 34 28 35 29 36
REMARK SMILES IDX 93 37 30 38 92 39 31 40 32 41 33 42 86 43 34 44 91 45 85 46
REMARK SMILES IDX 87 47 35 48 90 49 84 50 83 51 36 53 70 54 49 55 69 56 50 57
REMARK SMILES IDX 53 58 68 59 88 60 51 61 52 62 67 64 89 65 54 66 37 67 38 68
REMARK SMILES IDX 47 69 39 70 40 71 46 72 48 73 41 74 42 75 43 76 44 77 45 78
REMARK SMILES IDX 71 79 72 80 81 81 73 82 74 83 80 84 82 85 75 86 76 87 77 88
REMARK SMILES IDX 78 89 79 90 55 91 56 92 65 93 57 94 58 95 64 96 66 97 59 98
REMARK SMILES IDX 60 99 61 100 62 101 63 102
REMARK H PARENT 97 25 97 26 97 27 87 52 53 63
REMARK Flexibility Score: inf
ROOT
ATOM      1  C   UNL A   1      33.699  31.550  27.690  1.00  0.00     0.188 C 
ENDROOT
BRANCH   1   2
ATOM      2  O   UNL A   1      33.193  30.268  27.355  1.00  0.00    -0.376 OA
BRANCH   2   3
ATOM      3  C   UNL A   1      32.001  30.191  26.589  1.00  0.00     0.202 C 
BRANCH   3   4
ATOM      4  C   UNL A   1      32.102  29.588  25.184  1.00  0.00     0.261 C 
BRANCH   4   5
ATOM      5  O   UNL A   1      30.868  29.003  24.728  1.00  0.00    -0.461 OA
BRANCH   5   6
ATOM      6  C   UNL A   1      30.888  27.660  24.480  1.00  0.00     0.335 C 
ATOM      7  O   UNL A   1      30.216  27.103  23.618  1.00  0.00    -0.249 OA
BRANCH   6   8
ATOM      8  C   UNL A   1      31.856  26.932  25.442  1.00  0.00     0.243 C 
ATOM      9  C   UNL A   1      30.594  23.641  26.463  1.00  0.00     0.151 A 
ATOM     10  C   UNL A   1      31.020  22.451  25.993  1.00  0.00     0.134 A 
ATOM     11  C   UNL A   1      31.268  24.884  25.989  1.00  0.00     0.109 A 
ATOM     12  C   UNL A   1      32.154  22.320  25.085  1.00  0.00     0.273 A 
ATOM     13  C   UNL A   1      32.362  24.686  25.028  1.00  0.00     0.012 A 
ATOM     14  N   UNL A   1      31.004  26.105  26.352  1.00  0.00    -0.261 NA
ATOM     15  C   UNL A   1      32.806  23.395  24.604  1.00  0.00     0.096 A 
ATOM     16  C   UNL A   1      32.734  25.930  24.738  1.00  0.00    -0.019 C 
BRANCH   9  17
ATOM     17  O   UNL A   1      29.496  23.786  27.284  1.00  0.00    -0.494 OA
ATOM     18  C   UNL A   1      28.900  22.529  27.579  1.00  0.00     0.278 C 
ENDBRANCH   9  17
BRANCH  12  19
ATOM     19  N   UNL A   1      32.654  20.994  24.698  1.00  0.00     0.062 N 
ATOM     20  O   UNL A   1      33.725  20.928  24.079  1.00  0.00    -0.258 OA
ATOM     21  O   UNL A   1      31.991  20.015  25.066  1.00  0.00    -0.258 OA
ENDBRANCH  12  19
BRANCH  16  22
ATOM     22  C   UNL A   1      33.817  26.320  23.794  1.00  0.00     0.096 C 
BRANCH  22  23
ATOM     23  C   UNL A   1      33.242  27.194  22.676  1.00  0.00     0.263 C 
BRANCH  23  24
ATOM     24  N   UNL A   1      32.705  26.407  21.591  1.00  0.00    -0.357 N 
ATOM     25  H   UNL A   1      32.754  25.417  21.834  1.00  0.00     0.344 HD
ATOM     26  H   UNL A   1      33.249  26.576  20.745  1.00  0.00     0.344 HD
ATOM     27  H   UNL A   1      31.733  26.669  21.428  1.00  0.00     0.344 HD
ENDBRANCH  23  24
ENDBRANCH  22  23
ENDBRANCH  16  22
ENDBRANCH   6   8
ENDBRANCH   5   6
ENDBRANCH   4   5
ENDBRANCH   3   4
ENDBRANCH   2   3
ENDBRANCH   1   2
BRANCH   1  28
ATOM     28  C   UNL A   1      35.219  31.738  27.875  1.00  0.00     0.188 C 
BRANCH  28  29
ATOM     29  O   UNL A   1      35.661  32.728  28.792  1.00  0.00    -0.376 OA
BRANCH  29  30
ATOM     30  C   UNL A   1      34.812  33.001  29.899  1.00  0.00     0.202 C 
BRANCH  30  31
ATOM     31  C   UNL A   1      35.229  32.380  31.237  1.00  0.00     0.261 C 
BRANCH  31  32
ATOM     32  O   UNL A   1      36.609  31.961  31.276  1.00  0.00    -0.460 OA
BRANCH  32  33
ATOM     33  C   UNL A   1      36.825  30.615  31.368  1.00  0.00     0.338 C 
ATOM     34  O   UNL A   1      36.023  29.783  31.730  1.00  0.00    -0.246 OA
BRANCH  33  35
ATOM     35  C   UNL A   1      38.176  30.271  30.835  1.00  0.00     0.060 A 
ATOM     36  C   UNL A   1      39.248  29.944  31.675  1.00  0.00     0.016 A 
ATOM     37  C   UNL A   1      38.376  30.318  29.449  1.00  0.00     0.016 A 
ATOM     38  C   UNL A   1      40.525  29.712  31.134  1.00  0.00     0.010 A 
ATOM     39  C   UNL A   1      39.657  30.111  28.913  1.00  0.00     0.010 A 
ATOM     40  C   UNL A   1      40.751  29.820  29.751  1.00  0.00    -0.014 A 
BRANCH  40  41
ATOM     41  C   UNL A   1      42.079  29.465  29.171  1.00  0.00     0.031 A 
ATOM     42  C   UNL A   1      43.222  30.441  29.035  1.00  0.00     0.074 A 
ATOM     43  C   UNL A   1      42.248  28.194  28.765  1.00  0.00     0.049 A 
ATOM     44  N   UNL A   1      44.423  30.252  28.540  1.00  0.00    -0.248 NA
ATOM     45  C   UNL A   1      42.996  31.811  29.500  1.00  0.00     0.031 C 
ATOM     46  C   UNL A   1      41.231  27.146  28.851  1.00  0.00     0.029 A 
ATOM     47  N   UNL A   1      43.331  27.569  28.203  1.00  0.00    -0.354 N 
ATOM     48  C   UNL A   1      45.083  31.477  28.628  1.00  0.00     0.074 A 
ATOM     49  C   UNL A   1      44.135  32.416  29.185  1.00  0.00     0.031 C 
ATOM     50  C   UNL A   1      41.734  26.009  28.352  1.00  0.00     0.029 A 
ATOM     51  C   UNL A   1      43.103  26.249  27.907  1.00  0.00     0.049 A 
ATOM     52  H   UNL A   1      44.187  28.024  28.028  1.00  0.00     0.167 HD
ATOM     53  C   UNL A   1      46.366  31.780  28.305  1.00  0.00     0.037 A 
ATOM     54  C   UNL A   1      43.906  25.326  27.346  1.00  0.00     0.037 A 
ATOM     55  C   UNL A   1      47.327  30.822  27.810  1.00  0.00     0.049 A 
ATOM     56  C   UNL A   1      45.322  25.683  27.000  1.00  0.00     0.074 A 
ATOM     57  C   UNL A   1      48.674  31.015  27.546  1.00  0.00     0.029 A 
ATOM     58  N   UNL A   1      47.052  29.496  27.510  1.00  0.00    -0.354 N 
ATOM     59  N   UNL A   1      45.943  26.828  27.150  1.00  0.00    -0.248 NA
ATOM     60  C   UNL A   1      46.153  24.616  26.426  1.00  0.00     0.031 C 
ATOM     61  C   UNL A   1      49.203  29.821  27.047  1.00  0.00     0.029 A 
ATOM     62  C   UNL A   1      48.198  28.869  27.044  1.00  0.00     0.049 A 
ATOM     63  H   UNL A   1      46.174  29.065  27.614  1.00  0.00     0.167 HD
ATOM     64  C   UNL A   1      47.244  26.611  26.707  1.00  0.00     0.074 A 
ATOM     65  C   UNL A   1      47.326  25.223  26.305  1.00  0.00     0.031 C 
ATOM     66  C   UNL A   1      48.275  27.489  26.639  1.00  0.00     0.037 A 
BRANCH  53  67
ATOM     67  C   UNL A   1      46.864  33.193  28.508  1.00  0.00     0.058 A 
ATOM     68  C   UNL A   1      46.727  34.169  27.508  1.00  0.00     0.135 A 
ATOM     69  C   UNL A   1      47.323  33.616  29.768  1.00  0.00     0.135 A 
ATOM     70  F   UNL A   1      46.297  33.826  26.284  1.00  0.00    -0.206 F 
ATOM     71  C   UNL A   1      47.022  35.509  27.750  1.00  0.00     0.059 A 
ATOM     72  C   UNL A   1      47.601  34.955  30.040  1.00  0.00     0.059 A 
ATOM     73  F   UNL A   1      47.464  32.731  30.768  1.00  0.00    -0.206 F 
ATOM     74  C   UNL A   1      47.445  35.895  29.023  1.00  0.00     0.060 A 
BRANCH  74  75
ATOM     75  S   UNL A   1      47.753  37.650  29.331  1.00  0.00     0.124 S 
ATOM     76  O   UNL A   1      48.900  37.902  28.463  1.00  0.00    -0.237 OA
ATOM     77  O   UNL A   1      46.497  38.263  28.914  1.00  0.00    -0.237 OA
ATOM     78  O   UNL A   1      48.030  37.703  30.764  1.00  0.00    -0.744 OA
ENDBRANCH  74  75
ENDBRANCH  53  67
BRANCH  54  79
ATOM     79  C   UNL A   1      43.383  23.957  27.119  1.00  0.00     0.058 A 
ATOM     80  C   UNL A   1      43.403  23.000  28.141  1.00  0.00     0.135 A 
ATOM     81  C   UNL A   1      42.817  23.595  25.886  1.00  0.00     0.135 A 
ATOM     82  F   UNL A   1      43.931  23.306  29.336  1.00  0.00    -0.206 F 
ATOM     83  C   UNL A   1      42.900  21.721  27.946  1.00  0.00     0.059 A 
ATOM     84  C   UNL A   1      42.283  22.331  25.675  1.00  0.00     0.059 A 
ATOM     85  F   UNL A   1      42.752  24.489  24.886  1.00  0.00    -0.206 F 
ATOM     86  C   UNL A   1      42.340  21.396  26.708  1.00  0.00     0.060 A 
BRANCH  86  87
ATOM     87  S   UNL A   1      41.654  19.743  26.480  1.00  0.00     0.124 S 
ATOM     88  O   UNL A   1      42.073  19.081  27.711  1.00  0.00    -0.237 OA
ATOM     89  O   UNL A   1      40.226  20.019  26.358  1.00  0.00    -0.237 OA
ATOM     90  O   UNL A   1      42.302  19.275  25.258  1.00  0.00    -0.744 OA
ENDBRANCH  86  87
ENDBRANCH  54  79
BRANCH  66  91
ATOM     91  C   UNL A   1      49.589  26.977  26.114  1.00  0.00     0.058 A 
ATOM     92  C   UNL A   1      49.939  27.119  24.762  1.00  0.00     0.135 A 
ATOM     93  C   UNL A   1      50.528  26.387  26.975  1.00  0.00     0.135 A 
ATOM     94  F   UNL A   1      49.076  27.669  23.894  1.00  0.00    -0.206 F 
ATOM     95  C   UNL A   1      51.166  26.674  24.278  1.00  0.00     0.059 A 
ATOM     96  C   UNL A   1      51.771  25.959  26.519  1.00  0.00     0.059 A 
ATOM     97  F   UNL A   1      50.248  26.234  28.280  1.00  0.00    -0.206 F 
ATOM     98  C   UNL A   1      52.077  26.098  25.165  1.00  0.00     0.060 A 
BRANCH  98  99
ATOM     99  S   UNL A   1      53.676  25.554  24.525  1.00  0.00     0.124 S 
ATOM    100  O   UNL A   1      53.597  25.985  23.132  1.00  0.00    -0.237 OA
ATOM    101  O   UNL A   1      54.613  26.294  25.365  1.00  0.00    -0.237 OA
ATOM    102  O   UNL A   1      53.656  24.110  24.737  1.00  0.00    -0.744 OA
ENDBRANCH  98  99
ENDBRANCH  66  91
ENDBRANCH  40  41
ENDBRANCH  33  35
ENDBRANCH  32  33
ENDBRANCH  31  32
ENDBRANCH  30  31
ENDBRANCH  29  30
ENDBRANCH  28  29
ENDBRANCH   1  28
TORSDOF 25
ENDMDL
MODEL 2
REMARK VINA RESULT:     -10.1      6.594     11.840
REMARK SMILES COc1cc([N+](=O)[O-])cc2c1=N[C@H](C(=O)OCCOCCOCCOC(=O)c1ccc(-c3c4nc(c(-c5c(F)cc(S(=O)(=O)[O-])cc5F)c5ccc([nH]5)c(-c5c(F)cc(S(=O)(=O)[O-])cc5F)c5nc(c(-c6c(F)cc(S(=O)(=O)[O-])cc6F)c6ccc3[nH]6)C=C5)C=C4)cc1)C=2CC[NH3+]
REMARK SMILES IDX 20 1 19 2 18 3 17 4 16 5 14 6 15 7 13 8 3 9 4 10 11 11 5 12
REMARK SMILES IDX 10 13 12 14 9 15 94 16 2 17 1 18 6 19 7 20 8 21 95 22 96 23
REMARK SMILES IDX 97 24 21 28 22 29 23 30 24 31 25 32 26 33 27 34 28 35 29 36
REMARK SMILES IDX 93 37 30 38 92 39 31 40 32 41 33 42 86 43 34 44 91 45 85 46
REMARK SMILES IDX 87 47 35 48 90 49 84 50 83 51 36 53 70 54 49 55 69 56 50 57
REMARK SMILES IDX 53 58 68 59 88 60 51 61 52 62 67 64 89 65 54 66 37 67 38 68
REMARK SMILES IDX 47 69 39 70 40 71 46 72 48 73 41 74 42 75 43 76 44 77 45 78
REMARK SMILES IDX 71 79 72 80 81 81 73 82 74 83 80 84 82 85 75 86 76 87 77 88
REMARK SMILES IDX 78 89 79 90 55 91 56 92 65 93 57 94 58 95 64 96 66 97 59 98
REMARK SMILES IDX 60 99 61 100 62 101 63 102
REMARK H PARENT 97 25 97 26 97 27 87 52 53 63
REMARK Flexibility Score: inf
ROOT
ATOM      1  C   UNL A   1      35.559  20.241  24.871  1.00  0.00     0.188 C 
ENDROOT
BRANCH   1   2
ATOM      2  O   UNL A   1      34.164  20.244  25.122  1.00  0.00    -0.376 OA
BRANCH   2   3
ATOM      3  C   UNL A   1      33.314  19.538  24.230  1.00  0.00     0.202 C 
BRANCH   3   4
ATOM      4  C   UNL A   1      32.280  20.352  23.447  1.00  0.00     0.261 C 
BRANCH   4   5
ATOM      5  O   UNL A   1      32.811  21.579  22.912  1.00  0.00    -0.461 OA
BRANCH   5   6
ATOM      6  C   UNL A   1      32.327  22.736  23.453  1.00  0.00     0.335 C 
ATOM      7  O   UNL A   1      31.229  23.217  23.196  1.00  0.00    -0.249 OA
BRANCH   6   8
ATOM      8  C   UNL A   1      33.355  23.370  24.421  1.00  0.00     0.243 C 
ATOM      9  C   UNL A   1      33.437  27.029  24.168  1.00  0.00     0.151 A 
ATOM     10  C   UNL A   1      32.885  27.894  25.044  1.00  0.00     0.134 A 
ATOM     11  C   UNL A   1      33.371  25.569  24.462  1.00  0.00     0.109 A 
ATOM     12  C   UNL A   1      32.276  27.468  26.299  1.00  0.00     0.273 A 
ATOM     13  C   UNL A   1      32.690  25.202  25.712  1.00  0.00     0.012 A 
ATOM     14  N   UNL A   1      33.866  24.602  23.746  1.00  0.00    -0.261 NA
ATOM     15  C   UNL A   1      32.169  26.167  26.630  1.00  0.00     0.096 A 
ATOM     16  C   UNL A   1      32.725  23.873  25.693  1.00  0.00    -0.019 C 
BRANCH   9  17
ATOM     17  O   UNL A   1      33.973  27.410  22.958  1.00  0.00    -0.494 OA
ATOM     18  C   UNL A   1      33.460  28.668  22.536  1.00  0.00     0.278 C 
ENDBRANCH   9  17
BRANCH  12  19
ATOM     19  N   UNL A   1      31.798  28.457  27.273  1.00  0.00     0.062 N 
ATOM     20  O   UNL A   1      32.183  29.628  27.159  1.00  0.00    -0.258 OA
ATOM     21  O   UNL A   1      30.991  28.061  28.125  1.00  0.00    -0.258 OA
ENDBRANCH  12  19
BRANCH  16  22
ATOM     22  C   UNL A   1      32.161  22.970  26.735  1.00  0.00     0.096 C 
BRANCH  22  23
ATOM     23  C   UNL A   1      33.253  22.591  27.739  1.00  0.00     0.263 C 
BRANCH  23  24
ATOM     24  N   UNL A   1      33.547  21.178  27.715  1.00  0.00    -0.357 N 
ATOM     25  H   UNL A   1      34.274  20.970  28.401  1.00  0.00     0.344 HD
ATOM     26  H   UNL A   1      33.872  20.913  26.785  1.00  0.00     0.344 HD
ATOM     27  H   UNL A   1      32.704  20.651  27.943  1.00  0.00     0.344 HD
ENDBRANCH  23  24
ENDBRANCH  22  23
ENDBRANCH  16  22
ENDBRANCH   6   8
ENDBRANCH   5   6
ENDBRANCH   4   5
ENDBRANCH   3   4
ENDBRANCH   2   3
ENDBRANCH   1   2
BRANCH   1  28
ATOM     28  C   UNL A   1      36.445  21.329  25.511  1.00  0.00     0.188 C 
BRANCH  28  29
ATOM     29  O   UNL A   1      37.726  21.563  24.947  1.00  0.00    -0.376 OA
BRANCH  29  30
ATOM     30  C   UNL A   1      38.787  21.833  25.854  1.00  0.00     0.202 C 
BRANCH  30  31
ATOM     31  C   UNL A   1      38.818  23.243  26.455  1.00  0.00     0.261 C 
BRANCH  31  32
ATOM     32  O   UNL A   1      39.989  23.505  27.256  1.00  0.00    -0.460 OA
BRANCH  32  33
ATOM     33  C   UNL A   1      40.756  24.566  26.868  1.00  0.00     0.338 C 
ATOM     34  O   UNL A   1      41.339  24.681  25.813  1.00  0.00    -0.246 OA
BRANCH  33  35
ATOM     35  C   UNL A   1      40.687  25.654  27.887  1.00  0.00     0.060 A 
ATOM     36  C   UNL A   1      41.756  26.529  28.119  1.00  0.00     0.016 A 
ATOM     37  C   UNL A   1      39.523  25.770  28.658  1.00  0.00     0.016 A 
ATOM     38  C   UNL A   1      41.678  27.484  29.147  1.00  0.00     0.010 A 
ATOM     39  C   UNL A   1      39.457  26.707  29.702  1.00  0.00     0.010 A 
ATOM     40  C   UNL A   1      40.542  27.565  29.969  1.00  0.00    -0.014 A 
BRANCH  40  41
ATOM     41  C   UNL A   1      40.419  28.650  30.986  1.00  0.00     0.031 A 
ATOM     42  C   UNL A   1      39.400  29.761  30.907  1.00  0.00     0.074 A 
ATOM     43  C   UNL A   1      41.267  28.610  32.029  1.00  0.00     0.049 A 
ATOM     44  N   UNL A   1      39.200  30.766  31.727  1.00  0.00    -0.248 NA
ATOM     45  C   UNL A   1      38.491  29.759  29.759  1.00  0.00     0.031 C 
ATOM     46  C   UNL A   1      42.291  27.585  32.235  1.00  0.00     0.029 A 
ATOM     47  N   UNL A   1      41.401  29.444  33.108  1.00  0.00    -0.354 N 
ATOM     48  C   UNL A   1      38.153  31.513  31.187  1.00  0.00     0.074 A 
ATOM     49  C   UNL A   1      37.787  30.870  29.945  1.00  0.00     0.031 C 
ATOM     50  C   UNL A   1      42.956  27.856  33.366  1.00  0.00     0.029 A 
ATOM     51  C   UNL A   1      42.409  29.071  33.961  1.00  0.00     0.049 A 
ATOM     52  H   UNL A   1      40.832  30.234  33.255  1.00  0.00     0.167 HD
ATOM     53  C   UNL A   1      37.537  32.611  31.695  1.00  0.00     0.037 A 
ATOM     54  C   UNL A   1      42.846  29.637  35.102  1.00  0.00     0.037 A 
ATOM     55  C   UNL A   1      37.865  33.209  32.968  1.00  0.00     0.049 A 
ATOM     56  C   UNL A   1      42.147  30.849  35.646  1.00  0.00     0.074 A 
ATOM     57  C   UNL A   1      37.233  34.264  33.608  1.00  0.00     0.029 A 
ATOM     58  N   UNL A   1      38.903  32.810  33.795  1.00  0.00    -0.354 N 
ATOM     59  N   UNL A   1      41.122  31.500  35.153  1.00  0.00    -0.248 NA
ATOM     60  C   UNL A   1      42.653  31.391  36.914  1.00  0.00     0.031 C 
ATOM     61  C   UNL A   1      37.914  34.530  34.801  1.00  0.00     0.029 A 
ATOM     62  C   UNL A   1      38.941  33.611  34.927  1.00  0.00     0.049 A 
ATOM     63  H   UNL A   1      39.521  32.067  33.607  1.00  0.00     0.167 HD
ATOM     64  C   UNL A   1      40.848  32.517  36.061  1.00  0.00     0.074 A 
ATOM     65  C   UNL A   1      41.800  32.381  37.143  1.00  0.00     0.031 C 
ATOM     66  C   UNL A   1      39.894  33.477  36.000  1.00  0.00     0.037 A 
BRANCH  53  67
ATOM     67  C   UNL A   1      36.401  33.242  30.924  1.00  0.00     0.058 A 
ATOM     68  C   UNL A   1      35.081  33.200  31.399  1.00  0.00     0.135 A 
ATOM     69  C   UNL A   1      36.658  34.040  29.795  1.00  0.00     0.135 A 
ATOM     70  F   UNL A   1      34.771  32.452  32.471  1.00  0.00    -0.206 F 
ATOM     71  C   UNL A   1      34.060  33.925  30.788  1.00  0.00     0.059 A 
ATOM     72  C   UNL A   1      35.658  34.795  29.182  1.00  0.00     0.059 A 
ATOM     73  F   UNL A   1      37.903  34.130  29.301  1.00  0.00    -0.206 F 
ATOM     74  C   UNL A   1      34.360  34.731  29.688  1.00  0.00     0.060 A 
BRANCH  74  75
ATOM     75  S   UNL A   1      33.034  35.718  28.957  1.00  0.00     0.124 S 
ATOM     76  O   UNL A   1      33.790  36.755  28.262  1.00  0.00    -0.237 OA
ATOM     77  O   UNL A   1      32.359  34.746  28.103  1.00  0.00    -0.237 OA
ATOM     78  O   UNL A   1      32.267  36.172  30.114  1.00  0.00    -0.744 OA
ENDBRANCH  74  75
ENDBRANCH  53  67
BRANCH  54  79
ATOM     79  C   UNL A   1      43.989  29.024  35.820  1.00  0.00     0.058 A 
ATOM     80  C   UNL A   1      43.789  27.977  36.730  1.00  0.00     0.135 A 
ATOM     81  C   UNL A   1      45.305  29.447  35.579  1.00  0.00     0.135 A 
ATOM     82  F   UNL A   1      42.546  27.539  36.986  1.00  0.00    -0.206 F 
ATOM     83  C   UNL A   1      44.852  27.383  37.395  1.00  0.00     0.059 A 
ATOM     84  C   UNL A   1      46.388  28.850  36.211  1.00  0.00     0.059 A 
ATOM     85  F   UNL A   1      45.547  30.428  34.695  1.00  0.00    -0.206 F 
ATOM     86  C   UNL A   1      46.150  27.825  37.127  1.00  0.00     0.060 A 
BRANCH  86  87
ATOM     87  S   UNL A   1      47.526  27.018  37.969  1.00  0.00     0.124 S 
ATOM     88  O   UNL A   1      48.178  26.324  36.864  1.00  0.00    -0.237 OA
ATOM     89  O   UNL A   1      48.252  28.155  38.525  1.00  0.00    -0.237 OA
ATOM     90  O   UNL A   1      46.866  26.163  38.951  1.00  0.00    -0.744 OA
ENDBRANCH  86  87
ENDBRANCH  54  79
BRANCH  66  91
ATOM     91  C   UNL A   1      39.823  34.460  37.136  1.00  0.00     0.058 A 
ATOM     92  C   UNL A   1      40.517  35.680  37.091  1.00  0.00     0.135 A 
ATOM     93  C   UNL A   1      39.016  34.207  38.257  1.00  0.00     0.135 A 
ATOM     94  F   UNL A   1      41.309  35.968  36.047  1.00  0.00    -0.206 F 
ATOM     95  C   UNL A   1      40.431  36.604  38.127  1.00  0.00     0.059 A 
ATOM     96  C   UNL A   1      38.893  35.130  39.293  1.00  0.00     0.059 A 
ATOM     97  F   UNL A   1      38.323  33.061  38.348  1.00  0.00    -0.206 F 
ATOM     98  C   UNL A   1      39.613  36.322  39.223  1.00  0.00     0.060 A 
BRANCH  98  99
ATOM     99  S   UNL A   1      39.489  37.548  40.543  1.00  0.00     0.124 S 
ATOM    100  O   UNL A   1      39.197  36.706  41.699  1.00  0.00    -0.237 OA
ATOM    101  O   UNL A   1      40.815  38.159  40.523  1.00  0.00    -0.237 OA
ATOM    102  O   UNL A   1      38.398  38.413  40.106  1.00  0.00    -0.744 OA
ENDBRANCH  98  99
ENDBRANCH  66  91
ENDBRANCH  40  41
ENDBRANCH  33  35
ENDBRANCH  32  33
ENDBRANCH  31  32
ENDBRANCH  30  31
ENDBRANCH  29  30
ENDBRANCH  28  29
ENDBRANCH   1  28
TORSDOF 25
ENDMDL
MODEL 3
REMARK VINA RESULT:      -9.9      1.248      2.216
REMARK SMILES COc1cc([N+](=O)[O-])cc2c1=N[C@H](C(=O)OCCOCCOCCOC(=O)c1ccc(-c3c4nc(c(-c5c(F)cc(S(=O)(=O)[O-])cc5F)c5ccc([nH]5)c(-c5c(F)cc(S(=O)(=O)[O-])cc5F)c5nc(c(-c6c(F)cc(S(=O)(=O)[O-])cc6F)c6ccc3[nH]6)C=C5)C=C4)cc1)C=2CC[NH3+]
REMARK SMILES IDX 20 1 19 2 18 3 17 4 16 5 14 6 15 7 13 8 3 9 4 10 11 11 5 12
REMARK SMILES IDX 10 13 12 14 9 15 94 16 2 17 1 18 6 19 7 20 8 21 95 22 96 23
REMARK SMILES IDX 97 24 21 28 22 29 23 30 24 31 25 32 26 33 27 34 28 35 29 36
REMARK SMILES IDX 93 37 30 38 92 39 31 40 32 41 33 42 86 43 34 44 91 45 85 46
REMARK SMILES IDX 87 47 35 48 90 49 84 50 83 51 36 53 70 54 49 55 69 56 50 57
REMARK SMILES IDX 53 58 68 59 88 60 51 61 52 62 67 64 89 65 54 66 37 67 38 68
REMARK SMILES IDX 47 69 39 70 40 71 46 72 48 73 41 74 42 75 43 76 44 77 45 78
REMARK SMILES IDX 71 79 72 80 81 81 73 82 74 83 80 84 82 85 75 86 76 87 77 88
REMARK SMILES IDX 78 89 79 90 55 91 56 92 65 93 57 94 58 95 64 96 66 97 59 98
REMARK SMILES IDX 60 99 61 100 62 101 63 102
REMARK H PARENT 97 25 97 26 97 27 87 52 53 63
REMARK Flexibility Score: inf
ROOT
ATOM      1  C   UNL A   1      33.963  31.083  27.616  1.00  0.00     0.188 C 
ENDROOT
BRANCH   1   2
ATOM      2  O   UNL A   1      33.987  29.668  27.525  1.00  0.00    -0.376 OA
BRANCH   2   3
ATOM      3  C   UNL A   1      33.083  29.032  26.634  1.00  0.00     0.202 C 
BRANCH   3   4
ATOM      4  C   UNL A   1      33.671  28.379  25.379  1.00  0.00     0.261 C 
BRANCH   4   5
ATOM      5  O   UNL A   1      32.893  27.263  24.903  1.00  0.00    -0.461 OA
BRANCH   5   6
ATOM      6  C   UNL A   1      33.367  26.019  25.208  1.00  0.00     0.335 C 
ATOM      7  O   UNL A   1      33.793  25.689  26.309  1.00  0.00    -0.249 OA
BRANCH   6   8
ATOM      8  C   UNL A   1      33.313  25.087  23.974  1.00  0.00     0.243 C 
ATOM      9  C   UNL A   1      35.522  22.179  24.325  1.00  0.00     0.151 A 
ATOM     10  C   UNL A   1      35.132  20.922  24.621  1.00  0.00     0.134 A 
ATOM     11  C   UNL A   1      34.481  23.231  24.150  1.00  0.00     0.109 A 
ATOM     12  C   UNL A   1      33.730  20.531  24.720  1.00  0.00     0.273 A 
ATOM     13  C   UNL A   1      33.091  22.785  24.323  1.00  0.00     0.012 A 
ATOM     14  N   UNL A   1      34.673  24.481  23.843  1.00  0.00    -0.261 NA
ATOM     15  C   UNL A   1      32.734  21.426  24.586  1.00  0.00     0.096 A 
ATOM     16  C   UNL A   1      32.395  23.908  24.174  1.00  0.00    -0.019 C 
BRANCH   9  17
ATOM     17  O   UNL A   1      36.841  22.574  24.274  1.00  0.00    -0.494 OA
ATOM     18  C   UNL A   1      37.656  21.772  25.120  1.00  0.00     0.278 C 
ENDBRANCH   9  17
BRANCH  12  19
ATOM     19  N   UNL A   1      33.357  19.126  24.925  1.00  0.00     0.062 N 
ATOM     20  O   UNL A   1      32.249  18.878  25.418  1.00  0.00    -0.258 OA
ATOM     21  O   UNL A   1      34.164  18.269  24.538  1.00  0.00    -0.258 OA
ENDBRANCH  12  19
BRANCH  16  22
ATOM     22  C   UNL A   1      30.914  24.037  24.259  1.00  0.00     0.096 C 
BRANCH  22  23
ATOM     23  C   UNL A   1      30.472  23.989  25.724  1.00  0.00     0.263 C 
BRANCH  23  24
ATOM     24  N   UNL A   1      29.809  25.205  26.132  1.00  0.00    -0.357 N 
ATOM     25  H   UNL A   1      30.335  25.641  26.889  1.00  0.00     0.344 HD
ATOM     26  H   UNL A   1      28.866  24.987  26.454  1.00  0.00     0.344 HD
ATOM     27  H   UNL A   1      29.758  25.847  25.341  1.00  0.00     0.344 HD
ENDBRANCH  23  24
ENDBRANCH  22  23
ENDBRANCH  16  22
ENDBRANCH   6   8
ENDBRANCH   5   6
ENDBRANCH   4   5
ENDBRANCH   3   4
ENDBRANCH   2   3
ENDBRANCH   1   2
BRANCH   1  28
ATOM     28  C   UNL A   1      35.294  31.858  27.694  1.00  0.00     0.188 C 
BRANCH  28  29
ATOM     29  O   UNL A   1      35.368  32.968  28.575  1.00  0.00    -0.376 OA
BRANCH  29  30
ATOM     30  C   UNL A   1      34.532  32.931  29.725  1.00  0.00     0.202 C 
BRANCH  30  31
ATOM     31  C   UNL A   1      35.156  32.336  30.993  1.00  0.00     0.261 C 
BRANCH  31  32
ATOM     32  O   UNL A   1      36.514  31.885  30.813  1.00  0.00    -0.460 OA
BRANCH  32  33
ATOM     33  C   UNL A   1      36.718  30.538  30.915  1.00  0.00     0.338 C 
ATOM     34  O   UNL A   1      35.893  29.710  31.228  1.00  0.00    -0.246 OA
BRANCH  33  35
ATOM     35  C   UNL A   1      38.096  30.189  30.462  1.00  0.00     0.060 A 
ATOM     36  C   UNL A   1      39.149  29.984  31.362  1.00  0.00     0.016 A 
ATOM     37  C   UNL A   1      38.342  30.103  29.084  1.00  0.00     0.016 A 
ATOM     38  C   UNL A   1      40.450  29.742  30.887  1.00  0.00     0.010 A 
ATOM     39  C   UNL A   1      39.646  29.886  28.611  1.00  0.00     0.010 A 
ATOM     40  C   UNL A   1      40.719  29.719  29.508  1.00  0.00    -0.014 A 
BRANCH  40  41
ATOM     41  C   UNL A   1      42.076  29.352  29.008  1.00  0.00     0.031 A 
ATOM     42  C   UNL A   1      43.228  30.324  28.918  1.00  0.00     0.074 A 
ATOM     43  C   UNL A   1      42.265  28.075  28.632  1.00  0.00     0.049 A 
ATOM     44  N   UNL A   1      44.453  30.125  28.493  1.00  0.00    -0.248 NA
ATOM     45  C   UNL A   1      42.979  31.702  29.347  1.00  0.00     0.031 C 
ATOM     46  C   UNL A   1      41.242  27.029  28.680  1.00  0.00     0.029 A 
ATOM     47  N   UNL A   1      43.375  27.439  28.141  1.00  0.00    -0.354 N 
ATOM     48  C   UNL A   1      45.110  31.351  28.597  1.00  0.00     0.074 A 
ATOM     49  C   UNL A   1      44.135  32.300  29.086  1.00  0.00     0.031 C 
ATOM     50  C   UNL A   1      41.769  25.883  28.228  1.00  0.00     0.029 A 
ATOM     51  C   UNL A   1      43.162  26.114  27.855  1.00  0.00     0.049 A 
ATOM     52  H   UNL A   1      44.241  27.889  28.006  1.00  0.00     0.167 HD
ATOM     53  C   UNL A   1      46.410  31.647  28.340  1.00  0.00     0.037 A 
ATOM     54  C   UNL A   1      43.992  25.181  27.355  1.00  0.00     0.037 A 
ATOM     55  C   UNL A   1      47.394  30.680  27.915  1.00  0.00     0.049 A 
ATOM     56  C   UNL A   1      45.426  25.530  27.081  1.00  0.00     0.074 A 
ATOM     57  C   UNL A   1      48.754  30.867  27.723  1.00  0.00     0.029 A 
ATOM     58  N   UNL A   1      47.134  29.350  27.623  1.00  0.00    -0.354 N 
ATOM     59  N   UNL A   1      46.040  26.677  27.246  1.00  0.00    -0.248 NA
ATOM     60  C   UNL A   1      46.285  24.453  26.572  1.00  0.00     0.031 C 
ATOM     61  C   UNL A   1      49.307  29.663  27.273  1.00  0.00     0.029 A 
ATOM     62  C   UNL A   1      48.302  28.713  27.231  1.00  0.00     0.049 A 
ATOM     63  H   UNL A   1      46.250  28.921  27.685  1.00  0.00     0.167 HD
ATOM     64  C   UNL A   1      47.363  26.451  26.879  1.00  0.00     0.074 A 
ATOM     65  C   UNL A   1      47.464  25.057  26.505  1.00  0.00     0.031 C 
ATOM     66  C   UNL A   1      48.398  27.326  26.854  1.00  0.00     0.037 A 
BRANCH  53  67
ATOM     67  C   UNL A   1      46.899  33.062  28.547  1.00  0.00     0.058 A 
ATOM     68  C   UNL A   1      46.716  34.051  27.568  1.00  0.00     0.135 A 
ATOM     69  C   UNL A   1      47.397  33.472  29.797  1.00  0.00     0.135 A 
ATOM     70  F   UNL A   1      46.247  33.722  26.354  1.00  0.00    -0.206 F 
ATOM     71  C   UNL A   1      47.004  35.391  27.819  1.00  0.00     0.059 A 
ATOM     72  C   UNL A   1      47.669  34.811  30.079  1.00  0.00     0.059 A 
ATOM     73  F   UNL A   1      47.582  32.574  30.778  1.00  0.00    -0.206 F 
ATOM     74  C   UNL A   1      47.467  35.764  29.082  1.00  0.00     0.060 A 
BRANCH  74  75
ATOM     75  S   UNL A   1      47.767  37.517  29.406  1.00  0.00     0.124 S 
ATOM     76  O   UNL A   1      46.758  37.804  30.421  1.00  0.00    -0.237 OA
ATOM     77  O   UNL A   1      49.150  37.515  29.871  1.00  0.00    -0.237 OA
ATOM     78  O   UNL A   1      47.544  38.147  28.108  1.00  0.00    -0.744 OA
ENDBRANCH  74  75
ENDBRANCH  53  67
BRANCH  54  79
ATOM     79  C   UNL A   1      43.479  23.809  27.121  1.00  0.00     0.058 A 
ATOM     80  C   UNL A   1      43.295  22.919  28.187  1.00  0.00     0.135 A 
ATOM     81  C   UNL A   1      43.127  23.379  25.832  1.00  0.00     0.135 A 
ATOM     82  F   UNL A   1      43.615  23.292  29.436  1.00  0.00    -0.206 F 
ATOM     83  C   UNL A   1      42.799  21.638  27.983  1.00  0.00     0.059 A 
ATOM     84  C   UNL A   1      42.603  22.112  25.607  1.00  0.00     0.059 A 
ATOM     85  F   UNL A   1      43.261  24.208  24.785  1.00  0.00    -0.206 F 
ATOM     86  C   UNL A   1      42.454  21.245  26.688  1.00  0.00     0.060 A 
BRANCH  86  87
ATOM     87  S   UNL A   1      41.774  19.592  26.443  1.00  0.00     0.124 S 
ATOM     88  O   UNL A   1      42.406  19.200  25.188  1.00  0.00    -0.237 OA
ATOM     89  O   UNL A   1      42.236  18.892  27.637  1.00  0.00    -0.237 OA
ATOM     90  O   UNL A   1      40.334  19.826  26.380  1.00  0.00    -0.744 OA
ENDBRANCH  86  87
ENDBRANCH  54  79
BRANCH  66  91
ATOM     91  C   UNL A   1      49.737  26.804  26.410  1.00  0.00     0.058 A 
ATOM     92  C   UNL A   1      50.100  26.784  25.054  1.00  0.00     0.135 A 
ATOM     93  C   UNL A   1      50.687  26.369  27.348  1.00  0.00     0.135 A 
ATOM     94  F   UNL A   1      49.227  27.181  24.115  1.00  0.00    -0.206 F 
ATOM     95  C   UNL A   1      51.349  26.329  24.642  1.00  0.00     0.059 A 
ATOM     96  C   UNL A   1      51.953  25.937  26.961  1.00  0.00     0.059 A 
ATOM     97  F   UNL A   1      50.396  26.376  28.659  1.00  0.00    -0.206 F 
ATOM     98  C   UNL A   1      52.270  25.911  25.603  1.00  0.00     0.060 A 
BRANCH  98  99
ATOM     99  S   UNL A   1      53.897  25.354  25.053  1.00  0.00     0.124 S 
ATOM    100  O   UNL A   1      54.701  25.558  26.254  1.00  0.00    -0.237 OA
ATOM    101  O   UNL A   1      53.642  23.963  24.691  1.00  0.00    -0.237 OA
ATOM    102  O   UNL A   1      54.203  26.241  23.935  1.00  0.00    -0.744 OA
ENDBRANCH  98  99
ENDBRANCH  66  91
ENDBRANCH  40  41
ENDBRANCH  33  35
ENDBRANCH  32  33
ENDBRANCH  31  32
ENDBRANCH  30  31
ENDBRANCH  29  30
ENDBRANCH  28  29
ENDBRANCH   1  28
TORSDOF 25
ENDMDL
