MODEL 1
REMARK VINA RESULT:     -10.9      0.000      0.000
REMARK SMILES CC[NH+]1CC[NH+]([C@@H]2CC(=O)N(c3ccc(C(=O)OCCOCCOCCOC(=O)c4ccc(-c5c6nc(c(-c7c(F)cc(S(=O)(=O)[O-])cc7F)c7ccc([nH]7)c(-c7c(F)cc(S(=O)(=O)[O-])cc7F)c7nc(c(-c8c(F)cc(S(=O)(=O)[O-])cc8F)c8ccc5[nH]8)C=C7)C=C6)cc4)cc3)C2=O)CC1
REMARK SMILES IDX 22 1 21 2 20 3 19 4 18 5 16 6 17 7 15 8 12 9 13 10 97 11
REMARK SMILES IDX 14 12 96 13 11 14 7 15 8 16 98 17 9 18 99 19 10 20 6 21 3 22
REMARK SMILES IDX 4 23 101 24 5 26 100 27 2 29 1 30 23 31 24 32 25 33 26 34
REMARK SMILES IDX 27 35 28 36 29 37 30 38 31 39 95 40 32 41 94 42 33 43 34 44
REMARK SMILES IDX 35 45 88 46 36 47 93 48 87 49 89 50 37 51 92 52 86 53 85 54
REMARK SMILES IDX 38 56 72 57 51 58 71 59 52 60 55 61 70 62 90 63 53 64 54 65
REMARK SMILES IDX 69 67 91 68 56 69 39 70 40 71 49 72 41 73 42 74 48 75 50 76
REMARK SMILES IDX 43 77 44 78 45 79 46 80 47 81 73 82 74 83 83 84 75 85 76 86
REMARK SMILES IDX 82 87 84 88 77 89 78 90 79 91 80 92 81 93 57 94 58 95 67 96
REMARK SMILES IDX 59 97 60 98 66 99 68 100 61 101 62 102 63 103 64 104 65 105
REMARK H PARENT 3 25 6 28 89 55 55 66
REMARK Flexibility Score: inf
ROOT
ATOM      1  C   UNL A   1      37.147  20.537  24.667  1.00  0.00     0.188 C 
ENDROOT
BRANCH   1   2
ATOM      2  O   UNL A   1      35.995  19.772  24.932  1.00  0.00    -0.376 OA
BRANCH   2   3
ATOM      3  C   UNL A   1      35.949  18.386  24.639  1.00  0.00     0.202 C 
BRANCH   3   4
ATOM      4  C   UNL A   1      34.679  17.533  24.458  1.00  0.00     0.261 C 
BRANCH   4   5
ATOM      5  O   UNL A   1      33.573  18.128  23.783  1.00  0.00    -0.460 OA
BRANCH   5   6
ATOM      6  C   UNL A   1      32.619  18.655  24.593  1.00  0.00     0.338 C 
ATOM      7  O   UNL A   1      32.068  18.118  25.534  1.00  0.00    -0.246 OA
BRANCH   6   8
ATOM      8  C   UNL A   1      32.481  20.092  24.284  1.00  0.00     0.060 A 
ATOM      9  C   UNL A   1      32.225  22.794  23.610  1.00  0.00     0.052 A 
ATOM     10  C   UNL A   1      32.135  21.806  22.618  1.00  0.00     0.028 A 
ATOM     11  C   UNL A   1      32.384  22.405  24.948  1.00  0.00     0.028 A 
ATOM     12  C   UNL A   1      32.307  20.462  22.947  1.00  0.00     0.018 A 
ATOM     13  C   UNL A   1      32.480  21.055  25.293  1.00  0.00     0.018 A 
BRANCH   9  14
ATOM     14  N   UNL A   1      32.280  24.154  23.233  1.00  0.00    -0.245 N 
ATOM     15  C   UNL A   1      33.117  26.340  22.999  1.00  0.00     0.285 C 
ATOM     16  C   UNL A   1      31.595  26.375  22.982  1.00  0.00     0.176 C 
ATOM     17  C   UNL A   1      33.449  24.853  23.041  1.00  0.00     0.292 C 
ATOM     18  C   UNL A   1      31.169  24.950  23.134  1.00  0.00     0.240 C 
ATOM     19  O   UNL A   1      34.574  24.386  22.912  1.00  0.00    -0.267 OA
ATOM     20  O   UNL A   1      29.989  24.627  23.211  1.00  0.00    -0.274 OA
BRANCH  15  21
ATOM     21  N   UNL A   1      33.857  27.079  24.039  1.00  0.00    -0.315 N 
ATOM     22  N   UNL A   1      32.475  28.534  26.280  1.00  0.00    -0.326 N 
ATOM     23  C   UNL A   1      32.562  29.095  24.925  1.00  0.00     0.324 C 
ATOM     24  C   UNL A   1      32.607  27.065  26.253  1.00  0.00     0.324 C 
ATOM     25  H   UNL A   1      31.539  28.808  26.581  1.00  0.00     0.348 HD
ATOM     26  C   UNL A   1      33.689  28.538  24.021  1.00  0.00     0.325 C 
ATOM     27  C   UNL A   1      33.806  26.568  25.417  1.00  0.00     0.325 C 
ATOM     28  H   UNL A   1      34.802  26.870  23.719  1.00  0.00     0.349 HD
BRANCH  22  29
ATOM     29  C   UNL A   1      33.337  29.122  27.318  1.00  0.00     0.259 C 
ATOM     30  C   UNL A   1      34.109  30.399  27.009  1.00  0.00     0.071 C 
ENDBRANCH  22  29
ENDBRANCH  15  21
ENDBRANCH   9  14
ENDBRANCH   6   8
ENDBRANCH   5   6
ENDBRANCH   4   5
ENDBRANCH   3   4
ENDBRANCH   2   3
ENDBRANCH   1   2
BRANCH   1  31
ATOM     31  C   UNL A   1      36.957  22.048  24.420  1.00  0.00     0.188 C 
BRANCH  31  32
ATOM     32  O   UNL A   1      37.611  22.989  25.245  1.00  0.00    -0.376 OA
BRANCH  32  33
ATOM     33  C   UNL A   1      38.316  22.553  26.395  1.00  0.00     0.202 C 
BRANCH  33  34
ATOM     34  C   UNL A   1      39.852  22.522  26.515  1.00  0.00     0.261 C 
BRANCH  34  35
ATOM     35  O   UNL A   1      40.558  23.742  26.270  1.00  0.00    -0.460 OA
BRANCH  35  36
ATOM     36  C   UNL A   1      41.608  23.979  27.097  1.00  0.00     0.338 C 
ATOM     37  O   UNL A   1      42.655  23.360  27.155  1.00  0.00    -0.246 OA
BRANCH  36  38
ATOM     38  C   UNL A   1      41.360  25.231  27.835  1.00  0.00     0.060 A 
ATOM     39  C   UNL A   1      42.374  26.199  27.899  1.00  0.00     0.016 A 
ATOM     40  C   UNL A   1      40.153  25.419  28.506  1.00  0.00     0.016 A 
ATOM     41  C   UNL A   1      42.186  27.357  28.653  1.00  0.00     0.010 A 
ATOM     42  C   UNL A   1      39.977  26.568  29.281  1.00  0.00     0.010 A 
ATOM     43  C   UNL A   1      41.003  27.527  29.382  1.00  0.00    -0.014 A 
BRANCH  43  44
ATOM     44  C   UNL A   1      40.893  28.594  30.407  1.00  0.00     0.031 A 
ATOM     45  C   UNL A   1      41.796  28.512  31.608  1.00  0.00     0.074 A 
ATOM     46  C   UNL A   1      39.994  29.588  30.294  1.00  0.00     0.049 A 
ATOM     47  N   UNL A   1      41.783  29.223  32.705  1.00  0.00    -0.248 NA
ATOM     48  C   UNL A   1      42.848  27.480  31.571  1.00  0.00     0.031 C 
ATOM     49  C   UNL A   1      39.100  29.799  29.157  1.00  0.00     0.029 A 
ATOM     50  N   UNL A   1      39.667  30.594  31.170  1.00  0.00    -0.354 N 
ATOM     51  C   UNL A   1      42.802  28.708  33.498  1.00  0.00     0.074 A 
ATOM     52  C   UNL A   1      43.407  27.619  32.764  1.00  0.00     0.031 C 
ATOM     53  C   UNL A   1      38.306  30.853  29.417  1.00  0.00     0.029 A 
ATOM     54  C   UNL A   1      38.603  31.362  30.755  1.00  0.00     0.049 A 
ATOM     55  H   UNL A   1      40.148  30.751  32.015  1.00  0.00     0.167 HD
ATOM     56  C   UNL A   1      43.195  29.109  34.728  1.00  0.00     0.037 A 
ATOM     57  C   UNL A   1      37.927  32.337  31.399  1.00  0.00     0.037 A 
ATOM     58  C   UNL A   1      42.597  30.205  35.444  1.00  0.00     0.049 A 
ATOM     59  C   UNL A   1      38.347  32.724  32.799  1.00  0.00     0.074 A 
ATOM     60  C   UNL A   1      42.946  30.711  36.684  1.00  0.00     0.029 A 
ATOM     61  N   UNL A   1      41.528  30.961  34.988  1.00  0.00    -0.354 N 
ATOM     62  N   UNL A   1      39.328  32.247  33.530  1.00  0.00    -0.248 NA
ATOM     63  C   UNL A   1      37.568  33.779  33.464  1.00  0.00     0.031 C 
ATOM     64  C   UNL A   1      42.049  31.733  37.005  1.00  0.00     0.029 A 
ATOM     65  C   UNL A   1      41.188  31.913  35.935  1.00  0.00     0.049 A 
ATOM     66  H   UNL A   1      41.078  30.839  34.121  1.00  0.00     0.167 HD
ATOM     67  C   UNL A   1      39.312  32.979  34.714  1.00  0.00     0.074 A 
ATOM     68  C   UNL A   1      38.225  33.927  34.606  1.00  0.00     0.031 C 
ATOM     69  C   UNL A   1      40.129  32.879  35.792  1.00  0.00     0.037 A 
BRANCH  56  70
ATOM     70  C   UNL A   1      44.303  28.352  35.403  1.00  0.00     0.058 A 
ATOM     71  C   UNL A   1      44.048  27.312  36.310  1.00  0.00     0.135 A 
ATOM     72  C   UNL A   1      45.642  28.616  35.069  1.00  0.00     0.135 A 
ATOM     73  F   UNL A   1      42.789  27.032  36.680  1.00  0.00    -0.206 F 
ATOM     74  C   UNL A   1      45.080  26.563  36.864  1.00  0.00     0.059 A 
ATOM     75  C   UNL A   1      46.688  27.863  35.589  1.00  0.00     0.059 A 
ATOM     76  F   UNL A   1      45.941  29.606  34.212  1.00  0.00    -0.206 F 
ATOM     77  C   UNL A   1      46.397  26.839  36.488  1.00  0.00     0.060 A 
BRANCH  77  78
ATOM     78  S   UNL A   1      47.720  25.818  37.173  1.00  0.00     0.124 S 
ATOM     79  O   UNL A   1      47.182  25.486  38.489  1.00  0.00    -0.237 OA
ATOM     80  O   UNL A   1      47.787  24.716  36.219  1.00  0.00    -0.237 OA
ATOM     81  O   UNL A   1      48.874  26.713  37.176  1.00  0.00    -0.744 OA
ENDBRANCH  77  78
ENDBRANCH  56  70
BRANCH  57  82
ATOM     82  C   UNL A   1      36.761  33.005  30.756  1.00  0.00     0.058 A 
ATOM     83  C   UNL A   1      36.943  33.978  29.761  1.00  0.00     0.135 A 
ATOM     84  C   UNL A   1      35.446  32.727  31.161  1.00  0.00     0.135 A 
ATOM     85  F   UNL A   1      38.180  34.289  29.345  1.00  0.00    -0.206 F 
ATOM     86  C   UNL A   1      35.869  34.679  29.219  1.00  0.00     0.059 A 
ATOM     87  C   UNL A   1      34.354  33.391  30.610  1.00  0.00     0.059 A 
ATOM     88  F   UNL A   1      35.212  31.799  32.102  1.00  0.00    -0.206 F 
ATOM     89  C   UNL A   1      34.577  34.380  29.654  1.00  0.00     0.060 A 
BRANCH  89  90
ATOM     90  S   UNL A   1      33.192  35.296  28.945  1.00  0.00     0.124 S 
ATOM     91  O   UNL A   1      33.875  36.416  28.309  1.00  0.00    -0.237 OA
ATOM     92  O   UNL A   1      32.604  34.310  28.042  1.00  0.00    -0.237 OA
ATOM     93  O   UNL A   1      32.379  35.631  30.110  1.00  0.00    -0.744 OA
ENDBRANCH  89  90
ENDBRANCH  57  82
BRANCH  69  94
ATOM     94  C   UNL A   1      39.948  33.867  36.914  1.00  0.00     0.058 A 
ATOM     95  C   UNL A   1      40.460  35.171  36.853  1.00  0.00     0.135 A 
ATOM     96  C   UNL A   1      39.162  33.524  38.028  1.00  0.00     0.135 A 
ATOM     97  F   UNL A   1      41.222  35.551  35.814  1.00  0.00    -0.206 F 
ATOM     98  C   UNL A   1      40.210  36.098  37.861  1.00  0.00     0.059 A 
ATOM     99  C   UNL A   1      38.873  34.442  39.031  1.00  0.00     0.059 A 
ATOM    100  F   UNL A   1      38.637  32.292  38.131  1.00  0.00    -0.206 F 
ATOM    101  C   UNL A   1      39.407  35.725  38.943  1.00  0.00     0.060 A 
BRANCH 101 102
ATOM    102  S   UNL A   1      39.038  36.956  40.211  1.00  0.00     0.124 S 
ATOM    103  O   UNL A   1      38.467  38.038  39.414  1.00  0.00    -0.237 OA
ATOM    104  O   UNL A   1      38.101  36.243  41.074  1.00  0.00    -0.237 OA
ATOM    105  O   UNL A   1      40.341  37.237  40.806  1.00  0.00    -0.744 OA
ENDBRANCH 101 102
ENDBRANCH  69  94
ENDBRANCH  43  44
ENDBRANCH  36  38
ENDBRANCH  35  36
ENDBRANCH  34  35
ENDBRANCH  33  34
ENDBRANCH  32  33
ENDBRANCH  31  32
ENDBRANCH   1  31
TORSDOF 23
ENDMDL
MODEL 2
REMARK VINA RESULT:     -10.7      6.224     12.319
REMARK SMILES CC[NH+]1CC[NH+]([C@@H]2CC(=O)N(c3ccc(C(=O)OCCOCCOCCOC(=O)c4ccc(-c5c6nc(c(-c7c(F)cc(S(=O)(=O)[O-])cc7F)c7ccc([nH]7)c(-c7c(F)cc(S(=O)(=O)[O-])cc7F)c7nc(c(-c8c(F)cc(S(=O)(=O)[O-])cc8F)c8ccc5[nH]8)C=C7)C=C6)cc4)cc3)C2=O)CC1
REMARK SMILES IDX 22 1 21 2 20 3 19 4 18 5 16 6 17 7 15 8 12 9 13 10 97 11
REMARK SMILES IDX 14 12 96 13 11 14 7 15 8 16 98 17 9 18 99 19 10 20 6 21 3 22
REMARK SMILES IDX 4 23 101 24 5 26 100 27 2 29 1 30 23 31 24 32 25 33 26 34
REMARK SMILES IDX 27 35 28 36 29 37 30 38 31 39 95 40 32 41 94 42 33 43 34 44
REMARK SMILES IDX 35 45 88 46 36 47 93 48 87 49 89 50 37 51 92 52 86 53 85 54
REMARK SMILES IDX 38 56 72 57 51 58 71 59 52 60 55 61 70 62 90 63 53 64 54 65
REMARK SMILES IDX 69 67 91 68 56 69 39 70 40 71 49 72 41 73 42 74 48 75 50 76
REMARK SMILES IDX 43 77 44 78 45 79 46 80 47 81 73 82 74 83 83 84 75 85 76 86
REMARK SMILES IDX 82 87 84 88 77 89 78 90 79 91 80 92 81 93 57 94 58 95 67 96
REMARK SMILES IDX 59 97 60 98 66 99 68 100 61 101 62 102 63 103 64 104 65 105
REMARK H PARENT 3 25 6 28 89 55 55 66
REMARK Flexibility Score: inf
ROOT
ATOM      1  C   UNL A   1      32.958  35.507  31.880  1.00  0.00     0.188 C 
ENDROOT
BRANCH   1   2
ATOM      2  O   UNL A   1      32.511  35.411  30.548  1.00  0.00    -0.376 OA
BRANCH   2   3
ATOM      3  C   UNL A   1      33.343  35.787  29.464  1.00  0.00     0.202 C 
BRANCH   3   4
ATOM      4  C   UNL A   1      34.222  34.847  28.618  1.00  0.00     0.261 C 
BRANCH   4   5
ATOM      5  O   UNL A   1      34.004  33.443  28.749  1.00  0.00    -0.460 OA
BRANCH   5   6
ATOM      6  C   UNL A   1      34.893  32.658  28.088  1.00  0.00     0.338 C 
ATOM      7  O   UNL A   1      36.106  32.743  28.098  1.00  0.00    -0.246 OA
BRANCH   6   8
ATOM      8  C   UNL A   1      34.165  31.523  27.488  1.00  0.00     0.060 A 
ATOM      9  C   UNL A   1      32.708  29.420  26.359  1.00  0.00     0.052 A 
ATOM     10  C   UNL A   1      32.122  30.685  26.509  1.00  0.00     0.028 A 
ATOM     11  C   UNL A   1      34.051  29.241  26.726  1.00  0.00     0.028 A 
ATOM     12  C   UNL A   1      32.833  31.722  27.112  1.00  0.00     0.018 A 
ATOM     13  C   UNL A   1      34.791  30.298  27.261  1.00  0.00     0.018 A 
BRANCH   9  14
ATOM     14  N   UNL A   1      31.908  28.326  25.961  1.00  0.00    -0.245 N 
ATOM     15  C   UNL A   1      30.843  26.230  26.055  1.00  0.00     0.285 C 
ATOM     16  C   UNL A   1      31.069  26.620  24.600  1.00  0.00     0.176 C 
ATOM     17  C   UNL A   1      31.308  27.452  26.839  1.00  0.00     0.292 C 
ATOM     18  C   UNL A   1      31.743  27.954  24.652  1.00  0.00     0.240 C 
ATOM     19  O   UNL A   1      31.153  27.609  28.043  1.00  0.00    -0.267 OA
ATOM     20  O   UNL A   1      32.116  28.536  23.641  1.00  0.00    -0.274 OA
BRANCH  15  21
ATOM     21  N   UNL A   1      31.450  24.996  26.586  1.00  0.00    -0.315 N 
ATOM     22  N   UNL A   1      32.311  22.723  24.813  1.00  0.00    -0.326 N 
ATOM     23  C   UNL A   1      30.903  22.941  25.171  1.00  0.00     0.324 C 
ATOM     24  C   UNL A   1      33.084  23.976  24.927  1.00  0.00     0.324 C 
ATOM     25  H   UNL A   1      32.255  22.420  23.841  1.00  0.00     0.348 HD
ATOM     26  C   UNL A   1      30.639  23.779  26.446  1.00  0.00     0.325 C 
ATOM     27  C   UNL A   1      32.858  24.722  26.260  1.00  0.00     0.325 C 
ATOM     28  H   UNL A   1      31.458  25.253  27.573  1.00  0.00     0.349 HD
BRANCH  22  29
ATOM     29  C   UNL A   1      33.016  21.608  25.464  1.00  0.00     0.259 C 
ATOM     30  C   UNL A   1      34.540  21.583  25.455  1.00  0.00     0.071 C 
ENDBRANCH  22  29
ENDBRANCH  15  21
ENDBRANCH   9  14
ENDBRANCH   6   8
ENDBRANCH   5   6
ENDBRANCH   4   5
ENDBRANCH   3   4
ENDBRANCH   2   3
ENDBRANCH   1   2
BRANCH   1  31
ATOM     31  C   UNL A   1      34.480  35.594  32.116  1.00  0.00     0.188 C 
BRANCH  31  32
ATOM     32  O   UNL A   1      35.231  34.420  32.342  1.00  0.00    -0.376 OA
BRANCH  32  33
ATOM     33  C   UNL A   1      34.678  33.154  32.024  1.00  0.00     0.202 C 
BRANCH  33  34
ATOM     34  C   UNL A   1      35.509  31.886  31.745  1.00  0.00     0.261 C 
BRANCH  34  35
ATOM     35  O   UNL A   1      36.860  32.066  31.312  1.00  0.00    -0.460 OA
BRANCH  35  36
ATOM     36  C   UNL A   1      37.809  31.610  32.170  1.00  0.00     0.338 C 
ATOM     37  O   UNL A   1      37.757  31.596  33.386  1.00  0.00    -0.246 OA
BRANCH  36  38
ATOM     38  C   UNL A   1      38.885  30.968  31.393  1.00  0.00     0.060 A 
ATOM     39  C   UNL A   1      39.899  30.277  32.072  1.00  0.00     0.016 A 
ATOM     40  C   UNL A   1      38.919  31.099  30.005  1.00  0.00     0.016 A 
ATOM     41  C   UNL A   1      40.966  29.727  31.361  1.00  0.00     0.010 A 
ATOM     42  C   UNL A   1      40.001  30.569  29.298  1.00  0.00     0.010 A 
ATOM     43  C   UNL A   1      41.043  29.906  29.975  1.00  0.00    -0.014 A 
BRANCH  43  44
ATOM     44  C   UNL A   1      42.291  29.588  29.240  1.00  0.00     0.031 A 
ATOM     45  C   UNL A   1      42.448  28.196  28.689  1.00  0.00     0.074 A 
ATOM     46  C   UNL A   1      43.274  30.495  29.094  1.00  0.00     0.049 A 
ATOM     47  N   UNL A   1      43.498  27.628  28.155  1.00  0.00    -0.248 NA
ATOM     48  C   UNL A   1      41.264  27.321  28.764  1.00  0.00     0.031 C 
ATOM     49  C   UNL A   1      43.217  31.885  29.541  1.00  0.00     0.029 A 
ATOM     50  N   UNL A   1      44.527  30.367  28.549  1.00  0.00    -0.354 N 
ATOM     51  C   UNL A   1      43.111  26.328  27.856  1.00  0.00     0.074 A 
ATOM     52  C   UNL A   1      41.735  26.183  28.277  1.00  0.00     0.031 C 
ATOM     53  C   UNL A   1      44.396  32.476  29.277  1.00  0.00     0.029 A 
ATOM     54  C   UNL A   1      45.304  31.495  28.684  1.00  0.00     0.049 A 
ATOM     55  H   UNL A   1      44.841  29.547  28.104  1.00  0.00     0.167 HD
ATOM     56  C   UNL A   1      43.840  25.343  27.283  1.00  0.00     0.037 A 
ATOM     57  C   UNL A   1      46.608  31.695  28.398  1.00  0.00     0.037 A 
ATOM     58  C   UNL A   1      45.204  25.502  26.852  1.00  0.00     0.049 A 
ATOM     59  C   UNL A   1      47.418  30.559  27.815  1.00  0.00     0.074 A 
ATOM     60  C   UNL A   1      46.020  24.573  26.230  1.00  0.00     0.029 A 
ATOM     61  N   UNL A   1      45.953  26.659  27.001  1.00  0.00    -0.354 N 
ATOM     62  N   UNL A   1      47.035  29.340  27.513  1.00  0.00    -0.248 NA
ATOM     63  C   UNL A   1      48.837  30.823  27.536  1.00  0.00     0.031 C 
ATOM     64  C   UNL A   1      47.281  25.149  26.057  1.00  0.00     0.029 A 
ATOM     65  C   UNL A   1      47.230  26.459  26.505  1.00  0.00     0.049 A 
ATOM     66  H   UNL A   1      45.626  27.498  27.400  1.00  0.00     0.167 HD
ATOM     67  C   UNL A   1      48.151  28.714  26.964  1.00  0.00     0.074 A 
ATOM     68  C   UNL A   1      49.224  29.684  26.978  1.00  0.00     0.031 C 
ATOM     69  C   UNL A   1      48.275  27.451  26.486  1.00  0.00     0.037 A 
BRANCH  56  70
ATOM     70  C   UNL A   1      43.201  23.995  27.107  1.00  0.00     0.058 A 
ATOM     71  C   UNL A   1      43.032  23.108  28.180  1.00  0.00     0.135 A 
ATOM     72  C   UNL A   1      42.673  23.623  25.859  1.00  0.00     0.135 A 
ATOM     73  F   UNL A   1      43.535  23.404  29.389  1.00  0.00    -0.206 F 
ATOM     74  C   UNL A   1      42.364  21.898  28.023  1.00  0.00     0.059 A 
ATOM     75  C   UNL A   1      41.977  22.432  25.685  1.00  0.00     0.059 A 
ATOM     76  F   UNL A   1      42.815  24.433  24.797  1.00  0.00    -0.206 F 
ATOM     77  C   UNL A   1      41.830  21.574  26.773  1.00  0.00     0.060 A 
BRANCH  77  78
ATOM     78  S   UNL A   1      40.917  20.027  26.602  1.00  0.00     0.124 S 
ATOM     79  O   UNL A   1      41.781  19.274  25.698  1.00  0.00    -0.237 OA
ATOM     80  O   UNL A   1      40.865  19.543  27.978  1.00  0.00    -0.237 OA
ATOM     81  O   UNL A   1      39.637  20.446  26.039  1.00  0.00    -0.744 OA
ENDBRANCH  77  78
ENDBRANCH  56  70
BRANCH  57  82
ATOM     82  C   UNL A   1      47.255  33.007  28.678  1.00  0.00     0.058 A 
ATOM     83  C   UNL A   1      47.792  33.294  29.942  1.00  0.00     0.135 A 
ATOM     84  C   UNL A   1      47.300  34.021  27.708  1.00  0.00     0.135 A 
ATOM     85  F   UNL A   1      47.765  32.364  30.909  1.00  0.00    -0.206 F 
ATOM     86  C   UNL A   1      48.313  34.548  30.248  1.00  0.00     0.059 A 
ATOM     87  C   UNL A   1      47.847  35.272  27.979  1.00  0.00     0.059 A 
ATOM     88  F   UNL A   1      46.810  33.799  26.478  1.00  0.00    -0.206 F 
ATOM     89  C   UNL A   1      48.332  35.533  29.259  1.00  0.00     0.060 A 
BRANCH  89  90
ATOM     90  S   UNL A   1      49.010  37.156  29.667  1.00  0.00     0.124 S 
ATOM     91  O   UNL A   1      50.310  36.799  30.226  1.00  0.00    -0.237 OA
ATOM     92  O   UNL A   1      49.035  37.814  28.363  1.00  0.00    -0.237 OA
ATOM     93  O   UNL A   1      48.041  37.696  30.615  1.00  0.00    -0.744 OA
ENDBRANCH  89  90
ENDBRANCH  57  82
BRANCH  69  94
ATOM     94  C   UNL A   1      49.583  27.055  25.856  1.00  0.00     0.058 A 
ATOM     95  C   UNL A   1      49.838  27.228  24.488  1.00  0.00     0.135 A 
ATOM     96  C   UNL A   1      50.634  26.584  26.663  1.00  0.00     0.135 A 
ATOM     97  F   UNL A   1      48.868  27.670  23.670  1.00  0.00    -0.206 F 
ATOM     98  C   UNL A   1      51.083  26.937  23.938  1.00  0.00     0.059 A 
ATOM     99  C   UNL A   1      51.894  26.316  26.141  1.00  0.00     0.059 A 
ATOM    100  F   UNL A   1      50.448  26.411  27.982  1.00  0.00    -0.206 F 
ATOM    101  C   UNL A   1      52.108  26.489  24.775  1.00  0.00     0.060 A 
BRANCH 101 102
ATOM    102  S   UNL A   1      53.736  26.177  24.061  1.00  0.00     0.124 S 
ATOM    103  O   UNL A   1      54.088  24.900  24.676  1.00  0.00    -0.237 OA
ATOM    104  O   UNL A   1      53.446  26.132  22.631  1.00  0.00    -0.237 OA
ATOM    105  O   UNL A   1      54.528  27.322  24.499  1.00  0.00    -0.744 OA
ENDBRANCH 101 102
ENDBRANCH  69  94
ENDBRANCH  43  44
ENDBRANCH  36  38
ENDBRANCH  35  36
ENDBRANCH  34  35
ENDBRANCH  33  34
ENDBRANCH  32  33
ENDBRANCH  31  32
ENDBRANCH   1  31
TORSDOF 23
ENDMDL
MODEL 3
REMARK VINA RESULT:     -10.7      1.188      7.983
REMARK SMILES CC[NH+]1CC[NH+]([C@@H]2CC(=O)N(c3ccc(C(=O)OCCOCCOCCOC(=O)c4ccc(-c5c6nc(c(-c7c(F)cc(S(=O)(=O)[O-])cc7F)c7ccc([nH]7)c(-c7c(F)cc(S(=O)(=O)[O-])cc7F)c7nc(c(-c8c(F)cc(S(=O)(=O)[O-])cc8F)c8ccc5[nH]8)C=C7)C=C6)cc4)cc3)C2=O)CC1
REMARK SMILES IDX 22 1 21 2 20 3 19 4 18 5 16 6 17 7 15 8 12 9 13 10 97 11
REMARK SMILES IDX 14 12 96 13 11 14 7 15 8 16 98 17 9 18 99 19 10 20 6 21 3 22
REMARK SMILES IDX 4 23 101 24 5 26 100 27 2 29 1 30 23 31 24 32 25 33 26 34
REMARK SMILES IDX 27 35 28 36 29 37 30 38 31 39 95 40 32 41 94 42 33 43 34 44
REMARK SMILES IDX 35 45 88 46 36 47 93 48 87 49 89 50 37 51 92 52 86 53 85 54
REMARK SMILES IDX 38 56 72 57 51 58 71 59 52 60 55 61 70 62 90 63 53 64 54 65
REMARK SMILES IDX 69 67 91 68 56 69 39 70 40 71 49 72 41 73 42 74 48 75 50 76
REMARK SMILES IDX 43 77 44 78 45 79 46 80 47 81 73 82 74 83 83 84 75 85 76 86
REMARK SMILES IDX 82 87 84 88 77 89 78 90 79 91 80 92 81 93 57 94 58 95 67 96
REMARK SMILES IDX 59 97 60 98 66 99 68 100 61 101 62 102 63 103 64 104 65 105
REMARK H PARENT 3 25 6 28 89 55 55 66
REMARK Flexibility Score: inf
ROOT
ATOM      1  C   UNL A   1      37.207  20.539  24.702  1.00  0.00     0.188 C 
ENDROOT
BRANCH   1   2
ATOM      2  O   UNL A   1      36.096  19.762  25.085  1.00  0.00    -0.376 OA
BRANCH   2   3
ATOM      3  C   UNL A   1      36.024  18.381  24.775  1.00  0.00     0.202 C 
BRANCH   3   4
ATOM      4  C   UNL A   1      34.780  17.622  24.276  1.00  0.00     0.261 C 
BRANCH   4   5
ATOM      5  O   UNL A   1      33.725  18.388  23.697  1.00  0.00    -0.460 OA
BRANCH   5   6
ATOM      6  C   UNL A   1      32.691  18.667  24.531  1.00  0.00     0.338 C 
ATOM      7  O   UNL A   1      31.941  17.876  25.069  1.00  0.00    -0.246 OA
BRANCH   6   8
ATOM      8  C   UNL A   1      32.727  20.105  24.861  1.00  0.00     0.060 A 
ATOM      9  C   UNL A   1      32.777  22.849  25.400  1.00  0.00     0.052 A 
ATOM     10  C   UNL A   1      32.279  22.377  24.176  1.00  0.00     0.028 A 
ATOM     11  C   UNL A   1      33.192  21.924  26.370  1.00  0.00     0.028 A 
ATOM     12  C   UNL A   1      32.294  21.013  23.889  1.00  0.00     0.018 A 
ATOM     13  C   UNL A   1      33.139  20.551  26.116  1.00  0.00     0.018 A 
BRANCH   9  14
ATOM     14  N   UNL A   1      32.968  24.236  25.584  1.00  0.00    -0.245 N 
ATOM     15  C   UNL A   1      32.465  26.478  26.090  1.00  0.00     0.285 C 
ATOM     16  C   UNL A   1      33.625  26.428  25.105  1.00  0.00     0.176 C 
ATOM     17  C   UNL A   1      32.204  25.013  26.423  1.00  0.00     0.292 C 
ATOM     18  C   UNL A   1      33.863  24.973  24.853  1.00  0.00     0.240 C 
ATOM     19  O   UNL A   1      31.444  24.622  27.300  1.00  0.00    -0.267 OA
ATOM     20  O   UNL A   1      34.706  24.579  24.056  1.00  0.00    -0.274 OA
BRANCH  15  21
ATOM     21  N   UNL A   1      31.217  27.169  25.720  1.00  0.00    -0.315 N 
ATOM     22  N   UNL A   1      30.998  28.916  23.280  1.00  0.00    -0.326 N 
ATOM     23  C   UNL A   1      31.636  29.384  24.518  1.00  0.00     0.324 C 
ATOM     24  C   UNL A   1      31.020  27.443  23.200  1.00  0.00     0.324 C 
ATOM     25  H   UNL A   1      31.583  29.328  22.553  1.00  0.00     0.348 HD
ATOM     26  C   UNL A   1      31.251  28.635  25.817  1.00  0.00     0.325 C 
ATOM     27  C   UNL A   1      30.532  26.747  24.489  1.00  0.00     0.325 C 
ATOM     28  H   UNL A   1      30.628  26.820  26.476  1.00  0.00     0.349 HD
BRANCH  22  29
ATOM     29  C   UNL A   1      29.661  29.442  22.961  1.00  0.00     0.259 C 
ATOM     30  C   UNL A   1      29.468  30.265  21.693  1.00  0.00     0.071 C 
ENDBRANCH  22  29
ENDBRANCH  15  21
ENDBRANCH   9  14
ENDBRANCH   6   8
ENDBRANCH   5   6
ENDBRANCH   4   5
ENDBRANCH   3   4
ENDBRANCH   2   3
ENDBRANCH   1   2
BRANCH   1  31
ATOM     31  C   UNL A   1      36.929  21.943  24.126  1.00  0.00     0.188 C 
BRANCH  31  32
ATOM     32  O   UNL A   1      37.364  23.093  24.822  1.00  0.00    -0.376 OA
BRANCH  32  33
ATOM     33  C   UNL A   1      37.924  22.967  26.118  1.00  0.00     0.202 C 
BRANCH  33  34
ATOM     34  C   UNL A   1      39.422  23.135  26.439  1.00  0.00     0.261 C 
BRANCH  34  35
ATOM     35  O   UNL A   1      39.987  24.440  26.285  1.00  0.00    -0.460 OA
BRANCH  35  36
ATOM     36  C   UNL A   1      41.110  24.675  27.010  1.00  0.00     0.338 C 
ATOM     37  O   UNL A   1      42.211  24.185  26.843  1.00  0.00    -0.246 OA
BRANCH  36  38
ATOM     38  C   UNL A   1      40.840  25.762  27.969  1.00  0.00     0.060 A 
ATOM     39  C   UNL A   1      41.835  26.721  28.212  1.00  0.00     0.016 A 
ATOM     40  C   UNL A   1      39.632  25.799  28.663  1.00  0.00     0.016 A 
ATOM     41  C   UNL A   1      41.628  27.715  29.169  1.00  0.00     0.010 A 
ATOM     42  C   UNL A   1      39.437  26.779  29.638  1.00  0.00     0.010 A 
ATOM     43  C   UNL A   1      40.444  27.723  29.916  1.00  0.00    -0.014 A 
BRANCH  43  44
ATOM     44  C   UNL A   1      40.317  28.578  31.122  1.00  0.00     0.031 A 
ATOM     45  C   UNL A   1      39.297  29.684  31.096  1.00  0.00     0.074 A 
ATOM     46  C   UNL A   1      41.108  28.403  32.196  1.00  0.00     0.049 A 
ATOM     47  N   UNL A   1      39.105  30.656  31.949  1.00  0.00    -0.248 NA
ATOM     48  C   UNL A   1      38.377  29.704  29.944  1.00  0.00     0.031 C 
ATOM     49  C   UNL A   1      42.097  27.339  32.356  1.00  0.00     0.029 A 
ATOM     50  N   UNL A   1      41.218  29.141  33.348  1.00  0.00    -0.354 N 
ATOM     51  C   UNL A   1      38.065  31.415  31.427  1.00  0.00     0.074 A 
ATOM     52  C   UNL A   1      37.673  30.802  30.177  1.00  0.00     0.031 C 
ATOM     53  C   UNL A   1      42.734  27.510  33.528  1.00  0.00     0.029 A 
ATOM     54  C   UNL A   1      42.231  28.718  34.179  1.00  0.00     0.049 A 
ATOM     55  H   UNL A   1      40.629  29.901  33.560  1.00  0.00     0.167 HD
ATOM     56  C   UNL A   1      37.492  32.526  31.943  1.00  0.00     0.037 A 
ATOM     57  C   UNL A   1      42.716  29.269  35.311  1.00  0.00     0.037 A 
ATOM     58  C   UNL A   1      37.879  33.120  33.196  1.00  0.00     0.049 A 
ATOM     59  C   UNL A   1      42.098  30.546  35.835  1.00  0.00     0.074 A 
ATOM     60  C   UNL A   1      37.336  34.228  33.822  1.00  0.00     0.029 A 
ATOM     61  N   UNL A   1      38.902  32.659  34.009  1.00  0.00    -0.354 N 
ATOM     62  N   UNL A   1      41.099  31.242  35.346  1.00  0.00    -0.248 NA
ATOM     63  C   UNL A   1      42.674  31.113  37.063  1.00  0.00     0.031 C 
ATOM     64  C   UNL A   1      38.071  34.474  34.985  1.00  0.00     0.029 A 
ATOM     65  C   UNL A   1      39.024  33.478  35.119  1.00  0.00     0.049 A 
ATOM     66  H   UNL A   1      39.460  31.869  33.825  1.00  0.00     0.167 HD
ATOM     67  C   UNL A   1      40.898  32.296  36.233  1.00  0.00     0.074 A 
ATOM     68  C   UNL A   1      41.878  32.150  37.286  1.00  0.00     0.031 C 
ATOM     69  C   UNL A   1      39.979  33.292  36.183  1.00  0.00     0.037 A 
BRANCH  56  70
ATOM     70  C   UNL A   1      36.404  33.198  31.154  1.00  0.00     0.058 A 
ATOM     71  C   UNL A   1      35.060  33.151  31.553  1.00  0.00     0.135 A 
ATOM     72  C   UNL A   1      36.727  33.972  30.027  1.00  0.00     0.135 A 
ATOM     73  F   UNL A   1      34.693  32.409  32.610  1.00  0.00    -0.206 F 
ATOM     74  C   UNL A   1      34.073  33.846  30.862  1.00  0.00     0.059 A 
ATOM     75  C   UNL A   1      35.762  34.698  29.337  1.00  0.00     0.059 A 
ATOM     76  F   UNL A   1      37.998  34.044  29.599  1.00  0.00    -0.206 F 
ATOM     77  C   UNL A   1      34.437  34.626  29.761  1.00  0.00     0.060 A 
BRANCH  77  78
ATOM     78  S   UNL A   1      33.152  35.567  28.911  1.00  0.00     0.124 S 
ATOM     79  O   UNL A   1      32.481  34.521  28.145  1.00  0.00    -0.237 OA
ATOM     80  O   UNL A   1      32.390  36.126  30.023  1.00  0.00    -0.237 OA
ATOM     81  O   UNL A   1      33.905  36.536  28.121  1.00  0.00    -0.744 OA
ENDBRANCH  77  78
ENDBRANCH  56  70
BRANCH  57  82
ATOM     82  C   UNL A   1      43.867  28.647  36.025  1.00  0.00     0.058 A 
ATOM     83  C   UNL A   1      45.181  29.081  35.794  1.00  0.00     0.135 A 
ATOM     84  C   UNL A   1      43.684  27.573  36.909  1.00  0.00     0.135 A 
ATOM     85  F   UNL A   1      45.414  30.098  34.950  1.00  0.00    -0.206 F 
ATOM     86  C   UNL A   1      46.274  28.449  36.380  1.00  0.00     0.059 A 
ATOM     87  C   UNL A   1      44.758  26.945  37.534  1.00  0.00     0.059 A 
ATOM     88  F   UNL A   1      42.447  27.122  37.175  1.00  0.00    -0.206 F 
ATOM     89  C   UNL A   1      46.051  27.377  37.246  1.00  0.00     0.060 A 
BRANCH  89  90
ATOM     90  S   UNL A   1      47.476  26.563  38.001  1.00  0.00     0.124 S 
ATOM     91  O   UNL A   1      47.034  26.420  39.383  1.00  0.00    -0.237 OA
ATOM     92  O   UNL A   1      47.567  25.328  37.228  1.00  0.00    -0.237 OA
ATOM     93  O   UNL A   1      48.561  27.515  37.780  1.00  0.00    -0.744 OA
ENDBRANCH  89  90
ENDBRANCH  57  82
BRANCH  69  94
ATOM     94  C   UNL A   1      39.919  34.261  37.333  1.00  0.00     0.058 A 
ATOM     95  C   UNL A   1      40.532  35.522  37.282  1.00  0.00     0.135 A 
ATOM     96  C   UNL A   1      39.149  33.953  38.469  1.00  0.00     0.135 A 
ATOM     97  F   UNL A   1      41.284  35.866  36.224  1.00  0.00    -0.206 F 
ATOM     98  C   UNL A   1      40.395  36.439  38.321  1.00  0.00     0.059 A 
ATOM     99  C   UNL A   1      38.972  34.864  39.503  1.00  0.00     0.059 A 
ATOM    100  F   UNL A   1      38.531  32.765  38.563  1.00  0.00    -0.206 F 
ATOM    101  C   UNL A   1      39.605  36.103  39.424  1.00  0.00     0.060 A 
BRANCH 101 102
ATOM    102  S   UNL A   1      39.383  37.326  40.734  1.00  0.00     0.124 S 
ATOM    103  O   UNL A   1      40.740  37.840  40.890  1.00  0.00    -0.237 OA
ATOM    104  O   UNL A   1      38.420  38.248  40.140  1.00  0.00    -0.237 OA
ATOM    105  O   UNL A   1      38.879  36.538  41.855  1.00  0.00    -0.744 OA
ENDBRANCH 101 102
ENDBRANCH  69  94
ENDBRANCH  43  44
ENDBRANCH  36  38
ENDBRANCH  35  36
ENDBRANCH  34  35
ENDBRANCH  33  34
ENDBRANCH  32  33
ENDBRANCH  31  32
ENDBRANCH   1  31
TORSDOF 23
ENDMDL
