MODEL 1
REMARK VINA RESULT:      -9.3      0.000      0.000
REMARK SMILES CC(C)N(CC1CC1)C(=O)N[C@@H]1C=C[C@H](C(=O)OCCOCCOCCOC(=O)c2ccc(-c3c4nc(c(-c5c(F)cc(S(=O)(=O)[O-])cc5F)c5ccc([nH]5)c(-c5c(F)cc(S(=O)(=O)[O-])cc5F)c5nc(c(-c6c(F)cc(S(=O)(=O)[O-])cc6F)c6ccc3[nH]6)C=C5)C=C4)cc2)C1
REMARK SMILES IDX 22 1 21 2 20 3 19 4 18 5 16 6 17 7 15 8 12 9 13 10 96 11
REMARK SMILES IDX 14 12 11 13 9 14 10 15 4 17 2 18 1 19 3 20 5 21 6 22 7 23
REMARK SMILES IDX 8 24 23 25 24 26 25 27 26 28 27 29 28 30 29 31 30 32 31 33
REMARK SMILES IDX 95 34 32 35 94 36 33 37 34 38 35 39 88 40 36 41 93 42 87 43
REMARK SMILES IDX 89 44 37 45 92 46 86 47 85 48 38 50 72 51 51 52 71 53 52 54
REMARK SMILES IDX 55 55 70 56 90 57 53 58 54 59 69 61 91 62 56 63 39 64 40 65
REMARK SMILES IDX 49 66 41 67 42 68 48 69 50 70 43 71 44 72 45 73 46 74 47 75
REMARK SMILES IDX 73 76 74 77 83 78 75 79 76 80 82 81 84 82 77 83 78 84 79 85
REMARK SMILES IDX 80 86 81 87 57 88 58 89 67 90 59 91 60 92 66 93 68 94 61 95
REMARK SMILES IDX 62 96 63 97 64 98 65 99
REMARK H PARENT 11 16 89 49 55 60
REMARK Flexibility Score: inf
ROOT
ATOM      1  C   UNL A   1      39.744  21.393  26.695  1.00  0.00     0.188 C 
ENDROOT
BRANCH   1   2
ATOM      2  O   UNL A   1      39.209  22.577  26.146  1.00  0.00    -0.376 OA
BRANCH   2   3
ATOM      3  C   UNL A   1      37.862  22.617  25.727  1.00  0.00     0.202 C 
BRANCH   3   4
ATOM      4  C   UNL A   1      37.172  21.449  24.987  1.00  0.00     0.261 C 
BRANCH   4   5
ATOM      5  O   UNL A   1      36.021  21.830  24.218  1.00  0.00    -0.463 OA
BRANCH   5   6
ATOM      6  C   UNL A   1      34.786  21.452  24.628  1.00  0.00     0.312 C 
ATOM      7  O   UNL A   1      34.595  20.751  25.615  1.00  0.00    -0.252 OA
BRANCH   6   8
ATOM      8  C   UNL A   1      33.674  21.968  23.677  1.00  0.00     0.124 C 
ATOM      9  C   UNL A   1      33.155  24.389  23.229  1.00  0.00     0.107 C 
ATOM     10  C   UNL A   1      32.208  23.763  24.196  1.00  0.00    -0.006 C 
ATOM     11  C   UNL A   1      33.945  23.168  22.740  1.00  0.00     0.048 C 
ATOM     12  C   UNL A   1      32.479  22.473  24.435  1.00  0.00    -0.014 C 
BRANCH   9  13
ATOM     13  N   UNL A   1      33.828  25.481  23.923  1.00  0.00    -0.332 N 
ATOM     14  C   UNL A   1      33.391  26.184  25.004  1.00  0.00     0.318 C 
ATOM     15  O   UNL A   1      33.614  25.745  26.122  1.00  0.00    -0.249 OA
ATOM     16  H   UNL A   1      34.707  25.741  23.566  1.00  0.00     0.165 HD
BRANCH  14  17
ATOM     17  N   UNL A   1      32.836  27.425  24.778  1.00  0.00    -0.322 N 
BRANCH  17  18
ATOM     18  C   UNL A   1      31.472  27.599  24.208  1.00  0.00     0.080 C 
ATOM     19  C   UNL A   1      30.331  26.722  24.751  1.00  0.00     0.031 C 
ATOM     20  C   UNL A   1      31.019  29.055  24.252  1.00  0.00     0.031 C 
ENDBRANCH  17  18
BRANCH  17  21
ATOM     21  C   UNL A   1      33.618  28.638  24.959  1.00  0.00     0.125 C 
BRANCH  21  22
ATOM     22  C   UNL A   1      34.089  28.953  26.342  1.00  0.00     0.009 C 
ATOM     23  C   UNL A   1      33.736  30.309  26.932  1.00  0.00     0.006 C 
ATOM     24  C   UNL A   1      33.079  29.077  27.460  1.00  0.00     0.006 C 
ENDBRANCH  21  22
ENDBRANCH  17  21
ENDBRANCH  14  17
ENDBRANCH   9  13
ENDBRANCH   6   8
ENDBRANCH   5   6
ENDBRANCH   4   5
ENDBRANCH   3   4
ENDBRANCH   2   3
ENDBRANCH   1   2
BRANCH   1  25
ATOM     25  C   UNL A   1      40.923  21.613  27.666  1.00  0.00     0.188 C 
BRANCH  25  26
ATOM     26  O   UNL A   1      42.151  20.955  27.381  1.00  0.00    -0.376 OA
BRANCH  26  27
ATOM     27  C   UNL A   1      42.632  21.003  26.048  1.00  0.00     0.202 C 
BRANCH  27  28
ATOM     28  C   UNL A   1      43.392  22.265  25.606  1.00  0.00     0.261 C 
BRANCH  28  29
ATOM     29  O   UNL A   1      42.614  23.464  25.376  1.00  0.00    -0.460 OA
BRANCH  29  30
ATOM     30  C   UNL A   1      43.283  24.648  25.477  1.00  0.00     0.338 C 
ATOM     31  O   UNL A   1      44.248  24.976  24.813  1.00  0.00    -0.246 OA
BRANCH  30  32
ATOM     32  C   UNL A   1      42.633  25.587  26.440  1.00  0.00     0.060 A 
ATOM     33  C   UNL A   1      43.057  26.925  26.457  1.00  0.00     0.016 A 
ATOM     34  C   UNL A   1      41.719  25.153  27.404  1.00  0.00     0.016 A 
ATOM     35  C   UNL A   1      42.593  27.815  27.444  1.00  0.00     0.010 A 
ATOM     36  C   UNL A   1      41.263  26.044  28.398  1.00  0.00     0.010 A 
ATOM     37  C   UNL A   1      41.704  27.380  28.441  1.00  0.00    -0.014 A 
BRANCH  37  38
ATOM     38  C   UNL A   1      41.410  28.249  29.626  1.00  0.00     0.031 A 
ATOM     39  C   UNL A   1      42.272  28.085  30.852  1.00  0.00     0.074 A 
ATOM     40  C   UNL A   1      40.429  29.178  29.651  1.00  0.00     0.049 A 
ATOM     41  N   UNL A   1      42.197  28.691  32.010  1.00  0.00    -0.248 NA
ATOM     42  C   UNL A   1      43.361  27.101  30.756  1.00  0.00     0.031 C 
ATOM     43  C   UNL A   1      39.527  29.480  28.550  1.00  0.00     0.029 A 
ATOM     44  N   UNL A   1      40.024  30.043  30.647  1.00  0.00    -0.354 N 
ATOM     45  C   UNL A   1      43.233  28.170  32.776  1.00  0.00     0.074 A 
ATOM     46  C   UNL A   1      43.900  27.176  31.963  1.00  0.00     0.031 C 
ATOM     47  C   UNL A   1      38.688  30.466  28.910  1.00  0.00     0.029 A 
ATOM     48  C   UNL A   1      38.944  30.828  30.301  1.00  0.00     0.049 A 
ATOM     49  H   UNL A   1      40.464  30.094  31.526  1.00  0.00     0.167 HD
ATOM     50  C   UNL A   1      43.600  28.488  34.040  1.00  0.00     0.037 A 
ATOM     51  C   UNL A   1      38.214  31.711  31.018  1.00  0.00     0.037 A 
ATOM     52  C   UNL A   1      42.917  29.445  34.874  1.00  0.00     0.049 A 
ATOM     53  C   UNL A   1      38.571  31.973  32.458  1.00  0.00     0.074 A 
ATOM     54  C   UNL A   1      43.211  29.813  36.175  1.00  0.00     0.029 A 
ATOM     55  N   UNL A   1      41.796  30.172  34.499  1.00  0.00    -0.354 N 
ATOM     56  N   UNL A   1      39.556  31.472  33.165  1.00  0.00    -0.248 NA
ATOM     57  C   UNL A   1      37.720  32.915  33.201  1.00  0.00     0.031 C 
ATOM     58  C   UNL A   1      42.239  30.721  36.607  1.00  0.00     0.029 A 
ATOM     59  C   UNL A   1      41.375  30.970  35.553  1.00  0.00     0.049 A 
ATOM     60  H   UNL A   1      41.364  30.128  33.617  1.00  0.00     0.167 HD
ATOM     61  C   UNL A   1      39.460  32.060  34.423  1.00  0.00     0.074 A 
ATOM     62  C   UNL A   1      38.328  32.960  34.379  1.00  0.00     0.031 C 
ATOM     63  C   UNL A   1      40.248  31.870  35.510  1.00  0.00     0.037 A 
BRANCH  50  64
ATOM     64  C   UNL A   1      44.787  27.764  34.613  1.00  0.00     0.058 A 
ATOM     65  C   UNL A   1      46.070  28.335  34.603  1.00  0.00     0.135 A 
ATOM     66  C   UNL A   1      44.637  26.496  35.197  1.00  0.00     0.135 A 
ATOM     67  F   UNL A   1      46.273  29.536  34.039  1.00  0.00    -0.206 F 
ATOM     68  C   UNL A   1      47.168  27.663  35.132  1.00  0.00     0.059 A 
ATOM     69  C   UNL A   1      45.715  25.819  35.757  1.00  0.00     0.059 A 
ATOM     70  F   UNL A   1      43.433  25.903  35.227  1.00  0.00    -0.206 F 
ATOM     71  C   UNL A   1      46.979  26.405  35.707  1.00  0.00     0.060 A 
BRANCH  71  72
ATOM     72  S   UNL A   1      48.414  25.552  36.394  1.00  0.00     0.124 S 
ATOM     73  O   UNL A   1      48.110  25.572  37.821  1.00  0.00    -0.237 OA
ATOM     74  O   UNL A   1      48.338  24.246  35.748  1.00  0.00    -0.237 OA
ATOM     75  O   UNL A   1      49.537  26.388  35.981  1.00  0.00    -0.744 OA
ENDBRANCH  71  72
ENDBRANCH  50  64
BRANCH  51  76
ATOM     76  C   UNL A   1      37.047  32.405  30.394  1.00  0.00     0.058 A 
ATOM     77  C   UNL A   1      35.756  31.861  30.455  1.00  0.00     0.135 A 
ATOM     78  C   UNL A   1      37.203  33.629  29.721  1.00  0.00     0.135 A 
ATOM     79  F   UNL A   1      35.554  30.681  31.062  1.00  0.00    -0.206 F 
ATOM     80  C   UNL A   1      34.662  32.502  29.878  1.00  0.00     0.059 A 
ATOM     81  C   UNL A   1      36.120  34.303  29.162  1.00  0.00     0.059 A 
ATOM     82  F   UNL A   1      38.416  34.195  29.626  1.00  0.00    -0.206 F 
ATOM     83  C   UNL A   1      34.853  33.730  29.242  1.00  0.00     0.060 A 
BRANCH  83  84
ATOM     84  S   UNL A   1      33.415  34.588  28.563  1.00  0.00     0.124 S 
ATOM     85  O   UNL A   1      32.678  34.935  29.772  1.00  0.00    -0.237 OA
ATOM     86  O   UNL A   1      34.034  35.702  27.851  1.00  0.00    -0.237 OA
ATOM     87  O   UNL A   1      32.791  33.579  27.712  1.00  0.00    -0.744 OA
ENDBRANCH  83  84
ENDBRANCH  51  76
BRANCH  63  88
ATOM     88  C   UNL A   1      39.950  32.684  36.742  1.00  0.00     0.058 A 
ATOM     89  C   UNL A   1      38.882  32.375  37.599  1.00  0.00     0.135 A 
ATOM     90  C   UNL A   1      40.781  33.760  37.097  1.00  0.00     0.135 A 
ATOM     91  F   UNL A   1      38.051  31.362  37.306  1.00  0.00    -0.206 F 
ATOM     92  C   UNL A   1      38.634  33.118  38.749  1.00  0.00     0.059 A 
ATOM     93  C   UNL A   1      40.570  34.497  38.259  1.00  0.00     0.059 A 
ATOM     94  F   UNL A   1      41.823  34.095  36.319  1.00  0.00    -0.206 F 
ATOM     95  C   UNL A   1      39.487  34.175  39.073  1.00  0.00     0.060 A 
BRANCH  95  96
ATOM     96  S   UNL A   1      39.175  35.108  40.587  1.00  0.00     0.124 S 
ATOM     97  O   UNL A   1      38.801  36.415  40.057  1.00  0.00    -0.237 OA
ATOM     98  O   UNL A   1      38.096  34.344  41.206  1.00  0.00    -0.237 OA
ATOM     99  O   UNL A   1      40.453  35.058  41.289  1.00  0.00    -0.744 OA
ENDBRANCH  95  96
ENDBRANCH  63  88
ENDBRANCH  37  38
ENDBRANCH  30  32
ENDBRANCH  29  30
ENDBRANCH  28  29
ENDBRANCH  27  28
ENDBRANCH  26  27
ENDBRANCH  25  26
ENDBRANCH   1  25
TORSDOF 25
ENDMDL
MODEL 2
REMARK VINA RESULT:      -8.7      1.238      2.262
REMARK SMILES CC(C)N(CC1CC1)C(=O)N[C@@H]1C=C[C@H](C(=O)OCCOCCOCCOC(=O)c2ccc(-c3c4nc(c(-c5c(F)cc(S(=O)(=O)[O-])cc5F)c5ccc([nH]5)c(-c5c(F)cc(S(=O)(=O)[O-])cc5F)c5nc(c(-c6c(F)cc(S(=O)(=O)[O-])cc6F)c6ccc3[nH]6)C=C5)C=C4)cc2)C1
REMARK SMILES IDX 22 1 21 2 20 3 19 4 18 5 16 6 17 7 15 8 12 9 13 10 96 11
REMARK SMILES IDX 14 12 11 13 9 14 10 15 4 17 2 18 1 19 3 20 5 21 6 22 7 23
REMARK SMILES IDX 8 24 23 25 24 26 25 27 26 28 27 29 28 30 29 31 30 32 31 33
REMARK SMILES IDX 95 34 32 35 94 36 33 37 34 38 35 39 88 40 36 41 93 42 87 43
REMARK SMILES IDX 89 44 37 45 92 46 86 47 85 48 38 50 72 51 51 52 71 53 52 54
REMARK SMILES IDX 55 55 70 56 90 57 53 58 54 59 69 61 91 62 56 63 39 64 40 65
REMARK SMILES IDX 49 66 41 67 42 68 48 69 50 70 43 71 44 72 45 73 46 74 47 75
REMARK SMILES IDX 73 76 74 77 83 78 75 79 76 80 82 81 84 82 77 83 78 84 79 85
REMARK SMILES IDX 80 86 81 87 57 88 58 89 67 90 59 91 60 92 66 93 68 94 61 95
REMARK SMILES IDX 62 96 63 97 64 98 65 99
REMARK H PARENT 11 16 89 49 55 60
REMARK Flexibility Score: inf
ROOT
ATOM      1  C   UNL A   1      37.940  20.413  25.395  1.00  0.00     0.188 C 
ENDROOT
BRANCH   1   2
ATOM      2  O   UNL A   1      37.581  21.377  24.431  1.00  0.00    -0.376 OA
BRANCH   2   3
ATOM      3  C   UNL A   1      36.256  21.859  24.371  1.00  0.00     0.202 C 
BRANCH   3   4
ATOM      4  C   UNL A   1      35.906  23.341  24.102  1.00  0.00     0.261 C 
BRANCH   4   5
ATOM      5  O   UNL A   1      34.711  23.797  24.753  1.00  0.00    -0.463 OA
BRANCH   5   6
ATOM      6  C   UNL A   1      34.278  23.170  25.873  1.00  0.00     0.312 C 
ATOM      7  O   UNL A   1      34.926  23.133  26.912  1.00  0.00    -0.252 OA
BRANCH   6   8
ATOM      8  C   UNL A   1      32.907  22.474  25.657  1.00  0.00     0.124 C 
ATOM      9  C   UNL A   1      30.684  23.648  25.555  1.00  0.00     0.107 C 
ATOM     10  C   UNL A   1      30.940  23.006  26.877  1.00  0.00    -0.006 C 
ATOM     11  C   UNL A   1      31.852  23.107  24.720  1.00  0.00     0.048 C 
ATOM     12  C   UNL A   1      32.121  22.377  26.934  1.00  0.00    -0.014 C 
BRANCH   9  13
ATOM     13  N   UNL A   1      30.537  25.081  25.788  1.00  0.00    -0.332 N 
ATOM     14  C   UNL A   1      30.173  26.043  24.897  1.00  0.00     0.318 C 
ATOM     15  O   UNL A   1      28.984  26.262  24.720  1.00  0.00    -0.249 OA
ATOM     16  H   UNL A   1      30.725  25.390  26.703  1.00  0.00     0.165 HD
BRANCH  14  17
ATOM     17  N   UNL A   1      31.172  26.812  24.340  1.00  0.00    -0.322 N 
BRANCH  17  18
ATOM     18  C   UNL A   1      31.961  27.794  25.134  1.00  0.00     0.080 C 
ATOM     19  C   UNL A   1      33.442  27.491  25.415  1.00  0.00     0.031 C 
ATOM     20  C   UNL A   1      31.862  29.202  24.555  1.00  0.00     0.031 C 
ENDBRANCH  17  18
BRANCH  17  21
ATOM     21  C   UNL A   1      31.414  26.800  22.906  1.00  0.00     0.125 C 
BRANCH  21  22
ATOM     22  C   UNL A   1      32.184  25.647  22.348  1.00  0.00     0.009 C 
ATOM     23  C   UNL A   1      32.676  25.737  20.913  1.00  0.00     0.006 C 
ATOM     24  C   UNL A   1      33.653  25.817  22.037  1.00  0.00     0.006 C 
ENDBRANCH  21  22
ENDBRANCH  17  21
ENDBRANCH  14  17
ENDBRANCH   9  13
ENDBRANCH   6   8
ENDBRANCH   5   6
ENDBRANCH   4   5
ENDBRANCH   3   4
ENDBRANCH   2   3
ENDBRANCH   1   2
BRANCH   1  25
ATOM     25  C   UNL A   1      39.442  20.059  25.418  1.00  0.00     0.188 C 
BRANCH  25  26
ATOM     26  O   UNL A   1      40.186  20.393  26.583  1.00  0.00    -0.376 OA
BRANCH  26  27
ATOM     27  C   UNL A   1      41.600  20.304  26.511  1.00  0.00     0.202 C 
BRANCH  27  28
ATOM     28  C   UNL A   1      42.390  21.608  26.315  1.00  0.00     0.261 C 
BRANCH  28  29
ATOM     29  O   UNL A   1      41.654  22.770  25.865  1.00  0.00    -0.460 OA
BRANCH  29  30
ATOM     30  C   UNL A   1      42.366  23.927  25.744  1.00  0.00     0.338 C 
ATOM     31  O   UNL A   1      43.248  24.136  24.933  1.00  0.00    -0.246 OA
BRANCH  30  32
ATOM     32  C   UNL A   1      41.872  24.997  26.663  1.00  0.00     0.060 A 
ATOM     33  C   UNL A   1      42.469  26.265  26.594  1.00  0.00     0.016 A 
ATOM     34  C   UNL A   1      40.933  24.743  27.666  1.00  0.00     0.016 A 
ATOM     35  C   UNL A   1      42.154  27.262  27.537  1.00  0.00     0.010 A 
ATOM     36  C   UNL A   1      40.624  25.740  28.616  1.00  0.00     0.010 A 
ATOM     37  C   UNL A   1      41.240  27.005  28.573  1.00  0.00    -0.014 A 
BRANCH  37  38
ATOM     38  C   UNL A   1      41.094  27.970  29.711  1.00  0.00     0.031 A 
ATOM     39  C   UNL A   1      42.036  27.829  30.880  1.00  0.00     0.074 A 
ATOM     40  C   UNL A   1      40.180  28.964  29.740  1.00  0.00     0.049 A 
ATOM     41  N   UNL A   1      42.090  28.514  31.994  1.00  0.00    -0.248 NA
ATOM     42  C   UNL A   1      43.049  26.768  30.776  1.00  0.00     0.031 C 
ATOM     43  C   UNL A   1      39.217  29.254  28.689  1.00  0.00     0.029 A 
ATOM     44  N   UNL A   1      39.909  29.919  30.698  1.00  0.00    -0.354 N 
ATOM     45  C   UNL A   1      43.146  27.976  32.718  1.00  0.00     0.074 A 
ATOM     46  C   UNL A   1      43.684  26.886  31.932  1.00  0.00     0.031 C 
ATOM     47  C   UNL A   1      38.473  30.317  29.037  1.00  0.00     0.029 A 
ATOM     48  C   UNL A   1      38.858  30.753  30.376  1.00  0.00     0.049 A 
ATOM     49  H   UNL A   1      40.419  29.999  31.537  1.00  0.00     0.167 HD
ATOM     50  C   UNL A   1      43.629  28.351  33.926  1.00  0.00     0.037 A 
ATOM     51  C   UNL A   1      38.243  31.730  31.079  1.00  0.00     0.037 A 
ATOM     52  C   UNL A   1      43.075  29.406  34.736  1.00  0.00     0.049 A 
ATOM     53  C   UNL A   1      38.727  32.062  32.467  1.00  0.00     0.074 A 
ATOM     54  C   UNL A   1      43.492  29.839  35.983  1.00  0.00     0.029 A 
ATOM     55  N   UNL A   1      41.978  30.182  34.393  1.00  0.00    -0.354 N 
ATOM     56  N   UNL A   1      39.729  31.543  33.134  1.00  0.00    -0.248 NA
ATOM     57  C   UNL A   1      37.998  33.108  33.200  1.00  0.00     0.031 C 
ATOM     58  C   UNL A   1      42.616  30.839  36.418  1.00  0.00     0.029 A 
ATOM     59  C   UNL A   1      41.691  31.076  35.414  1.00  0.00     0.049 A 
ATOM     60  H   UNL A   1      41.477  30.110  33.549  1.00  0.00     0.167 HD
ATOM     61  C   UNL A   1      39.769  32.218  34.351  1.00  0.00     0.074 A 
ATOM     62  C   UNL A   1      38.696  33.190  34.324  1.00  0.00     0.031 C 
ATOM     63  C   UNL A   1      40.624  32.047  35.389  1.00  0.00     0.037 A 
BRANCH  50  64
ATOM     64  C   UNL A   1      44.808  27.586  34.461  1.00  0.00     0.058 A 
ATOM     65  C   UNL A   1      46.127  27.977  34.178  1.00  0.00     0.135 A 
ATOM     66  C   UNL A   1      44.619  26.465  35.284  1.00  0.00     0.135 A 
ATOM     67  F   UNL A   1      46.365  29.030  33.380  1.00  0.00    -0.206 F 
ATOM     68  C   UNL A   1      47.217  27.267  34.672  1.00  0.00     0.059 A 
ATOM     69  C   UNL A   1      45.693  25.757  35.814  1.00  0.00     0.059 A 
ATOM     70  F   UNL A   1      43.379  26.046  35.582  1.00  0.00    -0.206 F 
ATOM     71  C   UNL A   1      46.989  26.159  35.491  1.00  0.00     0.060 A 
BRANCH  71  72
ATOM     72  S   UNL A   1      48.415  25.255  36.128  1.00  0.00     0.124 S 
ATOM     73  O   UNL A   1      47.804  24.454  37.184  1.00  0.00    -0.237 OA
ATOM     74  O   UNL A   1      48.868  24.518  34.953  1.00  0.00    -0.237 OA
ATOM     75  O   UNL A   1      49.312  26.313  36.585  1.00  0.00    -0.744 OA
ENDBRANCH  71  72
ENDBRANCH  50  64
BRANCH  51  76
ATOM     76  C   UNL A   1      37.079  32.460  30.493  1.00  0.00     0.058 A 
ATOM     77  C   UNL A   1      37.261  33.546  29.624  1.00  0.00     0.135 A 
ATOM     78  C   UNL A   1      35.759  32.084  30.792  1.00  0.00     0.135 A 
ATOM     79  F   UNL A   1      38.500  33.965  29.324  1.00  0.00    -0.206 F 
ATOM     80  C   UNL A   1      36.182  34.231  29.070  1.00  0.00     0.059 A 
ATOM     81  C   UNL A   1      34.664  32.734  30.229  1.00  0.00     0.059 A 
ATOM     82  F   UNL A   1      35.524  31.056  31.622  1.00  0.00    -0.206 F 
ATOM     83  C   UNL A   1      34.885  33.810  29.371  1.00  0.00     0.060 A 
BRANCH  83  84
ATOM     84  S   UNL A   1      33.494  34.658  28.588  1.00  0.00     0.124 S 
ATOM     85  O   UNL A   1      33.022  33.649  27.648  1.00  0.00    -0.237 OA
ATOM     86  O   UNL A   1      32.621  34.926  29.727  1.00  0.00    -0.237 OA
ATOM     87  O   UNL A   1      34.112  35.837  27.990  1.00  0.00    -0.744 OA
ENDBRANCH  83  84
ENDBRANCH  51  76
BRANCH  63  88
ATOM     88  C   UNL A   1      40.475  32.960  36.577  1.00  0.00     0.058 A 
ATOM     89  C   UNL A   1      41.286  34.092  36.754  1.00  0.00     0.135 A 
ATOM     90  C   UNL A   1      39.465  32.726  37.526  1.00  0.00     0.135 A 
ATOM     91  F   UNL A   1      42.270  34.362  35.881  1.00  0.00    -0.206 F 
ATOM     92  C   UNL A   1      41.118  34.945  37.841  1.00  0.00     0.059 A 
ATOM     93  C   UNL A   1      39.260  33.582  38.605  1.00  0.00     0.059 A 
ATOM     94  F   UNL A   1      38.654  31.664  37.403  1.00  0.00    -0.206 F 
ATOM     95  C   UNL A   1      40.099  34.684  38.759  1.00  0.00     0.060 A 
BRANCH  95  96
ATOM     96  S   UNL A   1      39.871  35.817  40.146  1.00  0.00     0.124 S 
ATOM     97  O   UNL A   1      38.706  36.582  39.715  1.00  0.00    -0.237 OA
ATOM     98  O   UNL A   1      39.650  34.903  41.262  1.00  0.00    -0.237 OA
ATOM     99  O   UNL A   1      41.127  36.559  40.191  1.00  0.00    -0.744 OA
ENDBRANCH  95  96
ENDBRANCH  63  88
ENDBRANCH  37  38
ENDBRANCH  30  32
ENDBRANCH  29  30
ENDBRANCH  28  29
ENDBRANCH  27  28
ENDBRANCH  26  27
ENDBRANCH  25  26
ENDBRANCH   1  25
TORSDOF 25
ENDMDL
MODEL 3
REMARK VINA RESULT:      -8.6      1.207      2.132
REMARK SMILES CC(C)N(CC1CC1)C(=O)N[C@@H]1C=C[C@H](C(=O)OCCOCCOCCOC(=O)c2ccc(-c3c4nc(c(-c5c(F)cc(S(=O)(=O)[O-])cc5F)c5ccc([nH]5)c(-c5c(F)cc(S(=O)(=O)[O-])cc5F)c5nc(c(-c6c(F)cc(S(=O)(=O)[O-])cc6F)c6ccc3[nH]6)C=C5)C=C4)cc2)C1
REMARK SMILES IDX 22 1 21 2 20 3 19 4 18 5 16 6 17 7 15 8 12 9 13 10 96 11
REMARK SMILES IDX 14 12 11 13 9 14 10 15 4 17 2 18 1 19 3 20 5 21 6 22 7 23
REMARK SMILES IDX 8 24 23 25 24 26 25 27 26 28 27 29 28 30 29 31 30 32 31 33
REMARK SMILES IDX 95 34 32 35 94 36 33 37 34 38 35 39 88 40 36 41 93 42 87 43
REMARK SMILES IDX 89 44 37 45 92 46 86 47 85 48 38 50 72 51 51 52 71 53 52 54
REMARK SMILES IDX 55 55 70 56 90 57 53 58 54 59 69 61 91 62 56 63 39 64 40 65
REMARK SMILES IDX 49 66 41 67 42 68 48 69 50 70 43 71 44 72 45 73 46 74 47 75
REMARK SMILES IDX 73 76 74 77 83 78 75 79 76 80 82 81 84 82 77 83 78 84 79 85
REMARK SMILES IDX 80 86 81 87 57 88 58 89 67 90 59 91 60 92 66 93 68 94 61 95
REMARK SMILES IDX 62 96 63 97 64 98 65 99
REMARK H PARENT 11 16 89 49 55 60
REMARK Flexibility Score: inf
ROOT
ATOM      1  C   UNL A   1      39.884  22.331  27.326  1.00  0.00     0.188 C 
ENDROOT
BRANCH   1   2
ATOM      2  O   UNL A   1      39.746  23.473  26.511  1.00  0.00    -0.376 OA
BRANCH   2   3
ATOM      3  C   UNL A   1      38.490  23.798  25.956  1.00  0.00     0.202 C 
BRANCH   3   4
ATOM      4  C   UNL A   1      37.314  22.797  25.880  1.00  0.00     0.261 C 
BRANCH   4   5
ATOM      5  O   UNL A   1      36.368  23.070  24.835  1.00  0.00    -0.463 OA
BRANCH   5   6
ATOM      6  C   UNL A   1      35.061  23.242  25.144  1.00  0.00     0.312 C 
ATOM      7  O   UNL A   1      34.683  23.758  26.189  1.00  0.00    -0.252 OA
BRANCH   6   8
ATOM      8  C   UNL A   1      34.123  22.665  24.050  1.00  0.00     0.124 C 
ATOM      9  C   UNL A   1      32.795  24.032  22.408  1.00  0.00     0.107 C 
ATOM     10  C   UNL A   1      31.972  23.536  23.548  1.00  0.00    -0.006 C 
ATOM     11  C   UNL A   1      34.113  23.279  22.630  1.00  0.00     0.048 C 
ATOM     12  C   UNL A   1      32.675  22.804  24.423  1.00  0.00    -0.014 C 
BRANCH   9  13
ATOM     13  N   UNL A   1      32.756  25.490  22.445  1.00  0.00    -0.332 N 
ATOM     14  C   UNL A   1      32.946  26.307  23.517  1.00  0.00     0.318 C 
ATOM     15  O   UNL A   1      34.085  26.636  23.812  1.00  0.00    -0.249 OA
ATOM     16  H   UNL A   1      32.570  25.938  21.589  1.00  0.00     0.165 HD
BRANCH  14  17
ATOM     17  N   UNL A   1      31.828  26.828  24.131  1.00  0.00    -0.322 N 
BRANCH  17  18
ATOM     18  C   UNL A   1      31.706  26.936  25.611  1.00  0.00     0.080 C 
ATOM     19  C   UNL A   1      31.645  25.642  26.439  1.00  0.00     0.031 C 
ATOM     20  C   UNL A   1      32.787  27.834  26.206  1.00  0.00     0.031 C 
ENDBRANCH  17  18
BRANCH  17  21
ATOM     21  C   UNL A   1      30.645  27.174  23.360  1.00  0.00     0.125 C 
BRANCH  21  22
ATOM     22  C   UNL A   1      30.582  28.547  22.774  1.00  0.00     0.009 C 
ATOM     23  C   UNL A   1      29.215  29.149  22.493  1.00  0.00     0.006 C 
ATOM     24  C   UNL A   1      30.044  29.687  23.610  1.00  0.00     0.006 C 
ENDBRANCH  21  22
ENDBRANCH  17  21
ENDBRANCH  14  17
ENDBRANCH   9  13
ENDBRANCH   6   8
ENDBRANCH   5   6
ENDBRANCH   4   5
ENDBRANCH   3   4
ENDBRANCH   2   3
ENDBRANCH   1   2
BRANCH   1  25
ATOM     25  C   UNL A   1      41.329  22.039  27.781  1.00  0.00     0.188 C 
BRANCH  25  26
ATOM     26  O   UNL A   1      42.103  21.134  27.003  1.00  0.00    -0.376 OA
BRANCH  26  27
ATOM     27  C   UNL A   1      42.668  21.618  25.796  1.00  0.00     0.202 C 
BRANCH  27  28
ATOM     28  C   UNL A   1      43.587  22.849  25.879  1.00  0.00     0.261 C 
BRANCH  28  29
ATOM     29  O   UNL A   1      42.975  24.112  26.233  1.00  0.00    -0.460 OA
BRANCH  29  30
ATOM     30  C   UNL A   1      43.817  25.089  26.676  1.00  0.00     0.338 C 
ATOM     31  O   UNL A   1      44.983  25.219  26.356  1.00  0.00    -0.246 OA
BRANCH  30  32
ATOM     32  C   UNL A   1      43.122  26.088  27.544  1.00  0.00     0.060 A 
ATOM     33  C   UNL A   1      43.650  27.386  27.622  1.00  0.00     0.016 A 
ATOM     34  C   UNL A   1      42.051  25.740  28.371  1.00  0.00     0.016 A 
ATOM     35  C   UNL A   1      43.131  28.320  28.538  1.00  0.00     0.010 A 
ATOM     36  C   UNL A   1      41.538  26.675  29.295  1.00  0.00     0.010 A 
ATOM     37  C   UNL A   1      42.080  27.970  29.402  1.00  0.00    -0.014 A 
BRANCH  37  38
ATOM     38  C   UNL A   1      41.699  28.872  30.537  1.00  0.00     0.031 A 
ATOM     39  C   UNL A   1      42.524  28.805  31.797  1.00  0.00     0.074 A 
ATOM     40  C   UNL A   1      40.672  29.747  30.488  1.00  0.00     0.049 A 
ATOM     41  N   UNL A   1      42.377  29.454  32.924  1.00  0.00    -0.248 NA
ATOM     42  C   UNL A   1      43.665  27.877  31.781  1.00  0.00     0.031 C 
ATOM     43  C   UNL A   1      39.795  29.955  29.345  1.00  0.00     0.029 A 
ATOM     44  N   UNL A   1      40.187  30.631  31.431  1.00  0.00    -0.354 N 
ATOM     45  C   UNL A   1      43.410  29.021  33.747  1.00  0.00     0.074 A 
ATOM     46  C   UNL A   1      44.156  28.030  33.001  1.00  0.00     0.031 C 
ATOM     47  C   UNL A   1      38.895  30.910  29.634  1.00  0.00     0.029 A 
ATOM     48  C   UNL A   1      39.081  31.343  31.015  1.00  0.00     0.049 A 
ATOM     49  H   UNL A   1      40.593  30.742  32.321  1.00  0.00     0.167 HD
ATOM     50  C   UNL A   1      43.715  29.411  35.007  1.00  0.00     0.037 A 
ATOM     51  C   UNL A   1      38.282  32.216  31.668  1.00  0.00     0.037 A 
ATOM     52  C   UNL A   1      42.955  30.364  35.775  1.00  0.00     0.049 A 
ATOM     53  C   UNL A   1      38.574  32.556  33.107  1.00  0.00     0.074 A 
ATOM     54  C   UNL A   1      43.183  30.802  37.068  1.00  0.00     0.029 A 
ATOM     55  N   UNL A   1      41.812  31.015  35.331  1.00  0.00    -0.354 N 
ATOM     56  N   UNL A   1      39.557  32.138  33.867  1.00  0.00    -0.248 NA
ATOM     57  C   UNL A   1      37.649  33.482  33.779  1.00  0.00     0.031 C 
ATOM     58  C   UNL A   1      42.150  31.674  37.426  1.00  0.00     0.029 A 
ATOM     59  C   UNL A   1      41.313  31.833  36.334  1.00  0.00     0.049 A 
ATOM     60  H   UNL A   1      41.414  30.911  34.438  1.00  0.00     0.167 HD
ATOM     61  C   UNL A   1      39.387  32.772  35.094  1.00  0.00     0.074 A 
ATOM     62  C   UNL A   1      38.212  33.609  34.973  1.00  0.00     0.031 C 
ATOM     63  C   UNL A   1      40.144  32.670  36.214  1.00  0.00     0.037 A 
BRANCH  50  64
ATOM     64  C   UNL A   1      44.916  28.775  35.650  1.00  0.00     0.058 A 
ATOM     65  C   UNL A   1      44.811  27.584  36.388  1.00  0.00     0.135 A 
ATOM     66  C   UNL A   1      46.190  29.349  35.509  1.00  0.00     0.135 A 
ATOM     67  F   UNL A   1      43.614  27.005  36.571  1.00  0.00    -0.206 F 
ATOM     68  C   UNL A   1      45.923  26.998  36.983  1.00  0.00     0.059 A 
ATOM     69  C   UNL A   1      47.320  28.764  36.072  1.00  0.00     0.059 A 
ATOM     70  F   UNL A   1      46.346  30.489  34.819  1.00  0.00    -0.206 F 
ATOM     71  C   UNL A   1      47.174  27.596  36.818  1.00  0.00     0.060 A 
BRANCH  71  72
ATOM     72  S   UNL A   1      48.606  26.817  37.592  1.00  0.00     0.124 S 
ATOM     73  O   UNL A   1      49.191  26.096  36.466  1.00  0.00    -0.237 OA
ATOM     74  O   UNL A   1      49.364  27.967  38.072  1.00  0.00    -0.237 OA
ATOM     75  O   UNL A   1      48.017  25.979  38.634  1.00  0.00    -0.744 OA
ENDBRANCH  71  72
ENDBRANCH  50  64
BRANCH  51  76
ATOM     76  C   UNL A   1      37.105  32.820  30.975  1.00  0.00     0.058 A 
ATOM     77  C   UNL A   1      37.242  33.947  30.152  1.00  0.00     0.135 A 
ATOM     78  C   UNL A   1      35.816  32.280  31.125  1.00  0.00     0.135 A 
ATOM     79  F   UNL A   1      38.445  34.520  29.994  1.00  0.00    -0.206 F 
ATOM     80  C   UNL A   1      36.150  34.516  29.500  1.00  0.00     0.059 A 
ATOM     81  C   UNL A   1      34.714  32.813  30.460  1.00  0.00     0.059 A 
ATOM     82  F   UNL A   1      35.623  31.205  31.904  1.00  0.00    -0.206 F 
ATOM     83  C   UNL A   1      34.890  33.935  29.652  1.00  0.00     0.060 A 
BRANCH  83  84
ATOM     84  S   UNL A   1      33.495  34.636  28.742  1.00  0.00     0.124 S 
ATOM     85  O   UNL A   1      33.107  33.520  27.888  1.00  0.00    -0.237 OA
ATOM     86  O   UNL A   1      32.567  34.969  29.818  1.00  0.00    -0.237 OA
ATOM     87  O   UNL A   1      34.084  35.782  28.054  1.00  0.00    -0.744 OA
ENDBRANCH  83  84
ENDBRANCH  51  76
BRANCH  63  88
ATOM     88  C   UNL A   1      39.760  33.518  37.398  1.00  0.00     0.058 A 
ATOM     89  C   UNL A   1      38.830  33.085  38.356  1.00  0.00     0.135 A 
ATOM     90  C   UNL A   1      40.376  34.764  37.605  1.00  0.00     0.135 A 
ATOM     91  F   UNL A   1      38.205  31.905  38.206  1.00  0.00    -0.206 F 
ATOM     92  C   UNL A   1      38.505  33.866  39.461  1.00  0.00     0.059 A 
ATOM     93  C   UNL A   1      40.090  35.548  38.719  1.00  0.00     0.059 A 
ATOM     94  F   UNL A   1      41.281  35.226  36.727  1.00  0.00    -0.206 F 
ATOM     95  C   UNL A   1      39.145  35.095  39.636  1.00  0.00     0.060 A 
BRANCH  95  96
ATOM     96  S   UNL A   1      38.740  36.082  41.092  1.00  0.00     0.124 S 
ATOM     97  O   UNL A   1      38.547  37.406  40.509  1.00  0.00    -0.237 OA
ATOM     98  O   UNL A   1      37.533  35.426  41.587  1.00  0.00    -0.237 OA
ATOM     99  O   UNL A   1      39.918  35.937  41.942  1.00  0.00    -0.744 OA
ENDBRANCH  95  96
ENDBRANCH  63  88
ENDBRANCH  37  38
ENDBRANCH  30  32
ENDBRANCH  29  30
ENDBRANCH  28  29
ENDBRANCH  27  28
ENDBRANCH  26  27
ENDBRANCH  25  26
ENDBRANCH   1  25
TORSDOF 25
ENDMDL
