MODEL 1
REMARK VINA RESULT:     -11.7      0.000      0.000
REMARK SMILES O=C(OCCOCCOCCOC(=O)[C@@H]1[C@H](C(=O)NCc2ccncc2)[C@H]2C=C[C@@H]1O2)c1ccc(-c2c3nc(c(-c4c(F)cc(S(=O)(=O)[O-])cc4F)c4ccc([nH]4)c(-c4c(F)cc(S(=O)(=O)[O-])cc4F)c4nc(c(-c5c(F)cc(S(=O)(=O)[O-])cc5F)c5ccc2[nH]5)C=C4)C=C3)cc1
REMARK SMILES IDX 7 1 6 2 5 3 4 4 3 5 2 6 1 7 32 8 33 9 97 10 34 11 96 12
REMARK SMILES IDX 35 13 36 14 37 15 90 16 38 17 95 18 89 19 91 20 39 21 94 22
REMARK SMILES IDX 88 23 87 24 40 26 74 27 53 28 73 29 54 30 57 31 72 32 92 33
REMARK SMILES IDX 55 34 56 35 71 37 93 38 58 39 41 40 42 41 51 42 43 43 44 44
REMARK SMILES IDX 50 45 52 46 45 47 46 48 47 49 48 50 49 51 75 52 76 53 85 54
REMARK SMILES IDX 77 55 78 56 84 57 86 58 79 59 80 60 81 61 82 62 83 63 59 64
REMARK SMILES IDX 60 65 69 66 61 67 62 68 68 69 70 70 63 71 64 72 65 73 66 74
REMARK SMILES IDX 67 75 8 76 9 77 10 78 11 79 12 80 13 81 14 82 15 83 16 84
REMARK SMILES IDX 30 85 27 86 29 87 31 88 28 89 17 90 18 91 19 92 20 94 21 95
REMARK SMILES IDX 22 96 26 97 23 98 25 99 24 100
REMARK H PARENT 91 25 57 36 19 93
REMARK Flexibility Score: inf
ROOT
ATOM      1  C   UNL A   1      40.724  21.472  26.765  1.00  0.00     0.188 C 
ENDROOT
BRANCH   1   2
ATOM      2  O   UNL A   1      41.754  21.265  25.796  1.00  0.00    -0.376 OA
BRANCH   2   3
ATOM      3  C   UNL A   1      42.842  22.203  25.761  1.00  0.00     0.202 C 
BRANCH   3   4
ATOM      4  C   UNL A   1      42.711  23.512  26.523  1.00  0.00     0.261 C 
BRANCH   4   5
ATOM      5  O   UNL A   1      42.039  24.533  25.770  1.00  0.00    -0.460 OA
BRANCH   5   6
ATOM      6  C   UNL A   1      41.955  25.863  25.988  1.00  0.00     0.338 C 
ATOM      7  O   UNL A   1      41.848  26.630  25.036  1.00  0.00    -0.246 OA
BRANCH   6   8
ATOM      8  C   UNL A   1      41.873  26.422  27.357  1.00  0.00     0.060 A 
ATOM      9  C   UNL A   1      40.921  26.040  28.292  1.00  0.00     0.016 A 
ATOM     10  C   UNL A   1      42.864  27.321  27.755  1.00  0.00     0.016 A 
ATOM     11  C   UNL A   1      40.736  26.762  29.457  1.00  0.00     0.010 A 
ATOM     12  C   UNL A   1      42.798  27.924  29.015  1.00  0.00     0.010 A 
ATOM     13  C   UNL A   1      41.671  27.724  29.827  1.00  0.00    -0.014 A 
BRANCH  13  14
ATOM     14  C   UNL A   1      41.379  28.621  30.973  1.00  0.00     0.031 A 
ATOM     15  C   UNL A   1      40.235  29.550  30.838  1.00  0.00     0.074 A 
ATOM     16  C   UNL A   1      42.018  28.521  32.153  1.00  0.00     0.049 A 
ATOM     17  N   UNL A   1      39.842  30.462  31.675  1.00  0.00    -0.248 NA
ATOM     18  C   UNL A   1      39.413  29.428  29.624  1.00  0.00     0.031 C 
ATOM     19  C   UNL A   1      42.996  27.495  32.400  1.00  0.00     0.029 A 
ATOM     20  N   UNL A   1      41.977  29.191  33.342  1.00  0.00    -0.354 N 
ATOM     21  C   UNL A   1      38.746  31.048  31.075  1.00  0.00     0.074 A 
ATOM     22  C   UNL A   1      38.553  30.417  29.791  1.00  0.00     0.031 C 
ATOM     23  C   UNL A   1      43.474  27.563  33.645  1.00  0.00     0.029 A 
ATOM     24  C   UNL A   1      42.899  28.729  34.265  1.00  0.00     0.049 A 
ATOM     25  H   UNL A   1      41.353  29.931  33.525  1.00  0.00     0.167 HD
ATOM     26  C   UNL A   1      37.980  32.031  31.584  1.00  0.00     0.037 A 
ATOM     27  C   UNL A   1      43.281  29.217  35.459  1.00  0.00     0.037 A 
ATOM     28  C   UNL A   1      38.227  32.619  32.871  1.00  0.00     0.049 A 
ATOM     29  C   UNL A   1      42.522  30.414  35.924  1.00  0.00     0.074 A 
ATOM     30  C   UNL A   1      37.555  33.661  33.476  1.00  0.00     0.029 A 
ATOM     31  N   UNL A   1      39.237  32.224  33.745  1.00  0.00    -0.354 N 
ATOM     32  N   UNL A   1      41.530  31.021  35.314  1.00  0.00    -0.248 NA
ATOM     33  C   UNL A   1      42.888  30.981  37.221  1.00  0.00     0.031 C 
ATOM     34  C   UNL A   1      38.213  33.953  34.673  1.00  0.00     0.029 A 
ATOM     35  C   UNL A   1      39.232  33.032  34.868  1.00  0.00     0.049 A 
ATOM     36  H   UNL A   1      39.860  31.480  33.587  1.00  0.00     0.167 HD
ATOM     37  C   UNL A   1      41.112  32.015  36.175  1.00  0.00     0.074 A 
ATOM     38  C   UNL A   1      41.963  31.922  37.351  1.00  0.00     0.031 C 
ATOM     39  C   UNL A   1      40.107  32.909  36.012  1.00  0.00     0.037 A 
BRANCH  26  40
ATOM     40  C   UNL A   1      36.914  32.572  30.686  1.00  0.00     0.058 A 
ATOM     41  C   UNL A   1      37.160  33.580  29.740  1.00  0.00     0.135 A 
ATOM     42  C   UNL A   1      35.599  32.110  30.832  1.00  0.00     0.135 A 
ATOM     43  F   UNL A   1      38.390  34.102  29.607  1.00  0.00    -0.206 F 
ATOM     44  C   UNL A   1      36.131  34.123  28.981  1.00  0.00     0.059 A 
ATOM     45  C   UNL A   1      34.563  32.609  30.057  1.00  0.00     0.059 A 
ATOM     46  F   UNL A   1      35.307  31.179  31.755  1.00  0.00    -0.206 F 
ATOM     47  C   UNL A   1      34.838  33.621  29.140  1.00  0.00     0.060 A 
BRANCH  47  48
ATOM     48  S   UNL A   1      33.520  34.308  28.120  1.00  0.00     0.124 S 
ATOM     49  O   UNL A   1      32.777  35.099  29.096  1.00  0.00    -0.237 OA
ATOM     50  O   UNL A   1      34.270  35.067  27.126  1.00  0.00    -0.237 OA
ATOM     51  O   UNL A   1      32.831  33.124  27.615  1.00  0.00    -0.744 OA
ENDBRANCH  47  48
ENDBRANCH  26  40
BRANCH  27  52
ATOM     52  C   UNL A   1      44.391  28.603  36.247  1.00  0.00     0.058 A 
ATOM     53  C   UNL A   1      45.700  29.098  36.170  1.00  0.00     0.135 A 
ATOM     54  C   UNL A   1      44.171  27.502  37.095  1.00  0.00     0.135 A 
ATOM     55  F   UNL A   1      45.972  30.152  35.386  1.00  0.00    -0.206 F 
ATOM     56  C   UNL A   1      46.754  28.509  36.869  1.00  0.00     0.059 A 
ATOM     57  C   UNL A   1      45.201  26.912  37.827  1.00  0.00     0.059 A 
ATOM     58  F   UNL A   1      42.936  26.991  37.228  1.00  0.00    -0.206 F 
ATOM     59  C   UNL A   1      46.494  27.414  37.696  1.00  0.00     0.060 A 
BRANCH  59  60
ATOM     60  S   UNL A   1      47.870  26.665  38.597  1.00  0.00     0.124 S 
ATOM     61  O   UNL A   1      47.422  25.283  38.726  1.00  0.00    -0.237 OA
ATOM     62  O   UNL A   1      48.988  26.889  37.685  1.00  0.00    -0.237 OA
ATOM     63  O   UNL A   1      47.919  27.429  39.839  1.00  0.00    -0.744 OA
ENDBRANCH  59  60
ENDBRANCH  27  52
BRANCH  39  64
ATOM     64  C   UNL A   1      39.849  33.819  37.171  1.00  0.00     0.058 A 
ATOM     65  C   UNL A   1      40.443  35.084  37.268  1.00  0.00     0.135 A 
ATOM     66  C   UNL A   1      38.968  33.413  38.185  1.00  0.00     0.135 A 
ATOM     67  F   UNL A   1      41.303  35.505  36.326  1.00  0.00    -0.206 F 
ATOM     68  C   UNL A   1      40.205  35.906  38.360  1.00  0.00     0.059 A 
ATOM     69  C   UNL A   1      38.676  34.239  39.259  1.00  0.00     0.059 A 
ATOM     70  F   UNL A   1      38.371  32.213  38.128  1.00  0.00    -0.206 F 
ATOM     71  C   UNL A   1      39.314  35.475  39.345  1.00  0.00     0.060 A 
BRANCH  71  72
ATOM     72  S   UNL A   1      38.991  36.565  40.741  1.00  0.00     0.124 S 
ATOM     73  O   UNL A   1      38.027  35.782  41.506  1.00  0.00    -0.237 OA
ATOM     74  O   UNL A   1      40.316  36.701  41.337  1.00  0.00    -0.237 OA
ATOM     75  O   UNL A   1      38.463  37.773  40.114  1.00  0.00    -0.744 OA
ENDBRANCH  71  72
ENDBRANCH  39  64
ENDBRANCH  13  14
ENDBRANCH   6   8
ENDBRANCH   5   6
ENDBRANCH   4   5
ENDBRANCH   3   4
ENDBRANCH   2   3
ENDBRANCH   1   2
BRANCH   1  76
ATOM     76  C   UNL A   1      39.306  21.905  26.181  1.00  0.00     0.188 C 
BRANCH  76  77
ATOM     77  O   UNL A   1      38.417  21.186  25.255  1.00  0.00    -0.376 OA
BRANCH  77  78
ATOM     78  C   UNL A   1      36.835  21.342  24.714  1.00  0.00     0.202 C 
BRANCH  78  79
ATOM     79  C   UNL A   1      35.791  23.107  23.872  1.00  0.00     0.261 C 
BRANCH  79  80
ATOM     80  O   UNL A   1      34.854  24.264  25.003  1.00  0.00    -0.463 OA
BRANCH  80  81
ATOM     81  C   UNL A   1      33.989  25.431  24.742  1.00  0.00     0.312 C 
ATOM     82  O   UNL A   1      33.798  26.019  23.657  1.00  0.00    -0.252 OA
BRANCH  81  83
ATOM     83  C   UNL A   1      33.265  26.166  25.757  1.00  0.00     0.147 C 
ATOM     84  C   UNL A   1      31.735  25.975  25.679  1.00  0.00     0.128 C 
ATOM     85  C   UNL A   1      33.445  27.627  25.797  1.00  0.00     0.157 C 
ATOM     86  C   UNL A   1      31.288  27.448  25.653  1.00  0.00     0.155 C 
ATOM     87  C   UNL A   1      32.899  28.042  27.144  1.00  0.00     0.004 C 
ATOM     88  O   UNL A   1      32.390  28.051  24.922  1.00  0.00    -0.365 OA
ATOM     89  C   UNL A   1      31.566  28.007  27.027  1.00  0.00     0.004 C 
BRANCH  84  90
ATOM     90  C   UNL A   1      31.009  25.047  24.707  1.00  0.00     0.227 C 
ATOM     91  O   UNL A   1      30.443  25.559  23.729  1.00  0.00    -0.275 OA
ATOM     92  N   UNL A   1      30.850  23.709  24.815  1.00  0.00    -0.352 N 
ATOM     93  H   UNL A   1      30.044  23.356  24.372  1.00  0.00     0.163 HD
BRANCH  92  94
ATOM     94  C   UNL A   1      31.650  22.723  25.462  1.00  0.00     0.151 C 
BRANCH  94  95
ATOM     95  C   UNL A   1      32.590  21.679  24.555  1.00  0.00    -0.026 A 
ATOM     96  C   UNL A   1      32.216  20.908  22.847  1.00  0.00     0.025 A 
ATOM     97  C   UNL A   1      32.996  20.538  25.869  1.00  0.00     0.025 A 
ATOM     98  C   UNL A   1      32.236  19.118  22.707  1.00  0.00     0.111 A 
ATOM     99  C   UNL A   1      32.953  18.869  25.552  1.00  0.00     0.111 A 
ATOM    100  N   UNL A   1      32.563  18.167  24.078  1.00  0.00    -0.265 NA
ENDBRANCH  94  95
ENDBRANCH  92  94
ENDBRANCH  84  90
ENDBRANCH  81  83
ENDBRANCH  80  81
ENDBRANCH  79  80
ENDBRANCH  78  79
ENDBRANCH  77  78
ENDBRANCH  76  77
ENDBRANCH   1  76
TORSDOF 23
ENDMDL
MODEL 2
REMARK VINA RESULT:     -11.7      6.118     11.671
REMARK SMILES O=C(OCCOCCOCCOC(=O)[C@@H]1[C@H](C(=O)NCc2ccncc2)[C@H]2C=C[C@@H]1O2)c1ccc(-c2c3nc(c(-c4c(F)cc(S(=O)(=O)[O-])cc4F)c4ccc([nH]4)c(-c4c(F)cc(S(=O)(=O)[O-])cc4F)c4nc(c(-c5c(F)cc(S(=O)(=O)[O-])cc5F)c5ccc2[nH]5)C=C4)C=C3)cc1
REMARK SMILES IDX 7 1 6 2 5 3 4 4 3 5 2 6 1 7 32 8 33 9 97 10 34 11 96 12
REMARK SMILES IDX 35 13 36 14 37 15 90 16 38 17 95 18 89 19 91 20 39 21 94 22
REMARK SMILES IDX 88 23 87 24 40 26 74 27 53 28 73 29 54 30 57 31 72 32 92 33
REMARK SMILES IDX 55 34 56 35 71 37 93 38 58 39 41 40 42 41 51 42 43 43 44 44
REMARK SMILES IDX 50 45 52 46 45 47 46 48 47 49 48 50 49 51 75 52 76 53 85 54
REMARK SMILES IDX 77 55 78 56 84 57 86 58 79 59 80 60 81 61 82 62 83 63 59 64
REMARK SMILES IDX 60 65 69 66 61 67 62 68 68 69 70 70 63 71 64 72 65 73 66 74
REMARK SMILES IDX 67 75 8 76 9 77 10 78 11 79 12 80 13 81 14 82 15 83 16 84
REMARK SMILES IDX 30 85 27 86 29 87 31 88 28 89 17 90 18 91 19 92 20 94 21 95
REMARK SMILES IDX 22 96 26 97 23 98 25 99 24 100
REMARK H PARENT 91 25 57 36 19 93
REMARK Flexibility Score: inf
ROOT
ATOM      1  C   UNL A   1      34.034  30.667  27.225  1.00  0.00     0.188 C 
ENDROOT
BRANCH   1   2
ATOM      2  O   UNL A   1      34.341  31.559  28.300  1.00  0.00    -0.376 OA
BRANCH   2   3
ATOM      3  C   UNL A   1      35.267  32.627  28.043  1.00  0.00     0.202 C 
BRANCH   3   4
ATOM      4  C   UNL A   1      36.218  33.058  29.146  1.00  0.00     0.261 C 
BRANCH   4   5
ATOM      5  O   UNL A   1      36.211  32.167  30.272  1.00  0.00    -0.460 OA
BRANCH   5   6
ATOM      6  C   UNL A   1      37.214  31.793  31.094  1.00  0.00     0.338 C 
ATOM      7  O   UNL A   1      37.151  32.057  32.290  1.00  0.00    -0.246 OA
BRANCH   6   8
ATOM      8  C   UNL A   1      38.347  30.970  30.612  1.00  0.00     0.060 A 
ATOM      9  C   UNL A   1      39.193  30.255  31.448  1.00  0.00     0.016 A 
ATOM     10  C   UNL A   1      38.519  30.838  29.232  1.00  0.00     0.016 A 
ATOM     11  C   UNL A   1      40.372  29.709  30.972  1.00  0.00     0.010 A 
ATOM     12  C   UNL A   1      39.608  30.123  28.727  1.00  0.00     0.010 A 
ATOM     13  C   UNL A   1      40.598  29.647  29.600  1.00  0.00    -0.014 A 
BRANCH  13  14
ATOM     14  C   UNL A   1      41.933  29.233  29.100  1.00  0.00     0.031 A 
ATOM     15  C   UNL A   1      43.019  30.237  29.143  1.00  0.00     0.074 A 
ATOM     16  C   UNL A   1      42.213  27.965  28.748  1.00  0.00     0.049 A 
ATOM     17  N   UNL A   1      44.234  30.120  28.700  1.00  0.00    -0.248 NA
ATOM     18  C   UNL A   1      42.714  31.526  29.782  1.00  0.00     0.031 C 
ATOM     19  C   UNL A   1      41.246  26.909  28.886  1.00  0.00     0.029 A 
ATOM     20  N   UNL A   1      43.306  27.311  28.256  1.00  0.00    -0.354 N 
ATOM     21  C   UNL A   1      44.832  31.332  28.975  1.00  0.00     0.074 A 
ATOM     22  C   UNL A   1      43.843  32.185  29.592  1.00  0.00     0.031 C 
ATOM     23  C   UNL A   1      41.750  25.730  28.511  1.00  0.00     0.029 A 
ATOM     24  C   UNL A   1      43.073  25.971  27.996  1.00  0.00     0.049 A 
ATOM     25  H   UNL A   1      44.174  27.748  28.100  1.00  0.00     0.167 HD
ATOM     26  C   UNL A   1      46.110  31.675  28.725  1.00  0.00     0.037 A 
ATOM     27  C   UNL A   1      43.819  25.046  27.367  1.00  0.00     0.037 A 
ATOM     28  C   UNL A   1      47.046  30.779  28.106  1.00  0.00     0.049 A 
ATOM     29  C   UNL A   1      45.176  25.506  26.949  1.00  0.00     0.074 A 
ATOM     30  C   UNL A   1      48.355  31.025  27.748  1.00  0.00     0.029 A 
ATOM     31  N   UNL A   1      46.764  29.465  27.739  1.00  0.00    -0.354 N 
ATOM     32  N   UNL A   1      45.716  26.688  27.141  1.00  0.00    -0.248 NA
ATOM     33  C   UNL A   1      46.034  24.539  26.268  1.00  0.00     0.031 C 
ATOM     34  C   UNL A   1      48.836  29.893  27.086  1.00  0.00     0.029 A 
ATOM     35  C   UNL A   1      47.865  28.901  27.119  1.00  0.00     0.049 A 
ATOM     36  H   UNL A   1      45.909  29.006  27.898  1.00  0.00     0.167 HD
ATOM     37  C   UNL A   1      47.002  26.596  26.652  1.00  0.00     0.074 A 
ATOM     38  C   UNL A   1      47.156  25.237  26.157  1.00  0.00     0.031 C 
ATOM     39  C   UNL A   1      47.970  27.544  26.630  1.00  0.00     0.037 A 
BRANCH  26  40
ATOM     40  C   UNL A   1      46.485  33.092  29.018  1.00  0.00     0.058 A 
ATOM     41  C   UNL A   1      46.923  33.513  30.285  1.00  0.00     0.135 A 
ATOM     42  C   UNL A   1      46.334  34.060  28.016  1.00  0.00     0.135 A 
ATOM     43  F   UNL A   1      47.021  32.635  31.296  1.00  0.00    -0.206 F 
ATOM     44  C   UNL A   1      47.181  34.852  30.549  1.00  0.00     0.059 A 
ATOM     45  C   UNL A   1      46.624  35.397  28.247  1.00  0.00     0.059 A 
ATOM     46  F   UNL A   1      45.875  33.713  26.803  1.00  0.00    -0.206 F 
ATOM     47  C   UNL A   1      47.039  35.783  29.519  1.00  0.00     0.060 A 
BRANCH  47  48
ATOM     48  S   UNL A   1      47.417  37.511  29.867  1.00  0.00     0.124 S 
ATOM     49  O   UNL A   1      46.276  37.900  30.690  1.00  0.00    -0.237 OA
ATOM     50  O   UNL A   1      48.696  37.408  30.561  1.00  0.00    -0.237 OA
ATOM     51  O   UNL A   1      47.471  38.120  28.541  1.00  0.00    -0.744 OA
ENDBRANCH  47  48
ENDBRANCH  26  40
BRANCH  27  52
ATOM     52  C   UNL A   1      43.313  23.667  27.101  1.00  0.00     0.058 A 
ATOM     53  C   UNL A   1      43.193  22.723  28.131  1.00  0.00     0.135 A 
ATOM     54  C   UNL A   1      42.940  23.256  25.808  1.00  0.00     0.135 A 
ATOM     55  F   UNL A   1      43.523  23.058  29.387  1.00  0.00    -0.206 F 
ATOM     56  C   UNL A   1      42.759  21.419  27.889  1.00  0.00     0.059 A 
ATOM     57  C   UNL A   1      42.477  21.967  25.544  1.00  0.00     0.059 A 
ATOM     58  F   UNL A   1      43.014  24.117  24.780  1.00  0.00    -0.206 F 
ATOM     59  C   UNL A   1      42.404  21.050  26.590  1.00  0.00     0.060 A 
BRANCH  59  60
ATOM     60  S   UNL A   1      41.843  19.357  26.295  1.00  0.00     0.124 S 
ATOM     61  O   UNL A   1      40.407  19.546  26.125  1.00  0.00    -0.237 OA
ATOM     62  O   UNL A   1      42.584  18.996  25.090  1.00  0.00    -0.237 OA
ATOM     63  O   UNL A   1      42.245  18.651  27.508  1.00  0.00    -0.744 OA
ENDBRANCH  59  60
ENDBRANCH  27  52
BRANCH  39  64
ATOM     64  C   UNL A   1      49.298  27.110  26.098  1.00  0.00     0.058 A 
ATOM     65  C   UNL A   1      50.291  26.572  26.928  1.00  0.00     0.135 A 
ATOM     66  C   UNL A   1      49.561  27.217  24.724  1.00  0.00     0.135 A 
ATOM     67  F   UNL A   1      50.085  26.465  28.251  1.00  0.00    -0.206 F 
ATOM     68  C   UNL A   1      51.523  26.192  26.418  1.00  0.00     0.059 A 
ATOM     69  C   UNL A   1      50.766  26.795  24.185  1.00  0.00     0.059 A 
ATOM     70  F   UNL A   1      48.635  27.719  23.891  1.00  0.00    -0.206 F 
ATOM     71  C   UNL A   1      51.746  26.302  25.044  1.00  0.00     0.060 A 
BRANCH  71  72
ATOM     72  S   UNL A   1      53.340  25.775  24.391  1.00  0.00     0.124 S 
ATOM     73  O   UNL A   1      53.430  24.413  24.907  1.00  0.00    -0.237 OA
ATOM     74  O   UNL A   1      53.137  25.898  22.952  1.00  0.00    -0.237 OA
ATOM     75  O   UNL A   1      54.277  26.731  24.972  1.00  0.00    -0.744 OA
ENDBRANCH  71  72
ENDBRANCH  39  64
ENDBRANCH  13  14
ENDBRANCH   6   8
ENDBRANCH   5   6
ENDBRANCH   4   5
ENDBRANCH   3   4
ENDBRANCH   2   3
ENDBRANCH   1   2
BRANCH   1  76
ATOM     76  C   UNL A   1      32.483  30.401  26.973  1.00  0.00     0.188 C 
BRANCH  76  77
ATOM     77  O   UNL A   1      31.811  29.194  26.468  1.00  0.00    -0.376 OA
BRANCH  77  78
ATOM     78  C   UNL A   1      31.877  27.543  26.772  1.00  0.00     0.202 C 
BRANCH  78  79
ATOM     79  C   UNL A   1      30.368  25.968  26.377  1.00  0.00     0.261 C 
BRANCH  79  80
ATOM     80  O   UNL A   1      30.820  24.168  26.603  1.00  0.00    -0.463 OA
BRANCH  80  81
ATOM     81  C   UNL A   1      32.107  23.485  26.840  1.00  0.00     0.312 C 
ATOM     82  O   UNL A   1      32.386  22.657  27.732  1.00  0.00    -0.252 OA
BRANCH  81  83
ATOM     83  C   UNL A   1      33.326  23.743  26.104  1.00  0.00     0.147 C 
ATOM     84  C   UNL A   1      33.284  23.229  24.649  1.00  0.00     0.128 C 
ATOM     85  C   UNL A   1      34.578  23.190  26.646  1.00  0.00     0.157 C 
ATOM     86  C   UNL A   1      34.579  22.397  24.627  1.00  0.00     0.155 C 
ATOM     87  C   UNL A   1      35.673  23.925  25.908  1.00  0.00     0.004 C 
ATOM     88  O   UNL A   1      34.610  21.910  25.996  1.00  0.00    -0.365 OA
ATOM     89  C   UNL A   1      35.723  23.380  24.686  1.00  0.00     0.004 C 
BRANCH  84  90
ATOM     90  C   UNL A   1      32.074  22.586  23.973  1.00  0.00     0.227 C 
ATOM     91  O   UNL A   1      31.927  21.360  24.091  1.00  0.00    -0.275 OA
ATOM     92  N   UNL A   1      31.153  23.193  23.191  1.00  0.00    -0.352 N 
ATOM     93  H   UNL A   1      30.727  22.602  22.528  1.00  0.00     0.163 HD
BRANCH  92  94
ATOM     94  C   UNL A   1      30.696  24.542  23.163  1.00  0.00     0.151 C 
BRANCH  94  95
ATOM     95  C   UNL A   1      31.589  25.715  22.373  1.00  0.00    -0.026 A 
ATOM     96  C   UNL A   1      33.456  26.096  22.516  1.00  0.00     0.025 A 
ATOM     97  C   UNL A   1      30.475  27.082  22.660  1.00  0.00     0.025 A 
ATOM     98  C   UNL A   1      33.944  27.760  22.985  1.00  0.00     0.111 A 
ATOM     99  C   UNL A   1      31.120  28.589  23.106  1.00  0.00     0.111 A 
ATOM    100  N   UNL A   1      32.752  28.931  23.303  1.00  0.00    -0.265 NA
ENDBRANCH  94  95
ENDBRANCH  92  94
ENDBRANCH  84  90
ENDBRANCH  81  83
ENDBRANCH  80  81
ENDBRANCH  79  80
ENDBRANCH  78  79
ENDBRANCH  77  78
ENDBRANCH  76  77
ENDBRANCH   1  76
TORSDOF 23
ENDMDL
MODEL 3
REMARK VINA RESULT:     -11.4      2.367      8.955
REMARK SMILES O=C(OCCOCCOCCOC(=O)[C@@H]1[C@H](C(=O)NCc2ccncc2)[C@H]2C=C[C@@H]1O2)c1ccc(-c2c3nc(c(-c4c(F)cc(S(=O)(=O)[O-])cc4F)c4ccc([nH]4)c(-c4c(F)cc(S(=O)(=O)[O-])cc4F)c4nc(c(-c5c(F)cc(S(=O)(=O)[O-])cc5F)c5ccc2[nH]5)C=C4)C=C3)cc1
REMARK SMILES IDX 7 1 6 2 5 3 4 4 3 5 2 6 1 7 32 8 33 9 97 10 34 11 96 12
REMARK SMILES IDX 35 13 36 14 37 15 90 16 38 17 95 18 89 19 91 20 39 21 94 22
REMARK SMILES IDX 88 23 87 24 40 26 74 27 53 28 73 29 54 30 57 31 72 32 92 33
REMARK SMILES IDX 55 34 56 35 71 37 93 38 58 39 41 40 42 41 51 42 43 43 44 44
REMARK SMILES IDX 50 45 52 46 45 47 46 48 47 49 48 50 49 51 75 52 76 53 85 54
REMARK SMILES IDX 77 55 78 56 84 57 86 58 79 59 80 60 81 61 82 62 83 63 59 64
REMARK SMILES IDX 60 65 69 66 61 67 62 68 68 69 70 70 63 71 64 72 65 73 66 74
REMARK SMILES IDX 67 75 8 76 9 77 10 78 11 79 12 80 13 81 14 82 15 83 16 84
REMARK SMILES IDX 30 85 27 86 29 87 31 88 28 89 17 90 18 91 19 92 20 94 21 95
REMARK SMILES IDX 22 96 26 97 23 98 25 99 24 100
REMARK H PARENT 91 25 57 36 19 93
REMARK Flexibility Score: inf
ROOT
ATOM      1  C   UNL A   1      31.939  32.306  27.008  1.00  0.00     0.188 C 
ENDROOT
BRANCH   1   2
ATOM      2  O   UNL A   1      31.928  33.697  27.336  1.00  0.00    -0.376 OA
BRANCH   2   3
ATOM      3  C   UNL A   1      33.046  34.224  28.068  1.00  0.00     0.202 C 
BRANCH   3   4
ATOM      4  C   UNL A   1      32.872  35.516  28.849  1.00  0.00     0.261 C 
BRANCH   4   5
ATOM      5  O   UNL A   1      32.400  35.302  30.188  1.00  0.00    -0.460 OA
BRANCH   5   6
ATOM      6  C   UNL A   1      33.064  35.340  31.362  1.00  0.00     0.338 C 
ATOM      7  O   UNL A   1      32.659  36.062  32.267  1.00  0.00    -0.246 OA
BRANCH   6   8
ATOM      8  C   UNL A   1      34.212  34.445  31.634  1.00  0.00     0.060 A 
ATOM      9  C   UNL A   1      34.123  33.279  32.381  1.00  0.00     0.016 A 
ATOM     10  C   UNL A   1      35.435  34.749  31.030  1.00  0.00     0.016 A 
ATOM     11  C   UNL A   1      35.261  32.617  32.809  1.00  0.00     0.010 A 
ATOM     12  C   UNL A   1      36.564  33.972  31.304  1.00  0.00     0.010 A 
ATOM     13  C   UNL A   1      36.500  32.966  32.280  1.00  0.00    -0.014 A 
BRANCH  13  14
ATOM     14  C   UNL A   1      37.733  32.387  32.871  1.00  0.00     0.031 A 
ATOM     15  C   UNL A   1      38.439  31.345  32.092  1.00  0.00     0.074 A 
ATOM     16  C   UNL A   1      38.290  32.865  33.999  1.00  0.00     0.049 A 
ATOM     17  N   UNL A   1      39.484  30.658  32.438  1.00  0.00    -0.248 NA
ATOM     18  C   UNL A   1      37.923  31.052  30.745  1.00  0.00     0.031 C 
ATOM     19  C   UNL A   1      37.753  34.012  34.680  1.00  0.00     0.029 A 
ATOM     20  N   UNL A   1      39.374  32.539  34.762  1.00  0.00    -0.354 N 
ATOM     21  C   UNL A   1      39.735  29.825  31.367  1.00  0.00     0.074 A 
ATOM     22  C   UNL A   1      38.716  30.064  30.372  1.00  0.00     0.031 C 
ATOM     23  C   UNL A   1      38.484  34.331  35.753  1.00  0.00     0.029 A 
ATOM     24  C   UNL A   1      39.503  33.323  35.895  1.00  0.00     0.049 A 
ATOM     25  H   UNL A   1      40.003  31.818  34.530  1.00  0.00     0.167 HD
ATOM     26  C   UNL A   1      40.746  28.944  31.252  1.00  0.00     0.037 A 
ATOM     27  C   UNL A   1      40.317  33.217  36.961  1.00  0.00     0.037 A 
ATOM     28  C   UNL A   1      41.728  28.752  32.282  1.00  0.00     0.049 A 
ATOM     29  C   UNL A   1      41.324  32.119  36.879  1.00  0.00     0.074 A 
ATOM     30  C   UNL A   1      42.771  27.850  32.309  1.00  0.00     0.029 A 
ATOM     31  N   UNL A   1      41.778  29.468  33.476  1.00  0.00    -0.354 N 
ATOM     32  N   UNL A   1      41.510  31.274  35.891  1.00  0.00    -0.248 NA
ATOM     33  C   UNL A   1      42.242  31.963  38.006  1.00  0.00     0.031 C 
ATOM     34  C   UNL A   1      43.397  27.959  33.554  1.00  0.00     0.029 A 
ATOM     35  C   UNL A   1      42.811  28.997  34.266  1.00  0.00     0.049 A 
ATOM     36  H   UNL A   1      41.169  30.201  33.720  1.00  0.00     0.167 HD
ATOM     37  C   UNL A   1      42.602  30.512  36.250  1.00  0.00     0.074 A 
ATOM     38  C   UNL A   1      43.035  31.004  37.549  1.00  0.00     0.031 C 
ATOM     39  C   UNL A   1      43.200  29.511  35.561  1.00  0.00     0.037 A 
BRANCH  26  40
ATOM     40  C   UNL A   1      40.733  28.077  30.034  1.00  0.00     0.058 A 
ATOM     41  C   UNL A   1      39.795  27.048  29.846  1.00  0.00     0.135 A 
ATOM     42  C   UNL A   1      41.735  28.242  29.068  1.00  0.00     0.135 A 
ATOM     43  F   UNL A   1      38.856  26.807  30.775  1.00  0.00    -0.206 F 
ATOM     44  C   UNL A   1      39.863  26.204  28.745  1.00  0.00     0.059 A 
ATOM     45  C   UNL A   1      41.797  27.436  27.941  1.00  0.00     0.059 A 
ATOM     46  F   UNL A   1      42.681  29.181  29.227  1.00  0.00    -0.206 F 
ATOM     47  C   UNL A   1      40.862  26.414  27.793  1.00  0.00     0.060 A 
BRANCH  47  48
ATOM     48  S   UNL A   1      40.913  25.335  26.351  1.00  0.00     0.124 S 
ATOM     49  O   UNL A   1      41.980  24.409  26.716  1.00  0.00    -0.237 OA
ATOM     50  O   UNL A   1      39.564  24.779  26.340  1.00  0.00    -0.237 OA
ATOM     51  O   UNL A   1      41.222  26.249  25.255  1.00  0.00    -0.744 OA
ENDBRANCH  47  48
ENDBRANCH  26  40
BRANCH  27  52
ATOM     52  C   UNL A   1      40.204  34.128  38.138  1.00  0.00     0.058 A 
ATOM     53  C   UNL A   1      40.981  35.291  38.237  1.00  0.00     0.135 A 
ATOM     54  C   UNL A   1      39.319  33.857  39.198  1.00  0.00     0.135 A 
ATOM     55  F   UNL A   1      41.837  35.609  37.254  1.00  0.00    -0.206 F 
ATOM     56  C   UNL A   1      40.915  36.130  39.350  1.00  0.00     0.059 A 
ATOM     57  C   UNL A   1      39.213  34.694  40.308  1.00  0.00     0.059 A 
ATOM     58  F   UNL A   1      38.533  32.769  39.156  1.00  0.00    -0.206 F 
ATOM     59  C   UNL A   1      40.027  35.822  40.382  1.00  0.00     0.060 A 
BRANCH  59  60
ATOM     60  S   UNL A   1      39.953  36.921  41.816  1.00  0.00     0.124 S 
ATOM     61  O   UNL A   1      41.361  37.027  42.180  1.00  0.00    -0.237 OA
ATOM     62  O   UNL A   1      39.351  38.123  41.246  1.00  0.00    -0.237 OA
ATOM     63  O   UNL A   1      39.111  36.191  42.759  1.00  0.00    -0.744 OA
ENDBRANCH  59  60
ENDBRANCH  27  52
BRANCH  39  64
ATOM     64  C   UNL A   1      44.425  28.926  36.189  1.00  0.00     0.058 A 
ATOM     65  C   UNL A   1      45.692  29.499  36.020  1.00  0.00     0.135 A 
ATOM     66  C   UNL A   1      44.310  27.782  36.993  1.00  0.00     0.135 A 
ATOM     67  F   UNL A   1      45.848  30.587  35.246  1.00  0.00    -0.206 F 
ATOM     68  C   UNL A   1      46.818  28.932  36.595  1.00  0.00     0.059 A 
ATOM     69  C   UNL A   1      45.415  27.227  37.620  1.00  0.00     0.059 A 
ATOM     70  F   UNL A   1      43.114  27.205  37.189  1.00  0.00    -0.206 F 
ATOM     71  C   UNL A   1      46.666  27.800  37.399  1.00  0.00     0.060 A 
BRANCH  71  72
ATOM     72  S   UNL A   1      48.133  27.091  38.166  1.00  0.00     0.124 S 
ATOM     73  O   UNL A   1      48.520  26.086  37.181  1.00  0.00    -0.237 OA
ATOM     74  O   UNL A   1      49.014  28.250  38.271  1.00  0.00    -0.237 OA
ATOM     75  O   UNL A   1      47.635  26.570  39.435  1.00  0.00    -0.744 OA
ENDBRANCH  71  72
ENDBRANCH  39  64
ENDBRANCH  13  14
ENDBRANCH   6   8
ENDBRANCH   5   6
ENDBRANCH   4   5
ENDBRANCH   3   4
ENDBRANCH   2   3
ENDBRANCH   1   2
BRANCH   1  76
ATOM     76  C   UNL A   1      33.322  31.552  27.250  1.00  0.00     0.188 C 
BRANCH  76  77
ATOM     77  O   UNL A   1      33.571  30.163  27.665  1.00  0.00    -0.376 OA
BRANCH  77  78
ATOM     78  C   UNL A   1      34.074  28.741  26.928  1.00  0.00     0.202 C 
BRANCH  78  79
ATOM     79  C   UNL A   1      32.932  26.893  26.483  1.00  0.00     0.261 C 
BRANCH  79  80
ATOM     80  O   UNL A   1      33.706  25.548  25.439  1.00  0.00    -0.463 OA
BRANCH  80  81
ATOM     81  C   UNL A   1      33.989  24.123  25.700  1.00  0.00     0.312 C 
ATOM     82  O   UNL A   1      34.779  23.636  26.535  1.00  0.00    -0.252 OA
BRANCH  81  83
ATOM     83  C   UNL A   1      33.444  23.021  24.937  1.00  0.00     0.147 C 
ATOM     84  C   UNL A   1      31.917  22.862  25.094  1.00  0.00     0.128 C 
ATOM     85  C   UNL A   1      33.977  21.675  25.210  1.00  0.00     0.157 C 
ATOM     86  C   UNL A   1      31.846  21.375  25.485  1.00  0.00     0.155 C 
ATOM     87  C   UNL A   1      33.518  20.837  24.040  1.00  0.00     0.004 C 
ATOM     88  O   UNL A   1      33.080  21.236  26.241  1.00  0.00    -0.365 OA
ATOM     89  C   UNL A   1      32.220  20.587  24.253  1.00  0.00     0.004 C 
BRANCH  84  90
ATOM     90  C   UNL A   1      31.008  23.798  25.889  1.00  0.00     0.227 C 
ATOM     91  O   UNL A   1      30.965  23.657  27.121  1.00  0.00    -0.275 OA
ATOM     92  N   UNL A   1      30.177  24.745  25.400  1.00  0.00    -0.352 N 
ATOM     93  H   UNL A   1      29.398  24.939  25.970  1.00  0.00     0.163 HD
BRANCH  92  94
ATOM     94  C   UNL A   1      30.237  25.508  24.198  1.00  0.00     0.151 C 
BRANCH  94  95
ATOM     95  C   UNL A   1      29.711  27.095  24.185  1.00  0.00    -0.026 A 
ATOM     96  C   UNL A   1      28.074  27.809  23.504  1.00  0.00     0.025 A 
ATOM     97  C   UNL A   1      31.217  27.829  23.563  1.00  0.00     0.025 A 
ATOM     98  C   UNL A   1      28.170  29.101  22.259  1.00  0.00     0.111 A 
ATOM     99  C   UNL A   1      31.112  29.039  22.375  1.00  0.00     0.111 A 
ATOM    100  N   UNL A   1      29.689  29.635  21.713  1.00  0.00    -0.265 NA
ENDBRANCH  94  95
ENDBRANCH  92  94
ENDBRANCH  84  90
ENDBRANCH  81  83
ENDBRANCH  80  81
ENDBRANCH  79  80
ENDBRANCH  78  79
ENDBRANCH  77  78
ENDBRANCH  76  77
ENDBRANCH   1  76
TORSDOF 23
ENDMDL
