MODEL 1
REMARK VINA RESULT:      -8.5      0.000      0.000
REMARK SMILES CC[N@@H+](C/C(Cl)=C/Cl)C[C@@H](C)C(=O)OCCOCCOCCOC(=O)c1ccc(-c2c3nc(c(-c4c(F)cc(S(=O)(=O)[O-])cc4F)c4ccc([nH]4)c(-c4c(F)cc(S(=O)(=O)[O-])cc4F)c4nc(c(-c5c(F)cc(S(=O)(=O)[O-])cc5F)c5ccc2[nH]5)C=C4)C=C3)cc1
REMARK SMILES IDX 18 1 17 2 16 3 15 4 14 5 12 6 13 7 10 8 11 9 9 10 3 11 2 13
REMARK SMILES IDX 1 14 4 15 5 16 6 17 7 18 8 19 19 20 20 21 21 22 22 23 23 24
REMARK SMILES IDX 24 25 25 26 26 27 27 28 91 29 28 30 90 31 29 32 30 33 31 34
REMARK SMILES IDX 84 35 32 36 89 37 83 38 85 39 33 40 88 41 82 42 81 43 34 45
REMARK SMILES IDX 68 46 47 47 67 48 48 49 51 50 66 51 86 52 49 53 50 54 65 56
REMARK SMILES IDX 87 57 52 58 35 59 36 60 45 61 37 62 38 63 44 64 46 65 39 66
REMARK SMILES IDX 40 67 41 68 42 69 43 70 69 71 70 72 79 73 71 74 72 75 78 76
REMARK SMILES IDX 80 77 73 78 74 79 75 80 76 81 77 82 53 83 54 84 63 85 55 86
REMARK SMILES IDX 56 87 62 88 64 89 57 90 58 91 59 92 60 93 61 94
REMARK H PARENT 3 12 85 44 51 55
REMARK Flexibility Score: inf
ROOT
ATOM      1  C   UNL A   1      42.679  21.622  26.036  1.00  0.00     0.188 C 
ENDROOT
BRANCH   1   2
ATOM      2  O   UNL A   1      41.957  21.660  27.259  1.00  0.00    -0.376 OA
BRANCH   2   3
ATOM      3  C   UNL A   1      40.559  21.419  27.242  1.00  0.00     0.202 C 
BRANCH   3   4
ATOM      4  C   UNL A   1      39.627  22.339  26.428  1.00  0.00     0.261 C 
BRANCH   4   5
ATOM      5  O   UNL A   1      38.490  21.748  25.749  1.00  0.00    -0.463 OA
BRANCH   5   6
ATOM      6  C   UNL A   1      37.432  22.577  25.550  1.00  0.00     0.314 C 
ATOM      7  O   UNL A   1      37.254  23.612  26.188  1.00  0.00    -0.252 OA
BRANCH   6   8
ATOM      8  C   UNL A   1      36.391  22.096  24.533  1.00  0.00     0.151 C 
ATOM      9  C   UNL A   1      36.719  22.781  23.213  1.00  0.00     0.026 C 
BRANCH   8  10
ATOM     10  C   UNL A   1      34.903  22.167  24.949  1.00  0.00     0.277 C 
BRANCH  10  11
ATOM     11  N   UNL A   1      34.118  23.410  24.862  1.00  0.00    -0.330 N 
ATOM     12  H   UNL A   1      34.838  23.936  24.368  1.00  0.00     0.348 HD
BRANCH  11  13
ATOM     13  C   UNL A   1      33.073  23.570  23.864  1.00  0.00     0.259 C 
ATOM     14  C   UNL A   1      33.502  24.344  22.623  1.00  0.00     0.071 C 
ENDBRANCH  11  13
BRANCH  11  15
ATOM     15  C   UNL A   1      33.898  24.132  26.125  1.00  0.00     0.312 C 
BRANCH  15  16
ATOM     16  C   UNL A   1      33.031  25.365  26.073  1.00  0.00     0.083 C 
ATOM     17  Cl  UNL A   1      33.902  26.855  25.867  1.00  0.00    -0.082 Cl
ATOM     18  C   UNL A   1      31.700  25.333  26.209  1.00  0.00     0.102 C 
ATOM     19  Cl  UNL A   1      30.660  26.693  26.267  1.00  0.00    -0.091 Cl
ENDBRANCH  15  16
ENDBRANCH  11  15
ENDBRANCH  10  11
ENDBRANCH   8  10
ENDBRANCH   6   8
ENDBRANCH   5   6
ENDBRANCH   4   5
ENDBRANCH   3   4
ENDBRANCH   2   3
ENDBRANCH   1   2
BRANCH   1  20
ATOM     20  C   UNL A   1      44.125  22.141  26.009  1.00  0.00     0.188 C 
BRANCH  20  21
ATOM     21  O   UNL A   1      44.474  22.851  24.841  1.00  0.00    -0.376 OA
BRANCH  21  22
ATOM     22  C   UNL A   1      45.146  24.082  25.018  1.00  0.00     0.202 C 
BRANCH  22  23
ATOM     23  C   UNL A   1      44.646  24.944  26.185  1.00  0.00     0.261 C 
BRANCH  23  24
ATOM     24  O   UNL A   1      43.219  25.034  26.353  1.00  0.00    -0.460 OA
BRANCH  24  25
ATOM     25  C   UNL A   1      42.594  26.137  25.879  1.00  0.00     0.338 C 
ATOM     26  O   UNL A   1      42.316  26.372  24.715  1.00  0.00    -0.246 OA
BRANCH  25  27
ATOM     27  C   UNL A   1      42.092  26.899  27.050  1.00  0.00     0.060 A 
ATOM     28  C   UNL A   1      42.533  28.214  27.268  1.00  0.00     0.016 A 
ATOM     29  C   UNL A   1      41.161  26.321  27.914  1.00  0.00     0.016 A 
ATOM     30  C   UNL A   1      42.061  28.945  28.367  1.00  0.00     0.010 A 
ATOM     31  C   UNL A   1      40.709  27.042  29.021  1.00  0.00     0.010 A 
ATOM     32  C   UNL A   1      41.178  28.345  29.274  1.00  0.00    -0.014 A 
BRANCH  32  33
ATOM     33  C   UNL A   1      40.915  28.946  30.608  1.00  0.00     0.031 A 
ATOM     34  C   UNL A   1      39.806  29.960  30.705  1.00  0.00     0.074 A 
ATOM     35  C   UNL A   1      41.663  28.667  31.689  1.00  0.00     0.049 A 
ATOM     36  N   UNL A   1      39.504  30.778  31.679  1.00  0.00    -0.248 NA
ATOM     37  C   UNL A   1      38.930  30.071  29.527  1.00  0.00     0.031 C 
ATOM     38  C   UNL A   1      42.725  27.668  31.752  1.00  0.00     0.029 A 
ATOM     39  N   UNL A   1      41.658  29.235  32.942  1.00  0.00    -0.354 N 
ATOM     40  C   UNL A   1      38.424  31.523  31.219  1.00  0.00     0.074 A 
ATOM     41  C   UNL A   1      38.137  31.073  29.875  1.00  0.00     0.031 C 
ATOM     42  C   UNL A   1      43.295  27.716  32.970  1.00  0.00     0.029 A 
ATOM     43  C   UNL A   1      42.670  28.781  33.756  1.00  0.00     0.049 A 
ATOM     44  H   UNL A   1      40.995  29.902  33.229  1.00  0.00     0.167 HD
ATOM     45  C   UNL A   1      37.735  32.499  31.858  1.00  0.00     0.037 A 
ATOM     46  C   UNL A   1      43.072  29.205  34.972  1.00  0.00     0.037 A 
ATOM     47  C   UNL A   1      38.031  32.947  33.193  1.00  0.00     0.049 A 
ATOM     48  C   UNL A   1      42.343  30.345  35.644  1.00  0.00     0.074 A 
ATOM     49  C   UNL A   1      37.385  33.920  33.935  1.00  0.00     0.029 A 
ATOM     50  N   UNL A   1      39.065  32.463  33.981  1.00  0.00    -0.354 N 
ATOM     51  N   UNL A   1      41.322  31.045  35.206  1.00  0.00    -0.248 NA
ATOM     52  C   UNL A   1      42.818  30.754  36.974  1.00  0.00     0.031 C 
ATOM     53  C   UNL A   1      38.066  34.067  35.147  1.00  0.00     0.029 A 
ATOM     54  C   UNL A   1      39.090  33.134  35.192  1.00  0.00     0.049 A 
ATOM     55  H   UNL A   1      39.689  31.748  33.719  1.00  0.00     0.167 HD
ATOM     56  C   UNL A   1      41.009  31.947  36.221  1.00  0.00     0.074 A 
ATOM     57  C   UNL A   1      41.953  31.709  37.293  1.00  0.00     0.031 C 
ATOM     58  C   UNL A   1      40.023  32.877  36.264  1.00  0.00     0.037 A 
BRANCH  45  59
ATOM     59  C   UNL A   1      36.631  33.178  31.094  1.00  0.00     0.058 A 
ATOM     60  C   UNL A   1      35.280  32.836  31.273  1.00  0.00     0.135 A 
ATOM     61  C   UNL A   1      36.931  34.185  30.163  1.00  0.00     0.135 A 
ATOM     62  F   UNL A   1      34.935  31.867  32.136  1.00  0.00    -0.206 F 
ATOM     63  C   UNL A   1      34.273  33.435  30.524  1.00  0.00     0.059 A 
ATOM     64  C   UNL A   1      35.937  34.823  29.427  1.00  0.00     0.059 A 
ATOM     65  F   UNL A   1      38.204  34.552  29.949  1.00  0.00    -0.206 F 
ATOM     66  C   UNL A   1      34.612  34.425  29.600  1.00  0.00     0.060 A 
BRANCH  66  67
ATOM     67  S   UNL A   1      33.297  35.174  28.617  1.00  0.00     0.124 S 
ATOM     68  O   UNL A   1      34.064  35.944  27.642  1.00  0.00    -0.237 OA
ATOM     69  O   UNL A   1      32.596  34.007  28.093  1.00  0.00    -0.237 OA
ATOM     70  O   UNL A   1      32.551  35.964  29.592  1.00  0.00    -0.744 OA
ENDBRANCH  66  67
ENDBRANCH  45  59
BRANCH  46  71
ATOM     71  C   UNL A   1      44.241  28.558  35.632  1.00  0.00     0.058 A 
ATOM     72  C   UNL A   1      45.532  29.096  35.510  1.00  0.00     0.135 A 
ATOM     73  C   UNL A   1      44.090  27.401  36.412  1.00  0.00     0.135 A 
ATOM     74  F   UNL A   1      45.735  30.187  34.757  1.00  0.00    -0.206 F 
ATOM     75  C   UNL A   1      46.627  28.515  36.142  1.00  0.00     0.059 A 
ATOM     76  C   UNL A   1      45.165  26.816  37.075  1.00  0.00     0.059 A 
ATOM     77  F   UNL A   1      42.877  26.844  36.560  1.00  0.00    -0.206 F 
ATOM     78  C   UNL A   1      46.431  27.380  36.931  1.00  0.00     0.060 A 
BRANCH  78  79
ATOM     79  S   UNL A   1      47.849  26.682  37.806  1.00  0.00     0.124 S 
ATOM     80  O   UNL A   1      47.224  25.615  38.579  1.00  0.00    -0.237 OA
ATOM     81  O   UNL A   1      48.707  26.253  36.705  1.00  0.00    -0.237 OA
ATOM     82  O   UNL A   1      48.355  27.809  38.584  1.00  0.00    -0.744 OA
ENDBRANCH  78  79
ENDBRANCH  46  71
BRANCH  58  83
ATOM     83  C   UNL A   1      39.850  33.675  37.530  1.00  0.00     0.058 A 
ATOM     84  C   UNL A   1      40.536  34.876  37.760  1.00  0.00     0.135 A 
ATOM     85  C   UNL A   1      38.901  33.272  38.488  1.00  0.00     0.135 A 
ATOM     86  F   UNL A   1      41.457  35.308  36.883  1.00  0.00    -0.206 F 
ATOM     87  C   UNL A   1      40.297  35.645  38.896  1.00  0.00     0.059 A 
ATOM     88  C   UNL A   1      38.625  34.039  39.614  1.00  0.00     0.059 A 
ATOM     89  F   UNL A   1      38.207  32.136  38.315  1.00  0.00    -0.206 F 
ATOM     90  C   UNL A   1      39.332  35.223  39.814  1.00  0.00     0.060 A 
BRANCH  90  91
ATOM     91  S   UNL A   1      38.987  36.262  41.251  1.00  0.00     0.124 S 
ATOM     92  O   UNL A   1      37.849  35.570  41.848  1.00  0.00    -0.237 OA
ATOM     93  O   UNL A   1      40.238  36.187  41.998  1.00  0.00    -0.237 OA
ATOM     94  O   UNL A   1      38.690  37.566  40.664  1.00  0.00    -0.744 OA
ENDBRANCH  90  91
ENDBRANCH  58  83
ENDBRANCH  32  33
ENDBRANCH  25  27
ENDBRANCH  24  25
ENDBRANCH  23  24
ENDBRANCH  22  23
ENDBRANCH  21  22
ENDBRANCH  20  21
ENDBRANCH   1  20
TORSDOF 25
ENDMDL
MODEL 2
REMARK VINA RESULT:      -8.5      3.831      9.559
REMARK SMILES CC[N@@H+](C/C(Cl)=C/Cl)C[C@@H](C)C(=O)OCCOCCOCCOC(=O)c1ccc(-c2c3nc(c(-c4c(F)cc(S(=O)(=O)[O-])cc4F)c4ccc([nH]4)c(-c4c(F)cc(S(=O)(=O)[O-])cc4F)c4nc(c(-c5c(F)cc(S(=O)(=O)[O-])cc5F)c5ccc2[nH]5)C=C4)C=C3)cc1
REMARK SMILES IDX 18 1 17 2 16 3 15 4 14 5 12 6 13 7 10 8 11 9 9 10 3 11 2 13
REMARK SMILES IDX 1 14 4 15 5 16 6 17 7 18 8 19 19 20 20 21 21 22 22 23 23 24
REMARK SMILES IDX 24 25 25 26 26 27 27 28 91 29 28 30 90 31 29 32 30 33 31 34
REMARK SMILES IDX 84 35 32 36 89 37 83 38 85 39 33 40 88 41 82 42 81 43 34 45
REMARK SMILES IDX 68 46 47 47 67 48 48 49 51 50 66 51 86 52 49 53 50 54 65 56
REMARK SMILES IDX 87 57 52 58 35 59 36 60 45 61 37 62 38 63 44 64 46 65 39 66
REMARK SMILES IDX 40 67 41 68 42 69 43 70 69 71 70 72 79 73 71 74 72 75 78 76
REMARK SMILES IDX 80 77 73 78 74 79 75 80 76 81 77 82 53 83 54 84 63 85 55 86
REMARK SMILES IDX 56 87 62 88 64 89 57 90 58 91 59 92 60 93 61 94
REMARK H PARENT 3 12 85 44 51 55
REMARK Flexibility Score: inf
ROOT
ATOM      1  C   UNL A   1      29.968  29.191  23.150  1.00  0.00     0.188 C 
ENDROOT
BRANCH   1   2
ATOM      2  O   UNL A   1      29.559  27.869  23.471  1.00  0.00    -0.376 OA
BRANCH   2   3
ATOM      3  C   UNL A   1      30.363  26.778  23.052  1.00  0.00     0.202 C 
BRANCH   3   4
ATOM      4  C   UNL A   1      31.719  27.038  22.363  1.00  0.00     0.261 C 
BRANCH   4   5
ATOM      5  O   UNL A   1      32.935  26.807  23.116  1.00  0.00    -0.463 OA
BRANCH   5   6
ATOM      6  C   UNL A   1      33.442  25.549  23.038  1.00  0.00     0.314 C 
ATOM      7  O   UNL A   1      33.785  25.022  21.983  1.00  0.00    -0.252 OA
BRANCH   6   8
ATOM      8  C   UNL A   1      33.472  24.760  24.353  1.00  0.00     0.151 C 
ATOM      9  C   UNL A   1      34.085  25.678  25.400  1.00  0.00     0.026 C 
BRANCH   8  10
ATOM     10  C   UNL A   1      34.066  23.332  24.313  1.00  0.00     0.277 C 
BRANCH  10  11
ATOM     11  N   UNL A   1      33.592  22.255  25.199  1.00  0.00    -0.330 N 
ATOM     12  H   UNL A   1      34.330  21.599  24.945  1.00  0.00     0.348 HD
BRANCH  11  13
ATOM     13  C   UNL A   1      33.869  22.282  26.626  1.00  0.00     0.259 C 
ATOM     14  C   UNL A   1      32.661  22.618  27.494  1.00  0.00     0.071 C 
ENDBRANCH  11  13
BRANCH  11  15
ATOM     15  C   UNL A   1      32.332  21.602  24.815  1.00  0.00     0.312 C 
BRANCH  15  16
ATOM     16  C   UNL A   1      32.412  20.171  24.347  1.00  0.00     0.083 C 
ATOM     17  Cl  UNL A   1      32.784  19.020  25.596  1.00  0.00    -0.082 Cl
ATOM     18  C   UNL A   1      32.248  19.804  23.070  1.00  0.00     0.102 C 
ATOM     19  Cl  UNL A   1      32.427  18.220  22.444  1.00  0.00    -0.091 Cl
ENDBRANCH  15  16
ENDBRANCH  11  15
ENDBRANCH  10  11
ENDBRANCH   8  10
ENDBRANCH   6   8
ENDBRANCH   5   6
ENDBRANCH   4   5
ENDBRANCH   3   4
ENDBRANCH   2   3
ENDBRANCH   1   2
BRANCH   1  20
ATOM     20  C   UNL A   1      30.589  30.066  24.251  1.00  0.00     0.188 C 
BRANCH  20  21
ATOM     21  O   UNL A   1      31.768  29.546  24.822  1.00  0.00    -0.376 OA
BRANCH  21  22
ATOM     22  C   UNL A   1      31.971  29.785  26.200  1.00  0.00     0.202 C 
BRANCH  22  23
ATOM     23  C   UNL A   1      33.422  29.667  26.684  1.00  0.00     0.261 C 
BRANCH  23  24
ATOM     24  O   UNL A   1      33.778  30.440  27.844  1.00  0.00    -0.460 OA
BRANCH  24  25
ATOM     25  C   UNL A   1      34.824  31.294  27.741  1.00  0.00     0.338 C 
ATOM     26  O   UNL A   1      34.771  32.479  27.455  1.00  0.00    -0.246 OA
BRANCH  25  27
ATOM     27  C   UNL A   1      36.020  30.594  28.272  1.00  0.00     0.060 A 
ATOM     28  C   UNL A   1      35.917  29.828  29.445  1.00  0.00     0.016 A 
ATOM     29  C   UNL A   1      37.235  30.670  27.592  1.00  0.00     0.016 A 
ATOM     30  C   UNL A   1      37.038  29.158  29.953  1.00  0.00     0.010 A 
ATOM     31  C   UNL A   1      38.358  30.021  28.111  1.00  0.00     0.010 A 
ATOM     32  C   UNL A   1      38.276  29.287  29.310  1.00  0.00    -0.014 A 
BRANCH  32  33
ATOM     33  C   UNL A   1      39.540  28.880  29.978  1.00  0.00     0.031 A 
ATOM     34  C   UNL A   1      39.983  29.683  31.172  1.00  0.00     0.074 A 
ATOM     35  C   UNL A   1      40.315  27.882  29.518  1.00  0.00     0.049 A 
ATOM     36  N   UNL A   1      41.127  29.679  31.804  1.00  0.00    -0.248 NA
ATOM     37  C   UNL A   1      38.996  30.633  31.711  1.00  0.00     0.031 C 
ATOM     38  C   UNL A   1      39.981  26.989  28.412  1.00  0.00     0.029 A 
ATOM     39  N   UNL A   1      41.569  27.477  29.913  1.00  0.00    -0.354 N 
ATOM     40  C   UNL A   1      41.009  30.647  32.795  1.00  0.00     0.074 A 
ATOM     41  C   UNL A   1      39.691  31.229  32.668  1.00  0.00     0.031 C 
ATOM     42  C   UNL A   1      41.020  26.162  28.193  1.00  0.00     0.029 A 
ATOM     43  C   UNL A   1      42.110  26.500  29.111  1.00  0.00     0.049 A 
ATOM     44  H   UNL A   1      42.034  27.852  30.694  1.00  0.00     0.167 HD
ATOM     45  C   UNL A   1      41.919  31.021  33.726  1.00  0.00     0.037 A 
ATOM     46  C   UNL A   1      43.351  25.971  29.091  1.00  0.00     0.037 A 
ATOM     47  C   UNL A   1      43.232  30.444  33.842  1.00  0.00     0.049 A 
ATOM     48  C   UNL A   1      44.382  26.450  30.087  1.00  0.00     0.074 A 
ATOM     49  C   UNL A   1      44.224  30.743  34.759  1.00  0.00     0.029 A 
ATOM     50  N   UNL A   1      43.741  29.458  33.009  1.00  0.00    -0.354 N 
ATOM     51  N   UNL A   1      44.265  27.364  31.022  1.00  0.00    -0.248 NA
ATOM     52  C   UNL A   1      45.713  25.828  30.025  1.00  0.00     0.031 C 
ATOM     53  C   UNL A   1      45.353  29.982  34.442  1.00  0.00     0.029 A 
ATOM     54  C   UNL A   1      45.041  29.154  33.375  1.00  0.00     0.049 A 
ATOM     55  H   UNL A   1      43.250  29.035  32.268  1.00  0.00     0.167 HD
ATOM     56  C   UNL A   1      45.491  27.396  31.684  1.00  0.00     0.074 A 
ATOM     57  C   UNL A   1      46.338  26.415  31.038  1.00  0.00     0.031 C 
ATOM     58  C   UNL A   1      45.873  28.160  32.738  1.00  0.00     0.037 A 
BRANCH  45  59
ATOM     59  C   UNL A   1      41.538  32.143  34.653  1.00  0.00     0.058 A 
ATOM     60  C   UNL A   1      40.947  31.907  35.906  1.00  0.00     0.135 A 
ATOM     61  C   UNL A   1      41.762  33.478  34.278  1.00  0.00     0.135 A 
ATOM     62  F   UNL A   1      40.691  30.653  36.309  1.00  0.00    -0.206 F 
ATOM     63  C   UNL A   1      40.552  32.955  36.732  1.00  0.00     0.059 A 
ATOM     64  C   UNL A   1      41.407  34.540  35.103  1.00  0.00     0.059 A 
ATOM     65  F   UNL A   1      42.322  33.763  33.092  1.00  0.00    -0.206 F 
ATOM     66  C   UNL A   1      40.783  34.269  36.319  1.00  0.00     0.060 A 
BRANCH  66  67
ATOM     67  S   UNL A   1      40.240  35.616  37.390  1.00  0.00     0.124 S 
ATOM     68  O   UNL A   1      39.993  36.678  36.419  1.00  0.00    -0.237 OA
ATOM     69  O   UNL A   1      39.055  35.051  38.027  1.00  0.00    -0.237 OA
ATOM     70  O   UNL A   1      41.382  35.829  38.274  1.00  0.00    -0.744 OA
ENDBRANCH  66  67
ENDBRANCH  45  59
BRANCH  46  71
ATOM     71  C   UNL A   1      43.698  24.936  28.078  1.00  0.00     0.058 A 
ATOM     72  C   UNL A   1      43.407  23.580  28.298  1.00  0.00     0.135 A 
ATOM     73  C   UNL A   1      44.307  25.281  26.862  1.00  0.00     0.135 A 
ATOM     74  F   UNL A   1      42.846  23.194  29.453  1.00  0.00    -0.206 F 
ATOM     75  C   UNL A   1      43.704  22.607  27.348  1.00  0.00     0.059 A 
ATOM     76  C   UNL A   1      44.589  24.330  25.885  1.00  0.00     0.059 A 
ATOM     77  F   UNL A   1      44.608  26.563  26.601  1.00  0.00    -0.206 F 
ATOM     78  C   UNL A   1      44.286  22.994  26.140  1.00  0.00     0.060 A 
BRANCH  78  79
ATOM     79  S   UNL A   1      44.594  21.730  24.885  1.00  0.00     0.124 S 
ATOM     80  O   UNL A   1      45.965  21.339  25.190  1.00  0.00    -0.237 OA
ATOM     81  O   UNL A   1      43.565  20.740  25.191  1.00  0.00    -0.237 OA
ATOM     82  O   UNL A   1      44.409  22.450  23.628  1.00  0.00    -0.744 OA
ENDBRANCH  78  79
ENDBRANCH  46  71
BRANCH  58  83
ATOM     83  C   UNL A   1      47.243  27.935  33.322  1.00  0.00     0.058 A 
ATOM     84  C   UNL A   1      47.491  26.960  34.300  1.00  0.00     0.135 A 
ATOM     85  C   UNL A   1      48.346  28.648  32.817  1.00  0.00     0.135 A 
ATOM     86  F   UNL A   1      46.477  26.253  34.822  1.00  0.00    -0.206 F 
ATOM     87  C   UNL A   1      48.780  26.706  34.763  1.00  0.00     0.059 A 
ATOM     88  C   UNL A   1      49.644  28.389  33.243  1.00  0.00     0.059 A 
ATOM     89  F   UNL A   1      48.169  29.585  31.872  1.00  0.00    -0.206 F 
ATOM     90  C   UNL A   1      49.852  27.420  34.222  1.00  0.00     0.060 A 
BRANCH  90  91
ATOM     91  S   UNL A   1      51.524  27.035  34.785  1.00  0.00     0.124 S 
ATOM     92  O   UNL A   1      51.386  27.167  36.231  1.00  0.00    -0.237 OA
ATOM     93  O   UNL A   1      51.716  25.677  34.288  1.00  0.00    -0.237 OA
ATOM     94  O   UNL A   1      52.345  28.056  34.138  1.00  0.00    -0.744 OA
ENDBRANCH  90  91
ENDBRANCH  58  83
ENDBRANCH  32  33
ENDBRANCH  25  27
ENDBRANCH  24  25
ENDBRANCH  23  24
ENDBRANCH  22  23
ENDBRANCH  21  22
ENDBRANCH  20  21
ENDBRANCH   1  20
TORSDOF 25
ENDMDL
MODEL 3
REMARK VINA RESULT:      -8.5      1.436      2.498
REMARK SMILES CC[N@@H+](C/C(Cl)=C/Cl)C[C@@H](C)C(=O)OCCOCCOCCOC(=O)c1ccc(-c2c3nc(c(-c4c(F)cc(S(=O)(=O)[O-])cc4F)c4ccc([nH]4)c(-c4c(F)cc(S(=O)(=O)[O-])cc4F)c4nc(c(-c5c(F)cc(S(=O)(=O)[O-])cc5F)c5ccc2[nH]5)C=C4)C=C3)cc1
REMARK SMILES IDX 18 1 17 2 16 3 15 4 14 5 12 6 13 7 10 8 11 9 9 10 3 11 2 13
REMARK SMILES IDX 1 14 4 15 5 16 6 17 7 18 8 19 19 20 20 21 21 22 22 23 23 24
REMARK SMILES IDX 24 25 25 26 26 27 27 28 91 29 28 30 90 31 29 32 30 33 31 34
REMARK SMILES IDX 84 35 32 36 89 37 83 38 85 39 33 40 88 41 82 42 81 43 34 45
REMARK SMILES IDX 68 46 47 47 67 48 48 49 51 50 66 51 86 52 49 53 50 54 65 56
REMARK SMILES IDX 87 57 52 58 35 59 36 60 45 61 37 62 38 63 44 64 46 65 39 66
REMARK SMILES IDX 40 67 41 68 42 69 43 70 69 71 70 72 79 73 71 74 72 75 78 76
REMARK SMILES IDX 80 77 73 78 74 79 75 80 76 81 77 82 53 83 54 84 63 85 55 86
REMARK SMILES IDX 56 87 62 88 64 89 57 90 58 91 59 92 60 93 61 94
REMARK H PARENT 3 12 85 44 51 55
REMARK Flexibility Score: inf
ROOT
ATOM      1  C   UNL A   1      38.111  21.186  25.368  1.00  0.00     0.188 C 
ENDROOT
BRANCH   1   2
ATOM      2  O   UNL A   1      37.170  21.996  24.678  1.00  0.00    -0.376 OA
BRANCH   2   3
ATOM      3  C   UNL A   1      35.964  22.358  25.331  1.00  0.00     0.202 C 
BRANCH   3   4
ATOM      4  C   UNL A   1      35.764  23.801  25.838  1.00  0.00     0.261 C 
BRANCH   4   5
ATOM      5  O   UNL A   1      34.771  24.633  25.189  1.00  0.00    -0.463 OA
BRANCH   5   6
ATOM      6  C   UNL A   1      33.647  23.989  24.778  1.00  0.00     0.314 C 
ATOM      7  O   UNL A   1      33.585  23.331  23.743  1.00  0.00    -0.252 OA
BRANCH   6   8
ATOM      8  C   UNL A   1      32.399  24.209  25.641  1.00  0.00     0.151 C 
ATOM      9  C   UNL A   1      31.257  23.473  24.955  1.00  0.00     0.026 C 
BRANCH   8  10
ATOM     10  C   UNL A   1      32.074  25.662  26.066  1.00  0.00     0.277 C 
BRANCH  10  11
ATOM     11  N   UNL A   1      32.251  26.807  25.157  1.00  0.00    -0.330 N 
ATOM     12  H   UNL A   1      31.666  27.442  25.699  1.00  0.00     0.348 HD
BRANCH  11  13
ATOM     13  C   UNL A   1      33.460  27.614  25.193  1.00  0.00     0.259 C 
ATOM     14  C   UNL A   1      33.826  28.256  23.859  1.00  0.00     0.071 C 
ENDBRANCH  11  13
BRANCH  11  15
ATOM     15  C   UNL A   1      31.605  26.700  23.840  1.00  0.00     0.312 C 
BRANCH  15  16
ATOM     16  C   UNL A   1      30.270  27.381  23.670  1.00  0.00     0.083 C 
ATOM     17  Cl  UNL A   1      28.896  26.380  24.036  1.00  0.00    -0.082 Cl
ATOM     18  C   UNL A   1      30.136  28.640  23.238  1.00  0.00     0.102 C 
ATOM     19  Cl  UNL A   1      28.659  29.446  22.919  1.00  0.00    -0.091 Cl
ENDBRANCH  15  16
ENDBRANCH  11  15
ENDBRANCH  10  11
ENDBRANCH   8  10
ENDBRANCH   6   8
ENDBRANCH   5   6
ENDBRANCH   4   5
ENDBRANCH   3   4
ENDBRANCH   2   3
ENDBRANCH   1   2
BRANCH   1  20
ATOM     20  C   UNL A   1      39.247  21.866  26.150  1.00  0.00     0.188 C 
BRANCH  20  21
ATOM     21  O   UNL A   1      40.452  21.135  26.194  1.00  0.00    -0.376 OA
BRANCH  21  22
ATOM     22  C   UNL A   1      41.506  21.687  26.955  1.00  0.00     0.202 C 
BRANCH  22  23
ATOM     23  C   UNL A   1      42.327  22.778  26.252  1.00  0.00     0.261 C 
BRANCH  23  24
ATOM     24  O   UNL A   1      41.831  24.125  26.360  1.00  0.00    -0.460 OA
BRANCH  24  25
ATOM     25  C   UNL A   1      42.736  25.126  26.461  1.00  0.00     0.338 C 
ATOM     26  O   UNL A   1      43.657  25.355  25.693  1.00  0.00    -0.246 OA
BRANCH  25  27
ATOM     27  C   UNL A   1      42.268  26.039  27.533  1.00  0.00     0.060 A 
ATOM     28  C   UNL A   1      42.947  27.246  27.768  1.00  0.00     0.016 A 
ATOM     29  C   UNL A   1      41.138  25.715  28.284  1.00  0.00     0.016 A 
ATOM     30  C   UNL A   1      42.510  28.118  28.774  1.00  0.00     0.010 A 
ATOM     31  C   UNL A   1      40.717  26.574  29.302  1.00  0.00     0.010 A 
ATOM     32  C   UNL A   1      41.417  27.765  29.575  1.00  0.00    -0.014 A 
BRANCH  32  33
ATOM     33  C   UNL A   1      41.126  28.481  30.845  1.00  0.00     0.031 A 
ATOM     34  C   UNL A   1      40.020  29.502  30.829  1.00  0.00     0.074 A 
ATOM     35  C   UNL A   1      41.849  28.296  31.964  1.00  0.00     0.049 A 
ATOM     36  N   UNL A   1      39.700  30.403  31.719  1.00  0.00    -0.248 NA
ATOM     37  C   UNL A   1      39.171  29.512  29.625  1.00  0.00     0.031 C 
ATOM     38  C   UNL A   1      42.905  27.303  32.138  1.00  0.00     0.029 A 
ATOM     39  N   UNL A   1      41.819  28.971  33.162  1.00  0.00    -0.354 N 
ATOM     40  C   UNL A   1      38.634  31.108  31.172  1.00  0.00     0.074 A 
ATOM     41  C   UNL A   1      38.375  30.542  29.866  1.00  0.00     0.031 C 
ATOM     42  C   UNL A   1      43.448  27.457  33.360  1.00  0.00     0.029 A 
ATOM     43  C   UNL A   1      42.811  28.588  34.034  1.00  0.00     0.049 A 
ATOM     44  H   UNL A   1      41.152  29.663  33.374  1.00  0.00     0.167 HD
ATOM     45  C   UNL A   1      37.936  32.137  31.707  1.00  0.00     0.037 A 
ATOM     46  C   UNL A   1      43.187  29.117  35.218  1.00  0.00     0.037 A 
ATOM     47  C   UNL A   1      38.203  32.700  33.004  1.00  0.00     0.049 A 
ATOM     48  C   UNL A   1      42.448  30.313  35.771  1.00  0.00     0.074 A 
ATOM     49  C   UNL A   1      37.545  33.736  33.643  1.00  0.00     0.029 A 
ATOM     50  N   UNL A   1      39.217  32.285  33.855  1.00  0.00    -0.354 N 
ATOM     51  N   UNL A   1      41.440  30.974  35.250  1.00  0.00    -0.248 NA
ATOM     52  C   UNL A   1      42.895  30.836  37.070  1.00  0.00     0.031 C 
ATOM     53  C   UNL A   1      38.199  33.987  34.853  1.00  0.00     0.029 A 
ATOM     54  C   UNL A   1      39.219  33.058  35.003  1.00  0.00     0.049 A 
ATOM     55  H   UNL A   1      39.844  31.548  33.670  1.00  0.00     0.167 HD
ATOM     56  C   UNL A   1      41.109  31.962  36.175  1.00  0.00     0.074 A 
ATOM     57  C   UNL A   1      42.027  31.817  37.285  1.00  0.00     0.031 C 
ATOM     58  C   UNL A   1      40.126  32.895  36.114  1.00  0.00     0.037 A 
BRANCH  45  59
ATOM     59  C   UNL A   1      36.851  32.750  30.862  1.00  0.00     0.058 A 
ATOM     60  C   UNL A   1      37.135  33.658  29.828  1.00  0.00     0.135 A 
ATOM     61  C   UNL A   1      35.505  32.425  31.096  1.00  0.00     0.135 A 
ATOM     62  F   UNL A   1      38.402  34.019  29.573  1.00  0.00    -0.206 F 
ATOM     63  C   UNL A   1      36.120  34.256  29.088  1.00  0.00     0.059 A 
ATOM     64  C   UNL A   1      34.476  32.985  30.345  1.00  0.00     0.059 A 
ATOM     65  F   UNL A   1      35.175  31.565  32.071  1.00  0.00    -0.206 F 
ATOM     66  C   UNL A   1      34.793  33.916  29.358  1.00  0.00     0.060 A 
BRANCH  66  67
ATOM     67  S   UNL A   1      33.488  34.721  28.406  1.00  0.00     0.124 S 
ATOM     68  O   UNL A   1      34.251  35.695  27.631  1.00  0.00    -0.237 OA
ATOM     69  O   UNL A   1      32.923  33.609  27.647  1.00  0.00    -0.237 OA
ATOM     70  O   UNL A   1      32.614  35.282  29.432  1.00  0.00    -0.744 OA
ENDBRANCH  66  67
ENDBRANCH  45  59
BRANCH  46  71
ATOM     71  C   UNL A   1      44.338  28.527  35.958  1.00  0.00     0.058 A 
ATOM     72  C   UNL A   1      45.648  28.983  35.744  1.00  0.00     0.135 A 
ATOM     73  C   UNL A   1      44.151  27.510  36.907  1.00  0.00     0.135 A 
ATOM     74  F   UNL A   1      45.885  29.937  34.831  1.00  0.00    -0.206 F 
ATOM     75  C   UNL A   1      46.728  28.457  36.447  1.00  0.00     0.059 A 
ATOM     76  C   UNL A   1      45.211  26.986  37.641  1.00  0.00     0.059 A 
ATOM     77  F   UNL A   1      42.919  27.035  37.149  1.00  0.00    -0.206 F 
ATOM     78  C   UNL A   1      46.497  27.466  37.401  1.00  0.00     0.060 A 
BRANCH  78  79
ATOM     79  S   UNL A   1      47.898  26.847  38.360  1.00  0.00     0.124 S 
ATOM     80  O   UNL A   1      47.482  27.153  39.724  1.00  0.00    -0.237 OA
ATOM     81  O   UNL A   1      47.914  25.432  38.000  1.00  0.00    -0.237 OA
ATOM     82  O   UNL A   1      49.024  27.628  37.856  1.00  0.00    -0.744 OA
ENDBRANCH  78  79
ENDBRANCH  46  71
BRANCH  58  83
ATOM     83  C   UNL A   1      39.928  33.801  37.301  1.00  0.00     0.058 A 
ATOM     84  C   UNL A   1      40.535  35.062  37.392  1.00  0.00     0.135 A 
ATOM     85  C   UNL A   1      39.032  33.433  38.322  1.00  0.00     0.135 A 
ATOM     86  F   UNL A   1      41.403  35.464  36.450  1.00  0.00    -0.206 F 
ATOM     87  C   UNL A   1      40.270  35.922  38.455  1.00  0.00     0.059 A 
ATOM     88  C   UNL A   1      38.730  34.288  39.376  1.00  0.00     0.059 A 
ATOM     89  F   UNL A   1      38.414  32.242  38.281  1.00  0.00    -0.206 F 
ATOM     90  C   UNL A   1      39.359  35.529  39.439  1.00  0.00     0.060 A 
BRANCH  90  91
ATOM     91  S   UNL A   1      38.976  36.680  40.777  1.00  0.00     0.124 S 
ATOM     92  O   UNL A   1      38.094  35.875  41.615  1.00  0.00    -0.237 OA
ATOM     93  O   UNL A   1      40.296  36.962  41.333  1.00  0.00    -0.237 OA
ATOM     94  O   UNL A   1      38.339  37.801  40.091  1.00  0.00    -0.744 OA
ENDBRANCH  90  91
ENDBRANCH  58  83
ENDBRANCH  32  33
ENDBRANCH  25  27
ENDBRANCH  24  25
ENDBRANCH  23  24
ENDBRANCH  22  23
ENDBRANCH  21  22
ENDBRANCH  20  21
ENDBRANCH   1  20
TORSDOF 25
ENDMDL
