MODEL 1
REMARK VINA RESULT:     -11.5      0.000      0.000
REMARK SMILES CC(C)[C@H](NC(=O)[C@H](Cc1ccccc1)n1c(=O)[nH]c2ccccc2c1=O)C(=O)OCCOCCOCCOC(=O)c1ccc(-c2c3nc(c(-c4c(F)cc(S(=O)(=O)[O-])cc4F)c4ccc([nH]4)c(-c4c(F)cc(S(=O)(=O)[O-])cc4F)c4nc(c(-c5c(F)cc(S(=O)(=O)[O-])cc5F)c5ccc2[nH]5)C=C4)C=C3)cc1
REMARK SMILES IDX 34 1 33 2 32 3 31 4 30 5 28 6 29 7 4 8 2 9 1 10 3 11 5 12
REMARK SMILES IDX 6 13 7 15 8 16 16 17 17 18 26 19 18 20 19 21 25 22 27 23
REMARK SMILES IDX 20 24 24 26 21 27 23 28 22 29 9 30 10 31 11 32 15 33 12 34
REMARK SMILES IDX 14 35 13 36 35 37 36 38 37 39 38 40 39 41 40 42 41 43 42 44
REMARK SMILES IDX 43 45 107 46 44 47 106 48 45 49 46 50 47 51 100 52 48 53
REMARK SMILES IDX 105 54 99 55 101 56 49 57 104 58 98 59 97 60 50 62 84 63
REMARK SMILES IDX 63 64 83 65 64 66 67 67 82 68 102 69 65 70 66 71 81 73
REMARK SMILES IDX 103 74 68 75 51 76 52 77 61 78 53 79 54 80 60 81 62 82 55 83
REMARK SMILES IDX 56 84 57 85 58 86 59 87 85 88 86 89 95 90 87 91 88 92 94 93
REMARK SMILES IDX 96 94 89 95 90 96 91 97 92 98 93 99 69 100 70 101 79 102
REMARK SMILES IDX 71 103 72 104 78 105 80 106 73 107 74 108 75 109 76 110
REMARK SMILES IDX 77 111
REMARK H PARENT 5 14 19 25 101 61 67 72
REMARK Flexibility Score: inf
ROOT
ATOM      1  C   UNL A   1      32.541  27.791  26.445  1.00  0.00     0.188 C 
ENDROOT
BRANCH   1   2
ATOM      2  O   UNL A   1      31.403  28.148  25.694  1.00  0.00    -0.376 OA
BRANCH   2   3
ATOM      3  C   UNL A   1      30.621  27.020  25.430  1.00  0.00     0.202 C 
BRANCH   3   4
ATOM      4  C   UNL A   1      31.453  25.796  25.798  1.00  0.00     0.261 C 
BRANCH   4   5
ATOM      5  O   UNL A   1      30.994  24.549  25.167  1.00  0.00    -0.462 OA
BRANCH   5   6
ATOM      6  C   UNL A   1      31.337  24.396  23.850  1.00  0.00     0.328 C 
ATOM      7  O   UNL A   1      30.618  23.773  23.062  1.00  0.00    -0.250 OA
BRANCH   6   8
ATOM      8  C   UNL A   1      32.722  25.020  23.327  1.00  0.00     0.194 C 
BRANCH   8   9
ATOM      9  C   UNL A   1      32.288  25.998  22.167  1.00  0.00     0.017 C 
ATOM     10  C   UNL A   1      32.809  27.414  22.450  1.00  0.00     0.010 C 
ATOM     11  C   UNL A   1      32.642  25.568  20.746  1.00  0.00     0.010 C 
ENDBRANCH   8   9
BRANCH   8  12
ATOM     12  N   UNL A   1      34.008  24.292  23.020  1.00  0.00    -0.341 N 
ATOM     13  C   UNL A   1      34.896  23.453  23.662  1.00  0.00     0.244 C 
ATOM     14  H   UNL A   1      34.296  24.464  22.095  1.00  0.00     0.164 HD
ATOM     15  O   UNL A   1      35.911  23.221  22.975  1.00  0.00    -0.273 OA
BRANCH  13  16
ATOM     16  C   UNL A   1      34.801  22.698  25.102  1.00  0.00     0.189 C 
BRANCH  16  17
ATOM     17  N   UNL A   1      34.410  21.252  25.087  1.00  0.00    -0.247 N 
ATOM     18  C   UNL A   1      33.259  21.054  25.730  1.00  0.00     0.329 A 
ATOM     19  C   UNL A   1      35.214  20.125  24.833  1.00  0.00     0.264 A 
ATOM     20  O   UNL A   1      32.773  21.960  26.383  1.00  0.00    -0.248 OA
ATOM     21  N   UNL A   1      32.666  19.868  25.771  1.00  0.00    -0.307 N 
ATOM     22  C   UNL A   1      34.498  18.775  24.771  1.00  0.00     0.064 A 
ATOM     23  O   UNL A   1      36.431  20.177  24.692  1.00  0.00    -0.268 OA
ATOM     24  C   UNL A   1      33.170  18.754  25.170  1.00  0.00     0.055 A 
ATOM     25  H   UNL A   1      31.816  19.789  26.261  1.00  0.00     0.171 HD
ATOM     26  C   UNL A   1      35.042  17.546  24.389  1.00  0.00     0.016 A 
ATOM     27  C   UNL A   1      32.330  17.647  25.069  1.00  0.00     0.027 A 
ATOM     28  C   UNL A   1      34.217  16.396  24.310  1.00  0.00     0.001 A 
ATOM     29  C   UNL A   1      32.853  16.459  24.604  1.00  0.00     0.002 A 
ENDBRANCH  16  17
BRANCH  16  30
ATOM     30  C   UNL A   1      36.126  23.273  26.093  1.00  0.00     0.071 C 
BRANCH  30  31
ATOM     31  C   UNL A   1      37.727  23.269  26.038  1.00  0.00    -0.045 A 
ATOM     32  C   UNL A   1      38.668  21.738  25.796  1.00  0.00     0.004 A 
ATOM     33  C   UNL A   1      38.640  24.691  26.733  1.00  0.00     0.004 A 
ATOM     34  C   UNL A   1      40.392  21.559  26.295  1.00  0.00     0.000 A 
ATOM     35  C   UNL A   1      40.393  24.507  27.256  1.00  0.00     0.000 A 
ATOM     36  C   UNL A   1      41.246  22.944  27.021  1.00  0.00     0.000 A 
ENDBRANCH  30  31
ENDBRANCH  16  30
ENDBRANCH  13  16
ENDBRANCH   8  12
ENDBRANCH   6   8
ENDBRANCH   5   6
ENDBRANCH   4   5
ENDBRANCH   3   4
ENDBRANCH   2   3
ENDBRANCH   1   2
BRANCH   1  37
ATOM     37  C   UNL A   1      33.317  28.856  27.338  1.00  0.00     0.188 C 
BRANCH  37  38
ATOM     38  O   UNL A   1      34.710  28.633  27.151  1.00  0.00    -0.376 OA
BRANCH  38  39
ATOM     39  C   UNL A   1      35.718  29.533  27.638  1.00  0.00     0.202 C 
BRANCH  39  40
ATOM     40  C   UNL A   1      36.908  29.350  28.833  1.00  0.00     0.261 C 
BRANCH  40  41
ATOM     41  O   UNL A   1      36.894  29.389  30.836  1.00  0.00    -0.460 OA
BRANCH  41  42
ATOM     42  C   UNL A   1      37.358  29.366  32.184  1.00  0.00     0.338 C 
ATOM     43  O   UNL A   1      37.289  28.413  32.962  1.00  0.00    -0.246 OA
BRANCH  42  44
ATOM     44  C   UNL A   1      38.179  30.496  32.687  1.00  0.00     0.060 A 
ATOM     45  C   UNL A   1      38.365  31.532  31.771  1.00  0.00     0.016 A 
ATOM     46  C   UNL A   1      39.274  30.080  33.444  1.00  0.00     0.016 A 
ATOM     47  C   UNL A   1      39.641  31.947  31.396  1.00  0.00     0.010 A 
ATOM     48  C   UNL A   1      40.556  30.524  33.108  1.00  0.00     0.010 A 
ATOM     49  C   UNL A   1      40.753  31.414  32.039  1.00  0.00    -0.014 A 
BRANCH  49  50
ATOM     50  C   UNL A   1      42.131  31.786  31.643  1.00  0.00     0.031 A 
ATOM     51  C   UNL A   1      42.625  33.193  31.825  1.00  0.00     0.074 A 
ATOM     52  C   UNL A   1      42.888  30.865  31.024  1.00  0.00     0.049 A 
ATOM     53  N   UNL A   1      43.622  33.799  31.234  1.00  0.00    -0.248 NA
ATOM     54  C   UNL A   1      41.905  34.027  32.801  1.00  0.00     0.031 C 
ATOM     55  C   UNL A   1      42.550  29.447  30.901  1.00  0.00     0.029 A 
ATOM     56  N   UNL A   1      44.067  30.989  30.337  1.00  0.00    -0.354 N 
ATOM     57  C   UNL A   1      43.626  35.101  31.729  1.00  0.00     0.074 A 
ATOM     58  C   UNL A   1      42.537  35.189  32.680  1.00  0.00     0.031 C 
ATOM     59  C   UNL A   1      43.470  28.840  30.138  1.00  0.00     0.029 A 
ATOM     60  C   UNL A   1      44.409  29.844  29.656  1.00  0.00     0.049 A 
ATOM     61  H   UNL A   1      44.611  31.810  30.331  1.00  0.00     0.167 HD
ATOM     62  C   UNL A   1      44.457  36.120  31.390  1.00  0.00     0.037 A 
ATOM     63  C   UNL A   1      45.325  29.642  28.693  1.00  0.00     0.037 A 
ATOM     64  C   UNL A   1      45.527  35.981  30.426  1.00  0.00     0.049 A 
ATOM     65  C   UNL A   1      46.167  30.807  28.256  1.00  0.00     0.074 A 
ATOM     66  C   UNL A   1      46.422  36.939  29.983  1.00  0.00     0.029 A 
ATOM     67  N   UNL A   1      45.844  34.804  29.756  1.00  0.00    -0.354 N 
ATOM     68  N   UNL A   1      46.130  32.052  28.672  1.00  0.00    -0.248 NA
ATOM     69  C   UNL A   1      47.172  30.543  27.222  1.00  0.00     0.031 C 
ATOM     70  C   UNL A   1      47.234  36.360  29.001  1.00  0.00     0.029 A 
ATOM     71  C   UNL A   1      46.901  35.018  28.886  1.00  0.00     0.049 A 
ATOM     72  H   UNL A   1      45.383  33.944  29.881  1.00  0.00     0.167 HD
ATOM     73  C   UNL A   1      47.138  32.712  27.981  1.00  0.00     0.074 A 
ATOM     74  C   UNL A   1      47.769  31.722  27.128  1.00  0.00     0.031 C 
ATOM     75  C   UNL A   1      47.514  34.014  28.049  1.00  0.00     0.037 A 
BRANCH  62  76
ATOM     76  C   UNL A   1      44.210  37.478  32.002  1.00  0.00     0.058 A 
ATOM     77  C   UNL A   1      44.572  37.786  33.323  1.00  0.00     0.135 A 
ATOM     78  C   UNL A   1      43.633  38.506  31.235  1.00  0.00     0.135 A 
ATOM     79  F   UNL A   1      45.122  36.848  34.111  1.00  0.00    -0.206 F 
ATOM     80  C   UNL A   1      44.344  39.049  33.869  1.00  0.00     0.059 A 
ATOM     81  C   UNL A   1      43.424  39.785  31.751  1.00  0.00     0.059 A 
ATOM     82  F   UNL A   1      43.269  38.278  29.964  1.00  0.00    -0.206 F 
ATOM     83  C   UNL A   1      43.769  40.042  33.075  1.00  0.00     0.060 A 
BRANCH  83  84
ATOM     84  S   UNL A   1      43.479  41.672  33.799  1.00  0.00     0.124 S 
ATOM     85  O   UNL A   1      44.204  42.539  32.875  1.00  0.00    -0.237 OA
ATOM     86  O   UNL A   1      42.024  41.778  33.757  1.00  0.00    -0.237 OA
ATOM     87  O   UNL A   1      44.056  41.561  35.136  1.00  0.00    -0.744 OA
ENDBRANCH  83  84
ENDBRANCH  62  76
BRANCH  63  88
ATOM     88  C   UNL A   1      45.462  28.300  28.066  1.00  0.00     0.058 A 
ATOM     89  C   UNL A   1      44.724  27.961  26.923  1.00  0.00     0.135 A 
ATOM     90  C   UNL A   1      46.348  27.336  28.577  1.00  0.00     0.135 A 
ATOM     91  F   UNL A   1      43.861  28.843  26.398  1.00  0.00    -0.206 F 
ATOM     92  C   UNL A   1      44.843  26.714  26.320  1.00  0.00     0.059 A 
ATOM     93  C   UNL A   1      46.511  26.095  27.972  1.00  0.00     0.059 A 
ATOM     94  F   UNL A   1      47.095  27.612  29.658  1.00  0.00    -0.206 F 
ATOM     95  C   UNL A   1      45.744  25.788  26.850  1.00  0.00     0.060 A 
BRANCH  95  96
ATOM     96  S   UNL A   1      45.921  24.189  26.029  1.00  0.00     0.124 S 
ATOM     97  O   UNL A   1      47.243  23.771  26.480  1.00  0.00    -0.237 OA
ATOM     98  O   UNL A   1      44.792  23.442  26.574  1.00  0.00    -0.237 OA
ATOM     99  O   UNL A   1      45.814  24.526  24.612  1.00  0.00    -0.744 OA
ENDBRANCH  95  96
ENDBRANCH  63  88
BRANCH  75 100
ATOM    100  C   UNL A   1      48.706  34.420  27.221  1.00  0.00     0.058 A 
ATOM    101  C   UNL A   1      50.010  34.426  27.741  1.00  0.00     0.135 A 
ATOM    102  C   UNL A   1      48.534  34.802  25.880  1.00  0.00     0.135 A 
ATOM    103  F   UNL A   1      50.231  34.079  29.020  1.00  0.00    -0.206 F 
ATOM    104  C   UNL A   1      51.095  34.838  26.974  1.00  0.00     0.059 A 
ATOM    105  C   UNL A   1      49.609  35.179  25.084  1.00  0.00     0.059 A 
ATOM    106  F   UNL A   1      47.310  34.806  25.329  1.00  0.00    -0.206 F 
ATOM    107  C   UNL A   1      50.884  35.213  25.646  1.00  0.00     0.060 A 
BRANCH 107 108
ATOM    108  S   UNL A   1      52.301  35.737  24.660  1.00  0.00     0.124 S 
ATOM    109  O   UNL A   1      53.407  35.479  25.576  1.00  0.00    -0.237 OA
ATOM    110  O   UNL A   1      52.217  34.853  23.502  1.00  0.00    -0.237 OA
ATOM    111  O   UNL A   1      52.026  37.145  24.390  1.00  0.00    -0.744 OA
ENDBRANCH 107 108
ENDBRANCH  75 100
ENDBRANCH  49  50
ENDBRANCH  42  44
ENDBRANCH  41  42
ENDBRANCH  40  41
ENDBRANCH  39  40
ENDBRANCH  38  39
ENDBRANCH  37  38
ENDBRANCH   1  37
TORSDOF 26
ENDMDL
MODEL 2
REMARK VINA RESULT:     -10.8      4.521      9.234
REMARK SMILES CC(C)[C@H](NC(=O)[C@H](Cc1ccccc1)n1c(=O)[nH]c2ccccc2c1=O)C(=O)OCCOCCOCCOC(=O)c1ccc(-c2c3nc(c(-c4c(F)cc(S(=O)(=O)[O-])cc4F)c4ccc([nH]4)c(-c4c(F)cc(S(=O)(=O)[O-])cc4F)c4nc(c(-c5c(F)cc(S(=O)(=O)[O-])cc5F)c5ccc2[nH]5)C=C4)C=C3)cc1
REMARK SMILES IDX 34 1 33 2 32 3 31 4 30 5 28 6 29 7 4 8 2 9 1 10 3 11 5 12
REMARK SMILES IDX 6 13 7 15 8 16 16 17 17 18 26 19 18 20 19 21 25 22 27 23
REMARK SMILES IDX 20 24 24 26 21 27 23 28 22 29 9 30 10 31 11 32 15 33 12 34
REMARK SMILES IDX 14 35 13 36 35 37 36 38 37 39 38 40 39 41 40 42 41 43 42 44
REMARK SMILES IDX 43 45 107 46 44 47 106 48 45 49 46 50 47 51 100 52 48 53
REMARK SMILES IDX 105 54 99 55 101 56 49 57 104 58 98 59 97 60 50 62 84 63
REMARK SMILES IDX 63 64 83 65 64 66 67 67 82 68 102 69 65 70 66 71 81 73
REMARK SMILES IDX 103 74 68 75 51 76 52 77 61 78 53 79 54 80 60 81 62 82 55 83
REMARK SMILES IDX 56 84 57 85 58 86 59 87 85 88 86 89 95 90 87 91 88 92 94 93
REMARK SMILES IDX 96 94 89 95 90 96 91 97 92 98 93 99 69 100 70 101 79 102
REMARK SMILES IDX 71 103 72 104 78 105 80 106 73 107 74 108 75 109 76 110
REMARK SMILES IDX 77 111
REMARK H PARENT 5 14 19 25 101 61 67 72
REMARK Flexibility Score: inf
ROOT
ATOM      1  C   UNL A   1      38.762  28.897  28.949  1.00  0.00     0.188 C 
ENDROOT
BRANCH   1   2
ATOM      2  O   UNL A   1      39.799  29.683  28.408  1.00  0.00    -0.376 OA
BRANCH   2   3
ATOM      3  C   UNL A   1      40.422  29.009  27.353  1.00  0.00     0.202 C 
BRANCH   3   4
ATOM      4  C   UNL A   1      41.925  29.207  27.515  1.00  0.00     0.261 C 
BRANCH   4   5
ATOM      5  O   UNL A   1      42.649  29.359  26.244  1.00  0.00    -0.462 OA
BRANCH   5   6
ATOM      6  C   UNL A   1      42.986  28.190  25.615  1.00  0.00     0.328 C 
ATOM      7  O   UNL A   1      42.463  27.856  24.547  1.00  0.00    -0.250 OA
BRANCH   6   8
ATOM      8  C   UNL A   1      44.066  27.219  26.301  1.00  0.00     0.194 C 
BRANCH   8   9
ATOM      9  C   UNL A   1      45.446  27.941  26.050  1.00  0.00     0.017 C 
ATOM     10  C   UNL A   1      46.330  27.838  27.300  1.00  0.00     0.010 C 
ATOM     11  C   UNL A   1      46.221  27.514  24.806  1.00  0.00     0.010 C 
ENDBRANCH   8   9
BRANCH   8  12
ATOM     12  N   UNL A   1      44.168  25.717  26.182  1.00  0.00    -0.341 N 
ATOM     13  C   UNL A   1      43.639  24.597  26.789  1.00  0.00     0.244 C 
ATOM     14  H   UNL A   1      44.791  25.464  25.463  1.00  0.00     0.164 HD
ATOM     15  O   UNL A   1      44.167  23.542  26.383  1.00  0.00    -0.273 OA
BRANCH  13  16
ATOM     16  C   UNL A   1      42.433  24.439  27.873  1.00  0.00     0.189 C 
BRANCH  16  17
ATOM     17  N   UNL A   1      41.106  23.981  27.351  1.00  0.00    -0.247 N 
ATOM     18  C   UNL A   1      40.143  24.855  27.640  1.00  0.00     0.329 A 
ATOM     19  C   UNL A   1      40.712  22.686  26.961  1.00  0.00     0.264 A 
ATOM     20  O   UNL A   1      40.376  25.773  28.406  1.00  0.00    -0.248 OA
ATOM     21  N   UNL A   1      38.899  24.710  27.201  1.00  0.00    -0.307 N 
ATOM     22  C   UNL A   1      39.315  22.551  26.352  1.00  0.00     0.064 A 
ATOM     23  O   UNL A   1      41.410  21.689  27.112  1.00  0.00    -0.268 OA
ATOM     24  C   UNL A   1      38.492  23.665  26.427  1.00  0.00     0.055 A 
ATOM     25  H   UNL A   1      38.235  25.393  27.448  1.00  0.00     0.171 HD
ATOM     26  C   UNL A   1      38.759  21.417  25.758  1.00  0.00     0.016 A 
ATOM     27  C   UNL A   1      37.239  23.766  25.825  1.00  0.00     0.027 A 
ATOM     28  C   UNL A   1      37.472  21.482  25.167  1.00  0.00     0.001 A 
ATOM     29  C   UNL A   1      36.734  22.668  25.160  1.00  0.00     0.002 A 
ENDBRANCH  16  17
BRANCH  16  30
ATOM     30  C   UNL A   1      43.118  23.764  29.337  1.00  0.00     0.071 C 
BRANCH  30  31
ATOM     31  C   UNL A   1      44.232  24.172  30.415  1.00  0.00    -0.045 A 
ATOM     32  C   UNL A   1      44.219  23.501  32.099  1.00  0.00     0.004 A 
ATOM     33  C   UNL A   1      45.209  25.693  30.145  1.00  0.00     0.004 A 
ATOM     34  C   UNL A   1      45.034  24.318  33.484  1.00  0.00     0.000 A 
ATOM     35  C   UNL A   1      46.028  26.536  31.559  1.00  0.00     0.000 A 
ATOM     36  C   UNL A   1      45.935  25.830  33.208  1.00  0.00     0.000 A 
ENDBRANCH  30  31
ENDBRANCH  16  30
ENDBRANCH  13  16
ENDBRANCH   8  12
ENDBRANCH   6   8
ENDBRANCH   5   6
ENDBRANCH   4   5
ENDBRANCH   3   4
ENDBRANCH   2   3
ENDBRANCH   1   2
BRANCH   1  37
ATOM     37  C   UNL A   1      37.258  29.416  28.989  1.00  0.00     0.188 C 
BRANCH  37  38
ATOM     38  O   UNL A   1      36.733  29.297  27.671  1.00  0.00    -0.376 OA
BRANCH  38  39
ATOM     39  C   UNL A   1      35.429  29.775  27.304  1.00  0.00     0.202 C 
BRANCH  39  40
ATOM     40  C   UNL A   1      34.476  31.034  27.925  1.00  0.00     0.261 C 
BRANCH  40  41
ATOM     41  O   UNL A   1      34.442  32.036  29.660  1.00  0.00    -0.460 OA
BRANCH  41  42
ATOM     42  C   UNL A   1      34.778  32.982  30.671  1.00  0.00     0.338 C 
ATOM     43  O   UNL A   1      34.345  32.999  31.825  1.00  0.00    -0.246 OA
BRANCH  42  44
ATOM     44  C   UNL A   1      35.887  33.939  30.430  1.00  0.00     0.060 A 
ATOM     45  C   UNL A   1      36.590  33.726  29.244  1.00  0.00     0.016 A 
ATOM     46  C   UNL A   1      36.613  34.235  31.584  1.00  0.00     0.016 A 
ATOM     47  C   UNL A   1      37.968  33.516  29.245  1.00  0.00     0.010 A 
ATOM     48  C   UNL A   1      38.002  34.073  31.587  1.00  0.00     0.010 A 
ATOM     49  C   UNL A   1      38.681  33.652  30.433  1.00  0.00    -0.014 A 
BRANCH  49  50
ATOM     50  C   UNL A   1      40.138  33.392  30.496  1.00  0.00     0.031 A 
ATOM     51  C   UNL A   1      40.679  32.267  31.332  1.00  0.00     0.074 A 
ATOM     52  C   UNL A   1      40.966  34.247  29.873  1.00  0.00     0.049 A 
ATOM     53  N   UNL A   1      41.886  32.099  31.804  1.00  0.00    -0.248 NA
ATOM     54  C   UNL A   1      39.738  31.190  31.681  1.00  0.00     0.031 C 
ATOM     55  C   UNL A   1      40.545  35.298  28.946  1.00  0.00     0.029 A 
ATOM     56  N   UNL A   1      42.324  34.406  29.965  1.00  0.00    -0.354 N 
ATOM     57  C   UNL A   1      41.847  30.921  32.546  1.00  0.00     0.074 A 
ATOM     58  C   UNL A   1      40.494  30.411  32.447  1.00  0.00     0.031 C 
ATOM     59  C   UNL A   1      41.612  36.027  28.594  1.00  0.00     0.029 A 
ATOM     60  C   UNL A   1      42.770  35.544  29.334  1.00  0.00     0.049 A 
ATOM     61  H   UNL A   1      42.917  33.773  30.432  1.00  0.00     0.167 HD
ATOM     62  C   UNL A   1      42.852  30.347  33.255  1.00  0.00     0.037 A 
ATOM     63  C   UNL A   1      43.956  36.174  29.407  1.00  0.00     0.037 A 
ATOM     64  C   UNL A   1      44.187  30.901  33.327  1.00  0.00     0.049 A 
ATOM     65  C   UNL A   1      45.025  35.580  30.279  1.00  0.00     0.074 A 
ATOM     66  C   UNL A   1      45.284  30.427  34.024  1.00  0.00     0.029 A 
ATOM     67  N   UNL A   1      44.602  32.057  32.674  1.00  0.00    -0.354 N 
ATOM     68  N   UNL A   1      44.971  34.507  31.033  1.00  0.00    -0.248 NA
ATOM     69  C   UNL A   1      46.312  36.280  30.312  1.00  0.00     0.031 C 
ATOM     70  C   UNL A   1      46.340  31.330  33.847  1.00  0.00     0.029 A 
ATOM     71  C   UNL A   1      45.928  32.325  32.974  1.00  0.00     0.049 A 
ATOM     72  H   UNL A   1      44.035  32.606  32.086  1.00  0.00     0.167 HD
ATOM     73  C   UNL A   1      46.234  34.377  31.596  1.00  0.00     0.074 A 
ATOM     74  C   UNL A   1      47.028  35.479  31.088  1.00  0.00     0.031 C 
ATOM     75  C   UNL A   1      46.698  33.430  32.451  1.00  0.00     0.037 A 
BRANCH  62  76
ATOM     76  C   UNL A   1      42.543  29.106  34.057  1.00  0.00     0.058 A 
ATOM     77  C   UNL A   1      42.653  27.813  33.519  1.00  0.00     0.135 A 
ATOM     78  C   UNL A   1      42.167  29.211  35.408  1.00  0.00     0.135 A 
ATOM     79  F   UNL A   1      43.003  27.643  32.234  1.00  0.00    -0.206 F 
ATOM     80  C   UNL A   1      42.372  26.677  34.278  1.00  0.00     0.059 A 
ATOM     81  C   UNL A   1      41.911  28.088  36.195  1.00  0.00     0.059 A 
ATOM     82  F   UNL A   1      42.048  30.417  35.985  1.00  0.00    -0.206 F 
ATOM     83  C   UNL A   1      42.001  26.825  35.615  1.00  0.00     0.060 A 
BRANCH  83  84
ATOM     84  S   UNL A   1      41.639  25.343  36.583  1.00  0.00     0.124 S 
ATOM     85  O   UNL A   1      40.408  25.728  37.266  1.00  0.00    -0.237 OA
ATOM     86  O   UNL A   1      41.498  24.322  35.550  1.00  0.00    -0.237 OA
ATOM     87  O   UNL A   1      42.811  25.200  37.443  1.00  0.00    -0.744 OA
ENDBRANCH  83  84
ENDBRANCH  62  76
BRANCH  63  88
ATOM     88  C   UNL A   1      44.170  37.442  28.659  1.00  0.00     0.058 A 
ATOM     89  C   UNL A   1      44.620  37.427  27.332  1.00  0.00     0.135 A 
ATOM     90  C   UNL A   1      43.908  38.694  29.243  1.00  0.00     0.135 A 
ATOM     91  F   UNL A   1      44.889  36.259  26.729  1.00  0.00    -0.206 F 
ATOM     92  C   UNL A   1      44.821  38.602  26.615  1.00  0.00     0.059 A 
ATOM     93  C   UNL A   1      44.068  39.881  28.536  1.00  0.00     0.059 A 
ATOM     94  F   UNL A   1      43.457  38.769  30.505  1.00  0.00    -0.206 F 
ATOM     95  C   UNL A   1      44.536  39.825  27.225  1.00  0.00     0.060 A 
BRANCH  95  96
ATOM     96  S   UNL A   1      44.758  41.340  26.268  1.00  0.00     0.124 S 
ATOM     97  O   UNL A   1      46.169  41.260  25.912  1.00  0.00    -0.237 OA
ATOM     98  O   UNL A   1      43.810  41.150  25.175  1.00  0.00    -0.237 OA
ATOM     99  O   UNL A   1      44.405  42.392  27.218  1.00  0.00    -0.744 OA
ENDBRANCH  95  96
ENDBRANCH  63  88
BRANCH  75 100
ATOM    100  C   UNL A   1      48.152  33.516  32.833  1.00  0.00     0.058 A 
ATOM    101  C   UNL A   1      49.157  32.851  32.111  1.00  0.00     0.135 A 
ATOM    102  C   UNL A   1      48.545  34.287  33.940  1.00  0.00     0.135 A 
ATOM    103  F   UNL A   1      48.837  32.091  31.050  1.00  0.00    -0.206 F 
ATOM    104  C   UNL A   1      50.491  32.911  32.499  1.00  0.00     0.059 A 
ATOM    105  C   UNL A   1      49.877  34.395  34.321  1.00  0.00     0.059 A 
ATOM    106  F   UNL A   1      47.628  34.952  34.661  1.00  0.00    -0.206 F 
ATOM    107  C   UNL A   1      50.841  33.686  33.606  1.00  0.00     0.060 A 
BRANCH 107 108
ATOM    108  S   UNL A   1      52.576  33.764  34.093  1.00  0.00     0.124 S 
ATOM    109  O   UNL A   1      52.671  35.117  34.631  1.00  0.00    -0.237 OA
ATOM    110  O   UNL A   1      52.673  32.684  35.071  1.00  0.00    -0.237 OA
ATOM    111  O   UNL A   1      53.292  33.535  32.842  1.00  0.00    -0.744 OA
ENDBRANCH 107 108
ENDBRANCH  75 100
ENDBRANCH  49  50
ENDBRANCH  42  44
ENDBRANCH  41  42
ENDBRANCH  40  41
ENDBRANCH  39  40
ENDBRANCH  38  39
ENDBRANCH  37  38
ENDBRANCH   1  37
TORSDOF 26
ENDMDL
MODEL 3
REMARK VINA RESULT:     -10.7      6.055     10.307
REMARK SMILES CC(C)[C@H](NC(=O)[C@H](Cc1ccccc1)n1c(=O)[nH]c2ccccc2c1=O)C(=O)OCCOCCOCCOC(=O)c1ccc(-c2c3nc(c(-c4c(F)cc(S(=O)(=O)[O-])cc4F)c4ccc([nH]4)c(-c4c(F)cc(S(=O)(=O)[O-])cc4F)c4nc(c(-c5c(F)cc(S(=O)(=O)[O-])cc5F)c5ccc2[nH]5)C=C4)C=C3)cc1
REMARK SMILES IDX 34 1 33 2 32 3 31 4 30 5 28 6 29 7 4 8 2 9 1 10 3 11 5 12
REMARK SMILES IDX 6 13 7 15 8 16 16 17 17 18 26 19 18 20 19 21 25 22 27 23
REMARK SMILES IDX 20 24 24 26 21 27 23 28 22 29 9 30 10 31 11 32 15 33 12 34
REMARK SMILES IDX 14 35 13 36 35 37 36 38 37 39 38 40 39 41 40 42 41 43 42 44
REMARK SMILES IDX 43 45 107 46 44 47 106 48 45 49 46 50 47 51 100 52 48 53
REMARK SMILES IDX 105 54 99 55 101 56 49 57 104 58 98 59 97 60 50 62 84 63
REMARK SMILES IDX 63 64 83 65 64 66 67 67 82 68 102 69 65 70 66 71 81 73
REMARK SMILES IDX 103 74 68 75 51 76 52 77 61 78 53 79 54 80 60 81 62 82 55 83
REMARK SMILES IDX 56 84 57 85 58 86 59 87 85 88 86 89 95 90 87 91 88 92 94 93
REMARK SMILES IDX 96 94 89 95 90 96 91 97 92 98 93 99 69 100 70 101 79 102
REMARK SMILES IDX 71 103 72 104 78 105 80 106 73 107 74 108 75 109 76 110
REMARK SMILES IDX 77 111
REMARK H PARENT 5 14 19 25 101 61 67 72
REMARK Flexibility Score: inf
ROOT
ATOM      1  C   UNL A   1      32.734  27.853  26.699  1.00  0.00     0.188 C 
ENDROOT
BRANCH   1   2
ATOM      2  O   UNL A   1      31.656  28.119  25.830  1.00  0.00    -0.376 OA
BRANCH   2   3
ATOM      3  C   UNL A   1      30.790  27.023  25.779  1.00  0.00     0.202 C 
BRANCH   3   4
ATOM      4  C   UNL A   1      31.616  25.779  26.090  1.00  0.00     0.261 C 
BRANCH   4   5
ATOM      5  O   UNL A   1      31.258  24.605  25.279  1.00  0.00    -0.462 OA
BRANCH   5   6
ATOM      6  C   UNL A   1      31.447  24.742  23.930  1.00  0.00     0.328 C 
ATOM      7  O   UNL A   1      30.559  24.460  23.119  1.00  0.00    -0.250 OA
BRANCH   6   8
ATOM      8  C   UNL A   1      32.871  25.256  23.391  1.00  0.00     0.194 C 
BRANCH   8   9
ATOM      9  C   UNL A   1      32.502  26.283  22.252  1.00  0.00     0.017 C 
ATOM     10  C   UNL A   1      32.675  25.628  20.875  1.00  0.00     0.010 C 
ATOM     11  C   UNL A   1      31.136  26.957  22.359  1.00  0.00     0.010 C 
ENDBRANCH   8   9
BRANCH   8  12
ATOM     12  N   UNL A   1      34.087  24.427  23.052  1.00  0.00    -0.341 N 
ATOM     13  C   UNL A   1      34.919  23.517  23.672  1.00  0.00     0.244 C 
ATOM     14  H   UNL A   1      34.366  24.579  22.121  1.00  0.00     0.164 HD
ATOM     15  O   UNL A   1      35.895  23.207  22.961  1.00  0.00    -0.273 OA
BRANCH  13  16
ATOM     16  C   UNL A   1      34.797  22.767  25.113  1.00  0.00     0.189 C 
BRANCH  16  17
ATOM     17  N   UNL A   1      34.411  21.320  25.095  1.00  0.00    -0.247 N 
ATOM     18  C   UNL A   1      33.267  21.115  25.746  1.00  0.00     0.329 A 
ATOM     19  C   UNL A   1      35.219  20.197  24.829  1.00  0.00     0.264 A 
ATOM     20  O   UNL A   1      32.783  22.016  26.407  1.00  0.00    -0.248 OA
ATOM     21  N   UNL A   1      32.679  19.925  25.787  1.00  0.00    -0.307 N 
ATOM     22  C   UNL A   1      34.507  18.844  24.768  1.00  0.00     0.064 A 
ATOM     23  O   UNL A   1      36.434  20.254  24.679  1.00  0.00    -0.268 OA
ATOM     24  C   UNL A   1      33.182  18.816  25.177  1.00  0.00     0.055 A 
ATOM     25  H   UNL A   1      31.833  19.842  26.284  1.00  0.00     0.171 HD
ATOM     26  C   UNL A   1      35.054  17.619  24.377  1.00  0.00     0.016 A 
ATOM     27  C   UNL A   1      32.346  17.706  25.079  1.00  0.00     0.027 A 
ATOM     28  C   UNL A   1      34.233  16.466  24.299  1.00  0.00     0.001 A 
ATOM     29  C   UNL A   1      32.870  16.522  24.605  1.00  0.00     0.002 A 
ENDBRANCH  16  17
BRANCH  16  30
ATOM     30  C   UNL A   1      36.099  23.351  26.128  1.00  0.00     0.071 C 
BRANCH  30  31
ATOM     31  C   UNL A   1      37.700  23.277  26.152  1.00  0.00    -0.045 A 
ATOM     32  C   UNL A   1      38.590  21.756  25.728  1.00  0.00     0.004 A 
ATOM     33  C   UNL A   1      38.629  24.536  27.096  1.00  0.00     0.004 A 
ATOM     34  C   UNL A   1      40.275  21.423  26.278  1.00  0.00     0.000 A 
ATOM     35  C   UNL A   1      40.342  24.192  27.670  1.00  0.00     0.000 A 
ATOM     36  C   UNL A   1      41.142  22.642  27.245  1.00  0.00     0.000 A 
ENDBRANCH  30  31
ENDBRANCH  16  30
ENDBRANCH  13  16
ENDBRANCH   8  12
ENDBRANCH   6   8
ENDBRANCH   5   6
ENDBRANCH   4   5
ENDBRANCH   3   4
ENDBRANCH   2   3
ENDBRANCH   1   2
BRANCH   1  37
ATOM     37  C   UNL A   1      33.535  29.028  27.416  1.00  0.00     0.188 C 
BRANCH  37  38
ATOM     38  O   UNL A   1      34.897  28.914  27.021  1.00  0.00    -0.376 OA
BRANCH  38  39
ATOM     39  C   UNL A   1      35.905  29.859  27.414  1.00  0.00     0.202 C 
BRANCH  39  40
ATOM     40  C   UNL A   1      37.503  29.643  27.944  1.00  0.00     0.261 C 
BRANCH  40  41
ATOM     41  O   UNL A   1      38.968  28.358  27.479  1.00  0.00    -0.460 OA
BRANCH  41  42
ATOM     42  C   UNL A   1      40.275  27.814  27.311  1.00  0.00     0.338 C 
ATOM     43  O   UNL A   1      40.788  27.470  26.245  1.00  0.00    -0.246 OA
BRANCH  42  44
ATOM     44  C   UNL A   1      41.216  27.821  28.459  1.00  0.00     0.060 A 
ATOM     45  C   UNL A   1      40.658  27.416  29.671  1.00  0.00     0.016 A 
ATOM     46  C   UNL A   1      42.066  28.927  28.461  1.00  0.00     0.016 A 
ATOM     47  C   UNL A   1      40.691  28.238  30.795  1.00  0.00     0.010 A 
ATOM     48  C   UNL A   1      42.145  29.736  29.598  1.00  0.00     0.010 A 
ATOM     49  C   UNL A   1      41.408  29.430  30.753  1.00  0.00    -0.014 A 
BRANCH  49  50
ATOM     50  C   UNL A   1      41.434  30.361  31.905  1.00  0.00     0.031 A 
ATOM     51  C   UNL A   1      42.481  30.227  32.973  1.00  0.00     0.074 A 
ATOM     52  C   UNL A   1      40.440  31.257  32.023  1.00  0.00     0.049 A 
ATOM     53  N   UNL A   1      42.468  30.677  34.201  1.00  0.00    -0.248 NA
ATOM     54  C   UNL A   1      43.704  29.491  32.614  1.00  0.00     0.031 C 
ATOM     55  C   UNL A   1      39.444  31.547  30.991  1.00  0.00     0.029 A 
ATOM     56  N   UNL A   1      40.069  32.050  33.078  1.00  0.00    -0.354 N 
ATOM     57  C   UNL A   1      43.657  30.244  34.781  1.00  0.00     0.074 A 
ATOM     58  C   UNL A   1      44.373  29.505  33.761  1.00  0.00     0.031 C 
ATOM     59  C   UNL A   1      38.544  32.411  31.478  1.00  0.00     0.029 A 
ATOM     60  C   UNL A   1      38.857  32.668  32.878  1.00  0.00     0.049 A 
ATOM     61  H   UNL A   1      40.612  32.164  33.892  1.00  0.00     0.167 HD
ATOM     62  C   UNL A   1      44.084  30.437  36.055  1.00  0.00     0.037 A 
ATOM     63  C   UNL A   1      38.048  33.303  33.744  1.00  0.00     0.037 A 
ATOM     64  C   UNL A   1      43.326  31.179  37.039  1.00  0.00     0.049 A 
ATOM     65  C   UNL A   1      38.488  33.418  35.175  1.00  0.00     0.074 A 
ATOM     66  C   UNL A   1      43.638  31.427  38.364  1.00  0.00     0.029 A 
ATOM     67  N   UNL A   1      42.100  31.791  36.800  1.00  0.00    -0.354 N 
ATOM     68  N   UNL A   1      39.578  32.953  35.742  1.00  0.00    -0.248 NA
ATOM     69  C   UNL A   1      37.593  34.140  36.084  1.00  0.00     0.031 C 
ATOM     70  C   UNL A   1      42.574  32.131  38.941  1.00  0.00     0.029 A 
ATOM     71  C   UNL A   1      41.632  32.393  37.957  1.00  0.00     0.049 A 
ATOM     72  H   UNL A   1      41.633  31.796  35.934  1.00  0.00     0.167 HD
ATOM     73  C   UNL A   1      39.520  33.366  37.067  1.00  0.00     0.074 A 
ATOM     74  C   UNL A   1      38.292  34.123  37.210  1.00  0.00     0.031 C 
ATOM     75  C   UNL A   1      40.405  33.146  38.073  1.00  0.00     0.037 A 
BRANCH  62  76
ATOM     76  C   UNL A   1      45.380  29.791  36.481  1.00  0.00     0.058 A 
ATOM     77  C   UNL A   1      46.610  30.467  36.430  1.00  0.00     0.135 A 
ATOM     78  C   UNL A   1      45.386  28.480  36.989  1.00  0.00     0.135 A 
ATOM     79  F   UNL A   1      46.676  31.719  35.952  1.00  0.00    -0.206 F 
ATOM     80  C   UNL A   1      47.798  29.857  36.836  1.00  0.00     0.059 A 
ATOM     81  C   UNL A   1      46.556  27.861  37.429  1.00  0.00     0.059 A 
ATOM     82  F   UNL A   1      44.243  27.781  37.068  1.00  0.00    -0.206 F 
ATOM     83  C   UNL A   1      47.760  28.554  37.334  1.00  0.00     0.060 A 
BRANCH  83  84
ATOM     84  S   UNL A   1      49.307  27.779  37.854  1.00  0.00     0.124 S 
ATOM     85  O   UNL A   1      49.591  28.490  39.097  1.00  0.00    -0.237 OA
ATOM     86  O   UNL A   1      48.922  26.379  37.999  1.00  0.00    -0.237 OA
ATOM     87  O   UNL A   1      50.221  28.062  36.750  1.00  0.00    -0.744 OA
ENDBRANCH  83  84
ENDBRANCH  62  76
BRANCH  63  88
ATOM     88  C   UNL A   1      36.741  33.843  33.282  1.00  0.00     0.058 A 
ATOM     89  C   UNL A   1      36.678  35.016  32.516  1.00  0.00     0.135 A 
ATOM     90  C   UNL A   1      35.531  33.189  33.570  1.00  0.00     0.135 A 
ATOM     91  F   UNL A   1      37.804  35.681  32.216  1.00  0.00    -0.206 F 
ATOM     92  C   UNL A   1      35.466  35.532  32.070  1.00  0.00     0.059 A 
ATOM     93  C   UNL A   1      34.310  33.666  33.107  1.00  0.00     0.059 A 
ATOM     94  F   UNL A   1      35.532  32.051  34.283  1.00  0.00    -0.206 F 
ATOM     95  C   UNL A   1      34.287  34.846  32.366  1.00  0.00     0.060 A 
BRANCH  95  96
ATOM     96  S   UNL A   1      32.725  35.504  31.741  1.00  0.00     0.124 S 
ATOM     97  O   UNL A   1      32.922  36.938  31.908  1.00  0.00    -0.237 OA
ATOM     98  O   UNL A   1      32.717  35.013  30.367  1.00  0.00    -0.237 OA
ATOM     99  O   UNL A   1      31.730  34.896  32.621  1.00  0.00    -0.744 OA
ENDBRANCH  95  96
ENDBRANCH  63  88
BRANCH  75 100
ATOM    100  C   UNL A   1      40.099  33.792  39.399  1.00  0.00     0.058 A 
ATOM    101  C   UNL A   1      40.754  34.955  39.833  1.00  0.00     0.135 A 
ATOM    102  C   UNL A   1      39.123  33.236  40.244  1.00  0.00     0.135 A 
ATOM    103  F   UNL A   1      41.702  35.523  39.070  1.00  0.00    -0.206 F 
ATOM    104  C   UNL A   1      40.485  35.518  41.076  1.00  0.00     0.059 A 
ATOM    105  C   UNL A   1      38.810  33.805  41.472  1.00  0.00     0.059 A 
ATOM    106  F   UNL A   1      38.459  32.129  39.874  1.00  0.00    -0.206 F 
ATOM    107  C   UNL A   1      39.511  34.935  41.889  1.00  0.00     0.060 A 
BRANCH 107 108
ATOM    108  S   UNL A   1      39.166  35.682  43.495  1.00  0.00     0.124 S 
ATOM    109  O   UNL A   1      39.356  37.099  43.207  1.00  0.00    -0.237 OA
ATOM    110  O   UNL A   1      37.789  35.264  43.741  1.00  0.00    -0.237 OA
ATOM    111  O   UNL A   1      40.165  35.080  44.372  1.00  0.00    -0.744 OA
ENDBRANCH 107 108
ENDBRANCH  75 100
ENDBRANCH  49  50
ENDBRANCH  42  44
ENDBRANCH  41  42
ENDBRANCH  40  41
ENDBRANCH  39  40
ENDBRANCH  38  39
ENDBRANCH  37  38
ENDBRANCH   1  37
TORSDOF 26
ENDMDL
