MODEL 1
REMARK VINA RESULT:      -9.8      0.000      0.000
REMARK SMILES CCCCCCNC(=O)Oc1cccc(-c2ccc([C@@H](C)C(=O)OCCOCCOCCOC(=O)c3ccc(-c4c5nc(c(-c6c(F)cc(S(=O)(=O)[O-])cc6F)c6ccc([nH]6)c(-c6c(F)cc(S(=O)(=O)[O-])cc6F)c6nc(c(-c7c(F)cc(S(=O)(=O)[O-])cc7F)c7ccc4[nH]7)C=C6)C=C5)cc3)cc2C(F)(F)F)c1
REMARK SMILES IDX 25 1 24 2 22 3 23 4 20 5 21 6 19 7 16 8 17 9 103 10 18 11
REMARK SMILES IDX 102 12 15 13 11 14 12 15 108 16 13 17 14 18 10 19 8 20 7 21
REMARK SMILES IDX 9 23 6 24 5 25 4 26 3 27 2 28 1 29 104 30 105 31 106 32
REMARK SMILES IDX 107 33 26 34 27 35 28 36 29 37 30 38 31 39 32 40 33 41 34 42
REMARK SMILES IDX 35 43 36 44 37 45 101 46 38 47 100 48 39 49 40 50 41 51
REMARK SMILES IDX 94 52 42 53 99 54 93 55 95 56 43 57 98 58 92 59 91 60 44 62
REMARK SMILES IDX 78 63 57 64 77 65 58 66 61 67 76 68 96 69 59 70 60 71 75 73
REMARK SMILES IDX 97 74 62 75 45 76 46 77 55 78 47 79 48 80 54 81 56 82 49 83
REMARK SMILES IDX 50 84 51 85 52 86 53 87 79 88 80 89 89 90 81 91 82 92 88 93
REMARK SMILES IDX 90 94 83 95 84 96 85 97 86 98 87 99 63 100 64 101 73 102
REMARK SMILES IDX 65 103 66 104 72 105 74 106 67 107 68 108 69 109 70 110
REMARK SMILES IDX 71 111
REMARK H PARENT 7 22 95 61 61 72
REMARK Flexibility Score: inf
ROOT
ATOM      1  C   UNL A   1      35.221  33.509  29.866  1.00  0.00     0.261 C 
ENDROOT
BRANCH   1   2
ATOM      2  O   UNL A   1      34.480  32.287  29.642  1.00  0.00    -0.463 OA
BRANCH   2   3
ATOM      3  C   UNL A   1      34.394  31.863  28.356  1.00  0.00     0.313 C 
ATOM      4  O   UNL A   1      34.008  32.584  27.438  1.00  0.00    -0.252 OA
BRANCH   3   5
ATOM      5  C   UNL A   1      34.830  30.420  28.079  1.00  0.00     0.126 C 
ATOM      6  C   UNL A   1      36.223  30.455  27.448  1.00  0.00     0.025 C 
BRANCH   5   7
ATOM      7  C   UNL A   1      33.940  29.436  27.317  1.00  0.00    -0.033 A 
ATOM      8  C   UNL A   1      32.309  27.659  25.740  1.00  0.00    -0.006 A 
ATOM      9  C   UNL A   1      32.072  27.890  27.115  1.00  0.00     0.009 A 
ATOM     10  C   UNL A   1      33.390  28.341  25.146  1.00  0.00     0.064 A 
ATOM     11  C   UNL A   1      32.857  28.769  27.886  1.00  0.00     0.005 A 
ATOM     12  C   UNL A   1      34.186  29.207  25.945  1.00  0.00     0.018 A 
BRANCH   8  13
ATOM     13  C   UNL A   1      31.360  26.807  24.985  1.00  0.00    -0.014 A 
ATOM     14  C   UNL A   1      30.642  24.693  24.022  1.00  0.00     0.133 A 
ATOM     15  C   UNL A   1      29.589  25.318  23.355  1.00  0.00     0.047 A 
ATOM     16  C   UNL A   1      31.514  25.413  24.850  1.00  0.00     0.056 A 
ATOM     17  C   UNL A   1      29.398  26.684  23.514  1.00  0.00     0.004 A 
ATOM     18  C   UNL A   1      30.280  27.419  24.311  1.00  0.00     0.009 A 
BRANCH  14  19
ATOM     19  O   UNL A   1      30.878  23.350  23.656  1.00  0.00    -0.410 OA
BRANCH  19  20
ATOM     20  C   UNL A   1      32.091  22.959  23.117  1.00  0.00     0.412 C 
ATOM     21  N   UNL A   1      32.622  21.857  23.729  1.00  0.00    -0.321 N 
ATOM     22  H   UNL A   1      33.462  21.509  23.352  1.00  0.00     0.167 HD
ATOM     23  O   UNL A   1      32.685  23.534  22.206  1.00  0.00    -0.224 OA
BRANCH  21  24
ATOM     24  C   UNL A   1      32.082  21.146  24.876  1.00  0.00     0.119 C 
BRANCH  24  25
ATOM     25  C   UNL A   1      33.041  20.089  25.424  1.00  0.00     0.021 C 
BRANCH  25  26
ATOM     26  C   UNL A   1      33.837  19.317  24.365  1.00  0.00     0.002 C 
BRANCH  26  27
ATOM     27  C   UNL A   1      34.697  18.161  24.890  1.00  0.00    -0.000 C 
BRANCH  27  28
ATOM     28  C   UNL A   1      34.593  16.851  24.106  1.00  0.00    -0.003 C 
ATOM     29  C   UNL A   1      33.740  16.962  22.851  1.00  0.00     0.004 C 
ENDBRANCH  27  28
ENDBRANCH  26  27
ENDBRANCH  25  26
ENDBRANCH  24  25
ENDBRANCH  21  24
ENDBRANCH  19  20
ENDBRANCH  14  19
ENDBRANCH   8  13
BRANCH  10  30
ATOM     30  C   UNL A   1      33.778  28.209  23.684  1.00  0.00     0.417 C 
ATOM     31  F   UNL A   1      34.940  28.876  23.407  1.00  0.00    -0.166 F 
ATOM     32  F   UNL A   1      34.017  26.914  23.339  1.00  0.00    -0.166 F 
ATOM     33  F   UNL A   1      32.883  28.686  22.780  1.00  0.00    -0.166 F 
ENDBRANCH  10  30
ENDBRANCH   5   7
ENDBRANCH   3   5
ENDBRANCH   2   3
ENDBRANCH   1   2
BRANCH   1  34
ATOM     34  C   UNL A   1      34.637  34.441  30.939  1.00  0.00     0.202 C 
BRANCH  34  35
ATOM     35  O   UNL A   1      33.585  33.942  31.754  1.00  0.00    -0.376 OA
BRANCH  35  36
ATOM     36  C   UNL A   1      33.838  33.665  33.126  1.00  0.00     0.188 C 
BRANCH  36  37
ATOM     37  C   UNL A   1      35.280  33.739  33.646  1.00  0.00     0.188 C 
BRANCH  37  38
ATOM     38  O   UNL A   1      36.012  32.541  33.493  1.00  0.00    -0.376 OA
BRANCH  38  39
ATOM     39  C   UNL A   1      37.295  32.653  32.911  1.00  0.00     0.202 C 
BRANCH  39  40
ATOM     40  C   UNL A   1      38.285  31.567  33.351  1.00  0.00     0.261 C 
BRANCH  40  41
ATOM     41  O   UNL A   1      37.777  30.222  33.376  1.00  0.00    -0.460 OA
BRANCH  41  42
ATOM     42  C   UNL A   1      37.323  29.702  32.214  1.00  0.00     0.338 C 
ATOM     43  O   UNL A   1      36.165  29.696  31.815  1.00  0.00    -0.246 OA
BRANCH  42  44
ATOM     44  C   UNL A   1      38.503  29.357  31.394  1.00  0.00     0.060 A 
ATOM     45  C   UNL A   1      39.607  28.734  31.995  1.00  0.00     0.016 A 
ATOM     46  C   UNL A   1      38.501  29.621  30.025  1.00  0.00     0.016 A 
ATOM     47  C   UNL A   1      40.726  28.394  31.229  1.00  0.00     0.010 A 
ATOM     48  C   UNL A   1      39.626  29.302  29.266  1.00  0.00     0.010 A 
ATOM     49  C   UNL A   1      40.753  28.711  29.866  1.00  0.00    -0.014 A 
BRANCH  49  50
ATOM     50  C   UNL A   1      42.009  28.642  29.080  1.00  0.00     0.031 A 
ATOM     51  C   UNL A   1      42.404  27.304  28.521  1.00  0.00     0.074 A 
ATOM     52  C   UNL A   1      42.814  29.709  28.926  1.00  0.00     0.049 A 
ATOM     53  N   UNL A   1      43.552  26.909  28.042  1.00  0.00    -0.248 NA
ATOM     54  C   UNL A   1      41.359  26.264  28.524  1.00  0.00     0.031 C 
ATOM     55  C   UNL A   1      42.513  31.071  29.365  1.00  0.00     0.029 A 
ATOM     56  N   UNL A   1      44.076  29.799  28.390  1.00  0.00    -0.354 N 
ATOM     57  C   UNL A   1      43.375  25.573  27.700  1.00  0.00     0.074 A 
ATOM     58  C   UNL A   1      42.017  25.219  28.048  1.00  0.00     0.031 C 
ATOM     59  C   UNL A   1      43.581  31.852  29.119  1.00  0.00     0.029 A 
ATOM     60  C   UNL A   1      44.657  31.035  28.559  1.00  0.00     0.049 A 
ATOM     61  H   UNL A   1      44.522  29.051  27.929  1.00  0.00     0.167 HD
ATOM     62  C   UNL A   1      44.267  24.721  27.145  1.00  0.00     0.037 A 
ATOM     63  C   UNL A   1      45.925  31.439  28.338  1.00  0.00     0.037 A 
ATOM     64  C   UNL A   1      45.618  25.083  26.813  1.00  0.00     0.049 A 
ATOM     65  C   UNL A   1      46.935  30.446  27.806  1.00  0.00     0.074 A 
ATOM     66  C   UNL A   1      46.613  24.289  26.273  1.00  0.00     0.029 A 
ATOM     67  N   UNL A   1      46.161  26.348  26.984  1.00  0.00    -0.354 N 
ATOM     68  N   UNL A   1      46.769  29.178  27.508  1.00  0.00    -0.248 NA
ATOM     69  C   UNL A   1      48.306  30.933  27.589  1.00  0.00     0.031 C 
ATOM     70  C   UNL A   1      47.771  25.063  26.155  1.00  0.00     0.029 A 
ATOM     71  C   UNL A   1      47.479  26.354  26.564  1.00  0.00     0.049 A 
ATOM     72  H   UNL A   1      45.680  27.125  27.350  1.00  0.00     0.167 HD
ATOM     73  C   UNL A   1      47.997  28.735  27.023  1.00  0.00     0.074 A 
ATOM     74  C   UNL A   1      48.899  29.865  27.073  1.00  0.00     0.031 C 
ATOM     75  C   UNL A   1      48.346  27.505  26.574  1.00  0.00     0.037 A 
BRANCH  62  76
ATOM     76  C   UNL A   1      43.817  23.315  26.874  1.00  0.00     0.058 A 
ATOM     77  C   UNL A   1      43.394  22.468  27.910  1.00  0.00     0.135 A 
ATOM     78  C   UNL A   1      43.756  22.824  25.559  1.00  0.00     0.135 A 
ATOM     79  F   UNL A   1      43.454  22.878  29.187  1.00  0.00    -0.206 F 
ATOM     80  C   UNL A   1      42.938  21.179  27.653  1.00  0.00     0.059 A 
ATOM     81  C   UNL A   1      43.277  21.549  25.278  1.00  0.00     0.059 A 
ATOM     82  F   UNL A   1      44.157  23.591  24.532  1.00  0.00    -0.206 F 
ATOM     83  C   UNL A   1      42.877  20.731  26.333  1.00  0.00     0.060 A 
BRANCH  83  84
ATOM     84  S   UNL A   1      42.255  19.067  26.019  1.00  0.00     0.124 S 
ATOM     85  O   UNL A   1      42.758  18.816  24.671  1.00  0.00    -0.237 OA
ATOM     86  O   UNL A   1      42.887  18.294  27.083  1.00  0.00    -0.237 OA
ATOM     87  O   UNL A   1      40.808  19.217  26.130  1.00  0.00    -0.744 OA
ENDBRANCH  83  84
ENDBRANCH  62  76
BRANCH  63  88
ATOM     88  C   UNL A   1      46.344  32.832  28.662  1.00  0.00     0.058 A 
ATOM     89  C   UNL A   1      46.761  33.184  29.955  1.00  0.00     0.135 A 
ATOM     90  C   UNL A   1      46.289  33.852  27.698  1.00  0.00     0.135 A 
ATOM     91  F   UNL A   1      46.820  32.250  30.916  1.00  0.00    -0.206 F 
ATOM     92  C   UNL A   1      47.069  34.498  30.293  1.00  0.00     0.059 A 
ATOM     93  C   UNL A   1      46.623  35.169  28.002  1.00  0.00     0.059 A 
ATOM     94  F   UNL A   1      45.907  33.574  26.442  1.00  0.00    -0.206 F 
ATOM     95  C   UNL A   1      46.992  35.486  29.309  1.00  0.00     0.060 A 
BRANCH  95  96
ATOM     96  S   UNL A   1      47.391  37.189  29.757  1.00  0.00     0.124 S 
ATOM     97  O   UNL A   1      48.846  37.140  29.826  1.00  0.00    -0.237 OA
ATOM     98  O   UNL A   1      46.830  37.940  28.638  1.00  0.00    -0.237 OA
ATOM     99  O   UNL A   1      46.704  37.371  31.033  1.00  0.00    -0.744 OA
ENDBRANCH  95  96
ENDBRANCH  63  88
BRANCH  75 100
ATOM    100  C   UNL A   1      49.729  27.316  26.010  1.00  0.00     0.058 A 
ATOM    101  C   UNL A   1      50.822  26.973  26.818  1.00  0.00     0.135 A 
ATOM    102  C   UNL A   1      49.926  27.359  24.619  1.00  0.00     0.135 A 
ATOM    103  F   UNL A   1      50.688  26.925  28.153  1.00  0.00    -0.206 F 
ATOM    104  C   UNL A   1      52.064  26.676  26.266  1.00  0.00     0.059 A 
ATOM    105  C   UNL A   1      51.152  27.039  24.045  1.00  0.00     0.059 A 
ATOM    106  F   UNL A   1      48.909  27.673  23.802  1.00  0.00    -0.206 F 
ATOM    107  C   UNL A   1      52.216  26.697  24.877  1.00  0.00     0.060 A 
BRANCH 107 108
ATOM    108  S   UNL A   1      53.808  26.219  24.172  1.00  0.00     0.124 S 
ATOM    109  O   UNL A   1      53.499  26.175  22.747  1.00  0.00    -0.237 OA
ATOM    110  O   UNL A   1      54.678  27.310  24.600  1.00  0.00    -0.237 OA
ATOM    111  O   UNL A   1      54.082  24.927  24.794  1.00  0.00    -0.744 OA
ENDBRANCH 107 108
ENDBRANCH  75 100
ENDBRANCH  49  50
ENDBRANCH  42  44
ENDBRANCH  41  42
ENDBRANCH  40  41
ENDBRANCH  39  40
ENDBRANCH  38  39
ENDBRANCH  37  38
ENDBRANCH  36  37
ENDBRANCH  35  36
ENDBRANCH  34  35
ENDBRANCH   1  34
TORSDOF 30
ENDMDL
MODEL 2
REMARK VINA RESULT:      -8.9      1.736      7.748
REMARK SMILES CCCCCCNC(=O)Oc1cccc(-c2ccc([C@@H](C)C(=O)OCCOCCOCCOC(=O)c3ccc(-c4c5nc(c(-c6c(F)cc(S(=O)(=O)[O-])cc6F)c6ccc([nH]6)c(-c6c(F)cc(S(=O)(=O)[O-])cc6F)c6nc(c(-c7c(F)cc(S(=O)(=O)[O-])cc7F)c7ccc4[nH]7)C=C6)C=C5)cc3)cc2C(F)(F)F)c1
REMARK SMILES IDX 25 1 24 2 22 3 23 4 20 5 21 6 19 7 16 8 17 9 103 10 18 11
REMARK SMILES IDX 102 12 15 13 11 14 12 15 108 16 13 17 14 18 10 19 8 20 7 21
REMARK SMILES IDX 9 23 6 24 5 25 4 26 3 27 2 28 1 29 104 30 105 31 106 32
REMARK SMILES IDX 107 33 26 34 27 35 28 36 29 37 30 38 31 39 32 40 33 41 34 42
REMARK SMILES IDX 35 43 36 44 37 45 101 46 38 47 100 48 39 49 40 50 41 51
REMARK SMILES IDX 94 52 42 53 99 54 93 55 95 56 43 57 98 58 92 59 91 60 44 62
REMARK SMILES IDX 78 63 57 64 77 65 58 66 61 67 76 68 96 69 59 70 60 71 75 73
REMARK SMILES IDX 97 74 62 75 45 76 46 77 55 78 47 79 48 80 54 81 56 82 49 83
REMARK SMILES IDX 50 84 51 85 52 86 53 87 79 88 80 89 89 90 81 91 82 92 88 93
REMARK SMILES IDX 90 94 83 95 84 96 85 97 86 98 87 99 63 100 64 101 73 102
REMARK SMILES IDX 65 103 66 104 72 105 74 106 67 107 68 108 69 109 70 110
REMARK SMILES IDX 71 111
REMARK H PARENT 7 22 95 61 61 72
REMARK Flexibility Score: inf
ROOT
ATOM      1  C   UNL A   1      35.226  33.468  29.950  1.00  0.00     0.261 C 
ENDROOT
BRANCH   1   2
ATOM      2  O   UNL A   1      34.364  32.401  29.490  1.00  0.00    -0.463 OA
BRANCH   2   3
ATOM      3  C   UNL A   1      34.577  31.957  28.226  1.00  0.00     0.313 C 
ATOM      4  O   UNL A   1      34.480  32.682  27.237  1.00  0.00    -0.252 OA
BRANCH   3   5
ATOM      5  C   UNL A   1      34.979  30.486  28.074  1.00  0.00     0.126 C 
ATOM      6  C   UNL A   1      36.409  30.435  27.533  1.00  0.00     0.025 C 
BRANCH   5   7
ATOM      7  C   UNL A   1      34.104  29.480  27.324  1.00  0.00    -0.033 A 
ATOM      8  C   UNL A   1      32.498  27.661  25.770  1.00  0.00    -0.006 A 
ATOM      9  C   UNL A   1      32.272  27.888  27.148  1.00  0.00     0.009 A 
ATOM     10  C   UNL A   1      33.555  28.368  25.162  1.00  0.00     0.064 A 
ATOM     11  C   UNL A   1      33.045  28.788  27.908  1.00  0.00     0.005 A 
ATOM     12  C   UNL A   1      34.339  29.254  25.950  1.00  0.00     0.018 A 
BRANCH   8  13
ATOM     13  C   UNL A   1      31.560  26.785  25.028  1.00  0.00    -0.014 A 
ATOM     14  C   UNL A   1      30.958  24.709  23.914  1.00  0.00     0.133 A 
ATOM     15  C   UNL A   1      29.775  25.272  23.436  1.00  0.00     0.047 A 
ATOM     16  C   UNL A   1      31.842  25.439  24.721  1.00  0.00     0.056 A 
ATOM     17  C   UNL A   1      29.462  26.584  23.769  1.00  0.00     0.004 A 
ATOM     18  C   UNL A   1      30.351  27.333  24.546  1.00  0.00     0.009 A 
BRANCH  14  19
ATOM     19  O   UNL A   1      31.287  23.447  23.375  1.00  0.00    -0.410 OA
BRANCH  19  20
ATOM     20  C   UNL A   1      32.282  23.314  22.422  1.00  0.00     0.412 C 
ATOM     21  N   UNL A   1      32.523  22.014  22.073  1.00  0.00    -0.321 N 
ATOM     22  H   UNL A   1      33.189  21.867  21.363  1.00  0.00     0.167 HD
ATOM     23  O   UNL A   1      32.935  24.238  21.939  1.00  0.00    -0.224 OA
BRANCH  21  24
ATOM     24  C   UNL A   1      31.902  20.826  22.636  1.00  0.00     0.119 C 
BRANCH  24  25
ATOM     25  C   UNL A   1      32.252  20.615  24.109  1.00  0.00     0.021 C 
BRANCH  25  26
ATOM     26  C   UNL A   1      33.688  20.149  24.379  1.00  0.00     0.002 C 
BRANCH  26  27
ATOM     27  C   UNL A   1      33.870  18.642  24.594  1.00  0.00    -0.000 C 
BRANCH  27  28
ATOM     28  C   UNL A   1      33.527  17.757  23.393  1.00  0.00    -0.003 C 
ATOM     29  C   UNL A   1      34.152  16.371  23.463  1.00  0.00     0.004 C 
ENDBRANCH  27  28
ENDBRANCH  26  27
ENDBRANCH  25  26
ENDBRANCH  24  25
ENDBRANCH  21  24
ENDBRANCH  19  20
ENDBRANCH  14  19
ENDBRANCH   8  13
BRANCH  10  30
ATOM     30  C   UNL A   1      33.927  28.244  23.695  1.00  0.00     0.417 C 
ATOM     31  F   UNL A   1      32.948  28.742  22.881  1.00  0.00    -0.166 F 
ATOM     32  F   UNL A   1      35.043  28.964  23.394  1.00  0.00    -0.166 F 
ATOM     33  F   UNL A   1      34.150  26.984  23.237  1.00  0.00    -0.166 F 
ENDBRANCH  10  30
ENDBRANCH   5   7
ENDBRANCH   3   5
ENDBRANCH   2   3
ENDBRANCH   1   2
BRANCH   1  34
ATOM     34  C   UNL A   1      34.685  34.282  31.135  1.00  0.00     0.202 C 
BRANCH  34  35
ATOM     35  O   UNL A   1      33.691  33.683  31.957  1.00  0.00    -0.376 OA
BRANCH  35  36
ATOM     36  C   UNL A   1      33.829  33.739  33.371  1.00  0.00     0.188 C 
BRANCH  36  37
ATOM     37  C   UNL A   1      35.175  34.168  33.971  1.00  0.00     0.188 C 
BRANCH  37  38
ATOM     38  O   UNL A   1      35.719  33.246  34.890  1.00  0.00    -0.376 OA
BRANCH  38  39
ATOM     39  C   UNL A   1      37.111  33.329  35.124  1.00  0.00     0.202 C 
BRANCH  39  40
ATOM     40  C   UNL A   1      37.911  32.127  34.606  1.00  0.00     0.261 C 
BRANCH  40  41
ATOM     41  O   UNL A   1      37.925  31.945  33.180  1.00  0.00    -0.460 OA
BRANCH  41  42
ATOM     42  C   UNL A   1      38.545  32.887  32.434  1.00  0.00     0.338 C 
ATOM     43  O   UNL A   1      38.211  34.059  32.306  1.00  0.00    -0.246 OA
BRANCH  42  44
ATOM     44  C   UNL A   1      39.836  32.321  31.992  1.00  0.00     0.060 A 
ATOM     45  C   UNL A   1      40.232  32.459  30.653  1.00  0.00     0.016 A 
ATOM     46  C   UNL A   1      40.669  31.684  32.911  1.00  0.00     0.016 A 
ATOM     47  C   UNL A   1      41.455  31.937  30.223  1.00  0.00     0.010 A 
ATOM     48  C   UNL A   1      41.879  31.144  32.477  1.00  0.00     0.010 A 
ATOM     49  C   UNL A   1      42.268  31.244  31.128  1.00  0.00    -0.014 A 
BRANCH  49  50
ATOM     50  C   UNL A   1      43.418  30.428  30.668  1.00  0.00     0.031 A 
ATOM     51  C   UNL A   1      44.760  31.101  30.597  1.00  0.00     0.074 A 
ATOM     52  C   UNL A   1      43.270  29.156  30.257  1.00  0.00     0.049 A 
ATOM     53  N   UNL A   1      45.851  30.718  29.992  1.00  0.00    -0.248 NA
ATOM     54  C   UNL A   1      44.876  32.396  31.292  1.00  0.00     0.031 C 
ATOM     55  C   UNL A   1      42.037  28.374  30.336  1.00  0.00     0.029 A 
ATOM     56  N   UNL A   1      44.166  28.311  29.648  1.00  0.00    -0.354 N 
ATOM     57  C   UNL A   1      46.778  31.728  30.218  1.00  0.00     0.074 A 
ATOM     58  C   UNL A   1      46.116  32.751  30.995  1.00  0.00     0.031 C 
ATOM     59  C   UNL A   1      42.244  27.178  29.755  1.00  0.00     0.029 A 
ATOM     60  C   UNL A   1      43.602  27.132  29.216  1.00  0.00     0.049 A 
ATOM     61  H   UNL A   1      45.120  28.528  29.532  1.00  0.00     0.167 HD
ATOM     62  C   UNL A   1      48.067  31.794  29.813  1.00  0.00     0.037 A 
ATOM     63  C   UNL A   1      44.110  26.159  28.431  1.00  0.00     0.037 A 
ATOM     64  C   UNL A   1      48.712  30.773  29.031  1.00  0.00     0.049 A 
ATOM     65  C   UNL A   1      45.523  26.295  27.907  1.00  0.00     0.074 A 
ATOM     66  C   UNL A   1      50.006  30.753  28.543  1.00  0.00     0.029 A 
ATOM     67  N   UNL A   1      48.111  29.589  28.629  1.00  0.00    -0.354 N 
ATOM     68  N   UNL A   1      46.387  27.264  28.102  1.00  0.00    -0.248 NA
ATOM     69  C   UNL A   1      46.028  25.213  27.049  1.00  0.00     0.031 C 
ATOM     70  C   UNL A   1      50.175  29.574  27.811  1.00  0.00     0.029 A 
ATOM     71  C   UNL A   1      49.007  28.834  27.895  1.00  0.00     0.049 A 
ATOM     72  H   UNL A   1      47.185  29.326  28.836  1.00  0.00     0.167 HD
ATOM     73  C   UNL A   1      47.548  26.882  27.435  1.00  0.00     0.074 A 
ATOM     74  C   UNL A   1      47.277  25.599  26.825  1.00  0.00     0.031 C 
ATOM     75  C   UNL A   1      48.733  27.532  27.339  1.00  0.00     0.037 A 
BRANCH  62  76
ATOM     76  C   UNL A   1      48.861  33.010  30.194  1.00  0.00     0.058 A 
ATOM     77  C   UNL A   1      48.882  34.155  29.383  1.00  0.00     0.135 A 
ATOM     78  C   UNL A   1      49.565  33.052  31.408  1.00  0.00     0.135 A 
ATOM     79  F   UNL A   1      48.245  34.159  28.201  1.00  0.00    -0.206 F 
ATOM     80  C   UNL A   1      49.583  35.296  29.757  1.00  0.00     0.059 A 
ATOM     81  C   UNL A   1      50.249  34.192  31.815  1.00  0.00     0.059 A 
ATOM     82  F   UNL A   1      49.584  31.980  32.217  1.00  0.00    -0.206 F 
ATOM     83  C   UNL A   1      50.259  35.307  30.979  1.00  0.00     0.060 A 
BRANCH  83  84
ATOM     84  S   UNL A   1      51.139  36.807  31.459  1.00  0.00     0.124 S 
ATOM     85  O   UNL A   1      51.393  36.556  32.875  1.00  0.00    -0.237 OA
ATOM     86  O   UNL A   1      52.310  36.772  30.589  1.00  0.00    -0.237 OA
ATOM     87  O   UNL A   1      50.181  37.871  31.174  1.00  0.00    -0.744 OA
ENDBRANCH  83  84
ENDBRANCH  62  76
BRANCH  63  88
ATOM     88  C   UNL A   1      43.276  24.989  28.038  1.00  0.00     0.058 A 
ATOM     89  C   UNL A   1      43.405  23.752  28.688  1.00  0.00     0.135 A 
ATOM     90  C   UNL A   1      42.367  25.069  26.969  1.00  0.00     0.135 A 
ATOM     91  F   UNL A   1      44.268  23.619  29.707  1.00  0.00    -0.206 F 
ATOM     92  C   UNL A   1      42.696  22.629  28.272  1.00  0.00     0.059 A 
ATOM     93  C   UNL A   1      41.623  23.968  26.555  1.00  0.00     0.059 A 
ATOM     94  F   UNL A   1      42.195  26.228  26.315  1.00  0.00    -0.206 F 
ATOM     95  C   UNL A   1      41.810  22.746  27.200  1.00  0.00     0.060 A 
BRANCH  95  96
ATOM     96  S   UNL A   1      40.897  21.282  26.666  1.00  0.00     0.124 S 
ATOM     97  O   UNL A   1      39.707  21.880  26.072  1.00  0.00    -0.237 OA
ATOM     98  O   UNL A   1      41.832  20.661  25.733  1.00  0.00    -0.237 OA
ATOM     99  O   UNL A   1      40.681  20.549  27.910  1.00  0.00    -0.744 OA
ENDBRANCH  95  96
ENDBRANCH  63  88
BRANCH  75 100
ATOM    100  C   UNL A   1      49.869  26.846  26.629  1.00  0.00     0.058 A 
ATOM    101  C   UNL A   1      50.142  27.069  25.273  1.00  0.00     0.135 A 
ATOM    102  C   UNL A   1      50.770  26.052  27.360  1.00  0.00     0.135 A 
ATOM    103  F   UNL A   1      49.310  27.814  24.528  1.00  0.00    -0.206 F 
ATOM    104  C   UNL A   1      51.271  26.529  24.663  1.00  0.00     0.059 A 
ATOM    105  C   UNL A   1      51.918  25.525  26.778  1.00  0.00     0.059 A 
ATOM    106  F   UNL A   1      50.558  25.817  28.665  1.00  0.00    -0.206 F 
ATOM    107  C   UNL A   1      52.161  25.770  25.428  1.00  0.00     0.060 A 
BRANCH 107 108
ATOM    108  S   UNL A   1      53.667  25.154  24.646  1.00  0.00     0.124 S 
ATOM    109  O   UNL A   1      53.488  25.596  23.268  1.00  0.00    -0.237 OA
ATOM    110  O   UNL A   1      54.712  25.840  25.401  1.00  0.00    -0.237 OA
ATOM    111  O   UNL A   1      53.596  23.711  24.858  1.00  0.00    -0.744 OA
ENDBRANCH 107 108
ENDBRANCH  75 100
ENDBRANCH  49  50
ENDBRANCH  42  44
ENDBRANCH  41  42
ENDBRANCH  40  41
ENDBRANCH  39  40
ENDBRANCH  38  39
ENDBRANCH  37  38
ENDBRANCH  36  37
ENDBRANCH  35  36
ENDBRANCH  34  35
ENDBRANCH   1  34
TORSDOF 30
ENDMDL
MODEL 3
REMARK VINA RESULT:      -8.7      2.146      2.912
REMARK SMILES CCCCCCNC(=O)Oc1cccc(-c2ccc([C@@H](C)C(=O)OCCOCCOCCOC(=O)c3ccc(-c4c5nc(c(-c6c(F)cc(S(=O)(=O)[O-])cc6F)c6ccc([nH]6)c(-c6c(F)cc(S(=O)(=O)[O-])cc6F)c6nc(c(-c7c(F)cc(S(=O)(=O)[O-])cc7F)c7ccc4[nH]7)C=C6)C=C5)cc3)cc2C(F)(F)F)c1
REMARK SMILES IDX 25 1 24 2 22 3 23 4 20 5 21 6 19 7 16 8 17 9 103 10 18 11
REMARK SMILES IDX 102 12 15 13 11 14 12 15 108 16 13 17 14 18 10 19 8 20 7 21
REMARK SMILES IDX 9 23 6 24 5 25 4 26 3 27 2 28 1 29 104 30 105 31 106 32
REMARK SMILES IDX 107 33 26 34 27 35 28 36 29 37 30 38 31 39 32 40 33 41 34 42
REMARK SMILES IDX 35 43 36 44 37 45 101 46 38 47 100 48 39 49 40 50 41 51
REMARK SMILES IDX 94 52 42 53 99 54 93 55 95 56 43 57 98 58 92 59 91 60 44 62
REMARK SMILES IDX 78 63 57 64 77 65 58 66 61 67 76 68 96 69 59 70 60 71 75 73
REMARK SMILES IDX 97 74 62 75 45 76 46 77 55 78 47 79 48 80 54 81 56 82 49 83
REMARK SMILES IDX 50 84 51 85 52 86 53 87 79 88 80 89 89 90 81 91 82 92 88 93
REMARK SMILES IDX 90 94 83 95 84 96 85 97 86 98 87 99 63 100 64 101 73 102
REMARK SMILES IDX 65 103 66 104 72 105 74 106 67 107 68 108 69 109 70 110
REMARK SMILES IDX 71 111
REMARK H PARENT 7 22 95 61 61 72
REMARK Flexibility Score: inf
ROOT
ATOM      1  C   UNL A   1      35.198  33.454  29.901  1.00  0.00     0.261 C 
ENDROOT
BRANCH   1   2
ATOM      2  O   UNL A   1      34.343  32.352  29.518  1.00  0.00    -0.463 OA
BRANCH   2   3
ATOM      3  C   UNL A   1      34.461  31.915  28.239  1.00  0.00     0.313 C 
ATOM      4  O   UNL A   1      34.214  32.624  27.265  1.00  0.00    -0.252 OA
BRANCH   3   5
ATOM      5  C   UNL A   1      34.950  30.476  28.047  1.00  0.00     0.126 C 
ATOM      6  C   UNL A   1      36.364  30.525  27.465  1.00  0.00     0.025 C 
BRANCH   5   7
ATOM      7  C   UNL A   1      34.119  29.429  27.303  1.00  0.00    -0.033 A 
ATOM      8  C   UNL A   1      32.587  27.537  25.760  1.00  0.00    -0.006 A 
ATOM      9  C   UNL A   1      32.377  27.738  27.145  1.00  0.00     0.009 A 
ATOM     10  C   UNL A   1      33.590  28.310  25.140  1.00  0.00     0.064 A 
ATOM     11  C   UNL A   1      33.112  28.672  27.899  1.00  0.00     0.005 A 
ATOM     12  C   UNL A   1      34.339  29.231  25.923  1.00  0.00     0.018 A 
BRANCH   8  13
ATOM     13  C   UNL A   1      31.686  26.617  25.027  1.00  0.00    -0.014 A 
ATOM     14  C   UNL A   1      31.133  24.475  24.017  1.00  0.00     0.133 A 
ATOM     15  C   UNL A   1      29.980  25.008  23.442  1.00  0.00     0.047 A 
ATOM     16  C   UNL A   1      31.976  25.254  24.822  1.00  0.00     0.056 A 
ATOM     17  C   UNL A   1      29.657  26.339  23.673  1.00  0.00     0.004 A 
ATOM     18  C   UNL A   1      30.507  27.135  24.447  1.00  0.00     0.009 A 
BRANCH  14  19
ATOM     19  O   UNL A   1      31.485  23.181  23.579  1.00  0.00    -0.410 OA
BRANCH  19  20
ATOM     20  C   UNL A   1      32.599  22.973  22.784  1.00  0.00     0.412 C 
ATOM     21  N   UNL A   1      33.447  22.023  23.284  1.00  0.00    -0.321 N 
ATOM     22  H   UNL A   1      34.232  21.803  22.732  1.00  0.00     0.167 HD
ATOM     23  O   UNL A   1      32.859  23.583  21.748  1.00  0.00    -0.224 OA
BRANCH  21  24
ATOM     24  C   UNL A   1      33.316  21.304  24.540  1.00  0.00     0.119 C 
BRANCH  24  25
ATOM     25  C   UNL A   1      34.528  20.427  24.851  1.00  0.00     0.021 C 
BRANCH  25  26
ATOM     26  C   UNL A   1      35.730  21.163  25.457  1.00  0.00     0.002 C 
BRANCH  26  27
ATOM     27  C   UNL A   1      36.589  21.960  24.468  1.00  0.00    -0.000 C 
BRANCH  27  28
ATOM     28  C   UNL A   1      36.724  23.455  24.765  1.00  0.00    -0.003 C 
ATOM     29  C   UNL A   1      35.477  24.064  25.388  1.00  0.00     0.004 C 
ENDBRANCH  27  28
ENDBRANCH  26  27
ENDBRANCH  25  26
ENDBRANCH  24  25
ENDBRANCH  21  24
ENDBRANCH  19  20
ENDBRANCH  14  19
ENDBRANCH   8  13
BRANCH  10  30
ATOM     30  C   UNL A   1      33.939  28.222  23.665  1.00  0.00     0.417 C 
ATOM     31  F   UNL A   1      34.164  26.930  23.274  1.00  0.00    -0.166 F 
ATOM     32  F   UNL A   1      32.920  28.662  22.877  1.00  0.00    -0.166 F 
ATOM     33  F   UNL A   1      35.048  28.899  23.269  1.00  0.00    -0.166 F 
ENDBRANCH  10  30
ENDBRANCH   5   7
ENDBRANCH   3   5
ENDBRANCH   2   3
ENDBRANCH   1   2
BRANCH   1  34
ATOM     34  C   UNL A   1      34.660  34.333  31.042  1.00  0.00     0.202 C 
BRANCH  34  35
ATOM     35  O   UNL A   1      33.708  33.763  31.931  1.00  0.00    -0.376 OA
BRANCH  35  36
ATOM     36  C   UNL A   1      34.103  33.430  33.256  1.00  0.00     0.188 C 
BRANCH  36  37
ATOM     37  C   UNL A   1      35.599  33.314  33.579  1.00  0.00     0.188 C 
BRANCH  37  38
ATOM     38  O   UNL A   1      36.097  31.993  33.542  1.00  0.00    -0.376 OA
BRANCH  38  39
ATOM     39  C   UNL A   1      37.460  31.839  33.199  1.00  0.00     0.202 C 
BRANCH  39  40
ATOM     40  C   UNL A   1      38.042  30.459  33.529  1.00  0.00     0.261 C 
BRANCH  40  41
ATOM     41  O   UNL A   1      37.342  29.330  32.977  1.00  0.00    -0.460 OA
BRANCH  41  42
ATOM     42  C   UNL A   1      37.232  29.258  31.632  1.00  0.00     0.338 C 
ATOM     43  O   UNL A   1      36.207  29.371  30.972  1.00  0.00    -0.246 OA
BRANCH  42  44
ATOM     44  C   UNL A   1      38.601  29.262  31.076  1.00  0.00     0.060 A 
ATOM     45  C   UNL A   1      39.603  28.496  31.692  1.00  0.00     0.016 A 
ATOM     46  C   UNL A   1      38.885  29.996  29.925  1.00  0.00     0.016 A 
ATOM     47  C   UNL A   1      40.900  28.483  31.172  1.00  0.00     0.010 A 
ATOM     48  C   UNL A   1      40.184  30.000  29.419  1.00  0.00     0.010 A 
ATOM     49  C   UNL A   1      41.203  29.266  30.052  1.00  0.00    -0.014 A 
BRANCH  49  50
ATOM     50  C   UNL A   1      42.606  29.517  29.640  1.00  0.00     0.031 A 
ATOM     51  C   UNL A   1      43.320  28.415  28.908  1.00  0.00     0.074 A 
ATOM     52  C   UNL A   1      43.252  30.651  29.964  1.00  0.00     0.049 A 
ATOM     53  N   UNL A   1      44.595  28.262  28.677  1.00  0.00    -0.248 NA
ATOM     54  C   UNL A   1      42.474  27.327  28.384  1.00  0.00     0.031 C 
ATOM     55  C   UNL A   1      42.653  31.815  30.614  1.00  0.00     0.029 A 
ATOM     56  N   UNL A   1      44.577  30.988  29.824  1.00  0.00    -0.354 N 
ATOM     57  C   UNL A   1      44.709  27.056  27.995  1.00  0.00     0.074 A 
ATOM     58  C   UNL A   1      43.378  26.507  27.871  1.00  0.00     0.031 C 
ATOM     59  C   UNL A   1      43.617  32.722  30.856  1.00  0.00     0.029 A 
ATOM     60  C   UNL A   1      44.906  32.179  30.429  1.00  0.00     0.049 A 
ATOM     61  H   UNL A   1      45.228  30.431  29.337  1.00  0.00     0.167 HD
ATOM     62  C   UNL A   1      45.826  26.462  27.515  1.00  0.00     0.037 A 
ATOM     63  C   UNL A   1      46.115  32.735  30.659  1.00  0.00     0.037 A 
ATOM     64  C   UNL A   1      47.147  27.014  27.654  1.00  0.00     0.049 A 
ATOM     65  C   UNL A   1      47.361  32.009  30.201  1.00  0.00     0.074 A 
ATOM     66  C   UNL A   1      48.350  26.481  27.230  1.00  0.00     0.029 A 
ATOM     67  N   UNL A   1      47.435  28.229  28.259  1.00  0.00    -0.354 N 
ATOM     68  N   UNL A   1      47.465  30.858  29.578  1.00  0.00    -0.248 NA
ATOM     69  C   UNL A   1      48.654  32.652  30.481  1.00  0.00     0.031 C 
ATOM     70  C   UNL A   1      49.372  27.354  27.613  1.00  0.00     0.029 A 
ATOM     71  C   UNL A   1      48.798  28.459  28.222  1.00  0.00     0.049 A 
ATOM     72  H   UNL A   1      46.769  28.836  28.654  1.00  0.00     0.167 HD
ATOM     73  C   UNL A   1      48.826  30.667  29.352  1.00  0.00     0.074 A 
ATOM     74  C   UNL A   1      49.508  31.815  29.907  1.00  0.00     0.031 C 
ATOM     75  C   UNL A   1      49.454  29.636  28.736  1.00  0.00     0.037 A 
BRANCH  62  76
ATOM     76  C   UNL A   1      45.673  25.146  26.809  1.00  0.00     0.058 A 
ATOM     77  C   UNL A   1      45.479  23.952  27.520  1.00  0.00     0.135 A 
ATOM     78  C   UNL A   1      45.664  25.084  25.406  1.00  0.00     0.135 A 
ATOM     79  F   UNL A   1      45.502  23.952  28.862  1.00  0.00    -0.206 F 
ATOM     80  C   UNL A   1      45.295  22.739  26.864  1.00  0.00     0.059 A 
ATOM     81  C   UNL A   1      45.454  23.887  24.730  1.00  0.00     0.059 A 
ATOM     82  F   UNL A   1      45.853  26.197  24.679  1.00  0.00    -0.206 F 
ATOM     83  C   UNL A   1      45.278  22.718  25.468  1.00  0.00     0.060 A 
BRANCH  83  84
ATOM     84  S   UNL A   1      45.008  21.140  24.638  1.00  0.00     0.124 S 
ATOM     85  O   UNL A   1      46.331  20.528  24.736  1.00  0.00    -0.237 OA
ATOM     86  O   UNL A   1      43.967  20.530  25.459  1.00  0.00    -0.237 OA
ATOM     87  O   UNL A   1      44.597  21.527  23.292  1.00  0.00    -0.744 OA
ENDBRANCH  83  84
ENDBRANCH  62  76
BRANCH  63  88
ATOM     88  C   UNL A   1      46.229  34.021  31.403  1.00  0.00     0.058 A 
ATOM     89  C   UNL A   1      46.259  35.251  30.729  1.00  0.00     0.135 A 
ATOM     90  C   UNL A   1      46.361  34.044  32.801  1.00  0.00     0.135 A 
ATOM     91  F   UNL A   1      46.149  35.284  29.392  1.00  0.00    -0.206 F 
ATOM     92  C   UNL A   1      46.454  36.452  31.405  1.00  0.00     0.059 A 
ATOM     93  C   UNL A   1      46.525  35.235  33.504  1.00  0.00     0.059 A 
ATOM     94  F   UNL A   1      46.331  32.899  33.501  1.00  0.00    -0.206 F 
ATOM     95  C   UNL A   1      46.592  36.433  32.794  1.00  0.00     0.060 A 
BRANCH  95  96
ATOM     96  S   UNL A   1      46.847  37.996  33.661  1.00  0.00     0.124 S 
ATOM     97  O   UNL A   1      47.826  38.651  32.802  1.00  0.00    -0.237 OA
ATOM     98  O   UNL A   1      45.506  38.572  33.656  1.00  0.00    -0.237 OA
ATOM     99  O   UNL A   1      47.338  37.577  34.971  1.00  0.00    -0.744 OA
ENDBRANCH  95  96
ENDBRANCH  63  88
BRANCH  75 100
ATOM    100  C   UNL A   1      50.943  29.723  28.537  1.00  0.00     0.058 A 
ATOM    101  C   UNL A   1      51.850  29.175  29.454  1.00  0.00     0.135 A 
ATOM    102  C   UNL A   1      51.457  30.257  27.341  1.00  0.00     0.135 A 
ATOM    103  F   UNL A   1      51.412  28.660  30.614  1.00  0.00    -0.206 F 
ATOM    104  C   UNL A   1      53.217  29.150  29.193  1.00  0.00     0.059 A 
ATOM    105  C   UNL A   1      52.815  30.217  27.049  1.00  0.00     0.059 A 
ATOM    106  F   UNL A   1      50.628  30.785  26.427  1.00  0.00    -0.206 F 
ATOM    107  C   UNL A   1      53.689  29.660  27.981  1.00  0.00     0.060 A 
BRANCH 107 108
ATOM    108  S   UNL A   1      55.453  29.536  27.617  1.00  0.00     0.124 S 
ATOM    109  O   UNL A   1      55.619  28.097  27.444  1.00  0.00    -0.237 OA
ATOM    110  O   UNL A   1      55.577  30.339  26.404  1.00  0.00    -0.237 OA
ATOM    111  O   UNL A   1      56.087  30.103  28.804  1.00  0.00    -0.744 OA
ENDBRANCH 107 108
ENDBRANCH  75 100
ENDBRANCH  49  50
ENDBRANCH  42  44
ENDBRANCH  41  42
ENDBRANCH  40  41
ENDBRANCH  39  40
ENDBRANCH  38  39
ENDBRANCH  37  38
ENDBRANCH  36  37
ENDBRANCH  35  36
ENDBRANCH  34  35
ENDBRANCH   1  34
TORSDOF 30
ENDMDL
