MODEL 1
REMARK VINA RESULT:     -10.4      0.000      0.000
REMARK SMILES Cc1cc2c(c(C)c1Br)C=C(C(=O)OCCOCCOCCOC(=O)c1ccc(-c3c4nc(c(-c5c(F)cc(S(=O)(=O)[O-])cc5F)c5ccc([nH]5)c(-c5c(F)cc(S(=O)(=O)[O-])cc5F)c5nc(c(-c6c(F)cc(S(=O)(=O)[O-])cc6F)c6ccc3[nH]6)C=C5)C=C4)cc1)[C@@H](C(F)(F)F)O2
REMARK SMILES IDX 19 1 18 2 17 3 16 4 15 5 14 6 12 7 13 8 11 9 1 10 2 11 3 12
REMARK SMILES IDX 8 13 4 14 6 15 9 16 5 17 97 18 7 19 10 20 92 21 93 22 94 23
REMARK SMILES IDX 95 24 96 25 20 26 21 27 22 28 23 29 24 30 25 31 26 32 27 33
REMARK SMILES IDX 91 34 28 35 90 36 29 37 30 38 31 39 84 40 32 41 89 42 83 43
REMARK SMILES IDX 85 44 33 45 88 46 82 47 81 48 34 50 68 51 47 52 67 53 48 54
REMARK SMILES IDX 51 55 66 56 86 57 49 58 50 59 65 61 87 62 52 63 35 64 36 65
REMARK SMILES IDX 45 66 37 67 38 68 44 69 46 70 39 71 40 72 41 73 42 74 43 75
REMARK SMILES IDX 69 76 70 77 79 78 71 79 72 80 78 81 80 82 73 83 74 84 75 85
REMARK SMILES IDX 76 86 77 87 53 88 54 89 63 90 55 91 56 92 62 93 64 94 57 95
REMARK SMILES IDX 58 96 59 97 60 98 61 99
REMARK H PARENT 85 49 51 60
REMARK Flexibility Score: inf
ROOT
ATOM      1  C   UNL A   1      30.237  29.102  23.875  1.00  0.00     0.188 C 
ENDROOT
BRANCH   1   2
ATOM      2  C   UNL A   1      30.499  28.814  22.381  1.00  0.00     0.188 C 
BRANCH   2   3
ATOM      3  O   UNL A   1      30.663  27.490  21.916  1.00  0.00    -0.376 OA
BRANCH   3   4
ATOM      4  C   UNL A   1      31.912  26.825  21.996  1.00  0.00     0.202 C 
BRANCH   4   5
ATOM      5  C   UNL A   1      33.019  27.252  22.963  1.00  0.00     0.261 C 
BRANCH   5   6
ATOM      6  O   UNL A   1      33.828  26.182  23.460  1.00  0.00    -0.460 OA
BRANCH   6   7
ATOM      7  C   UNL A   1      33.308  25.524  24.523  1.00  0.00     0.338 C 
ATOM      8  O   UNL A   1      32.355  25.869  25.203  1.00  0.00    -0.246 OA
BRANCH   7   9
ATOM      9  C   UNL A   1      34.000  24.235  24.692  1.00  0.00     0.087 C 
ATOM     10  C   UNL A   1      38.229  19.351  25.020  1.00  0.00     0.046 C 
ATOM     11  C   UNL A   1      37.475  20.644  25.193  1.00  0.00    -0.033 A 
ATOM     12  C   UNL A   1      36.130  20.682  24.810  1.00  0.00     0.051 A 
ATOM     13  C   UNL A   1      38.075  21.816  25.699  1.00  0.00     0.024 A 
ATOM     14  C   UNL A   1      35.406  21.870  24.857  1.00  0.00     0.128 A 
ATOM     15  C   UNL A   1      37.344  23.026  25.789  1.00  0.00    -0.026 A 
ATOM     16  Br  UNL A   1      39.914  21.740  26.223  1.00  0.00    -0.050 Br
ATOM     17  C   UNL A   1      36.009  23.051  25.306  1.00  0.00     0.021 A 
ATOM     18  O   UNL A   1      34.112  21.769  24.428  1.00  0.00    -0.475 OA
ATOM     19  C   UNL A   1      37.946  24.291  26.363  1.00  0.00     0.046 C 
ATOM     20  C   UNL A   1      35.241  24.289  25.191  1.00  0.00     0.027 C 
ATOM     21  C   UNL A   1      33.306  22.967  24.298  1.00  0.00     0.316 C 
BRANCH  21  22
ATOM     22  C   UNL A   1      32.750  23.016  22.868  1.00  0.00     0.430 C 
ATOM     23  F   UNL A   1      33.639  23.583  22.014  1.00  0.00    -0.167 F 
ATOM     24  F   UNL A   1      32.494  21.777  22.382  1.00  0.00    -0.167 F 
ATOM     25  F   UNL A   1      31.604  23.727  22.787  1.00  0.00    -0.167 F 
ENDBRANCH  21  22
ENDBRANCH   7   9
ENDBRANCH   6   7
ENDBRANCH   5   6
ENDBRANCH   4   5
ENDBRANCH   3   4
ENDBRANCH   2   3
ENDBRANCH   1   2
BRANCH   1  26
ATOM     26  O   UNL A   1      31.114  29.917  24.629  1.00  0.00    -0.376 OA
BRANCH  26  27
ATOM     27  C   UNL A   1      31.778  29.375  25.759  1.00  0.00     0.202 C 
BRANCH  27  28
ATOM     28  C   UNL A   1      33.291  29.522  25.951  1.00  0.00     0.261 C 
BRANCH  28  29
ATOM     29  O   UNL A   1      33.719  29.602  27.317  1.00  0.00    -0.460 OA
BRANCH  29  30
ATOM     30  C   UNL A   1      34.524  30.656  27.600  1.00  0.00     0.338 C 
ATOM     31  O   UNL A   1      34.221  31.837  27.601  1.00  0.00    -0.246 OA
BRANCH  30  32
ATOM     32  C   UNL A   1      35.813  30.159  28.112  1.00  0.00     0.060 A 
ATOM     33  C   UNL A   1      35.836  29.571  29.385  1.00  0.00     0.016 A 
ATOM     34  C   UNL A   1      36.989  30.312  27.376  1.00  0.00     0.016 A 
ATOM     35  C   UNL A   1      37.044  29.153  29.936  1.00  0.00     0.010 A 
ATOM     36  C   UNL A   1      38.204  29.920  27.944  1.00  0.00     0.010 A 
ATOM     37  C   UNL A   1      38.239  29.366  29.236  1.00  0.00    -0.014 A 
BRANCH  37  38
ATOM     38  C   UNL A   1      39.531  29.189  29.938  1.00  0.00     0.031 A 
ATOM     39  C   UNL A   1      40.448  28.090  29.474  1.00  0.00     0.074 A 
ATOM     40  C   UNL A   1      39.897  30.004  30.943  1.00  0.00     0.049 A 
ATOM     41  N   UNL A   1      41.609  27.726  29.949  1.00  0.00    -0.248 NA
ATOM     42  C   UNL A   1      39.997  27.304  28.313  1.00  0.00     0.031 C 
ATOM     43  C   UNL A   1      39.117  31.133  31.444  1.00  0.00     0.029 A 
ATOM     44  N   UNL A   1      41.026  29.998  31.724  1.00  0.00    -0.354 N 
ATOM     45  C   UNL A   1      42.033  26.677  29.143  1.00  0.00     0.074 A 
ATOM     46  C   UNL A   1      40.992  26.442  28.166  1.00  0.00     0.031 C 
ATOM     47  C   UNL A   1      39.786  31.707  32.460  1.00  0.00     0.029 A 
ATOM     48  C   UNL A   1      41.026  30.968  32.698  1.00  0.00     0.049 A 
ATOM     49  H   UNL A   1      41.765  29.361  31.598  1.00  0.00     0.167 HD
ATOM     50  C   UNL A   1      43.189  25.977  29.204  1.00  0.00     0.037 A 
ATOM     51  C   UNL A   1      41.917  31.213  33.681  1.00  0.00     0.037 A 
ATOM     52  C   UNL A   1      44.214  26.198  30.188  1.00  0.00     0.049 A 
ATOM     53  C   UNL A   1      43.150  30.351  33.794  1.00  0.00     0.074 A 
ATOM     54  C   UNL A   1      45.419  25.533  30.339  1.00  0.00     0.029 A 
ATOM     55  N   UNL A   1      44.154  27.152  31.192  1.00  0.00    -0.354 N 
ATOM     56  N   UNL A   1      43.542  29.363  33.023  1.00  0.00    -0.248 NA
ATOM     57  C   UNL A   1      44.061  30.634  34.913  1.00  0.00     0.031 C 
ATOM     58  C   UNL A   1      46.066  26.055  31.464  1.00  0.00     0.029 A 
ATOM     59  C   UNL A   1      45.288  27.077  31.984  1.00  0.00     0.049 A 
ATOM     60  H   UNL A   1      43.414  27.788  31.324  1.00  0.00     0.167 HD
ATOM     61  C   UNL A   1      44.751  28.923  33.551  1.00  0.00     0.074 A 
ATOM     62  C   UNL A   1      45.035  29.759  34.699  1.00  0.00     0.031 C 
ATOM     63  C   UNL A   1      45.557  27.919  33.122  1.00  0.00     0.037 A 
BRANCH  50  64
ATOM     64  C   UNL A   1      43.398  24.890  28.190  1.00  0.00     0.058 A 
ATOM     65  C   UNL A   1      43.931  25.165  26.922  1.00  0.00     0.135 A 
ATOM     66  C   UNL A   1      43.107  23.553  28.506  1.00  0.00     0.135 A 
ATOM     67  F   UNL A   1      44.204  26.429  26.562  1.00  0.00    -0.206 F 
ATOM     68  C   UNL A   1      44.157  24.153  25.995  1.00  0.00     0.059 A 
ATOM     69  C   UNL A   1      43.346  22.522  27.603  1.00  0.00     0.059 A 
ATOM     70  F   UNL A   1      42.586  23.240  29.703  1.00  0.00    -0.206 F 
ATOM     71  C   UNL A   1      43.866  22.834  26.347  1.00  0.00     0.060 A 
BRANCH  71  72
ATOM     72  S   UNL A   1      44.189  21.531  25.140  1.00  0.00     0.124 S 
ATOM     73  O   UNL A   1      44.005  22.247  23.882  1.00  0.00    -0.237 OA
ATOM     74  O   UNL A   1      45.561  21.148  25.457  1.00  0.00    -0.237 OA
ATOM     75  O   UNL A   1      43.174  20.527  25.442  1.00  0.00    -0.744 OA
ENDBRANCH  71  72
ENDBRANCH  50  64
BRANCH  51  76
ATOM     76  C   UNL A   1      41.672  32.312  34.652  1.00  0.00     0.058 A 
ATOM     77  C   UNL A   1      42.213  33.591  34.449  1.00  0.00     0.135 A 
ATOM     78  C   UNL A   1      40.901  32.105  35.806  1.00  0.00     0.135 A 
ATOM     79  F   UNL A   1      42.970  33.834  33.369  1.00  0.00    -0.206 F 
ATOM     80  C   UNL A   1      42.006  34.622  35.359  1.00  0.00     0.059 A 
ATOM     81  C   UNL A   1      40.660  33.127  36.719  1.00  0.00     0.059 A 
ATOM     82  F   UNL A   1      40.357  30.901  36.045  1.00  0.00    -0.206 F 
ATOM     83  C   UNL A   1      41.225  34.381  36.491  1.00  0.00     0.060 A 
BRANCH  83  84
ATOM     84  S   UNL A   1      40.925  35.741  37.640  1.00  0.00     0.124 S 
ATOM     85  O   UNL A   1      39.968  36.551  36.895  1.00  0.00    -0.237 OA
ATOM     86  O   UNL A   1      40.397  35.042  38.808  1.00  0.00    -0.237 OA
ATOM     87  O   UNL A   1      42.248  36.331  37.817  1.00  0.00    -0.744 OA
ENDBRANCH  83  84
ENDBRANCH  51  76
BRANCH  63  88
ATOM     88  C   UNL A   1      46.833  27.672  33.880  1.00  0.00     0.058 A 
ATOM     89  C   UNL A   1      46.895  26.746  34.932  1.00  0.00     0.135 A 
ATOM     90  C   UNL A   1      48.025  28.308  33.494  1.00  0.00     0.135 A 
ATOM     91  F   UNL A   1      45.784  26.113  35.343  1.00  0.00    -0.206 F 
ATOM     92  C   UNL A   1      48.092  26.469  35.586  1.00  0.00     0.059 A 
ATOM     93  C   UNL A   1      49.237  28.027  34.117  1.00  0.00     0.059 A 
ATOM     94  F   UNL A   1      48.022  29.192  32.485  1.00  0.00    -0.206 F 
ATOM     95  C   UNL A   1      49.259  27.111  35.167  1.00  0.00     0.060 A 
BRANCH  95  96
ATOM     96  S   UNL A   1      50.812  26.705  35.994  1.00  0.00     0.124 S 
ATOM     97  O   UNL A   1      50.371  26.513  37.371  1.00  0.00    -0.237 OA
ATOM     98  O   UNL A   1      51.234  25.499  35.290  1.00  0.00    -0.237 OA
ATOM     99  O   UNL A   1      51.641  27.884  35.760  1.00  0.00    -0.744 OA
ENDBRANCH  95  96
ENDBRANCH  63  88
ENDBRANCH  37  38
ENDBRANCH  30  32
ENDBRANCH  29  30
ENDBRANCH  28  29
ENDBRANCH  27  28
ENDBRANCH  26  27
ENDBRANCH   1  26
TORSDOF 21
ENDMDL
MODEL 2
REMARK VINA RESULT:     -10.4      5.086      6.730
REMARK SMILES Cc1cc2c(c(C)c1Br)C=C(C(=O)OCCOCCOCCOC(=O)c1ccc(-c3c4nc(c(-c5c(F)cc(S(=O)(=O)[O-])cc5F)c5ccc([nH]5)c(-c5c(F)cc(S(=O)(=O)[O-])cc5F)c5nc(c(-c6c(F)cc(S(=O)(=O)[O-])cc6F)c6ccc3[nH]6)C=C5)C=C4)cc1)[C@@H](C(F)(F)F)O2
REMARK SMILES IDX 19 1 18 2 17 3 16 4 15 5 14 6 12 7 13 8 11 9 1 10 2 11 3 12
REMARK SMILES IDX 8 13 4 14 6 15 9 16 5 17 97 18 7 19 10 20 92 21 93 22 94 23
REMARK SMILES IDX 95 24 96 25 20 26 21 27 22 28 23 29 24 30 25 31 26 32 27 33
REMARK SMILES IDX 91 34 28 35 90 36 29 37 30 38 31 39 84 40 32 41 89 42 83 43
REMARK SMILES IDX 85 44 33 45 88 46 82 47 81 48 34 50 68 51 47 52 67 53 48 54
REMARK SMILES IDX 51 55 66 56 86 57 49 58 50 59 65 61 87 62 52 63 35 64 36 65
REMARK SMILES IDX 45 66 37 67 38 68 44 69 46 70 39 71 40 72 41 73 42 74 43 75
REMARK SMILES IDX 69 76 70 77 79 78 71 79 72 80 78 81 80 82 73 83 74 84 75 85
REMARK SMILES IDX 76 86 77 87 53 88 54 89 63 90 55 91 56 92 62 93 64 94 57 95
REMARK SMILES IDX 58 96 59 97 60 98 61 99
REMARK H PARENT 85 49 51 60
REMARK Flexibility Score: inf
ROOT
ATOM      1  C   UNL A   1      34.303  33.872  29.185  1.00  0.00     0.188 C 
ENDROOT
BRANCH   1   2
ATOM      2  C   UNL A   1      35.074  33.085  28.103  1.00  0.00     0.188 C 
BRANCH   2   3
ATOM      3  O   UNL A   1      34.474  31.997  27.431  1.00  0.00    -0.376 OA
BRANCH   3   4
ATOM      4  C   UNL A   1      34.464  30.694  27.991  1.00  0.00     0.202 C 
BRANCH   4   5
ATOM      5  C   UNL A   1      34.767  29.437  27.172  1.00  0.00     0.261 C 
BRANCH   5   6
ATOM      6  O   UNL A   1      33.625  28.636  26.856  1.00  0.00    -0.460 OA
BRANCH   6   7
ATOM      7  C   UNL A   1      33.659  28.056  25.632  1.00  0.00     0.338 C 
ATOM      8  O   UNL A   1      34.010  28.576  24.585  1.00  0.00    -0.246 OA
BRANCH   7   9
ATOM      9  C   UNL A   1      33.308  26.631  25.753  1.00  0.00     0.087 C 
ATOM     10  C   UNL A   1      32.784  20.205  25.225  1.00  0.00     0.046 C 
ATOM     11  C   UNL A   1      33.262  21.619  25.428  1.00  0.00    -0.033 A 
ATOM     12  C   UNL A   1      32.307  22.610  25.684  1.00  0.00     0.051 A 
ATOM     13  C   UNL A   1      34.622  21.986  25.345  1.00  0.00     0.024 A 
ATOM     14  C   UNL A   1      32.675  23.949  25.787  1.00  0.00     0.128 A 
ATOM     15  C   UNL A   1      35.020  23.338  25.484  1.00  0.00    -0.026 A 
ATOM     16  Br  UNL A   1      35.911  20.614  25.000  1.00  0.00    -0.050 Br
ATOM     17  C   UNL A   1      34.015  24.328  25.652  1.00  0.00     0.021 A 
ATOM     18  O   UNL A   1      31.639  24.811  26.012  1.00  0.00    -0.475 OA
ATOM     19  C   UNL A   1      36.473  23.760  25.440  1.00  0.00     0.046 C 
ATOM     20  C   UNL A   1      34.314  25.758  25.623  1.00  0.00     0.027 C 
ATOM     21  C   UNL A   1      31.882  26.240  25.995  1.00  0.00     0.316 C 
BRANCH  21  22
ATOM     22  C   UNL A   1      30.913  26.878  24.989  1.00  0.00     0.430 C 
ATOM     23  F   UNL A   1      31.362  26.734  23.717  1.00  0.00    -0.167 F 
ATOM     24  F   UNL A   1      29.689  26.298  25.028  1.00  0.00    -0.167 F 
ATOM     25  F   UNL A   1      30.742  28.201  25.209  1.00  0.00    -0.167 F 
ENDBRANCH  21  22
ENDBRANCH   7   9
ENDBRANCH   6   7
ENDBRANCH   5   6
ENDBRANCH   4   5
ENDBRANCH   3   4
ENDBRANCH   2   3
ENDBRANCH   1   2
BRANCH   1  26
ATOM     26  O   UNL A   1      34.028  33.301  30.450  1.00  0.00    -0.376 OA
BRANCH  26  27
ATOM     27  C   UNL A   1      35.030  33.304  31.454  1.00  0.00     0.202 C 
BRANCH  27  28
ATOM     28  C   UNL A   1      35.822  32.039  31.804  1.00  0.00     0.261 C 
BRANCH  28  29
ATOM     29  O   UNL A   1      36.457  31.399  30.691  1.00  0.00    -0.460 OA
BRANCH  29  30
ATOM     30  C   UNL A   1      37.018  30.197  30.970  1.00  0.00     0.338 C 
ATOM     31  O   UNL A   1      36.463  29.209  31.420  1.00  0.00    -0.246 OA
BRANCH  30  32
ATOM     32  C   UNL A   1      38.402  30.176  30.462  1.00  0.00     0.060 A 
ATOM     33  C   UNL A   1      38.595  30.122  29.075  1.00  0.00     0.016 A 
ATOM     34  C   UNL A   1      39.490  30.162  31.335  1.00  0.00     0.016 A 
ATOM     35  C   UNL A   1      39.883  30.030  28.555  1.00  0.00     0.010 A 
ATOM     36  C   UNL A   1      40.780  30.038  30.812  1.00  0.00     0.010 A 
ATOM     37  C   UNL A   1      40.979  29.943  29.423  1.00  0.00    -0.014 A 
BRANCH  37  38
ATOM     38  C   UNL A   1      42.303  29.557  28.883  1.00  0.00     0.031 A 
ATOM     39  C   UNL A   1      42.509  28.129  28.457  1.00  0.00     0.074 A 
ATOM     40  C   UNL A   1      43.290  30.459  28.743  1.00  0.00     0.049 A 
ATOM     41  N   UNL A   1      43.583  27.552  27.987  1.00  0.00    -0.248 NA
ATOM     42  C   UNL A   1      41.344  27.235  28.571  1.00  0.00     0.031 C 
ATOM     43  C   UNL A   1      43.191  31.881  29.071  1.00  0.00     0.029 A 
ATOM     44  N   UNL A   1      44.576  30.306  28.288  1.00  0.00    -0.354 N 
ATOM     45  C   UNL A   1      43.224  26.234  27.739  1.00  0.00     0.074 A 
ATOM     46  C   UNL A   1      41.841  26.086  28.139  1.00  0.00     0.031 C 
ATOM     47  C   UNL A   1      44.374  32.469  28.817  1.00  0.00     0.029 A 
ATOM     48  C   UNL A   1      45.320  31.461  28.337  1.00  0.00     0.049 A 
ATOM     49  H   UNL A   1      44.931  29.450  27.958  1.00  0.00     0.167 HD
ATOM     50  C   UNL A   1      43.975  25.237  27.217  1.00  0.00     0.037 A 
ATOM     51  C   UNL A   1      46.620  31.670  28.049  1.00  0.00     0.037 A 
ATOM     52  C   UNL A   1      45.355  25.381  26.839  1.00  0.00     0.049 A 
ATOM     53  C   UNL A   1      47.466  30.517  27.566  1.00  0.00     0.074 A 
ATOM     54  C   UNL A   1      46.205  24.425  26.309  1.00  0.00     0.029 A 
ATOM     55  N   UNL A   1      46.089  26.550  26.955  1.00  0.00    -0.354 N 
ATOM     56  N   UNL A   1      47.114  29.275  27.333  1.00  0.00    -0.248 NA
ATOM     57  C   UNL A   1      48.888  30.795  27.312  1.00  0.00     0.031 C 
ATOM     58  C   UNL A   1      47.467  25.006  26.149  1.00  0.00     0.029 A 
ATOM     59  C   UNL A   1      47.390  26.335  26.532  1.00  0.00     0.049 A 
ATOM     60  H   UNL A   1      45.738  27.407  27.290  1.00  0.00     0.167 HD
ATOM     61  C   UNL A   1      48.263  28.630  26.886  1.00  0.00     0.074 A 
ATOM     62  C   UNL A   1      49.319  29.621  26.869  1.00  0.00     0.031 C 
ATOM     63  C   UNL A   1      48.429  27.335  26.519  1.00  0.00     0.037 A 
BRANCH  50  64
ATOM     64  C   UNL A   1      43.325  23.895  27.043  1.00  0.00     0.058 A 
ATOM     65  C   UNL A   1      42.860  23.463  25.792  1.00  0.00     0.135 A 
ATOM     66  C   UNL A   1      43.207  23.013  28.129  1.00  0.00     0.135 A 
ATOM     67  F   UNL A   1      42.927  24.278  24.728  1.00  0.00    -0.206 F 
ATOM     68  C   UNL A   1      42.289  22.206  25.625  1.00  0.00     0.059 A 
ATOM     69  C   UNL A   1      42.661  21.742  27.981  1.00  0.00     0.059 A 
ATOM     70  F   UNL A   1      43.628  23.383  29.349  1.00  0.00    -0.206 F 
ATOM     71  C   UNL A   1      42.198  21.350  26.724  1.00  0.00     0.060 A 
BRANCH  71  72
ATOM     72  S   UNL A   1      41.477  19.713  26.483  1.00  0.00     0.124 S 
ATOM     73  O   UNL A   1      40.092  20.049  26.167  1.00  0.00    -0.237 OA
ATOM     74  O   UNL A   1      42.269  19.185  25.377  1.00  0.00    -0.237 OA
ATOM     75  O   UNL A   1      41.684  19.057  27.770  1.00  0.00    -0.744 OA
ENDBRANCH  71  72
ENDBRANCH  50  64
BRANCH  51  76
ATOM     76  C   UNL A   1      47.214  33.022  28.222  1.00  0.00     0.058 A 
ATOM     77  C   UNL A   1      47.800  33.405  29.437  1.00  0.00     0.135 A 
ATOM     78  C   UNL A   1      47.198  33.962  27.180  1.00  0.00     0.135 A 
ATOM     79  F   UNL A   1      47.825  32.546  30.469  1.00  0.00    -0.206 F 
ATOM     80  C   UNL A   1      48.343  34.673  29.618  1.00  0.00     0.059 A 
ATOM     81  C   UNL A   1      47.756  35.228  27.328  1.00  0.00     0.059 A 
ATOM     82  F   UNL A   1      46.653  33.645  25.995  1.00  0.00    -0.206 F 
ATOM     83  C   UNL A   1      48.318  35.578  28.555  1.00  0.00     0.060 A 
BRANCH  83  84
ATOM     84  S   UNL A   1      49.068  37.204  28.786  1.00  0.00     0.124 S 
ATOM     85  O   UNL A   1      49.079  37.720  27.422  1.00  0.00    -0.237 OA
ATOM     86  O   UNL A   1      48.130  37.844  29.704  1.00  0.00    -0.237 OA
ATOM     87  O   UNL A   1      50.376  36.894  29.355  1.00  0.00    -0.744 OA
ENDBRANCH  83  84
ENDBRANCH  51  76
BRANCH  63  88
ATOM     88  C   UNL A   1      49.793  26.907  26.050  1.00  0.00     0.058 A 
ATOM     89  C   UNL A   1      50.187  27.048  24.710  1.00  0.00     0.135 A 
ATOM     90  C   UNL A   1      50.745  26.429  26.966  1.00  0.00     0.135 A 
ATOM     91  F   UNL A   1      49.315  27.497  23.793  1.00  0.00    -0.206 F 
ATOM     92  C   UNL A   1      51.472  26.715  24.292  1.00  0.00     0.059 A 
ATOM     93  C   UNL A   1      52.042  26.115  26.575  1.00  0.00     0.059 A 
ATOM     94  F   UNL A   1      50.423  26.288  28.261  1.00  0.00    -0.206 F 
ATOM     95  C   UNL A   1      52.395  26.255  25.233  1.00  0.00     0.060 A 
BRANCH  95  96
ATOM     96  S   UNL A   1      54.071  25.873  24.683  1.00  0.00     0.124 S 
ATOM     97  O   UNL A   1      54.873  26.658  25.615  1.00  0.00    -0.237 OA
ATOM     98  O   UNL A   1      54.134  24.425  24.857  1.00  0.00    -0.237 OA
ATOM     99  O   UNL A   1      54.089  26.333  23.298  1.00  0.00    -0.744 OA
ENDBRANCH  95  96
ENDBRANCH  63  88
ENDBRANCH  37  38
ENDBRANCH  30  32
ENDBRANCH  29  30
ENDBRANCH  28  29
ENDBRANCH  27  28
ENDBRANCH  26  27
ENDBRANCH   1  26
TORSDOF 21
ENDMDL
MODEL 3
REMARK VINA RESULT:     -10.4      3.169      8.984
REMARK SMILES Cc1cc2c(c(C)c1Br)C=C(C(=O)OCCOCCOCCOC(=O)c1ccc(-c3c4nc(c(-c5c(F)cc(S(=O)(=O)[O-])cc5F)c5ccc([nH]5)c(-c5c(F)cc(S(=O)(=O)[O-])cc5F)c5nc(c(-c6c(F)cc(S(=O)(=O)[O-])cc6F)c6ccc3[nH]6)C=C5)C=C4)cc1)[C@@H](C(F)(F)F)O2
REMARK SMILES IDX 19 1 18 2 17 3 16 4 15 5 14 6 12 7 13 8 11 9 1 10 2 11 3 12
REMARK SMILES IDX 8 13 4 14 6 15 9 16 5 17 97 18 7 19 10 20 92 21 93 22 94 23
REMARK SMILES IDX 95 24 96 25 20 26 21 27 22 28 23 29 24 30 25 31 26 32 27 33
REMARK SMILES IDX 91 34 28 35 90 36 29 37 30 38 31 39 84 40 32 41 89 42 83 43
REMARK SMILES IDX 85 44 33 45 88 46 82 47 81 48 34 50 68 51 47 52 67 53 48 54
REMARK SMILES IDX 51 55 66 56 86 57 49 58 50 59 65 61 87 62 52 63 35 64 36 65
REMARK SMILES IDX 45 66 37 67 38 68 44 69 46 70 39 71 40 72 41 73 42 74 43 75
REMARK SMILES IDX 69 76 70 77 79 78 71 79 72 80 78 81 80 82 73 83 74 84 75 85
REMARK SMILES IDX 76 86 77 87 53 88 54 89 63 90 55 91 56 92 62 93 64 94 57 95
REMARK SMILES IDX 58 96 59 97 60 98 61 99
REMARK H PARENT 85 49 51 60
REMARK Flexibility Score: inf
ROOT
ATOM      1  C   UNL A   1      40.826  21.125  27.537  1.00  0.00     0.188 C 
ENDROOT
BRANCH   1   2
ATOM      2  C   UNL A   1      39.978  21.944  26.540  1.00  0.00     0.188 C 
BRANCH   2   3
ATOM      3  O   UNL A   1      38.984  21.322  25.751  1.00  0.00    -0.376 OA
BRANCH   3   4
ATOM      4  C   UNL A   1      37.681  21.867  25.636  1.00  0.00     0.202 C 
BRANCH   4   5
ATOM      5  C   UNL A   1      37.413  23.274  25.096  1.00  0.00     0.261 C 
BRANCH   5   6
ATOM      6  O   UNL A   1      36.035  23.576  24.863  1.00  0.00    -0.460 OA
BRANCH   6   7
ATOM      7  C   UNL A   1      35.632  23.435  23.577  1.00  0.00     0.338 C 
ATOM      8  O   UNL A   1      36.273  22.953  22.658  1.00  0.00    -0.246 OA
BRANCH   7   9
ATOM      9  C   UNL A   1      34.227  23.857  23.452  1.00  0.00     0.087 C 
ATOM     10  C   UNL A   1      28.455  26.748  23.874  1.00  0.00     0.046 C 
ATOM     11  C   UNL A   1      29.910  26.415  23.667  1.00  0.00    -0.033 A 
ATOM     12  C   UNL A   1      30.264  25.070  23.506  1.00  0.00     0.051 A 
ATOM     13  C   UNL A   1      30.924  27.395  23.656  1.00  0.00     0.024 A 
ATOM     14  C   UNL A   1      31.600  24.690  23.405  1.00  0.00     0.128 A 
ATOM     15  C   UNL A   1      32.286  27.031  23.517  1.00  0.00    -0.026 A 
ATOM     16  Br  UNL A   1      30.415  29.227  23.872  1.00  0.00    -0.050 Br
ATOM     17  C   UNL A   1      32.616  25.651  23.448  1.00  0.00     0.021 A 
ATOM     18  O   UNL A   1      31.804  23.345  23.279  1.00  0.00    -0.475 OA
ATOM     19  C   UNL A   1      33.394  28.061  23.461  1.00  0.00     0.046 C 
ATOM     20  C   UNL A   1      33.997  25.175  23.486  1.00  0.00     0.027 C 
ATOM     21  C   UNL A   1      33.155  22.820  23.309  1.00  0.00     0.316 C 
BRANCH  21  22
ATOM     22  C   UNL A   1      33.224  21.741  24.399  1.00  0.00     0.430 C 
ATOM     23  F   UNL A   1      32.092  20.994  24.422  1.00  0.00    -0.167 F 
ATOM     24  F   UNL A   1      34.246  20.876  24.189  1.00  0.00    -0.167 F 
ATOM     25  F   UNL A   1      33.386  22.267  25.633  1.00  0.00    -0.167 F 
ENDBRANCH  21  22
ENDBRANCH   7   9
ENDBRANCH   6   7
ENDBRANCH   5   6
ENDBRANCH   4   5
ENDBRANCH   3   4
ENDBRANCH   2   3
ENDBRANCH   1   2
BRANCH   1  26
ATOM     26  O   UNL A   1      42.149  20.733  27.225  1.00  0.00    -0.376 OA
BRANCH  26  27
ATOM     27  C   UNL A   1      42.782  21.257  26.068  1.00  0.00     0.202 C 
BRANCH  27  28
ATOM     28  C   UNL A   1      43.721  22.466  26.143  1.00  0.00     0.261 C 
BRANCH  28  29
ATOM     29  O   UNL A   1      43.236  23.557  26.935  1.00  0.00    -0.460 OA
BRANCH  29  30
ATOM     30  C   UNL A   1      42.799  24.626  26.224  1.00  0.00     0.338 C 
ATOM     31  O   UNL A   1      42.703  24.717  25.012  1.00  0.00    -0.246 OA
BRANCH  30  32
ATOM     32  C   UNL A   1      42.256  25.636  27.149  1.00  0.00     0.060 A 
ATOM     33  C   UNL A   1      42.897  26.881  27.217  1.00  0.00     0.016 A 
ATOM     34  C   UNL A   1      41.165  25.350  27.971  1.00  0.00     0.016 A 
ATOM     35  C   UNL A   1      42.461  27.839  28.129  1.00  0.00     0.010 A 
ATOM     36  C   UNL A   1      40.749  26.301  28.906  1.00  0.00     0.010 A 
ATOM     37  C   UNL A   1      41.413  27.536  29.007  1.00  0.00    -0.014 A 
BRANCH  37  38
ATOM     38  C   UNL A   1      41.146  28.435  30.154  1.00  0.00     0.031 A 
ATOM     39  C   UNL A   1      42.002  28.293  31.384  1.00  0.00     0.074 A 
ATOM     40  C   UNL A   1      40.189  29.377  30.096  1.00  0.00     0.049 A 
ATOM     41  N   UNL A   1      41.939  28.941  32.516  1.00  0.00    -0.248 NA
ATOM     42  C   UNL A   1      43.079  27.290  31.321  1.00  0.00     0.031 C 
ATOM     43  C   UNL A   1      39.333  29.644  28.941  1.00  0.00     0.029 A 
ATOM     44  N   UNL A   1      39.776  30.284  31.040  1.00  0.00    -0.354 N 
ATOM     45  C   UNL A   1      42.968  28.434  33.298  1.00  0.00     0.074 A 
ATOM     46  C   UNL A   1      43.624  27.404  32.523  1.00  0.00     0.031 C 
ATOM     47  C   UNL A   1      38.486  30.642  29.250  1.00  0.00     0.029 A 
ATOM     48  C   UNL A   1      38.721  31.064  30.631  1.00  0.00     0.049 A 
ATOM     49  H   UNL A   1      40.197  30.368  31.926  1.00  0.00     0.167 HD
ATOM     50  C   UNL A   1      43.341  28.800  34.546  1.00  0.00     0.037 A 
ATOM     51  C   UNL A   1      38.014  31.993  31.306  1.00  0.00     0.037 A 
ATOM     52  C   UNL A   1      42.675  29.812  35.322  1.00  0.00     0.049 A 
ATOM     53  C   UNL A   1      38.382  32.311  32.734  1.00  0.00     0.074 A 
ATOM     54  C   UNL A   1      42.972  30.247  36.602  1.00  0.00     0.029 A 
ATOM     55  N   UNL A   1      41.576  30.541  34.896  1.00  0.00    -0.354 N 
ATOM     56  N   UNL A   1      39.361  31.827  33.462  1.00  0.00    -0.248 NA
ATOM     57  C   UNL A   1      37.547  33.298  33.434  1.00  0.00     0.031 C 
ATOM     58  C   UNL A   1      42.022  31.207  36.966  1.00  0.00     0.029 A 
ATOM     59  C   UNL A   1      41.165  31.404  35.896  1.00  0.00     0.049 A 
ATOM     60  H   UNL A   1      41.149  30.455  34.012  1.00  0.00     0.167 HD
ATOM     61  C   UNL A   1      39.272  32.465  34.695  1.00  0.00     0.074 A 
ATOM     62  C   UNL A   1      38.152  33.379  34.612  1.00  0.00     0.031 C 
ATOM     63  C   UNL A   1      40.048  32.311  35.796  1.00  0.00     0.037 A 
BRANCH  50  64
ATOM     64  C   UNL A   1      44.511  28.088  35.159  1.00  0.00     0.058 A 
ATOM     65  C   UNL A   1      44.341  26.932  35.935  1.00  0.00     0.135 A 
ATOM     66  C   UNL A   1      45.821  28.538  34.929  1.00  0.00     0.135 A 
ATOM     67  F   UNL A   1      43.107  26.474  36.204  1.00  0.00    -0.206 F 
ATOM     68  C   UNL A   1      45.428  26.252  36.474  1.00  0.00     0.059 A 
ATOM     69  C   UNL A   1      46.925  27.862  35.439  1.00  0.00     0.059 A 
ATOM     70  F   UNL A   1      46.037  29.645  34.201  1.00  0.00    -0.206 F 
ATOM     71  C   UNL A   1      46.717  26.723  36.217  1.00  0.00     0.060 A 
BRANCH  71  72
ATOM     72  S   UNL A   1      48.117  25.814  36.904  1.00  0.00     0.124 S 
ATOM     73  O   UNL A   1      47.928  26.028  38.336  1.00  0.00    -0.237 OA
ATOM     74  O   UNL A   1      47.871  24.458  36.428  1.00  0.00    -0.237 OA
ATOM     75  O   UNL A   1      49.276  26.482  36.321  1.00  0.00    -0.744 OA
ENDBRANCH  71  72
ENDBRANCH  50  64
BRANCH  51  76
ATOM     76  C   UNL A   1      36.872  32.683  30.648  1.00  0.00     0.058 A 
ATOM     77  C   UNL A   1      35.548  32.299  30.907  1.00  0.00     0.135 A 
ATOM     78  C   UNL A   1      37.082  33.734  29.742  1.00  0.00     0.135 A 
ATOM     79  F   UNL A   1      35.297  31.289  31.755  1.00  0.00    -0.206 F 
ATOM     80  C   UNL A   1      34.473  32.925  30.285  1.00  0.00     0.059 A 
ATOM     81  C   UNL A   1      36.022  34.391  29.125  1.00  0.00     0.059 A 
ATOM     82  F   UNL A   1      38.329  34.143  29.463  1.00  0.00    -0.206 F 
ATOM     83  C   UNL A   1      34.720  33.973  29.397  1.00  0.00     0.060 A 
BRANCH  83  84
ATOM     84  S   UNL A   1      33.314  34.808  28.632  1.00  0.00     0.124 S 
ATOM     85  O   UNL A   1      32.466  35.076  29.788  1.00  0.00    -0.237 OA
ATOM     86  O   UNL A   1      33.946  35.973  28.020  1.00  0.00    -0.237 OA
ATOM     87  O   UNL A   1      32.803  33.816  27.691  1.00  0.00    -0.744 OA
ENDBRANCH  83  84
ENDBRANCH  51  76
BRANCH  63  88
ATOM     88  C   UNL A   1      39.734  33.157  37.001  1.00  0.00     0.058 A 
ATOM     89  C   UNL A   1      38.760  32.773  37.934  1.00  0.00     0.135 A 
ATOM     90  C   UNL A   1      40.474  34.322  37.266  1.00  0.00     0.135 A 
ATOM     91  F   UNL A   1      38.022  31.670  37.727  1.00  0.00    -0.206 F 
ATOM     92  C   UNL A   1      38.520  33.522  39.082  1.00  0.00     0.059 A 
ATOM     93  C   UNL A   1      40.268  35.071  38.419  1.00  0.00     0.059 A 
ATOM     94  F   UNL A   1      41.427  34.725  36.411  1.00  0.00    -0.206 F 
ATOM     95  C   UNL A   1      39.282  34.667  39.319  1.00  0.00     0.060 A 
BRANCH  95  96
ATOM     96  S   UNL A   1      38.990  35.601  40.836  1.00  0.00     0.124 S 
ATOM     97  O   UNL A   1      40.317  35.602  41.441  1.00  0.00    -0.237 OA
ATOM     98  O   UNL A   1      38.525  36.887  40.325  1.00  0.00    -0.237 OA
ATOM     99  O   UNL A   1      37.982  34.809  41.535  1.00  0.00    -0.744 OA
ENDBRANCH  95  96
ENDBRANCH  63  88
ENDBRANCH  37  38
ENDBRANCH  30  32
ENDBRANCH  29  30
ENDBRANCH  28  29
ENDBRANCH  27  28
ENDBRANCH  26  27
ENDBRANCH   1  26
TORSDOF 21
ENDMDL
