MODEL 1
REMARK VINA RESULT:      -7.5      0.000      0.000
REMARK SMILES CC(C)COc1cccc(N2C[C@@H](C(=O)OCCOCCOCCOC(=O)c3ccc(-c4c5nc(c(-c6c(F)cc(S(=O)(=O)[O-])cc6F)c6ccc([nH]6)c(-c6c(F)cc(S(=O)(=O)[O-])cc6F)c6nc(c(-c7c(F)cc(S(=O)(=O)[O-])cc7F)c7ccc4[nH]7)C=C6)C=C5)cc3)CC2=O)c1
REMARK SMILES IDX 20 1 19 2 18 3 17 4 16 5 14 6 15 7 13 8 11 9 12 10 95 11
REMARK SMILES IDX 94 12 96 13 10 14 6 15 7 16 97 17 8 18 9 19 5 20 4 21 2 22
REMARK SMILES IDX 1 23 3 24 21 25 22 26 23 27 24 28 25 29 26 30 27 31 28 32
REMARK SMILES IDX 29 33 93 34 30 35 92 36 31 37 32 38 33 39 86 40 34 41 91 42
REMARK SMILES IDX 85 43 87 44 35 45 90 46 84 47 83 48 36 50 70 51 49 52 69 53
REMARK SMILES IDX 50 54 53 55 68 56 88 57 51 58 52 59 67 61 89 62 54 63 37 64
REMARK SMILES IDX 38 65 47 66 39 67 40 68 46 69 48 70 41 71 42 72 43 73 44 74
REMARK SMILES IDX 45 75 71 76 72 77 81 78 73 79 74 80 80 81 82 82 75 83 76 84
REMARK SMILES IDX 77 85 78 86 79 87 55 88 56 89 65 90 57 91 58 92 64 93 66 94
REMARK SMILES IDX 59 95 60 96 61 97 62 98 63 99
REMARK H PARENT 87 49 53 60
REMARK Flexibility Score: inf
ROOT
ATOM      1  C   UNL A   1      42.079  24.892  25.789  1.00  0.00     0.188 C 
ENDROOT
BRANCH   1   2
ATOM      2  O   UNL A   1      42.535  26.221  26.026  1.00  0.00    -0.376 OA
BRANCH   2   3
ATOM      3  C   UNL A   1      41.596  27.285  26.084  1.00  0.00     0.202 C 
BRANCH   3   4
ATOM      4  C   UNL A   1      40.450  27.182  27.101  1.00  0.00     0.261 C 
BRANCH   4   5
ATOM      5  O   UNL A   1      40.311  28.330  27.960  1.00  0.00    -0.463 OA
BRANCH   5   6
ATOM      6  C   UNL A   1      40.380  28.096  29.292  1.00  0.00     0.311 C 
ATOM      7  O   UNL A   1      41.423  27.911  29.909  1.00  0.00    -0.252 OA
BRANCH   6   8
ATOM      8  C   UNL A   1      39.042  28.139  29.997  1.00  0.00     0.128 C 
ATOM      9  N   UNL A   1      37.791  29.662  31.256  1.00  0.00    -0.311 N 
ATOM     10  C   UNL A   1      38.629  29.602  30.094  1.00  0.00     0.141 C 
ATOM     11  C   UNL A   1      37.954  28.550  32.078  1.00  0.00     0.227 C 
ATOM     12  C   UNL A   1      38.946  27.639  31.432  1.00  0.00     0.117 C 
ATOM     13  O   UNL A   1      37.442  28.331  33.165  1.00  0.00    -0.274 OA
BRANCH   9  14
ATOM     14  C   UNL A   1      37.332  30.885  31.764  1.00  0.00     0.047 A 
ATOM     15  C   UNL A   1      35.523  32.498  31.733  1.00  0.00     0.121 A 
ATOM     16  C   UNL A   1      36.388  33.435  32.296  1.00  0.00     0.046 A 
ATOM     17  C   UNL A   1      36.000  31.220  31.528  1.00  0.00     0.072 A 
ATOM     18  C   UNL A   1      37.701  33.075  32.649  1.00  0.00     0.006 A 
ATOM     19  C   UNL A   1      38.183  31.792  32.377  1.00  0.00     0.026 A 
BRANCH  15  20
ATOM     20  O   UNL A   1      34.296  32.916  31.299  1.00  0.00    -0.493 OA
BRANCH  20  21
ATOM     21  C   UNL A   1      34.220  34.173  30.604  1.00  0.00     0.232 C 
BRANCH  21  22
ATOM     22  C   UNL A   1      34.657  34.134  29.114  1.00  0.00     0.020 C 
ATOM     23  C   UNL A   1      34.154  32.918  28.329  1.00  0.00     0.011 C 
ATOM     24  C   UNL A   1      34.129  35.381  28.395  1.00  0.00     0.011 C 
ENDBRANCH  21  22
ENDBRANCH  20  21
ENDBRANCH  15  20
ENDBRANCH   9  14
ENDBRANCH   6   8
ENDBRANCH   5   6
ENDBRANCH   4   5
ENDBRANCH   3   4
ENDBRANCH   2   3
ENDBRANCH   1   2
BRANCH   1  25
ATOM     25  C   UNL A   1      43.021  23.702  26.051  1.00  0.00     0.188 C 
BRANCH  25  26
ATOM     26  O   UNL A   1      44.117  23.615  25.167  1.00  0.00    -0.376 OA
BRANCH  26  27
ATOM     27  C   UNL A   1      45.371  24.034  25.670  1.00  0.00     0.202 C 
BRANCH  27  28
ATOM     28  C   UNL A   1      46.366  24.562  24.626  1.00  0.00     0.261 C 
BRANCH  28  29
ATOM     29  O   UNL A   1      47.388  25.450  25.114  1.00  0.00    -0.460 OA
BRANCH  29  30
ATOM     30  C   UNL A   1      47.426  26.698  24.591  1.00  0.00     0.338 C 
ATOM     31  O   UNL A   1      47.685  26.995  23.442  1.00  0.00    -0.246 OA
BRANCH  30  32
ATOM     32  C   UNL A   1      46.881  27.632  25.608  1.00  0.00     0.060 A 
ATOM     33  C   UNL A   1      47.767  28.357  26.418  1.00  0.00     0.016 A 
ATOM     34  C   UNL A   1      45.502  27.796  25.757  1.00  0.00     0.016 A 
ATOM     35  C   UNL A   1      47.274  29.228  27.396  1.00  0.00     0.010 A 
ATOM     36  C   UNL A   1      45.012  28.651  26.750  1.00  0.00     0.010 A 
ATOM     37  C   UNL A   1      45.893  29.350  27.595  1.00  0.00    -0.014 A 
BRANCH  37  38
ATOM     38  C   UNL A   1      45.363  30.053  28.794  1.00  0.00     0.031 A 
ATOM     39  C   UNL A   1      45.239  29.278  30.080  1.00  0.00     0.074 A 
ATOM     40  C   UNL A   1      44.987  31.344  28.750  1.00  0.00     0.049 A 
ATOM     41  N   UNL A   1      44.726  29.645  31.225  1.00  0.00    -0.248 NA
ATOM     42  C   UNL A   1      45.759  27.902  30.064  1.00  0.00     0.031 C 
ATOM     43  C   UNL A   1      45.086  32.216  27.581  1.00  0.00     0.029 A 
ATOM     44  N   UNL A   1      44.426  32.143  29.719  1.00  0.00    -0.354 N 
ATOM     45  C   UNL A   1      44.848  28.540  32.063  1.00  0.00     0.074 A 
ATOM     46  C   UNL A   1      45.459  27.485  31.285  1.00  0.00     0.031 C 
ATOM     47  C   UNL A   1      44.582  33.424  27.895  1.00  0.00     0.029 A 
ATOM     48  C   UNL A   1      44.094  33.401  29.274  1.00  0.00     0.049 A 
ATOM     49  H   UNL A   1      44.277  31.842  30.643  1.00  0.00     0.167 HD
ATOM     50  C   UNL A   1      44.488  28.418  33.363  1.00  0.00     0.037 A 
ATOM     51  C   UNL A   1      43.443  34.406  29.896  1.00  0.00     0.037 A 
ATOM     52  C   UNL A   1      43.880  29.471  34.135  1.00  0.00     0.049 A 
ATOM     53  C   UNL A   1      42.993  34.228  31.327  1.00  0.00     0.074 A 
ATOM     54  C   UNL A   1      43.504  29.451  35.468  1.00  0.00     0.029 A 
ATOM     55  N   UNL A   1      43.547  30.725  33.644  1.00  0.00    -0.354 N 
ATOM     56  N   UNL A   1      43.142  33.190  32.116  1.00  0.00    -0.248 NA
ATOM     57  C   UNL A   1      42.291  35.359  31.952  1.00  0.00     0.031 C 
ATOM     58  C   UNL A   1      42.891  30.673  35.767  1.00  0.00     0.029 A 
ATOM     59  C   UNL A   1      42.944  31.477  34.639  1.00  0.00     0.049 A 
ATOM     60  H   UNL A   1      43.715  31.034  32.725  1.00  0.00     0.167 HD
ATOM     61  C   UNL A   1      42.578  33.554  33.337  1.00  0.00     0.074 A 
ATOM     62  C   UNL A   1      42.096  34.911  33.185  1.00  0.00     0.031 C 
ATOM     63  C   UNL A   1      42.473  32.831  34.480  1.00  0.00     0.037 A 
BRANCH  50  64
ATOM     64  C   UNL A   1      44.712  27.086  34.026  1.00  0.00     0.058 A 
ATOM     65  C   UNL A   1      43.663  26.178  34.239  1.00  0.00     0.135 A 
ATOM     66  C   UNL A   1      46.002  26.702  34.427  1.00  0.00     0.135 A 
ATOM     67  F   UNL A   1      42.407  26.501  33.893  1.00  0.00    -0.206 F 
ATOM     68  C   UNL A   1      43.880  24.948  34.852  1.00  0.00     0.059 A 
ATOM     69  C   UNL A   1      46.247  25.465  35.015  1.00  0.00     0.059 A 
ATOM     70  F   UNL A   1      47.041  27.534  34.249  1.00  0.00    -0.206 F 
ATOM     71  C   UNL A   1      45.177  24.600  35.236  1.00  0.00     0.060 A 
BRANCH  71  72
ATOM     72  S   UNL A   1      45.443  23.000  36.027  1.00  0.00     0.124 S 
ATOM     73  O   UNL A   1      44.705  22.109  35.137  1.00  0.00    -0.237 OA
ATOM     74  O   UNL A   1      46.896  22.871  35.989  1.00  0.00    -0.237 OA
ATOM     75  O   UNL A   1      44.866  23.176  37.356  1.00  0.00    -0.744 OA
ENDBRANCH  71  72
ENDBRANCH  50  64
BRANCH  51  76
ATOM     76  C   UNL A   1      43.158  35.673  29.167  1.00  0.00     0.058 A 
ATOM     77  C   UNL A   1      44.116  36.694  29.079  1.00  0.00     0.135 A 
ATOM     78  C   UNL A   1      41.915  35.891  28.550  1.00  0.00     0.135 A 
ATOM     79  F   UNL A   1      45.312  36.543  29.667  1.00  0.00    -0.206 F 
ATOM     80  C   UNL A   1      43.851  37.889  28.415  1.00  0.00     0.059 A 
ATOM     81  C   UNL A   1      41.637  37.064  27.856  1.00  0.00     0.059 A 
ATOM     82  F   UNL A   1      40.965  34.945  28.600  1.00  0.00    -0.206 F 
ATOM     83  C   UNL A   1      42.609  38.061  27.800  1.00  0.00     0.060 A 
BRANCH  83  84
ATOM     84  S   UNL A   1      42.299  39.591  26.891  1.00  0.00     0.124 S 
ATOM     85  O   UNL A   1      41.121  39.234  26.108  1.00  0.00    -0.237 OA
ATOM     86  O   UNL A   1      42.081  40.548  27.971  1.00  0.00    -0.237 OA
ATOM     87  O   UNL A   1      43.529  39.784  26.129  1.00  0.00    -0.744 OA
ENDBRANCH  83  84
ENDBRANCH  51  76
BRANCH  63  88
ATOM     88  C   UNL A   1      41.849  33.499  35.678  1.00  0.00     0.058 A 
ATOM     89  C   UNL A   1      42.570  34.382  36.497  1.00  0.00     0.135 A 
ATOM     90  C   UNL A   1      40.489  33.297  35.974  1.00  0.00     0.135 A 
ATOM     91  F   UNL A   1      43.871  34.609  36.264  1.00  0.00    -0.206 F 
ATOM     92  C   UNL A   1      41.972  35.023  37.579  1.00  0.00     0.059 A 
ATOM     93  C   UNL A   1      39.865  33.951  37.032  1.00  0.00     0.059 A 
ATOM     94  F   UNL A   1      39.748  32.473  35.217  1.00  0.00    -0.206 F 
ATOM     95  C   UNL A   1      40.617  34.803  37.837  1.00  0.00     0.060 A 
BRANCH  95  96
ATOM     96  S   UNL A   1      39.848  35.666  39.223  1.00  0.00     0.124 S 
ATOM     97  O   UNL A   1      40.891  35.581  40.240  1.00  0.00    -0.237 OA
ATOM     98  O   UNL A   1      39.609  36.995  38.669  1.00  0.00    -0.237 OA
ATOM     99  O   UNL A   1      38.646  34.880  39.490  1.00  0.00    -0.744 OA
ENDBRANCH  95  96
ENDBRANCH  63  88
ENDBRANCH  37  38
ENDBRANCH  30  32
ENDBRANCH  29  30
ENDBRANCH  28  29
ENDBRANCH  27  28
ENDBRANCH  26  27
ENDBRANCH  25  26
ENDBRANCH   1  25
TORSDOF 24
ENDMDL
MODEL 2
REMARK VINA RESULT:      -7.4      6.056     13.261
REMARK SMILES CC(C)COc1cccc(N2C[C@@H](C(=O)OCCOCCOCCOC(=O)c3ccc(-c4c5nc(c(-c6c(F)cc(S(=O)(=O)[O-])cc6F)c6ccc([nH]6)c(-c6c(F)cc(S(=O)(=O)[O-])cc6F)c6nc(c(-c7c(F)cc(S(=O)(=O)[O-])cc7F)c7ccc4[nH]7)C=C6)C=C5)cc3)CC2=O)c1
REMARK SMILES IDX 20 1 19 2 18 3 17 4 16 5 14 6 15 7 13 8 11 9 12 10 95 11
REMARK SMILES IDX 94 12 96 13 10 14 6 15 7 16 97 17 8 18 9 19 5 20 4 21 2 22
REMARK SMILES IDX 1 23 3 24 21 25 22 26 23 27 24 28 25 29 26 30 27 31 28 32
REMARK SMILES IDX 29 33 93 34 30 35 92 36 31 37 32 38 33 39 86 40 34 41 91 42
REMARK SMILES IDX 85 43 87 44 35 45 90 46 84 47 83 48 36 50 70 51 49 52 69 53
REMARK SMILES IDX 50 54 53 55 68 56 88 57 51 58 52 59 67 61 89 62 54 63 37 64
REMARK SMILES IDX 38 65 47 66 39 67 40 68 46 69 48 70 41 71 42 72 43 73 44 74
REMARK SMILES IDX 45 75 71 76 72 77 81 78 73 79 74 80 80 81 82 82 75 83 76 84
REMARK SMILES IDX 77 85 78 86 79 87 55 88 56 89 65 90 57 91 58 92 64 93 66 94
REMARK SMILES IDX 59 95 60 96 61 97 62 98 63 99
REMARK H PARENT 87 49 53 60
REMARK Flexibility Score: inf
ROOT
ATOM      1  C   UNL A   1      45.383  43.941  27.039  1.00  0.00     0.188 C 
ENDROOT
BRANCH   1   2
ATOM      2  O   UNL A   1      45.573  43.813  25.633  1.00  0.00    -0.376 OA
BRANCH   2   3
ATOM      3  C   UNL A   1      45.174  44.870  24.771  1.00  0.00     0.202 C 
BRANCH   3   4
ATOM      4  C   UNL A   1      44.029  44.603  23.784  1.00  0.00     0.261 C 
BRANCH   4   5
ATOM      5  O   UNL A   1      44.460  44.292  22.444  1.00  0.00    -0.463 OA
BRANCH   5   6
ATOM      6  C   UNL A   1      44.352  42.996  22.064  1.00  0.00     0.311 C 
ATOM      7  O   UNL A   1      44.903  42.060  22.633  1.00  0.00    -0.252 OA
BRANCH   6   8
ATOM      8  C   UNL A   1      43.426  42.773  20.888  1.00  0.00     0.128 C 
ATOM      9  N   UNL A   1      42.649  43.974  19.039  1.00  0.00    -0.311 N 
ATOM     10  C   UNL A   1      43.847  43.741  19.791  1.00  0.00     0.141 C 
ATOM     11  C   UNL A   1      41.507  43.602  19.742  1.00  0.00     0.227 C 
ATOM     12  C   UNL A   1      41.936  43.043  21.059  1.00  0.00     0.117 C 
ATOM     13  O   UNL A   1      40.338  43.732  19.411  1.00  0.00    -0.274 OA
BRANCH   9  14
ATOM     14  C   UNL A   1      42.599  44.938  18.023  1.00  0.00     0.047 A 
ATOM     15  C   UNL A   1      43.243  47.185  17.380  1.00  0.00     0.121 A 
ATOM     16  C   UNL A   1      42.298  47.133  16.357  1.00  0.00     0.046 A 
ATOM     17  C   UNL A   1      43.413  46.061  18.162  1.00  0.00     0.072 A 
ATOM     18  C   UNL A   1      41.552  45.961  16.132  1.00  0.00     0.006 A 
ATOM     19  C   UNL A   1      41.697  44.854  16.973  1.00  0.00     0.026 A 
BRANCH  15  20
ATOM     20  O   UNL A   1      43.862  48.377  17.640  1.00  0.00    -0.493 OA
BRANCH  20  21
ATOM     21  C   UNL A   1      45.210  48.341  18.140  1.00  0.00     0.232 C 
BRANCH  21  22
ATOM     22  C   UNL A   1      45.412  48.975  19.543  1.00  0.00     0.020 C 
ATOM     23  C   UNL A   1      44.243  49.836  20.033  1.00  0.00     0.011 C 
ATOM     24  C   UNL A   1      45.616  47.864  20.580  1.00  0.00     0.011 C 
ENDBRANCH  21  22
ENDBRANCH  20  21
ENDBRANCH  15  20
ENDBRANCH   9  14
ENDBRANCH   6   8
ENDBRANCH   5   6
ENDBRANCH   4   5
ENDBRANCH   3   4
ENDBRANCH   2   3
ENDBRANCH   1   2
BRANCH   1  25
ATOM     25  C   UNL A   1      45.839  42.809  27.978  1.00  0.00     0.188 C 
BRANCH  25  26
ATOM     26  O   UNL A   1      45.067  41.631  27.897  1.00  0.00    -0.376 OA
BRANCH  26  27
ATOM     27  C   UNL A   1      45.743  40.459  27.482  1.00  0.00     0.202 C 
BRANCH  27  28
ATOM     28  C   UNL A   1      45.066  39.661  26.358  1.00  0.00     0.261 C 
BRANCH  28  29
ATOM     29  O   UNL A   1      44.614  38.339  26.701  1.00  0.00    -0.460 OA
BRANCH  29  30
ATOM     30  C   UNL A   1      43.457  38.241  27.398  1.00  0.00     0.338 C 
ATOM     31  O   UNL A   1      42.519  39.011  27.357  1.00  0.00    -0.246 OA
BRANCH  30  32
ATOM     32  C   UNL A   1      43.439  36.912  28.060  1.00  0.00     0.060 A 
ATOM     33  C   UNL A   1      44.149  36.732  29.256  1.00  0.00     0.016 A 
ATOM     34  C   UNL A   1      42.718  35.852  27.506  1.00  0.00     0.016 A 
ATOM     35  C   UNL A   1      44.161  35.482  29.885  1.00  0.00     0.010 A 
ATOM     36  C   UNL A   1      42.749  34.598  28.126  1.00  0.00     0.010 A 
ATOM     37  C   UNL A   1      43.493  34.397  29.303  1.00  0.00    -0.014 A 
BRANCH  37  38
ATOM     38  C   UNL A   1      43.718  33.016  29.806  1.00  0.00     0.031 A 
ATOM     39  C   UNL A   1      42.946  32.563  31.018  1.00  0.00     0.074 A 
ATOM     40  C   UNL A   1      44.592  32.180  29.217  1.00  0.00     0.049 A 
ATOM     41  N   UNL A   1      43.035  31.445  31.691  1.00  0.00    -0.248 NA
ATOM     42  C   UNL A   1      41.946  33.505  31.544  1.00  0.00     0.031 C 
ATOM     43  C   UNL A   1      45.376  32.480  28.021  1.00  0.00     0.029 A 
ATOM     44  N   UNL A   1      44.979  30.906  29.561  1.00  0.00    -0.354 N 
ATOM     45  C   UNL A   1      42.113  31.553  32.727  1.00  0.00     0.074 A 
ATOM     46  C   UNL A   1      41.496  32.856  32.608  1.00  0.00     0.031 C 
ATOM     47  C   UNL A   1      46.167  31.427  27.742  1.00  0.00     0.029 A 
ATOM     48  C   UNL A   1      45.972  30.394  28.760  1.00  0.00     0.049 A 
ATOM     49  H   UNL A   1      44.582  30.408  30.312  1.00  0.00     0.167 HD
ATOM     50  C   UNL A   1      41.805  30.649  33.687  1.00  0.00     0.037 A 
ATOM     51  C   UNL A   1      46.663  29.239  28.853  1.00  0.00     0.037 A 
ATOM     52  C   UNL A   1      42.421  29.353  33.803  1.00  0.00     0.049 A 
ATOM     53  C   UNL A   1      46.349  28.271  29.968  1.00  0.00     0.074 A 
ATOM     54  C   UNL A   1      42.156  28.355  34.726  1.00  0.00     0.029 A 
ATOM     55  N   UNL A   1      43.432  28.877  32.979  1.00  0.00    -0.354 N 
ATOM     56  N   UNL A   1      45.454  28.373  30.923  1.00  0.00    -0.248 NA
ATOM     57  C   UNL A   1      47.135  27.029  30.016  1.00  0.00     0.031 C 
ATOM     58  C   UNL A   1      43.046  27.301  34.497  1.00  0.00     0.029 A 
ATOM     59  C   UNL A   1      43.821  27.613  33.392  1.00  0.00     0.049 A 
ATOM     60  H   UNL A   1      43.814  29.366  32.216  1.00  0.00     0.167 HD
ATOM     61  C   UNL A   1      45.551  27.199  31.665  1.00  0.00     0.074 A 
ATOM     62  C   UNL A   1      46.583  26.396  31.043  1.00  0.00     0.031 C 
ATOM     63  C   UNL A   1      44.846  26.818  32.761  1.00  0.00     0.037 A 
BRANCH  50  64
ATOM     64  C   UNL A   1      40.776  31.044  34.711  1.00  0.00     0.058 A 
ATOM     65  C   UNL A   1      39.469  30.533  34.686  1.00  0.00     0.135 A 
ATOM     66  C   UNL A   1      41.114  31.926  35.751  1.00  0.00     0.135 A 
ATOM     67  F   UNL A   1      39.086  29.701  33.704  1.00  0.00    -0.206 F 
ATOM     68  C   UNL A   1      38.525  30.904  35.639  1.00  0.00     0.059 A 
ATOM     69  C   UNL A   1      40.196  32.287  36.731  1.00  0.00     0.059 A 
ATOM     70  F   UNL A   1      42.350  32.447  35.821  1.00  0.00    -0.206 F 
ATOM     71  C   UNL A   1      38.899  31.781  36.659  1.00  0.00     0.060 A 
BRANCH  71  72
ATOM     72  S   UNL A   1      37.664  32.250  37.888  1.00  0.00     0.124 S 
ATOM     73  O   UNL A   1      37.069  30.957  38.211  1.00  0.00    -0.237 OA
ATOM     74  O   UNL A   1      38.481  32.850  38.938  1.00  0.00    -0.237 OA
ATOM     75  O   UNL A   1      36.797  33.175  37.166  1.00  0.00    -0.744 OA
ENDBRANCH  71  72
ENDBRANCH  50  64
BRANCH  51  76
ATOM     76  C   UNL A   1      47.741  28.935  27.871  1.00  0.00     0.058 A 
ATOM     77  C   UNL A   1      47.486  28.171  26.722  1.00  0.00     0.135 A 
ATOM     78  C   UNL A   1      49.053  29.398  28.066  1.00  0.00     0.135 A 
ATOM     79  F   UNL A   1      46.254  27.689  26.499  1.00  0.00    -0.206 F 
ATOM     80  C   UNL A   1      48.491  27.867  25.808  1.00  0.00     0.059 A 
ATOM     81  C   UNL A   1      50.068  29.131  27.154  1.00  0.00     0.059 A 
ATOM     82  F   UNL A   1      49.351  30.137  29.146  1.00  0.00    -0.206 F 
ATOM     83  C   UNL A   1      49.779  28.358  26.030  1.00  0.00     0.060 A 
BRANCH  83  84
ATOM     84  S   UNL A   1      51.061  28.007  24.807  1.00  0.00     0.124 S 
ATOM     85  O   UNL A   1      51.293  29.329  24.235  1.00  0.00    -0.237 OA
ATOM     86  O   UNL A   1      52.136  27.474  25.638  1.00  0.00    -0.237 OA
ATOM     87  O   UNL A   1      50.424  27.039  23.920  1.00  0.00    -0.744 OA
ENDBRANCH  83  84
ENDBRANCH  51  76
BRANCH  63  88
ATOM     88  C   UNL A   1      45.131  25.457  33.342  1.00  0.00     0.058 A 
ATOM     89  C   UNL A   1      44.629  24.281  32.763  1.00  0.00     0.135 A 
ATOM     90  C   UNL A   1      45.972  25.327  34.461  1.00  0.00     0.135 A 
ATOM     91  F   UNL A   1      43.818  24.347  31.696  1.00  0.00    -0.206 F 
ATOM     92  C   UNL A   1      44.930  23.027  33.286  1.00  0.00     0.059 A 
ATOM     93  C   UNL A   1      46.311  24.082  34.981  1.00  0.00     0.059 A 
ATOM     94  F   UNL A   1      46.492  26.417  35.048  1.00  0.00    -0.206 F 
ATOM     95  C   UNL A   1      45.775  22.937  34.395  1.00  0.00     0.060 A 
BRANCH  95  96
ATOM     96  S   UNL A   1      46.184  21.302  35.042  1.00  0.00     0.124 S 
ATOM     97  O   UNL A   1      44.870  20.670  35.099  1.00  0.00    -0.237 OA
ATOM     98  O   UNL A   1      47.095  20.783  34.026  1.00  0.00    -0.237 OA
ATOM     99  O   UNL A   1      46.797  21.590  36.335  1.00  0.00    -0.744 OA
ENDBRANCH  95  96
ENDBRANCH  63  88
ENDBRANCH  37  38
ENDBRANCH  30  32
ENDBRANCH  29  30
ENDBRANCH  28  29
ENDBRANCH  27  28
ENDBRANCH  26  27
ENDBRANCH  25  26
ENDBRANCH   1  25
TORSDOF 24
ENDMDL
MODEL 3
REMARK VINA RESULT:      -7.3      4.039     11.565
REMARK SMILES CC(C)COc1cccc(N2C[C@@H](C(=O)OCCOCCOCCOC(=O)c3ccc(-c4c5nc(c(-c6c(F)cc(S(=O)(=O)[O-])cc6F)c6ccc([nH]6)c(-c6c(F)cc(S(=O)(=O)[O-])cc6F)c6nc(c(-c7c(F)cc(S(=O)(=O)[O-])cc7F)c7ccc4[nH]7)C=C6)C=C5)cc3)CC2=O)c1
REMARK SMILES IDX 20 1 19 2 18 3 17 4 16 5 14 6 15 7 13 8 11 9 12 10 95 11
REMARK SMILES IDX 94 12 96 13 10 14 6 15 7 16 97 17 8 18 9 19 5 20 4 21 2 22
REMARK SMILES IDX 1 23 3 24 21 25 22 26 23 27 24 28 25 29 26 30 27 31 28 32
REMARK SMILES IDX 29 33 93 34 30 35 92 36 31 37 32 38 33 39 86 40 34 41 91 42
REMARK SMILES IDX 85 43 87 44 35 45 90 46 84 47 83 48 36 50 70 51 49 52 69 53
REMARK SMILES IDX 50 54 53 55 68 56 88 57 51 58 52 59 67 61 89 62 54 63 37 64
REMARK SMILES IDX 38 65 47 66 39 67 40 68 46 69 48 70 41 71 42 72 43 73 44 74
REMARK SMILES IDX 45 75 71 76 72 77 81 78 73 79 74 80 80 81 82 82 75 83 76 84
REMARK SMILES IDX 77 85 78 86 79 87 55 88 56 89 65 90 57 91 58 92 64 93 66 94
REMARK SMILES IDX 59 95 60 96 61 97 62 98 63 99
REMARK H PARENT 87 49 53 60
REMARK Flexibility Score: inf
ROOT
ATOM      1  C   UNL A   1      53.388  24.592  37.234  1.00  0.00     0.188 C 
ENDROOT
BRANCH   1   2
ATOM      2  O   UNL A   1      53.340  23.271  36.703  1.00  0.00    -0.376 OA
BRANCH   2   3
ATOM      3  C   UNL A   1      54.089  22.955  35.538  1.00  0.00     0.202 C 
BRANCH   3   4
ATOM      4  C   UNL A   1      53.319  22.660  34.243  1.00  0.00     0.261 C 
BRANCH   4   5
ATOM      5  O   UNL A   1      52.974  21.273  34.058  1.00  0.00    -0.463 OA
BRANCH   5   6
ATOM      6  C   UNL A   1      51.828  21.024  33.380  1.00  0.00     0.311 C 
ATOM      7  O   UNL A   1      51.634  21.339  32.211  1.00  0.00    -0.252 OA
BRANCH   6   8
ATOM      8  C   UNL A   1      50.796  20.253  34.173  1.00  0.00     0.128 C 
ATOM      9  N   UNL A   1      49.018  20.716  35.619  1.00  0.00    -0.311 N 
ATOM     10  C   UNL A   1      49.614  21.185  34.403  1.00  0.00     0.141 C 
ATOM     11  C   UNL A   1      49.881  19.901  36.346  1.00  0.00     0.227 C 
ATOM     12  C   UNL A   1      51.152  19.766  35.572  1.00  0.00     0.117 C 
ATOM     13  O   UNL A   1      49.704  19.401  37.447  1.00  0.00    -0.274 OA
BRANCH   9  14
ATOM     14  C   UNL A   1      47.979  21.420  36.244  1.00  0.00     0.047 A 
ATOM     15  C   UNL A   1      45.721  22.268  35.996  1.00  0.00     0.121 A 
ATOM     16  C   UNL A   1      45.948  23.107  37.086  1.00  0.00     0.046 A 
ATOM     17  C   UNL A   1      46.728  21.399  35.629  1.00  0.00     0.072 A 
ATOM     18  C   UNL A   1      47.166  23.053  37.789  1.00  0.00     0.006 A 
ATOM     19  C   UNL A   1      48.194  22.208  37.364  1.00  0.00     0.026 A 
BRANCH  15  20
ATOM     20  O   UNL A   1      44.574  22.432  35.271  1.00  0.00    -0.493 OA
BRANCH  20  21
ATOM     21  C   UNL A   1      44.700  22.807  33.888  1.00  0.00     0.232 C 
BRANCH  21  22
ATOM     22  C   UNL A   1      44.445  24.308  33.582  1.00  0.00     0.020 C 
ATOM     23  C   UNL A   1      43.382  24.971  34.464  1.00  0.00     0.011 C 
ATOM     24  C   UNL A   1      45.745  25.096  33.779  1.00  0.00     0.011 C 
ENDBRANCH  21  22
ENDBRANCH  20  21
ENDBRANCH  15  20
ENDBRANCH   9  14
ENDBRANCH   6   8
ENDBRANCH   5   6
ENDBRANCH   4   5
ENDBRANCH   3   4
ENDBRANCH   2   3
ENDBRANCH   1   2
BRANCH   1  25
ATOM     25  C   UNL A   1      52.371  25.646  36.756  1.00  0.00     0.188 C 
BRANCH  25  26
ATOM     26  O   UNL A   1      51.045  25.176  36.649  1.00  0.00    -0.376 OA
BRANCH  26  27
ATOM     27  C   UNL A   1      50.272  25.186  37.835  1.00  0.00     0.202 C 
BRANCH  27  28
ATOM     28  C   UNL A   1      49.577  26.516  38.165  1.00  0.00     0.261 C 
BRANCH  28  29
ATOM     29  O   UNL A   1      48.159  26.448  38.403  1.00  0.00    -0.460 OA
BRANCH  29  30
ATOM     30  C   UNL A   1      47.557  27.565  38.876  1.00  0.00     0.338 C 
ATOM     31  O   UNL A   1      47.852  28.177  39.882  1.00  0.00    -0.246 OA
BRANCH  30  32
ATOM     32  C   UNL A   1      46.611  28.044  37.836  1.00  0.00     0.060 A 
ATOM     33  C   UNL A   1      46.826  29.294  37.237  1.00  0.00     0.016 A 
ATOM     34  C   UNL A   1      45.521  27.260  37.450  1.00  0.00     0.016 A 
ATOM     35  C   UNL A   1      45.935  29.772  36.270  1.00  0.00     0.010 A 
ATOM     36  C   UNL A   1      44.621  27.750  36.498  1.00  0.00     0.010 A 
ATOM     37  C   UNL A   1      44.805  29.020  35.923  1.00  0.00    -0.014 A 
BRANCH  37  38
ATOM     38  C   UNL A   1      43.718  29.625  35.109  1.00  0.00     0.031 A 
ATOM     39  C   UNL A   1      42.779  30.595  35.777  1.00  0.00     0.074 A 
ATOM     40  C   UNL A   1      43.552  29.319  33.809  1.00  0.00     0.049 A 
ATOM     41  N   UNL A   1      41.710  31.179  35.303  1.00  0.00    -0.248 NA
ATOM     42  C   UNL A   1      43.088  30.944  37.173  1.00  0.00     0.031 C 
ATOM     43  C   UNL A   1      44.407  28.424  33.034  1.00  0.00     0.029 A 
ATOM     44  N   UNL A   1      42.586  29.719  32.915  1.00  0.00    -0.354 N 
ATOM     45  C   UNL A   1      41.209  31.954  36.345  1.00  0.00     0.074 A 
ATOM     46  C   UNL A   1      42.078  31.744  37.482  1.00  0.00     0.031 C 
ATOM     47  C   UNL A   1      43.917  28.326  31.784  1.00  0.00     0.029 A 
ATOM     48  C   UNL A   1      42.694  29.122  31.681  1.00  0.00     0.049 A 
ATOM     49  H   UNL A   1      41.884  30.371  33.138  1.00  0.00     0.167 HD
ATOM     50  C   UNL A   1      40.128  32.769  36.352  1.00  0.00     0.037 A 
ATOM     51  C   UNL A   1      41.885  29.187  30.603  1.00  0.00     0.037 A 
ATOM     52  C   UNL A   1      39.265  32.977  35.218  1.00  0.00     0.049 A 
ATOM     53  C   UNL A   1      40.649  30.053  30.652  1.00  0.00     0.074 A 
ATOM     54  C   UNL A   1      38.160  33.805  35.120  1.00  0.00     0.029 A 
ATOM     55  N   UNL A   1      39.401  32.344  33.991  1.00  0.00    -0.354 N 
ATOM     56  N   UNL A   1      40.204  30.804  31.633  1.00  0.00    -0.248 NA
ATOM     57  C   UNL A   1      39.807  30.084  29.447  1.00  0.00     0.031 C 
ATOM     58  C   UNL A   1      37.594  33.629  33.853  1.00  0.00     0.029 A 
ATOM     59  C   UNL A   1      38.383  32.741  33.139  1.00  0.00     0.049 A 
ATOM     60  H   UNL A   1      40.115  31.707  33.760  1.00  0.00     0.167 HD
ATOM     61  C   UNL A   1      39.049  31.417  31.153  1.00  0.00     0.074 A 
ATOM     62  C   UNL A   1      38.870  30.958  29.791  1.00  0.00     0.031 C 
ATOM     63  C   UNL A   1      38.216  32.284  31.782  1.00  0.00     0.037 A 
BRANCH  50  64
ATOM     64  C   UNL A   1      39.797  33.475  37.639  1.00  0.00     0.058 A 
ATOM     65  C   UNL A   1      40.473  34.636  38.045  1.00  0.00     0.135 A 
ATOM     66  C   UNL A   1      38.766  32.996  38.464  1.00  0.00     0.135 A 
ATOM     67  F   UNL A   1      41.480  35.126  37.304  1.00  0.00    -0.206 F 
ATOM     68  C   UNL A   1      40.158  35.282  39.236  1.00  0.00     0.059 A 
ATOM     69  C   UNL A   1      38.414  33.643  39.644  1.00  0.00     0.059 A 
ATOM     70  F   UNL A   1      38.087  31.888  38.125  1.00  0.00    -0.206 F 
ATOM     71  C   UNL A   1      39.125  34.777  40.029  1.00  0.00     0.060 A 
BRANCH  71  72
ATOM     72  S   UNL A   1      38.727  35.628  41.570  1.00  0.00     0.124 S 
ATOM     73  O   UNL A   1      37.367  35.161  41.818  1.00  0.00    -0.237 OA
ATOM     74  O   UNL A   1      39.747  35.117  42.481  1.00  0.00    -0.237 OA
ATOM     75  O   UNL A   1      38.851  37.040  41.223  1.00  0.00    -0.744 OA
ENDBRANCH  71  72
ENDBRANCH  50  64
BRANCH  51  76
ATOM     76  C   UNL A   1      42.202  28.393  29.384  1.00  0.00     0.058 A 
ATOM     77  C   UNL A   1      43.214  28.793  28.498  1.00  0.00     0.135 A 
ATOM     78  C   UNL A   1      41.493  27.221  29.076  1.00  0.00     0.135 A 
ATOM     79  F   UNL A   1      43.909  29.915  28.737  1.00  0.00    -0.206 F 
ATOM     80  C   UNL A   1      43.506  28.066  27.347  1.00  0.00     0.059 A 
ATOM     81  C   UNL A   1      41.784  26.463  27.946  1.00  0.00     0.059 A 
ATOM     82  F   UNL A   1      40.517  26.792  29.892  1.00  0.00    -0.206 F 
ATOM     83  C   UNL A   1      42.789  26.898  27.083  1.00  0.00     0.060 A 
BRANCH  83  84
ATOM     84  S   UNL A   1      43.216  25.932  25.618  1.00  0.00     0.124 S 
ATOM     85  O   UNL A   1      43.712  24.697  26.213  1.00  0.00    -0.237 OA
ATOM     86  O   UNL A   1      41.932  25.839  24.930  1.00  0.00    -0.237 OA
ATOM     87  O   UNL A   1      44.218  26.759  24.951  1.00  0.00    -0.744 OA
ENDBRANCH  83  84
ENDBRANCH  51  76
BRANCH  63  88
ATOM     88  C   UNL A   1      37.051  32.832  30.998  1.00  0.00     0.058 A 
ATOM     89  C   UNL A   1      35.744  32.354  31.177  1.00  0.00     0.135 A 
ATOM     90  C   UNL A   1      37.240  33.895  30.098  1.00  0.00     0.135 A 
ATOM     91  F   UNL A   1      35.505  31.338  32.020  1.00  0.00    -0.206 F 
ATOM     92  C   UNL A   1      34.669  32.894  30.475  1.00  0.00     0.059 A 
ATOM     93  C   UNL A   1      36.177  34.470  29.409  1.00  0.00     0.059 A 
ATOM     94  F   UNL A   1      38.468  34.400  29.896  1.00  0.00    -0.206 F 
ATOM     95  C   UNL A   1      34.895  33.954  29.594  1.00  0.00     0.060 A 
BRANCH  95  96
ATOM     96  S   UNL A   1      33.488  34.666  28.716  1.00  0.00     0.124 S 
ATOM     97  O   UNL A   1      32.595  35.007  29.818  1.00  0.00    -0.237 OA
ATOM     98  O   UNL A   1      34.095  35.797  28.019  1.00  0.00    -0.237 OA
ATOM     99  O   UNL A   1      33.036  33.577  27.855  1.00  0.00    -0.744 OA
ENDBRANCH  95  96
ENDBRANCH  63  88
ENDBRANCH  37  38
ENDBRANCH  30  32
ENDBRANCH  29  30
ENDBRANCH  28  29
ENDBRANCH  27  28
ENDBRANCH  26  27
ENDBRANCH  25  26
ENDBRANCH   1  25
TORSDOF 24
ENDMDL
