MODEL 1
REMARK VINA RESULT:     -11.7      0.000      0.000
REMARK SMILES O=C(OCCOCCOCCOC(=O)c1cn(C2CN(C(=O)Nc3ccsc3)C2)nn1)c1ccc(-c2c3nc(c(-c4c(F)cc(S(=O)(=O)[O-])cc4F)c4ccc([nH]4)c(-c4c(F)cc(S(=O)(=O)[O-])cc4F)c4nc(c(-c5c(F)cc(S(=O)(=O)[O-])cc5F)c5ccc2[nH]5)C=C4)C=C3)cc1
REMARK SMILES IDX 7 1 6 2 5 3 4 4 3 5 2 6 1 7 32 8 33 9 97 10 34 11 96 12
REMARK SMILES IDX 35 13 36 14 37 15 90 16 38 17 95 18 89 19 91 20 39 21 94 22
REMARK SMILES IDX 88 23 87 24 40 26 74 27 53 28 73 29 54 30 57 31 72 32 92 33
REMARK SMILES IDX 55 34 56 35 71 37 93 38 58 39 41 40 42 41 51 42 43 43 44 44
REMARK SMILES IDX 50 45 52 46 45 47 46 48 47 49 48 50 49 51 75 52 76 53 85 54
REMARK SMILES IDX 77 55 78 56 84 57 86 58 79 59 80 60 81 61 82 62 83 63 59 64
REMARK SMILES IDX 60 65 69 66 61 67 62 68 68 69 70 70 63 71 64 72 65 73 66 74
REMARK SMILES IDX 67 75 8 76 9 77 10 78 11 79 12 80 13 81 14 82 15 83 16 84
REMARK SMILES IDX 31 85 17 86 30 87 18 88 19 89 29 90 20 91 21 92 22 93 23 94
REMARK SMILES IDX 24 96 25 97 28 98 26 99 27 100
REMARK H PARENT 91 25 57 36 23 95
REMARK Flexibility Score: inf
ROOT
ATOM      1  C   UNL A   1      35.935  22.836  25.869  1.00  0.00     0.188 C 
ENDROOT
BRANCH   1   2
ATOM      2  O   UNL A   1      36.765  22.893  24.719  1.00  0.00    -0.376 OA
BRANCH   2   3
ATOM      3  C   UNL A   1      37.657  21.800  24.576  1.00  0.00     0.202 C 
BRANCH   3   4
ATOM      4  C   UNL A   1      38.315  21.415  25.902  1.00  0.00     0.261 C 
BRANCH   4   5
ATOM      5  O   UNL A   1      39.649  21.925  26.116  1.00  0.00    -0.460 OA
BRANCH   5   6
ATOM      6  C   UNL A   1      40.298  22.373  27.207  1.00  0.00     0.338 C 
ATOM      7  O   UNL A   1      40.579  21.569  28.094  1.00  0.00    -0.246 OA
BRANCH   6   8
ATOM      8  C   UNL A   1      40.601  23.810  27.455  1.00  0.00     0.060 A 
ATOM      9  C   UNL A   1      41.816  24.306  27.927  1.00  0.00     0.016 A 
ATOM     10  C   UNL A   1      39.528  24.706  27.264  1.00  0.00     0.016 A 
ATOM     11  C   UNL A   1      41.940  25.649  28.264  1.00  0.00     0.010 A 
ATOM     12  C   UNL A   1      39.643  26.046  27.617  1.00  0.00     0.010 A 
ATOM     13  C   UNL A   1      40.834  26.497  28.176  1.00  0.00    -0.014 A 
BRANCH  13  14
ATOM     14  C   UNL A   1      40.954  27.802  28.818  1.00  0.00     0.031 A 
ATOM     15  C   UNL A   1      42.083  28.679  28.406  1.00  0.00     0.074 A 
ATOM     16  C   UNL A   1      40.072  28.202  29.756  1.00  0.00     0.049 A 
ATOM     17  N   UNL A   1      43.073  29.114  29.120  1.00  0.00    -0.248 NA
ATOM     18  C   UNL A   1      42.139  29.082  26.995  1.00  0.00     0.031 C 
ATOM     19  C   UNL A   1      38.777  27.604  30.097  1.00  0.00     0.029 A 
ATOM     20  N   UNL A   1      40.126  29.302  30.556  1.00  0.00    -0.354 N 
ATOM     21  C   UNL A   1      43.783  29.993  28.303  1.00  0.00     0.074 A 
ATOM     22  C   UNL A   1      43.226  29.854  26.980  1.00  0.00     0.031 C 
ATOM     23  C   UNL A   1      38.083  28.463  30.875  1.00  0.00     0.029 A 
ATOM     24  C   UNL A   1      38.934  29.593  31.199  1.00  0.00     0.049 A 
ATOM     25  H   UNL A   1      40.941  29.843  30.669  1.00  0.00     0.167 HD
ATOM     26  C   UNL A   1      44.677  30.901  28.786  1.00  0.00     0.037 A 
ATOM     27  C   UNL A   1      38.640  30.723  31.884  1.00  0.00     0.037 A 
ATOM     28  C   UNL A   1      45.125  30.576  30.112  1.00  0.00     0.049 A 
ATOM     29  C   UNL A   1      39.923  31.349  32.292  1.00  0.00     0.074 A 
ATOM     30  C   UNL A   1      45.816  29.517  30.670  1.00  0.00     0.029 A 
ATOM     31  N   UNL A   1      44.598  31.267  31.176  1.00  0.00    -0.354 N 
ATOM     32  N   UNL A   1      40.751  30.835  33.160  1.00  0.00    -0.248 NA
ATOM     33  C   UNL A   1      40.489  32.374  31.428  1.00  0.00     0.031 C 
ATOM     34  C   UNL A   1      45.263  29.354  31.974  1.00  0.00     0.029 A 
ATOM     35  C   UNL A   1      44.289  30.340  32.141  1.00  0.00     0.049 A 
ATOM     36  H   UNL A   1      44.467  32.241  31.234  1.00  0.00     0.167 HD
ATOM     37  C   UNL A   1      42.015  31.168  32.695  1.00  0.00     0.074 A 
ATOM     38  C   UNL A   1      41.786  32.202  31.691  1.00  0.00     0.031 C 
ATOM     39  C   UNL A   1      43.105  30.393  32.973  1.00  0.00     0.037 A 
BRANCH  26  40
ATOM     40  C   UNL A   1      44.959  32.230  28.133  1.00  0.00     0.058 A 
ATOM     41  C   UNL A   1      46.231  32.518  27.600  1.00  0.00     0.135 A 
ATOM     42  C   UNL A   1      44.074  33.326  28.230  1.00  0.00     0.135 A 
ATOM     43  F   UNL A   1      47.161  31.556  27.493  1.00  0.00    -0.206 F 
ATOM     44  C   UNL A   1      46.605  33.809  27.216  1.00  0.00     0.059 A 
ATOM     45  C   UNL A   1      44.405  34.609  27.808  1.00  0.00     0.059 A 
ATOM     46  F   UNL A   1      42.877  33.213  28.823  1.00  0.00    -0.206 F 
ATOM     47  C   UNL A   1      45.686  34.850  27.335  1.00  0.00     0.060 A 
BRANCH  47  48
ATOM     48  S   UNL A   1      46.190  36.533  26.932  1.00  0.00     0.124 S 
ATOM     49  O   UNL A   1      44.899  37.206  26.829  1.00  0.00    -0.237 OA
ATOM     50  O   UNL A   1      47.009  36.894  28.085  1.00  0.00    -0.237 OA
ATOM     51  O   UNL A   1      46.921  36.374  25.678  1.00  0.00    -0.744 OA
ENDBRANCH  47  48
ENDBRANCH  26  40
BRANCH  27  52
ATOM     52  C   UNL A   1      37.346  31.450  31.868  1.00  0.00     0.058 A 
ATOM     53  C   UNL A   1      36.684  31.791  33.058  1.00  0.00     0.135 A 
ATOM     54  C   UNL A   1      36.864  32.057  30.688  1.00  0.00     0.135 A 
ATOM     55  F   UNL A   1      37.099  31.285  34.229  1.00  0.00    -0.206 F 
ATOM     56  C   UNL A   1      35.629  32.710  33.082  1.00  0.00     0.059 A 
ATOM     57  C   UNL A   1      35.806  32.960  30.686  1.00  0.00     0.059 A 
ATOM     58  F   UNL A   1      37.471  31.862  29.509  1.00  0.00    -0.206 F 
ATOM     59  C   UNL A   1      35.209  33.302  31.891  1.00  0.00     0.060 A 
BRANCH  59  60
ATOM     60  S   UNL A   1      33.966  34.613  31.938  1.00  0.00     0.124 S 
ATOM     61  O   UNL A   1      33.053  34.126  32.965  1.00  0.00    -0.237 OA
ATOM     62  O   UNL A   1      34.764  35.780  32.295  1.00  0.00    -0.237 OA
ATOM     63  O   UNL A   1      33.429  34.621  30.579  1.00  0.00    -0.744 OA
ENDBRANCH  59  60
ENDBRANCH  27  52
BRANCH  39  64
ATOM     64  C   UNL A   1      42.968  29.326  34.031  1.00  0.00     0.058 A 
ATOM     65  C   UNL A   1      43.203  29.550  35.400  1.00  0.00     0.135 A 
ATOM     66  C   UNL A   1      42.428  28.081  33.673  1.00  0.00     0.135 A 
ATOM     67  F   UNL A   1      43.610  30.748  35.840  1.00  0.00    -0.206 F 
ATOM     68  C   UNL A   1      42.957  28.568  36.362  1.00  0.00     0.059 A 
ATOM     69  C   UNL A   1      42.143  27.098  34.620  1.00  0.00     0.059 A 
ATOM     70  F   UNL A   1      42.114  27.827  32.391  1.00  0.00    -0.206 F 
ATOM     71  C   UNL A   1      42.423  27.345  35.962  1.00  0.00     0.060 A 
BRANCH  71  72
ATOM     72  S   UNL A   1      42.009  26.118  37.223  1.00  0.00     0.124 S 
ATOM     73  O   UNL A   1      43.042  26.347  38.226  1.00  0.00    -0.237 OA
ATOM     74  O   UNL A   1      40.653  26.502  37.608  1.00  0.00    -0.237 OA
ATOM     75  O   UNL A   1      42.103  24.847  36.506  1.00  0.00    -0.744 OA
ENDBRANCH  71  72
ENDBRANCH  39  64
ENDBRANCH  13  14
ENDBRANCH   6   8
ENDBRANCH   5   6
ENDBRANCH   4   5
ENDBRANCH   3   4
ENDBRANCH   2   3
ENDBRANCH   1   2
BRANCH   1  76
ATOM     76  C   UNL A   1      35.047  21.577  25.971  1.00  0.00     0.188 C 
BRANCH  76  77
ATOM     77  O   UNL A   1      34.778  20.742  24.848  1.00  0.00    -0.376 OA
BRANCH  77  78
ATOM     78  C   UNL A   1      33.982  19.576  24.990  1.00  0.00     0.202 C 
BRANCH  78  79
ATOM     79  C   UNL A   1      32.550  19.627  24.447  1.00  0.00     0.261 C 
BRANCH  79  80
ATOM     80  O   UNL A   1      31.762  20.686  25.005  1.00  0.00    -0.458 OA
BRANCH  80  81
ATOM     81  C   UNL A   1      31.762  21.869  24.329  1.00  0.00     0.360 C 
ATOM     82  O   UNL A   1      31.871  21.999  23.119  1.00  0.00    -0.244 OA
BRANCH  81  83
ATOM     83  C   UNL A   1      31.608  22.989  25.234  1.00  0.00     0.190 A 
ATOM     84  C   UNL A   1      31.701  24.334  24.948  1.00  0.00     0.147 A 
ATOM     85  N   UNL A   1      31.321  22.834  26.568  1.00  0.00    -0.123 NA
ATOM     86  N   UNL A   1      31.452  24.943  26.147  1.00  0.00    -0.245 N 
ATOM     87  N   UNL A   1      31.253  24.035  27.119  1.00  0.00    -0.066 NA
BRANCH  86  88
ATOM     88  C   UNL A   1      31.227  26.332  26.396  1.00  0.00     0.148 C 
ATOM     89  C   UNL A   1      32.451  27.255  26.362  1.00  0.00     0.150 C 
ATOM     90  C   UNL A   1      30.775  27.042  25.102  1.00  0.00     0.150 C 
ATOM     91  N   UNL A   1      31.644  28.128  25.506  1.00  0.00    -0.320 N 
ATOM     92  C   UNL A   1      32.054  29.287  24.930  1.00  0.00     0.322 C 
ATOM     93  O   UNL A   1      33.142  29.790  25.225  1.00  0.00    -0.248 OA
ATOM     94  N   UNL A   1      31.352  29.845  23.910  1.00  0.00    -0.307 N 
ATOM     95  H   UNL A   1      31.887  30.432  23.328  1.00  0.00     0.171 HD
BRANCH  94  96
ATOM     96  C   UNL A   1      30.024  29.742  23.539  1.00  0.00     0.053 A 
ATOM     97  C   UNL A   1      29.300  28.575  23.157  1.00  0.00     0.038 A 
ATOM     98  C   UNL A   1      29.189  30.839  23.588  1.00  0.00     0.091 A 
ATOM     99  C   UNL A   1      28.005  28.854  22.773  1.00  0.00     0.067 A 
ATOM    100  S   UNL A   1      27.620  30.504  22.989  1.00  0.00    -0.150 S 
ENDBRANCH  94  96
ENDBRANCH  86  88
ENDBRANCH  81  83
ENDBRANCH  80  81
ENDBRANCH  79  80
ENDBRANCH  78  79
ENDBRANCH  77  78
ENDBRANCH  76  77
ENDBRANCH   1  76
TORSDOF 22
ENDMDL
MODEL 2
REMARK VINA RESULT:     -11.3      1.666      2.360
REMARK SMILES O=C(OCCOCCOCCOC(=O)c1cn(C2CN(C(=O)Nc3ccsc3)C2)nn1)c1ccc(-c2c3nc(c(-c4c(F)cc(S(=O)(=O)[O-])cc4F)c4ccc([nH]4)c(-c4c(F)cc(S(=O)(=O)[O-])cc4F)c4nc(c(-c5c(F)cc(S(=O)(=O)[O-])cc5F)c5ccc2[nH]5)C=C4)C=C3)cc1
REMARK SMILES IDX 7 1 6 2 5 3 4 4 3 5 2 6 1 7 32 8 33 9 97 10 34 11 96 12
REMARK SMILES IDX 35 13 36 14 37 15 90 16 38 17 95 18 89 19 91 20 39 21 94 22
REMARK SMILES IDX 88 23 87 24 40 26 74 27 53 28 73 29 54 30 57 31 72 32 92 33
REMARK SMILES IDX 55 34 56 35 71 37 93 38 58 39 41 40 42 41 51 42 43 43 44 44
REMARK SMILES IDX 50 45 52 46 45 47 46 48 47 49 48 50 49 51 75 52 76 53 85 54
REMARK SMILES IDX 77 55 78 56 84 57 86 58 79 59 80 60 81 61 82 62 83 63 59 64
REMARK SMILES IDX 60 65 69 66 61 67 62 68 68 69 70 70 63 71 64 72 65 73 66 74
REMARK SMILES IDX 67 75 8 76 9 77 10 78 11 79 12 80 13 81 14 82 15 83 16 84
REMARK SMILES IDX 31 85 17 86 30 87 18 88 19 89 29 90 20 91 21 92 22 93 23 94
REMARK SMILES IDX 24 96 25 97 28 98 26 99 27 100
REMARK H PARENT 91 25 57 36 23 95
REMARK Flexibility Score: inf
ROOT
ATOM      1  C   UNL A   1      35.299  21.685  26.138  1.00  0.00     0.188 C 
ENDROOT
BRANCH   1   2
ATOM      2  O   UNL A   1      35.690  22.455  25.011  1.00  0.00    -0.376 OA
BRANCH   2   3
ATOM      3  C   UNL A   1      37.033  22.263  24.597  1.00  0.00     0.202 C 
BRANCH   3   4
ATOM      4  C   UNL A   1      37.884  21.611  25.689  1.00  0.00     0.261 C 
BRANCH   4   5
ATOM      5  O   UNL A   1      39.225  22.127  25.835  1.00  0.00    -0.460 OA
BRANCH   5   6
ATOM      6  C   UNL A   1      39.985  22.420  26.907  1.00  0.00     0.338 C 
ATOM      7  O   UNL A   1      40.223  21.528  27.719  1.00  0.00    -0.246 OA
BRANCH   6   8
ATOM      8  C   UNL A   1      40.466  23.793  27.227  1.00  0.00     0.060 A 
ATOM      9  C   UNL A   1      41.547  24.095  28.054  1.00  0.00     0.016 A 
ATOM     10  C   UNL A   1      39.697  24.852  26.701  1.00  0.00     0.016 A 
ATOM     11  C   UNL A   1      41.817  25.413  28.403  1.00  0.00     0.010 A 
ATOM     12  C   UNL A   1      39.951  26.171  27.062  1.00  0.00     0.010 A 
ATOM     13  C   UNL A   1      40.976  26.437  27.965  1.00  0.00    -0.014 A 
BRANCH  13  14
ATOM     14  C   UNL A   1      41.138  27.740  28.603  1.00  0.00     0.031 A 
ATOM     15  C   UNL A   1      42.326  28.554  28.227  1.00  0.00     0.074 A 
ATOM     16  C   UNL A   1      40.245  28.193  29.504  1.00  0.00     0.049 A 
ATOM     17  N   UNL A   1      43.310  28.945  28.974  1.00  0.00    -0.248 NA
ATOM     18  C   UNL A   1      42.454  28.942  26.816  1.00  0.00     0.031 C 
ATOM     19  C   UNL A   1      38.909  27.664  29.801  1.00  0.00     0.029 A 
ATOM     20  N   UNL A   1      40.326  29.295  30.298  1.00  0.00    -0.354 N 
ATOM     21  C   UNL A   1      44.093  29.779  28.178  1.00  0.00     0.074 A 
ATOM     22  C   UNL A   1      43.579  29.657  26.836  1.00  0.00     0.031 C 
ATOM     23  C   UNL A   1      38.232  28.564  30.547  1.00  0.00     0.029 A 
ATOM     24  C   UNL A   1      39.128  29.653  30.894  1.00  0.00     0.049 A 
ATOM     25  H   UNL A   1      41.163  29.795  30.437  1.00  0.00     0.167 HD
ATOM     26  C   UNL A   1      45.015  30.644  28.688  1.00  0.00     0.037 A 
ATOM     27  C   UNL A   1      38.868  30.802  31.561  1.00  0.00     0.037 A 
ATOM     28  C   UNL A   1      45.396  30.308  30.032  1.00  0.00     0.049 A 
ATOM     29  C   UNL A   1      40.165  31.365  32.011  1.00  0.00     0.074 A 
ATOM     30  C   UNL A   1      46.011  29.220  30.622  1.00  0.00     0.029 A 
ATOM     31  N   UNL A   1      44.867  31.034  31.070  1.00  0.00    -0.354 N 
ATOM     32  N   UNL A   1      40.933  30.816  32.913  1.00  0.00    -0.248 NA
ATOM     33  C   UNL A   1      40.814  32.352  31.163  1.00  0.00     0.031 C 
ATOM     34  C   UNL A   1      45.404  29.097  31.905  1.00  0.00     0.029 A 
ATOM     35  C   UNL A   1      44.476  30.132  32.029  1.00  0.00     0.049 A 
ATOM     36  H   UNL A   1      44.785  32.014  31.117  1.00  0.00     0.167 HD
ATOM     37  C   UNL A   1      42.229  31.080  32.493  1.00  0.00     0.074 A 
ATOM     38  C   UNL A   1      42.090  32.116  31.474  1.00  0.00     0.031 C 
ATOM     39  C   UNL A   1      43.267  30.253  32.816  1.00  0.00     0.037 A 
BRANCH  26  40
ATOM     40  C   UNL A   1      45.388  31.951  28.036  1.00  0.00     0.058 A 
ATOM     41  C   UNL A   1      46.702  32.184  27.583  1.00  0.00     0.135 A 
ATOM     42  C   UNL A   1      44.541  33.081  28.061  1.00  0.00     0.135 A 
ATOM     43  F   UNL A   1      47.600  31.186  27.550  1.00  0.00    -0.206 F 
ATOM     44  C   UNL A   1      47.149  33.454  27.208  1.00  0.00     0.059 A 
ATOM     45  C   UNL A   1      44.947  34.343  27.644  1.00  0.00     0.059 A 
ATOM     46  F   UNL A   1      43.305  33.021  28.576  1.00  0.00    -0.206 F 
ATOM     47  C   UNL A   1      46.264  34.530  27.252  1.00  0.00     0.060 A 
BRANCH  47  48
ATOM     48  S   UNL A   1      46.856  36.186  26.860  1.00  0.00     0.124 S 
ATOM     49  O   UNL A   1      47.660  35.934  25.669  1.00  0.00    -0.237 OA
ATOM     50  O   UNL A   1      45.610  36.916  26.648  1.00  0.00    -0.237 OA
ATOM     51  O   UNL A   1      47.602  36.568  28.057  1.00  0.00    -0.744 OA
ENDBRANCH  47  48
ENDBRANCH  26  40
BRANCH  27  52
ATOM     52  C   UNL A   1      37.613  31.594  31.492  1.00  0.00     0.058 A 
ATOM     53  C   UNL A   1      36.563  31.380  32.398  1.00  0.00     0.135 A 
ATOM     54  C   UNL A   1      37.528  32.759  30.700  1.00  0.00     0.135 A 
ATOM     55  F   UNL A   1      36.582  30.314  33.213  1.00  0.00    -0.206 F 
ATOM     56  C   UNL A   1      35.507  32.288  32.537  1.00  0.00     0.059 A 
ATOM     57  C   UNL A   1      36.481  33.667  30.808  1.00  0.00     0.059 A 
ATOM     58  F   UNL A   1      38.515  33.101  29.858  1.00  0.00    -0.206 F 
ATOM     59  C   UNL A   1      35.485  33.438  31.748  1.00  0.00     0.060 A 
BRANCH  59  60
ATOM     60  S   UNL A   1      34.220  34.695  32.042  1.00  0.00     0.124 S 
ATOM     61  O   UNL A   1      34.988  35.747  32.698  1.00  0.00    -0.237 OA
ATOM     62  O   UNL A   1      33.760  34.989  30.689  1.00  0.00    -0.237 OA
ATOM     63  O   UNL A   1      33.249  34.008  32.891  1.00  0.00    -0.744 OA
ENDBRANCH  59  60
ENDBRANCH  27  52
BRANCH  39  64
ATOM     64  C   UNL A   1      43.036  29.204  33.876  1.00  0.00     0.058 A 
ATOM     65  C   UNL A   1      43.128  29.456  35.257  1.00  0.00     0.135 A 
ATOM     66  C   UNL A   1      42.551  27.944  33.490  1.00  0.00     0.135 A 
ATOM     67  F   UNL A   1      43.472  30.668  35.713  1.00  0.00    -0.206 F 
ATOM     68  C   UNL A   1      42.797  28.488  36.208  1.00  0.00     0.059 A 
ATOM     69  C   UNL A   1      42.185  26.975  34.422  1.00  0.00     0.059 A 
ATOM     70  F   UNL A   1      42.373  27.663  32.188  1.00  0.00    -0.206 F 
ATOM     71  C   UNL A   1      42.322  27.250  35.781  1.00  0.00     0.060 A 
BRANCH  71  72
ATOM     72  S   UNL A   1      41.798  26.040  37.016  1.00  0.00     0.124 S 
ATOM     73  O   UNL A   1      42.967  25.960  37.884  1.00  0.00    -0.237 OA
ATOM     74  O   UNL A   1      40.617  26.672  37.599  1.00  0.00    -0.237 OA
ATOM     75  O   UNL A   1      41.522  24.842  36.225  1.00  0.00    -0.744 OA
ENDBRANCH  71  72
ENDBRANCH  39  64
ENDBRANCH  13  14
ENDBRANCH   6   8
ENDBRANCH   5   6
ENDBRANCH   4   5
ENDBRANCH   3   4
ENDBRANCH   2   3
ENDBRANCH   1   2
BRANCH   1  76
ATOM     76  C   UNL A   1      33.889  21.065  26.046  1.00  0.00     0.188 C 
BRANCH  76  77
ATOM     77  O   UNL A   1      33.536  20.119  25.040  1.00  0.00    -0.376 OA
BRANCH  77  78
ATOM     78  C   UNL A   1      32.347  20.280  24.284  1.00  0.00     0.202 C 
BRANCH  78  79
ATOM     79  C   UNL A   1      32.420  21.161  23.032  1.00  0.00     0.261 C 
BRANCH  79  80
ATOM     80  O   UNL A   1      32.130  22.542  23.285  1.00  0.00    -0.458 OA
BRANCH  80  81
ATOM     81  C   UNL A   1      32.781  23.455  22.510  1.00  0.00     0.360 C 
ATOM     82  O   UNL A   1      33.601  23.196  21.642  1.00  0.00    -0.244 OA
BRANCH  81  83
ATOM     83  C   UNL A   1      32.376  24.805  22.838  1.00  0.00     0.190 A 
ATOM     84  C   UNL A   1      33.166  25.855  23.252  1.00  0.00     0.147 A 
ATOM     85  N   UNL A   1      31.072  25.230  22.760  1.00  0.00    -0.123 NA
ATOM     86  N   UNL A   1      32.286  26.891  23.400  1.00  0.00    -0.245 N 
ATOM     87  N   UNL A   1      31.028  26.500  23.130  1.00  0.00    -0.066 NA
BRANCH  86  88
ATOM     88  C   UNL A   1      32.584  28.271  23.620  1.00  0.00     0.148 C 
ATOM     89  C   UNL A   1      31.411  29.190  23.981  1.00  0.00     0.150 C 
ATOM     90  C   UNL A   1      33.075  28.490  25.067  1.00  0.00     0.150 C 
ATOM     91  N   UNL A   1      32.263  29.689  25.062  1.00  0.00    -0.320 N 
ATOM     92  C   UNL A   1      31.916  30.610  25.997  1.00  0.00     0.322 C 
ATOM     93  O   UNL A   1      30.856  31.236  25.905  1.00  0.00    -0.248 OA
ATOM     94  N   UNL A   1      32.647  30.764  27.130  1.00  0.00    -0.307 N 
ATOM     95  H   UNL A   1      32.145  31.151  27.884  1.00  0.00     0.171 HD
BRANCH  94  96
ATOM     96  C   UNL A   1      33.969  30.477  27.422  1.00  0.00     0.053 A 
ATOM     97  C   UNL A   1      34.588  29.201  27.563  1.00  0.00     0.038 A 
ATOM     98  C   UNL A   1      34.904  31.487  27.530  1.00  0.00     0.091 A 
ATOM     99  C   UNL A   1      35.912  29.290  27.935  1.00  0.00     0.067 A 
ATOM    100  S   UNL A   1      36.447  30.911  27.994  1.00  0.00    -0.150 S 
ENDBRANCH  94  96
ENDBRANCH  86  88
ENDBRANCH  81  83
ENDBRANCH  80  81
ENDBRANCH  79  80
ENDBRANCH  78  79
ENDBRANCH  77  78
ENDBRANCH  76  77
ENDBRANCH   1  76
TORSDOF 22
ENDMDL
MODEL 3
REMARK VINA RESULT:     -11.2      5.543     12.154
REMARK SMILES O=C(OCCOCCOCCOC(=O)c1cn(C2CN(C(=O)Nc3ccsc3)C2)nn1)c1ccc(-c2c3nc(c(-c4c(F)cc(S(=O)(=O)[O-])cc4F)c4ccc([nH]4)c(-c4c(F)cc(S(=O)(=O)[O-])cc4F)c4nc(c(-c5c(F)cc(S(=O)(=O)[O-])cc5F)c5ccc2[nH]5)C=C4)C=C3)cc1
REMARK SMILES IDX 7 1 6 2 5 3 4 4 3 5 2 6 1 7 32 8 33 9 97 10 34 11 96 12
REMARK SMILES IDX 35 13 36 14 37 15 90 16 38 17 95 18 89 19 91 20 39 21 94 22
REMARK SMILES IDX 88 23 87 24 40 26 74 27 53 28 73 29 54 30 57 31 72 32 92 33
REMARK SMILES IDX 55 34 56 35 71 37 93 38 58 39 41 40 42 41 51 42 43 43 44 44
REMARK SMILES IDX 50 45 52 46 45 47 46 48 47 49 48 50 49 51 75 52 76 53 85 54
REMARK SMILES IDX 77 55 78 56 84 57 86 58 79 59 80 60 81 61 82 62 83 63 59 64
REMARK SMILES IDX 60 65 69 66 61 67 62 68 68 69 70 70 63 71 64 72 65 73 66 74
REMARK SMILES IDX 67 75 8 76 9 77 10 78 11 79 12 80 13 81 14 82 15 83 16 84
REMARK SMILES IDX 31 85 17 86 30 87 18 88 19 89 29 90 20 91 21 92 22 93 23 94
REMARK SMILES IDX 24 96 25 97 28 98 26 99 27 100
REMARK H PARENT 91 25 57 36 23 95
REMARK Flexibility Score: inf
ROOT
ATOM      1  C   UNL A   1      33.281  36.276  29.843  1.00  0.00     0.188 C 
ENDROOT
BRANCH   1   2
ATOM      2  O   UNL A   1      32.509  35.682  28.811  1.00  0.00    -0.376 OA
BRANCH   2   3
ATOM      3  C   UNL A   1      33.150  34.617  28.128  1.00  0.00     0.202 C 
BRANCH   3   4
ATOM      4  C   UNL A   1      34.428  34.164  28.838  1.00  0.00     0.261 C 
BRANCH   4   5
ATOM      5  O   UNL A   1      34.494  32.764  29.185  1.00  0.00    -0.460 OA
BRANCH   5   6
ATOM      6  C   UNL A   1      35.133  31.711  28.641  1.00  0.00     0.338 C 
ATOM      7  O   UNL A   1      34.612  31.137  27.686  1.00  0.00    -0.246 OA
BRANCH   6   8
ATOM      8  C   UNL A   1      36.385  31.128  29.198  1.00  0.00     0.060 A 
ATOM      9  C   UNL A   1      37.534  31.850  29.521  1.00  0.00     0.016 A 
ATOM     10  C   UNL A   1      36.409  29.723  29.322  1.00  0.00     0.016 A 
ATOM     11  C   UNL A   1      38.697  31.186  29.895  1.00  0.00     0.010 A 
ATOM     12  C   UNL A   1      37.575  29.054  29.678  1.00  0.00     0.010 A 
ATOM     13  C   UNL A   1      38.733  29.791  29.902  1.00  0.00    -0.014 A 
BRANCH  13  14
ATOM     14  C   UNL A   1      40.048  29.168  30.011  1.00  0.00     0.031 A 
ATOM     15  C   UNL A   1      40.637  29.019  31.370  1.00  0.00     0.074 A 
ATOM     16  C   UNL A   1      40.712  28.742  28.918  1.00  0.00     0.049 A 
ATOM     17  N   UNL A   1      41.719  29.549  31.847  1.00  0.00    -0.248 NA
ATOM     18  C   UNL A   1      39.888  28.209  32.340  1.00  0.00     0.031 C 
ATOM     19  C   UNL A   1      40.197  28.566  27.556  1.00  0.00     0.029 A 
ATOM     20  N   UNL A   1      41.994  28.291  28.827  1.00  0.00    -0.354 N 
ATOM     21  C   UNL A   1      41.891  29.001  33.117  1.00  0.00     0.074 A 
ATOM     22  C   UNL A   1      40.684  28.267  33.408  1.00  0.00     0.031 C 
ATOM     23  C   UNL A   1      41.089  27.853  26.833  1.00  0.00     0.029 A 
ATOM     24  C   UNL A   1      42.283  27.650  27.633  1.00  0.00     0.049 A 
ATOM     25  H   UNL A   1      42.656  28.410  29.545  1.00  0.00     0.167 HD
ATOM     26  C   UNL A   1      43.074  29.046  33.793  1.00  0.00     0.037 A 
ATOM     27  C   UNL A   1      43.397  26.934  27.350  1.00  0.00     0.037 A 
ATOM     28  C   UNL A   1      43.960  30.054  33.279  1.00  0.00     0.049 A 
ATOM     29  C   UNL A   1      44.465  27.374  28.282  1.00  0.00     0.074 A 
ATOM     30  C   UNL A   1      43.906  31.431  33.175  1.00  0.00     0.029 A 
ATOM     31  N   UNL A   1      45.002  29.669  32.472  1.00  0.00    -0.354 N 
ATOM     32  N   UNL A   1      45.016  28.558  28.266  1.00  0.00    -0.248 NA
ATOM     33  C   UNL A   1      44.653  26.621  29.512  1.00  0.00     0.031 C 
ATOM     34  C   UNL A   1      44.579  31.742  31.958  1.00  0.00     0.029 A 
ATOM     35  C   UNL A   1      45.026  30.538  31.409  1.00  0.00     0.049 A 
ATOM     36  H   UNL A   1      45.615  28.914  32.626  1.00  0.00     0.167 HD
ATOM     37  C   UNL A   1      45.265  28.858  29.597  1.00  0.00     0.074 A 
ATOM     38  C   UNL A   1      45.120  27.588  30.303  1.00  0.00     0.031 C 
ATOM     39  C   UNL A   1      45.306  30.148  30.043  1.00  0.00     0.037 A 
BRANCH  26  40
ATOM     40  C   UNL A   1      43.519  27.992  34.775  1.00  0.00     0.058 A 
ATOM     41  C   UNL A   1      43.685  28.301  36.140  1.00  0.00     0.135 A 
ATOM     42  C   UNL A   1      44.020  26.737  34.366  1.00  0.00     0.135 A 
ATOM     43  F   UNL A   1      43.274  29.481  36.628  1.00  0.00    -0.206 F 
ATOM     44  C   UNL A   1      44.327  27.434  37.028  1.00  0.00     0.059 A 
ATOM     45  C   UNL A   1      44.616  25.836  35.242  1.00  0.00     0.059 A 
ATOM     46  F   UNL A   1      44.029  26.369  33.077  1.00  0.00    -0.206 F 
ATOM     47  C   UNL A   1      44.799  26.207  36.565  1.00  0.00     0.060 A 
BRANCH  47  48
ATOM     48  S   UNL A   1      45.711  25.125  37.681  1.00  0.00     0.124 S 
ATOM     49  O   UNL A   1      46.444  24.286  36.738  1.00  0.00    -0.237 OA
ATOM     50  O   UNL A   1      46.511  26.075  38.447  1.00  0.00    -0.237 OA
ATOM     51  O   UNL A   1      44.656  24.454  38.435  1.00  0.00    -0.744 OA
ENDBRANCH  47  48
ENDBRANCH  26  40
BRANCH  27  52
ATOM     52  C   UNL A   1      43.454  25.664  26.584  1.00  0.00     0.058 A 
ATOM     53  C   UNL A   1      44.316  25.509  25.487  1.00  0.00     0.135 A 
ATOM     54  C   UNL A   1      42.854  24.485  27.078  1.00  0.00     0.135 A 
ATOM     55  F   UNL A   1      44.954  26.573  24.975  1.00  0.00    -0.206 F 
ATOM     56  C   UNL A   1      44.597  24.254  24.935  1.00  0.00     0.059 A 
ATOM     57  C   UNL A   1      43.105  23.230  26.535  1.00  0.00     0.059 A 
ATOM     58  F   UNL A   1      42.076  24.507  28.170  1.00  0.00    -0.206 F 
ATOM     59  C   UNL A   1      43.998  23.118  25.479  1.00  0.00     0.060 A 
BRANCH  59  60
ATOM     60  S   UNL A   1      44.486  21.483  24.884  1.00  0.00     0.124 S 
ATOM     61  O   UNL A   1      44.527  21.687  23.440  1.00  0.00    -0.237 OA
ATOM     62  O   UNL A   1      45.776  21.291  25.538  1.00  0.00    -0.237 OA
ATOM     63  O   UNL A   1      43.413  20.613  25.362  1.00  0.00    -0.744 OA
ENDBRANCH  59  60
ENDBRANCH  27  52
BRANCH  39  64
ATOM     64  C   UNL A   1      45.360  31.254  29.016  1.00  0.00     0.058 A 
ATOM     65  C   UNL A   1      46.557  31.769  28.487  1.00  0.00     0.135 A 
ATOM     66  C   UNL A   1      44.163  31.696  28.432  1.00  0.00     0.135 A 
ATOM     67  F   UNL A   1      47.746  31.315  28.908  1.00  0.00    -0.206 F 
ATOM     68  C   UNL A   1      46.564  32.711  27.457  1.00  0.00     0.059 A 
ATOM     69  C   UNL A   1      44.147  32.612  27.381  1.00  0.00     0.059 A 
ATOM     70  F   UNL A   1      42.988  31.192  28.843  1.00  0.00    -0.206 F 
ATOM     71  C   UNL A   1      45.353  33.126  26.907  1.00  0.00     0.060 A 
BRANCH  71  72
ATOM     72  S   UNL A   1      45.373  34.267  25.506  1.00  0.00     0.124 S 
ATOM     73  O   UNL A   1      46.800  34.402  25.240  1.00  0.00    -0.237 OA
ATOM     74  O   UNL A   1      44.605  33.544  24.496  1.00  0.00    -0.237 OA
ATOM     75  O   UNL A   1      44.718  35.463  26.031  1.00  0.00    -0.744 OA
ENDBRANCH  71  72
ENDBRANCH  39  64
ENDBRANCH  13  14
ENDBRANCH   6   8
ENDBRANCH   5   6
ENDBRANCH   4   5
ENDBRANCH   3   4
ENDBRANCH   2   3
ENDBRANCH   1   2
BRANCH   1  76
ATOM     76  C   UNL A   1      32.577  36.365  31.215  1.00  0.00     0.188 C 
BRANCH  76  77
ATOM     77  O   UNL A   1      32.540  35.268  32.124  1.00  0.00    -0.376 OA
BRANCH  77  78
ATOM     78  C   UNL A   1      33.740  34.641  32.547  1.00  0.00     0.202 C 
BRANCH  78  79
ATOM     79  C   UNL A   1      34.611  35.393  33.558  1.00  0.00     0.261 C 
BRANCH  79  80
ATOM     80  O   UNL A   1      36.003  35.058  33.478  1.00  0.00    -0.458 OA
BRANCH  80  81
ATOM     81  C   UNL A   1      36.430  34.031  34.265  1.00  0.00     0.360 C 
ATOM     82  O   UNL A   1      35.877  33.634  35.280  1.00  0.00    -0.244 OA
BRANCH  81  83
ATOM     83  C   UNL A   1      37.646  33.443  33.745  1.00  0.00     0.190 A 
ATOM     84  C   UNL A   1      38.763  34.088  33.259  1.00  0.00     0.147 A 
ATOM     85  N   UNL A   1      37.849  32.087  33.681  1.00  0.00    -0.123 NA
ATOM     86  N   UNL A   1      39.612  33.068  32.925  1.00  0.00    -0.245 N 
ATOM     87  N   UNL A   1      39.044  31.871  33.154  1.00  0.00    -0.066 NA
BRANCH  86  88
ATOM     88  C   UNL A   1      40.989  33.158  32.556  1.00  0.00     0.148 C 
ATOM     89  C   UNL A   1      41.300  33.426  31.078  1.00  0.00     0.150 C 
ATOM     90  C   UNL A   1      41.526  34.579  32.828  1.00  0.00     0.150 C 
ATOM     91  N   UNL A   1      42.220  34.458  31.562  1.00  0.00    -0.320 N 
ATOM     92  C   UNL A   1      42.957  35.300  30.794  1.00  0.00     0.322 C 
ATOM     93  O   UNL A   1      43.022  35.147  29.571  1.00  0.00    -0.248 OA
ATOM     94  N   UNL A   1      43.520  36.416  31.324  1.00  0.00    -0.307 N 
ATOM     95  H   UNL A   1      43.697  37.128  30.667  1.00  0.00     0.171 HD
BRANCH  94  96
ATOM     96  C   UNL A   1      43.891  36.737  32.617  1.00  0.00     0.053 A 
ATOM     97  C   UNL A   1      43.403  37.791  33.443  1.00  0.00     0.038 A 
ATOM     98  C   UNL A   1      44.785  35.948  33.312  1.00  0.00     0.091 A 
ATOM     99  C   UNL A   1      44.057  37.865  34.654  1.00  0.00     0.067 A 
ATOM    100  S   UNL A   1      45.174  36.588  34.851  1.00  0.00    -0.150 S 
ENDBRANCH  94  96
ENDBRANCH  86  88
ENDBRANCH  81  83
ENDBRANCH  80  81
ENDBRANCH  79  80
ENDBRANCH  78  79
ENDBRANCH  77  78
ENDBRANCH  76  77
ENDBRANCH   1  76
TORSDOF 22
ENDMDL
