MODEL 1
REMARK VINA RESULT:      -8.8      0.000      0.000
REMARK SMILES O=C(OCCOCCOCCOC(=O)[C@@H]1CC=CC[C@@H]1C(=O)N1CCN(C(=O)c2sc3cc([N+](=O)[O-])ccc3c2Cl)CC1)c1ccc(-c2c3nc(c(-c4c(F)cc(S(=O)(=O)[O-])cc4F)c4ccc([nH]4)c(-c4c(F)cc(S(=O)(=O)[O-])cc4F)c4nc(c(-c5c(F)cc(S(=O)(=O)[O-])cc5F)c5ccc2[nH]5)C=C4)C=C3)cc1
REMARK SMILES IDX 7 1 6 2 5 3 4 4 3 5 2 6 1 7 44 8 45 9 109 10 46 11 108 12
REMARK SMILES IDX 47 13 48 14 49 15 102 16 50 17 107 18 101 19 103 20 51 21
REMARK SMILES IDX 106 22 100 23 99 24 52 26 86 27 65 28 85 29 66 30 69 31
REMARK SMILES IDX 84 32 104 33 67 34 68 35 83 37 105 38 70 39 53 40 54 41
REMARK SMILES IDX 63 42 55 43 56 44 62 45 64 46 57 47 58 48 59 49 60 50 61 51
REMARK SMILES IDX 87 52 88 53 97 54 89 55 90 56 96 57 98 58 91 59 92 60 93 61
REMARK SMILES IDX 94 62 95 63 71 64 72 65 81 66 73 67 74 68 80 69 82 70 75 71
REMARK SMILES IDX 76 72 77 73 78 74 79 75 8 76 9 77 10 78 11 79 12 80 13 81
REMARK SMILES IDX 14 82 15 83 16 84 20 85 17 86 19 87 18 88 21 89 22 90 23 91
REMARK SMILES IDX 24 92 43 93 25 94 42 95 26 96 27 97 28 98 29 99 30 100
REMARK SMILES IDX 40 101 31 102 39 103 41 104 32 105 38 106 33 107 37 108
REMARK SMILES IDX 34 109 35 110 36 111
REMARK H PARENT 103 25 69 36
REMARK Flexibility Score: inf
ROOT
ATOM      1  C   UNL A   1      40.303  25.630  26.746  1.00  0.00     0.188 C 
ENDROOT
BRANCH   1   2
ATOM      2  O   UNL A   1      39.760  24.387  26.325  1.00  0.00    -0.376 OA
BRANCH   2   3
ATOM      3  C   UNL A   1      39.777  23.370  27.317  1.00  0.00     0.202 C 
BRANCH   3   4
ATOM      4  C   UNL A   1      39.782  21.964  26.707  1.00  0.00     0.261 C 
BRANCH   4   5
ATOM      5  O   UNL A   1      40.881  21.171  27.192  1.00  0.00    -0.460 OA
BRANCH   5   6
ATOM      6  C   UNL A   1      41.932  21.086  26.339  1.00  0.00     0.338 C 
ATOM      7  O   UNL A   1      42.158  20.149  25.593  1.00  0.00    -0.246 OA
BRANCH   6   8
ATOM      8  C   UNL A   1      42.832  22.245  26.569  1.00  0.00     0.060 A 
ATOM      9  C   UNL A   1      43.306  22.477  27.857  1.00  0.00     0.016 A 
ATOM     10  C   UNL A   1      43.063  23.189  25.548  1.00  0.00     0.016 A 
ATOM     11  C   UNL A   1      43.954  23.676  28.120  1.00  0.00     0.010 A 
ATOM     12  C   UNL A   1      43.649  24.414  25.828  1.00  0.00     0.010 A 
ATOM     13  C   UNL A   1      44.079  24.666  27.123  1.00  0.00    -0.014 A 
BRANCH  13  14
ATOM     14  C   UNL A   1      44.967  25.792  27.409  1.00  0.00     0.031 A 
ATOM     15  C   UNL A   1      46.344  25.448  27.016  1.00  0.00     0.074 A 
ATOM     16  C   UNL A   1      44.653  27.044  27.802  1.00  0.00     0.049 A 
ATOM     17  N   UNL A   1      47.365  25.259  27.781  1.00  0.00    -0.248 NA
ATOM     18  C   UNL A   1      46.549  25.074  25.602  1.00  0.00     0.031 C 
ATOM     19  C   UNL A   1      43.304  27.594  27.851  1.00  0.00     0.029 A 
ATOM     20  N   UNL A   1      45.447  28.106  28.186  1.00  0.00    -0.354 N 
ATOM     21  C   UNL A   1      48.406  25.073  26.886  1.00  0.00     0.074 A 
ATOM     22  C   UNL A   1      47.831  24.716  25.614  1.00  0.00     0.031 C 
ATOM     23  C   UNL A   1      43.370  28.908  28.138  1.00  0.00     0.029 A 
ATOM     24  C   UNL A   1      44.755  29.311  28.326  1.00  0.00     0.049 A 
ATOM     25  H   UNL A   1      46.414  28.022  28.347  1.00  0.00     0.167 HD
ATOM     26  C   UNL A   1      49.594  25.681  27.118  1.00  0.00     0.037 A 
ATOM     27  C   UNL A   1      45.232  30.567  28.556  1.00  0.00     0.037 A 
ATOM     28  C   UNL A   1      49.797  25.985  28.503  1.00  0.00     0.049 A 
ATOM     29  C   UNL A   1      46.621  30.463  29.086  1.00  0.00     0.074 A 
ATOM     30  C   UNL A   1      50.002  25.228  29.632  1.00  0.00     0.029 A 
ATOM     31  N   UNL A   1      49.408  27.235  28.910  1.00  0.00    -0.354 N 
ATOM     32  N   UNL A   1      46.933  30.046  30.283  1.00  0.00    -0.248 NA
ATOM     33  C   UNL A   1      47.750  30.584  28.170  1.00  0.00     0.031 C 
ATOM     34  C   UNL A   1      49.628  26.041  30.734  1.00  0.00     0.029 A 
ATOM     35  C   UNL A   1      49.265  27.311  30.279  1.00  0.00     0.049 A 
ATOM     36  H   UNL A   1      49.252  27.989  28.297  1.00  0.00     0.167 HD
ATOM     37  C   UNL A   1      48.207  29.526  30.183  1.00  0.00     0.074 A 
ATOM     38  C   UNL A   1      48.706  30.002  28.899  1.00  0.00     0.031 C 
ATOM     39  C   UNL A   1      48.610  28.455  30.932  1.00  0.00     0.037 A 
BRANCH  26  40
ATOM     40  C   UNL A   1      50.295  26.400  26.006  1.00  0.00     0.058 A 
ATOM     41  C   UNL A   1      49.712  27.514  25.398  1.00  0.00     0.135 A 
ATOM     42  C   UNL A   1      51.457  25.876  25.387  1.00  0.00     0.135 A 
ATOM     43  F   UNL A   1      48.568  28.026  25.877  1.00  0.00    -0.206 F 
ATOM     44  C   UNL A   1      50.269  28.097  24.260  1.00  0.00     0.059 A 
ATOM     45  C   UNL A   1      52.068  26.480  24.303  1.00  0.00     0.059 A 
ATOM     46  F   UNL A   1      51.991  24.708  25.770  1.00  0.00    -0.206 F 
ATOM     47  C   UNL A   1      51.451  27.578  23.729  1.00  0.00     0.060 A 
BRANCH  47  48
ATOM     48  S   UNL A   1      52.163  28.310  22.248  1.00  0.00     0.124 S 
ATOM     49  O   UNL A   1      51.698  27.387  21.220  1.00  0.00    -0.237 OA
ATOM     50  O   UNL A   1      51.556  29.638  22.243  1.00  0.00    -0.237 OA
ATOM     51  O   UNL A   1      53.597  28.288  22.521  1.00  0.00    -0.744 OA
ENDBRANCH  47  48
ENDBRANCH  26  40
BRANCH  27  52
ATOM     52  C   UNL A   1      44.581  31.892  28.273  1.00  0.00     0.058 A 
ATOM     53  C   UNL A   1      44.020  32.688  29.295  1.00  0.00     0.135 A 
ATOM     54  C   UNL A   1      44.666  32.524  27.012  1.00  0.00     0.135 A 
ATOM     55  F   UNL A   1      43.921  32.214  30.546  1.00  0.00    -0.206 F 
ATOM     56  C   UNL A   1      43.616  34.017  29.087  1.00  0.00     0.059 A 
ATOM     57  C   UNL A   1      44.219  33.821  26.768  1.00  0.00     0.059 A 
ATOM     58  F   UNL A   1      45.297  31.951  25.979  1.00  0.00    -0.206 F 
ATOM     59  C   UNL A   1      43.736  34.581  27.819  1.00  0.00     0.060 A 
BRANCH  59  60
ATOM     60  S   UNL A   1      43.433  36.347  27.573  1.00  0.00     0.124 S 
ATOM     61  O   UNL A   1      42.345  36.345  26.602  1.00  0.00    -0.237 OA
ATOM     62  O   UNL A   1      43.086  36.784  28.922  1.00  0.00    -0.237 OA
ATOM     63  O   UNL A   1      44.711  36.846  27.073  1.00  0.00    -0.744 OA
ENDBRANCH  59  60
ENDBRANCH  27  52
BRANCH  39  64
ATOM     64  C   UNL A   1      48.228  28.339  32.406  1.00  0.00     0.058 A 
ATOM     65  C   UNL A   1      47.195  27.562  32.957  1.00  0.00     0.135 A 
ATOM     66  C   UNL A   1      49.021  29.026  33.355  1.00  0.00     0.135 A 
ATOM     67  F   UNL A   1      46.363  26.840  32.197  1.00  0.00    -0.206 F 
ATOM     68  C   UNL A   1      47.034  27.390  34.339  1.00  0.00     0.059 A 
ATOM     69  C   UNL A   1      48.913  28.828  34.735  1.00  0.00     0.059 A 
ATOM     70  F   UNL A   1      49.953  29.906  32.949  1.00  0.00    -0.206 F 
ATOM     71  C   UNL A   1      47.931  27.979  35.220  1.00  0.00     0.060 A 
BRANCH  71  72
ATOM     72  S   UNL A   1      47.768  27.654  36.988  1.00  0.00     0.124 S 
ATOM     73  O   UNL A   1      47.015  28.816  37.452  1.00  0.00    -0.237 OA
ATOM     74  O   UNL A   1      47.038  26.392  37.019  1.00  0.00    -0.237 OA
ATOM     75  O   UNL A   1      49.152  27.592  37.453  1.00  0.00    -0.744 OA
ENDBRANCH  71  72
ENDBRANCH  39  64
ENDBRANCH  13  14
ENDBRANCH   6   8
ENDBRANCH   5   6
ENDBRANCH   4   5
ENDBRANCH   3   4
ENDBRANCH   2   3
ENDBRANCH   1   2
BRANCH   1  76
ATOM     76  C   UNL A   1      39.654  26.075  28.049  1.00  0.00     0.188 C 
BRANCH  76  77
ATOM     77  O   UNL A   1      40.423  27.006  28.784  1.00  0.00    -0.376 OA
BRANCH  77  78
ATOM     78  C   UNL A   1      39.907  27.557  29.990  1.00  0.00     0.202 C 
BRANCH  78  79
ATOM     79  C   UNL A   1      40.556  28.679  30.813  1.00  0.00     0.261 C 
BRANCH  79  80
ATOM     80  O   UNL A   1      41.373  28.472  31.977  1.00  0.00    -0.463 OA
BRANCH  80  81
ATOM     81  C   UNL A   1      40.901  27.927  33.122  1.00  0.00     0.310 C 
ATOM     82  O   UNL A   1      39.737  27.693  33.341  1.00  0.00    -0.252 OA
BRANCH  81  83
ATOM     83  C   UNL A   1      42.068  27.507  34.022  1.00  0.00     0.115 C 
ATOM     84  C   UNL A   1      41.549  26.454  35.015  1.00  0.00     0.043 C 
ATOM     85  C   UNL A   1      42.840  28.646  34.721  1.00  0.00     0.097 C 
ATOM     86  C   UNL A   1      42.464  26.182  36.168  1.00  0.00    -0.030 C 
ATOM     87  C   UNL A   1      44.000  28.057  35.556  1.00  0.00     0.041 C 
ATOM     88  C   UNL A   1      43.576  26.890  36.407  1.00  0.00    -0.030 C 
BRANCH  85  89
ATOM     89  C   UNL A   1      41.968  29.522  35.614  1.00  0.00     0.227 C 
ATOM     90  O   UNL A   1      41.884  29.387  36.827  1.00  0.00    -0.275 OA
ATOM     91  N   UNL A   1      41.393  30.583  34.936  1.00  0.00    -0.339 N 
ATOM     92  C   UNL A   1      42.074  31.850  35.072  1.00  0.00     0.141 C 
ATOM     93  C   UNL A   1      39.956  30.749  35.051  1.00  0.00     0.141 C 
ATOM     94  C   UNL A   1      41.655  32.842  34.002  1.00  0.00     0.141 C 
ATOM     95  C   UNL A   1      39.409  31.687  33.964  1.00  0.00     0.141 C 
ATOM     96  N   UNL A   1      40.236  32.853  33.607  1.00  0.00    -0.334 N 
ATOM     97  C   UNL A   1      39.909  33.801  32.612  1.00  0.00     0.265 C 
ATOM     98  O   UNL A   1      40.728  34.670  32.305  1.00  0.00    -0.268 OA
BRANCH  97  99
ATOM     99  C   UNL A   1      38.691  33.656  31.828  1.00  0.00     0.112 A 
ATOM    100  S   UNL A   1      37.244  34.284  32.532  1.00  0.00    -0.128 S 
ATOM    101  C   UNL A   1      38.386  33.008  30.653  1.00  0.00     0.072 A 
ATOM    102  C   UNL A   1      36.342  34.062  31.093  1.00  0.00     0.043 A 
ATOM    103  C   UNL A   1      37.101  33.403  30.126  1.00  0.00     0.012 A 
ATOM    104  Cl  UNL A   1      39.356  31.851  29.834  1.00  0.00    -0.082 Cl
ATOM    105  C   UNL A   1      35.009  34.459  30.865  1.00  0.00     0.105 A 
ATOM    106  C   UNL A   1      36.512  33.195  28.852  1.00  0.00     0.018 A 
ATOM    107  C   UNL A   1      34.462  34.233  29.594  1.00  0.00     0.270 A 
ATOM    108  C   UNL A   1      35.210  33.631  28.585  1.00  0.00     0.086 A 
BRANCH 107 109
ATOM    109  N   UNL A   1      33.076  34.636  29.325  1.00  0.00     0.062 N 
ATOM    110  O   UNL A   1      32.421  35.125  30.257  1.00  0.00    -0.258 OA
ATOM    111  O   UNL A   1      32.635  34.456  28.179  1.00  0.00    -0.258 OA
ENDBRANCH 107 109
ENDBRANCH  97  99
ENDBRANCH  85  89
ENDBRANCH  81  83
ENDBRANCH  80  81
ENDBRANCH  79  80
ENDBRANCH  78  79
ENDBRANCH  77  78
ENDBRANCH  76  77
ENDBRANCH   1  76
TORSDOF 23
ENDMDL
MODEL 2
REMARK VINA RESULT:      -8.6      4.552     11.700
REMARK SMILES O=C(OCCOCCOCCOC(=O)[C@@H]1CC=CC[C@@H]1C(=O)N1CCN(C(=O)c2sc3cc([N+](=O)[O-])ccc3c2Cl)CC1)c1ccc(-c2c3nc(c(-c4c(F)cc(S(=O)(=O)[O-])cc4F)c4ccc([nH]4)c(-c4c(F)cc(S(=O)(=O)[O-])cc4F)c4nc(c(-c5c(F)cc(S(=O)(=O)[O-])cc5F)c5ccc2[nH]5)C=C4)C=C3)cc1
REMARK SMILES IDX 7 1 6 2 5 3 4 4 3 5 2 6 1 7 44 8 45 9 109 10 46 11 108 12
REMARK SMILES IDX 47 13 48 14 49 15 102 16 50 17 107 18 101 19 103 20 51 21
REMARK SMILES IDX 106 22 100 23 99 24 52 26 86 27 65 28 85 29 66 30 69 31
REMARK SMILES IDX 84 32 104 33 67 34 68 35 83 37 105 38 70 39 53 40 54 41
REMARK SMILES IDX 63 42 55 43 56 44 62 45 64 46 57 47 58 48 59 49 60 50 61 51
REMARK SMILES IDX 87 52 88 53 97 54 89 55 90 56 96 57 98 58 91 59 92 60 93 61
REMARK SMILES IDX 94 62 95 63 71 64 72 65 81 66 73 67 74 68 80 69 82 70 75 71
REMARK SMILES IDX 76 72 77 73 78 74 79 75 8 76 9 77 10 78 11 79 12 80 13 81
REMARK SMILES IDX 14 82 15 83 16 84 20 85 17 86 19 87 18 88 21 89 22 90 23 91
REMARK SMILES IDX 24 92 43 93 25 94 42 95 26 96 27 97 28 98 29 99 30 100
REMARK SMILES IDX 40 101 31 102 39 103 41 104 32 105 38 106 33 107 37 108
REMARK SMILES IDX 34 109 35 110 36 111
REMARK H PARENT 103 25 69 36
REMARK Flexibility Score: inf
ROOT
ATOM      1  C   UNL A   1      46.907  24.825  33.868  1.00  0.00     0.188 C 
ENDROOT
BRANCH   1   2
ATOM      2  O   UNL A   1      46.234  23.578  33.952  1.00  0.00    -0.376 OA
BRANCH   2   3
ATOM      3  C   UNL A   1      45.933  23.159  35.277  1.00  0.00     0.202 C 
BRANCH   3   4
ATOM      4  C   UNL A   1      45.141  24.217  36.054  1.00  0.00     0.261 C 
BRANCH   4   5
ATOM      5  O   UNL A   1      43.765  23.836  36.229  1.00  0.00    -0.460 OA
BRANCH   5   6
ATOM      6  C   UNL A   1      42.978  24.060  35.147  1.00  0.00     0.338 C 
ATOM      7  O   UNL A   1      42.778  23.265  34.245  1.00  0.00    -0.246 OA
BRANCH   6   8
ATOM      8  C   UNL A   1      42.525  25.476  35.169  1.00  0.00     0.060 A 
ATOM      9  C   UNL A   1      42.760  26.270  34.050  1.00  0.00     0.016 A 
ATOM     10  C   UNL A   1      42.027  26.052  36.355  1.00  0.00     0.016 A 
ATOM     11  C   UNL A   1      42.548  27.638  34.151  1.00  0.00     0.010 A 
ATOM     12  C   UNL A   1      41.881  27.425  36.475  1.00  0.00     0.010 A 
ATOM     13  C   UNL A   1      42.161  28.223  35.375  1.00  0.00    -0.014 A 
BRANCH  13  14
ATOM     14  C   UNL A   1      41.738  29.623  35.340  1.00  0.00     0.031 A 
ATOM     15  C   UNL A   1      42.845  30.485  35.786  1.00  0.00     0.074 A 
ATOM     16  C   UNL A   1      40.607  30.156  34.833  1.00  0.00     0.049 A 
ATOM     17  N   UNL A   1      42.920  31.188  36.864  1.00  0.00    -0.248 NA
ATOM     18  C   UNL A   1      44.104  30.386  35.020  1.00  0.00     0.031 C 
ATOM     19  C   UNL A   1      39.626  29.435  34.033  1.00  0.00     0.029 A 
ATOM     20  N   UNL A   1      40.112  31.444  34.866  1.00  0.00    -0.354 N 
ATOM     21  C   UNL A   1      44.115  31.873  36.718  1.00  0.00     0.074 A 
ATOM     22  C   UNL A   1      44.903  31.174  35.735  1.00  0.00     0.031 C 
ATOM     23  C   UNL A   1      38.708  30.303  33.567  1.00  0.00     0.029 A 
ATOM     24  C   UNL A   1      38.999  31.646  34.045  1.00  0.00     0.049 A 
ATOM     25  H   UNL A   1      40.506  32.156  35.419  1.00  0.00     0.167 HD
ATOM     26  C   UNL A   1      44.167  33.188  37.041  1.00  0.00     0.037 A 
ATOM     27  C   UNL A   1      38.346  32.801  33.733  1.00  0.00     0.037 A 
ATOM     28  C   UNL A   1      43.160  33.564  37.986  1.00  0.00     0.049 A 
ATOM     29  C   UNL A   1      38.703  33.841  34.740  1.00  0.00     0.074 A 
ATOM     30  C   UNL A   1      42.935  33.282  39.313  1.00  0.00     0.029 A 
ATOM     31  N   UNL A   1      41.985  34.038  37.462  1.00  0.00    -0.354 N 
ATOM     32  N   UNL A   1      38.287  33.854  35.976  1.00  0.00    -0.248 NA
ATOM     33  C   UNL A   1      39.777  34.784  34.448  1.00  0.00     0.031 C 
ATOM     34  C   UNL A   1      41.553  33.512  39.544  1.00  0.00     0.029 A 
ATOM     35  C   UNL A   1      40.957  34.001  38.379  1.00  0.00     0.049 A 
ATOM     36  H   UNL A   1      41.888  34.367  36.539  1.00  0.00     0.167 HD
ATOM     37  C   UNL A   1      39.250  34.533  36.693  1.00  0.00     0.074 A 
ATOM     38  C   UNL A   1      40.071  35.192  35.685  1.00  0.00     0.031 C 
ATOM     39  C   UNL A   1      39.554  34.205  37.986  1.00  0.00     0.037 A 
BRANCH  26  40
ATOM     40  C   UNL A   1      44.828  34.159  36.111  1.00  0.00     0.058 A 
ATOM     41  C   UNL A   1      44.277  34.433  34.857  1.00  0.00     0.135 A 
ATOM     42  C   UNL A   1      46.122  34.678  36.362  1.00  0.00     0.135 A 
ATOM     43  F   UNL A   1      43.087  33.917  34.512  1.00  0.00    -0.206 F 
ATOM     44  C   UNL A   1      44.957  35.207  33.917  1.00  0.00     0.059 A 
ATOM     45  C   UNL A   1      46.784  35.507  35.474  1.00  0.00     0.059 A 
ATOM     46  F   UNL A   1      46.822  34.326  37.449  1.00  0.00    -0.206 F 
ATOM     47  C   UNL A   1      46.204  35.746  34.241  1.00  0.00     0.060 A 
BRANCH  47  48
ATOM     48  S   UNL A   1      47.097  36.725  33.024  1.00  0.00     0.124 S 
ATOM     49  O   UNL A   1      46.138  36.762  31.926  1.00  0.00    -0.237 OA
ATOM     50  O   UNL A   1      47.307  37.981  33.738  1.00  0.00    -0.237 OA
ATOM     51  O   UNL A   1      48.305  35.940  32.786  1.00  0.00    -0.744 OA
ENDBRANCH  47  48
ENDBRANCH  26  40
BRANCH  27  52
ATOM     52  C   UNL A   1      37.469  33.100  32.549  1.00  0.00     0.058 A 
ATOM     53  C   UNL A   1      37.998  33.319  31.259  1.00  0.00     0.135 A 
ATOM     54  C   UNL A   1      36.063  32.980  32.599  1.00  0.00     0.135 A 
ATOM     55  F   UNL A   1      39.324  33.411  31.075  1.00  0.00    -0.206 F 
ATOM     56  C   UNL A   1      37.193  33.373  30.108  1.00  0.00     0.059 A 
ATOM     57  C   UNL A   1      35.240  33.088  31.480  1.00  0.00     0.059 A 
ATOM     58  F   UNL A   1      35.425  32.635  33.726  1.00  0.00    -0.206 F 
ATOM     59  C   UNL A   1      35.812  33.240  30.229  1.00  0.00     0.060 A 
BRANCH  59  60
ATOM     60  S   UNL A   1      34.778  33.084  28.754  1.00  0.00     0.124 S 
ATOM     61  O   UNL A   1      35.697  33.462  27.686  1.00  0.00    -0.237 OA
ATOM     62  O   UNL A   1      34.396  31.676  28.801  1.00  0.00    -0.237 OA
ATOM     63  O   UNL A   1      33.689  34.027  28.999  1.00  0.00    -0.744 OA
ENDBRANCH  59  60
ENDBRANCH  27  52
BRANCH  39  64
ATOM     64  C   UNL A   1      38.453  33.864  38.989  1.00  0.00     0.058 A 
ATOM     65  C   UNL A   1      37.645  32.715  39.004  1.00  0.00     0.135 A 
ATOM     66  C   UNL A   1      38.241  34.749  40.071  1.00  0.00     0.135 A 
ATOM     67  F   UNL A   1      37.730  31.770  38.058  1.00  0.00    -0.206 F 
ATOM     68  C   UNL A   1      36.781  32.413  40.066  1.00  0.00     0.059 A 
ATOM     69  C   UNL A   1      37.426  34.446  41.166  1.00  0.00     0.059 A 
ATOM     70  F   UNL A   1      38.855  35.945  40.098  1.00  0.00    -0.206 F 
ATOM     71  C   UNL A   1      36.719  33.254  41.169  1.00  0.00     0.060 A 
BRANCH  71  72
ATOM     72  S   UNL A   1      35.680  32.788  42.570  1.00  0.00     0.124 S 
ATOM     73  O   UNL A   1      34.680  31.927  41.945  1.00  0.00    -0.237 OA
ATOM     74  O   UNL A   1      36.617  32.107  43.455  1.00  0.00    -0.237 OA
ATOM     75  O   UNL A   1      35.171  34.068  43.058  1.00  0.00    -0.744 OA
ENDBRANCH  71  72
ENDBRANCH  39  64
ENDBRANCH  13  14
ENDBRANCH   6   8
ENDBRANCH   5   6
ENDBRANCH   4   5
ENDBRANCH   3   4
ENDBRANCH   2   3
ENDBRANCH   1   2
BRANCH   1  76
ATOM     76  C   UNL A   1      46.208  25.735  32.868  1.00  0.00     0.188 C 
BRANCH  76  77
ATOM     77  O   UNL A   1      46.476  25.418  31.517  1.00  0.00    -0.376 OA
BRANCH  77  78
ATOM     78  C   UNL A   1      47.618  25.970  30.872  1.00  0.00     0.202 C 
BRANCH  78  79
ATOM     79  C   UNL A   1      47.600  27.086  29.818  1.00  0.00     0.261 C 
BRANCH  79  80
ATOM     80  O   UNL A   1      47.829  28.477  30.097  1.00  0.00    -0.463 OA
BRANCH  80  81
ATOM     81  C   UNL A   1      47.067  29.192  30.957  1.00  0.00     0.310 C 
ATOM     82  O   UNL A   1      47.228  29.223  32.153  1.00  0.00    -0.252 OA
BRANCH  81  83
ATOM     83  C   UNL A   1      46.083  30.072  30.178  1.00  0.00     0.115 C 
ATOM     84  C   UNL A   1      45.467  31.083  31.160  1.00  0.00     0.043 C 
ATOM     85  C   UNL A   1      45.014  29.335  29.344  1.00  0.00     0.097 C 
ATOM     86  C   UNL A   1      44.256  31.793  30.643  1.00  0.00    -0.030 C 
ATOM     87  C   UNL A   1      44.132  30.361  28.598  1.00  0.00     0.041 C 
ATOM     88  C   UNL A   1      43.660  31.483  29.484  1.00  0.00    -0.030 C 
BRANCH  85  89
ATOM     89  C   UNL A   1      44.126  28.407  30.166  1.00  0.00     0.227 C 
ATOM     90  O   UNL A   1      43.954  28.522  31.373  1.00  0.00    -0.275 OA
ATOM     91  N   UNL A   1      43.413  27.510  29.390  1.00  0.00    -0.339 N 
ATOM     92  C   UNL A   1      42.046  27.882  29.108  1.00  0.00     0.141 C 
ATOM     93  C   UNL A   1      43.510  26.104  29.734  1.00  0.00     0.141 C 
ATOM     94  C   UNL A   1      41.470  27.099  27.941  1.00  0.00     0.141 C 
ATOM     95  C   UNL A   1      43.014  25.208  28.589  1.00  0.00     0.141 C 
ATOM     96  N   UNL A   1      41.842  25.678  27.830  1.00  0.00    -0.334 N 
ATOM     97  C   UNL A   1      41.269  25.005  26.728  1.00  0.00     0.265 C 
ATOM     98  O   UNL A   1      40.366  25.545  26.085  1.00  0.00    -0.268 OA
BRANCH  97  99
ATOM     99  C   UNL A   1      41.851  23.762  26.241  1.00  0.00     0.112 A 
ATOM    100  S   UNL A   1      43.275  23.907  25.274  1.00  0.00    -0.128 S 
ATOM    101  C   UNL A   1      41.453  22.445  26.277  1.00  0.00     0.072 A 
ATOM    102  C   UNL A   1      43.562  22.219  25.286  1.00  0.00     0.043 A 
ATOM    103  C   UNL A   1      42.518  21.540  25.914  1.00  0.00     0.012 A 
ATOM    104  Cl  UNL A   1      39.896  21.852  26.694  1.00  0.00    -0.082 Cl
ATOM    105  C   UNL A   1      44.677  21.550  24.740  1.00  0.00     0.105 A 
ATOM    106  C   UNL A   1      42.634  20.134  26.056  1.00  0.00     0.018 A 
ATOM    107  C   UNL A   1      44.753  20.160  24.899  1.00  0.00     0.270 A 
ATOM    108  C   UNL A   1      43.757  19.455  25.572  1.00  0.00     0.086 A 
BRANCH 107 109
ATOM    109  N   UNL A   1      45.902  19.433  24.342  1.00  0.00     0.062 N 
ATOM    110  O   UNL A   1      45.710  18.717  23.349  1.00  0.00    -0.258 OA
ATOM    111  O   UNL A   1      47.000  19.572  24.903  1.00  0.00    -0.258 OA
ENDBRANCH 107 109
ENDBRANCH  97  99
ENDBRANCH  85  89
ENDBRANCH  81  83
ENDBRANCH  80  81
ENDBRANCH  79  80
ENDBRANCH  78  79
ENDBRANCH  77  78
ENDBRANCH  76  77
ENDBRANCH   1  76
TORSDOF 23
ENDMDL
MODEL 3
REMARK VINA RESULT:      -8.5      3.169      9.701
REMARK SMILES O=C(OCCOCCOCCOC(=O)[C@@H]1CC=CC[C@@H]1C(=O)N1CCN(C(=O)c2sc3cc([N+](=O)[O-])ccc3c2Cl)CC1)c1ccc(-c2c3nc(c(-c4c(F)cc(S(=O)(=O)[O-])cc4F)c4ccc([nH]4)c(-c4c(F)cc(S(=O)(=O)[O-])cc4F)c4nc(c(-c5c(F)cc(S(=O)(=O)[O-])cc5F)c5ccc2[nH]5)C=C4)C=C3)cc1
REMARK SMILES IDX 7 1 6 2 5 3 4 4 3 5 2 6 1 7 44 8 45 9 109 10 46 11 108 12
REMARK SMILES IDX 47 13 48 14 49 15 102 16 50 17 107 18 101 19 103 20 51 21
REMARK SMILES IDX 106 22 100 23 99 24 52 26 86 27 65 28 85 29 66 30 69 31
REMARK SMILES IDX 84 32 104 33 67 34 68 35 83 37 105 38 70 39 53 40 54 41
REMARK SMILES IDX 63 42 55 43 56 44 62 45 64 46 57 47 58 48 59 49 60 50 61 51
REMARK SMILES IDX 87 52 88 53 97 54 89 55 90 56 96 57 98 58 91 59 92 60 93 61
REMARK SMILES IDX 94 62 95 63 71 64 72 65 81 66 73 67 74 68 80 69 82 70 75 71
REMARK SMILES IDX 76 72 77 73 78 74 79 75 8 76 9 77 10 78 11 79 12 80 13 81
REMARK SMILES IDX 14 82 15 83 16 84 20 85 17 86 19 87 18 88 21 89 22 90 23 91
REMARK SMILES IDX 24 92 43 93 25 94 42 95 26 96 27 97 28 98 29 99 30 100
REMARK SMILES IDX 40 101 31 102 39 103 41 104 32 105 38 106 33 107 37 108
REMARK SMILES IDX 34 109 35 110 36 111
REMARK H PARENT 103 25 69 36
REMARK Flexibility Score: inf
ROOT
ATOM      1  C   UNL A   1      42.321  40.417  29.449  1.00  0.00     0.188 C 
ENDROOT
BRANCH   1   2
ATOM      2  O   UNL A   1      43.291  40.092  28.464  1.00  0.00    -0.376 OA
BRANCH   2   3
ATOM      3  C   UNL A   1      43.896  38.817  28.632  1.00  0.00     0.202 C 
BRANCH   3   4
ATOM      4  C   UNL A   1      43.226  37.738  27.774  1.00  0.00     0.261 C 
BRANCH   4   5
ATOM      5  O   UNL A   1      43.609  36.413  28.181  1.00  0.00    -0.460 OA
BRANCH   5   6
ATOM      6  C   UNL A   1      42.736  35.440  27.818  1.00  0.00     0.338 C 
ATOM      7  O   UNL A   1      41.554  35.610  27.572  1.00  0.00    -0.246 OA
BRANCH   6   8
ATOM      8  C   UNL A   1      43.418  34.123  27.914  1.00  0.00     0.060 A 
ATOM      9  C   UNL A   1      44.071  33.626  26.790  1.00  0.00     0.016 A 
ATOM     10  C   UNL A   1      43.264  33.316  29.059  1.00  0.00     0.016 A 
ATOM     11  C   UNL A   1      44.509  32.309  26.805  1.00  0.00     0.010 A 
ATOM     12  C   UNL A   1      43.640  31.982  29.047  1.00  0.00     0.010 A 
ATOM     13  C   UNL A   1      44.247  31.471  27.910  1.00  0.00    -0.014 A 
BRANCH  13  14
ATOM     14  C   UNL A   1      44.936  30.181  27.945  1.00  0.00     0.031 A 
ATOM     15  C   UNL A   1      46.073  30.252  28.877  1.00  0.00     0.074 A 
ATOM     16  C   UNL A   1      44.569  29.006  27.391  1.00  0.00     0.049 A 
ATOM     17  N   UNL A   1      47.332  30.208  28.600  1.00  0.00    -0.248 NA
ATOM     18  C   UNL A   1      45.757  30.621  30.272  1.00  0.00     0.031 C 
ATOM     19  C   UNL A   1      43.276  28.739  26.774  1.00  0.00     0.029 A 
ATOM     20  N   UNL A   1      45.225  27.795  27.303  1.00  0.00    -0.354 N 
ATOM     21  C   UNL A   1      47.935  30.208  29.847  1.00  0.00     0.074 A 
ATOM     22  C   UNL A   1      46.977  30.713  30.797  1.00  0.00     0.031 C 
ATOM     23  C   UNL A   1      43.193  27.430  26.467  1.00  0.00     0.029 A 
ATOM     24  C   UNL A   1      44.426  26.750  26.831  1.00  0.00     0.049 A 
ATOM     25  H   UNL A   1      46.170  27.678  27.550  1.00  0.00     0.167 HD
ATOM     26  C   UNL A   1      48.971  29.367  30.081  1.00  0.00     0.037 A 
ATOM     27  C   UNL A   1      44.699  25.417  26.745  1.00  0.00     0.037 A 
ATOM     28  C   UNL A   1      49.654  28.985  28.881  1.00  0.00     0.049 A 
ATOM     29  C   UNL A   1      46.175  25.223  26.826  1.00  0.00     0.074 A 
ATOM     30  C   UNL A   1      50.443  29.651  27.973  1.00  0.00     0.029 A 
ATOM     31  N   UNL A   1      49.226  27.828  28.284  1.00  0.00    -0.354 N 
ATOM     32  N   UNL A   1      47.020  25.532  25.881  1.00  0.00    -0.248 NA
ATOM     33  C   UNL A   1      46.788  24.905  28.111  1.00  0.00     0.031 C 
ATOM     34  C   UNL A   1      50.396  28.896  26.772  1.00  0.00     0.029 A 
ATOM     35  C   UNL A   1      49.638  27.740  26.972  1.00  0.00     0.049 A 
ATOM     36  H   UNL A   1      48.690  27.140  28.741  1.00  0.00     0.167 HD
ATOM     37  C   UNL A   1      48.219  25.787  26.514  1.00  0.00     0.074 A 
ATOM     38  C   UNL A   1      48.051  25.260  27.862  1.00  0.00     0.031 C 
ATOM     39  C   UNL A   1      49.093  26.731  26.050  1.00  0.00     0.037 A 
BRANCH  26  40
ATOM     40  C   UNL A   1      49.005  28.556  31.340  1.00  0.00     0.058 A 
ATOM     41  C   UNL A   1      50.057  28.694  32.248  1.00  0.00     0.135 A 
ATOM     42  C   UNL A   1      48.107  27.485  31.570  1.00  0.00     0.135 A 
ATOM     43  F   UNL A   1      50.994  29.636  32.062  1.00  0.00    -0.206 F 
ATOM     44  C   UNL A   1      50.193  27.839  33.341  1.00  0.00     0.059 A 
ATOM     45  C   UNL A   1      48.178  26.670  32.685  1.00  0.00     0.059 A 
ATOM     46  F   UNL A   1      47.175  27.144  30.669  1.00  0.00    -0.206 F 
ATOM     47  C   UNL A   1      49.242  26.838  33.554  1.00  0.00     0.060 A 
BRANCH  47  48
ATOM     48  S   UNL A   1      49.423  25.716  34.949  1.00  0.00     0.124 S 
ATOM     49  O   UNL A   1      49.476  24.425  34.274  1.00  0.00    -0.237 OA
ATOM     50  O   UNL A   1      50.669  26.179  35.553  1.00  0.00    -0.237 OA
ATOM     51  O   UNL A   1      48.222  25.971  35.739  1.00  0.00    -0.744 OA
ENDBRANCH  47  48
ENDBRANCH  26  40
BRANCH  27  52
ATOM     52  C   UNL A   1      43.742  24.260  26.671  1.00  0.00     0.058 A 
ATOM     53  C   UNL A   1      43.352  23.687  25.441  1.00  0.00     0.135 A 
ATOM     54  C   UNL A   1      43.334  23.540  27.815  1.00  0.00     0.135 A 
ATOM     55  F   UNL A   1      43.714  24.256  24.281  1.00  0.00    -0.206 F 
ATOM     56  C   UNL A   1      42.648  22.473  25.359  1.00  0.00     0.059 A 
ATOM     57  C   UNL A   1      42.585  22.366  27.760  1.00  0.00     0.059 A 
ATOM     58  F   UNL A   1      43.743  23.880  29.044  1.00  0.00    -0.206 F 
ATOM     59  C   UNL A   1      42.282  21.811  26.529  1.00  0.00     0.060 A 
BRANCH  59  60
ATOM     60  S   UNL A   1      41.574  20.149  26.453  1.00  0.00     0.124 S 
ATOM     61  O   UNL A   1      42.375  19.514  25.412  1.00  0.00    -0.237 OA
ATOM     62  O   UNL A   1      41.794  19.666  27.813  1.00  0.00    -0.237 OA
ATOM     63  O   UNL A   1      40.177  20.389  26.102  1.00  0.00    -0.744 OA
ENDBRANCH  59  60
ENDBRANCH  27  52
BRANCH  39  64
ATOM     64  C   UNL A   1      49.372  26.876  24.555  1.00  0.00     0.058 A 
ATOM     65  C   UNL A   1      48.513  27.408  23.579  1.00  0.00     0.135 A 
ATOM     66  C   UNL A   1      50.650  26.505  24.077  1.00  0.00     0.135 A 
ATOM     67  F   UNL A   1      47.272  27.821  23.868  1.00  0.00    -0.206 F 
ATOM     68  C   UNL A   1      48.927  27.656  22.262  1.00  0.00     0.059 A 
ATOM     69  C   UNL A   1      51.103  26.791  22.786  1.00  0.00     0.059 A 
ATOM     70  F   UNL A   1      51.513  25.861  24.883  1.00  0.00    -0.206 F 
ATOM     71  C   UNL A   1      50.239  27.398  21.888  1.00  0.00     0.060 A 
BRANCH  71  72
ATOM     72  S   UNL A   1      50.777  27.827  20.220  1.00  0.00     0.124 S 
ATOM     73  O   UNL A   1      49.774  27.167  19.388  1.00  0.00    -0.237 OA
ATOM     74  O   UNL A   1      50.715  29.284  20.223  1.00  0.00    -0.237 OA
ATOM     75  O   UNL A   1      52.119  27.255  20.136  1.00  0.00    -0.744 OA
ENDBRANCH  71  72
ENDBRANCH  39  64
ENDBRANCH  13  14
ENDBRANCH   6   8
ENDBRANCH   5   6
ENDBRANCH   4   5
ENDBRANCH   3   4
ENDBRANCH   2   3
ENDBRANCH   1   2
BRANCH   1  76
ATOM     76  C   UNL A   1      42.918  41.357  30.487  1.00  0.00     0.188 C 
BRANCH  76  77
ATOM     77  O   UNL A   1      42.073  41.601  31.594  1.00  0.00    -0.376 OA
BRANCH  77  78
ATOM     78  C   UNL A   1      42.631  41.743  32.895  1.00  0.00     0.202 C 
BRANCH  78  79
ATOM     79  C   UNL A   1      43.187  40.605  33.762  1.00  0.00     0.261 C 
BRANCH  79  80
ATOM     80  O   UNL A   1      42.801  39.225  33.646  1.00  0.00    -0.463 OA
BRANCH  80  81
ATOM     81  C   UNL A   1      43.657  38.199  33.859  1.00  0.00     0.310 C 
ATOM     82  O   UNL A   1      44.450  37.787  33.047  1.00  0.00    -0.252 OA
BRANCH  81  83
ATOM     83  C   UNL A   1      43.583  37.751  35.323  1.00  0.00     0.115 C 
ATOM     84  C   UNL A   1      44.992  37.321  35.761  1.00  0.00     0.043 C 
ATOM     85  C   UNL A   1      42.512  36.692  35.663  1.00  0.00     0.097 C 
ATOM     86  C   UNL A   1      45.036  36.552  37.045  1.00  0.00    -0.030 C 
ATOM     87  C   UNL A   1      42.547  36.380  37.176  1.00  0.00     0.041 C 
ATOM     88  C   UNL A   1      43.939  36.139  37.693  1.00  0.00    -0.030 C 
BRANCH  85  89
ATOM     89  C   UNL A   1      42.657  35.395  34.874  1.00  0.00     0.227 C 
ATOM     90  O   UNL A   1      43.729  34.956  34.479  1.00  0.00    -0.275 OA
ATOM     91  N   UNL A   1      41.474  34.685  34.777  1.00  0.00    -0.339 N 
ATOM     92  C   UNL A   1      41.320  33.602  35.721  1.00  0.00     0.141 C 
ATOM     93  C   UNL A   1      41.042  34.285  33.451  1.00  0.00     0.141 C 
ATOM     94  C   UNL A   1      39.875  33.151  35.842  1.00  0.00     0.141 C 
ATOM     95  C   UNL A   1      39.562  33.871  33.441  1.00  0.00     0.141 C 
ATOM     96  N   UNL A   1      39.069  33.119  34.609  1.00  0.00    -0.334 N 
ATOM     97  C   UNL A   1      37.737  32.686  34.788  1.00  0.00     0.265 C 
ATOM     98  O   UNL A   1      37.400  32.173  35.857  1.00  0.00    -0.268 OA
BRANCH  97  99
ATOM     99  C   UNL A   1      36.722  32.996  33.791  1.00  0.00     0.112 A 
ATOM    100  S   UNL A   1      35.689  34.337  34.138  1.00  0.00    -0.128 S 
ATOM    101  C   UNL A   1      36.297  32.376  32.638  1.00  0.00     0.072 A 
ATOM    102  C   UNL A   1      34.997  34.322  32.571  1.00  0.00     0.043 A 
ATOM    103  C   UNL A   1      35.456  33.230  31.834  1.00  0.00     0.012 A 
ATOM    104  Cl  UNL A   1      36.675  30.780  32.130  1.00  0.00    -0.082 Cl
ATOM    105  C   UNL A   1      34.073  35.251  32.049  1.00  0.00     0.105 A 
ATOM    106  C   UNL A   1      35.017  33.108  30.491  1.00  0.00     0.018 A 
ATOM    107  C   UNL A   1      33.662  35.094  30.718  1.00  0.00     0.270 A 
ATOM    108  C   UNL A   1      34.145  34.049  29.933  1.00  0.00     0.086 A 
BRANCH 107 109
ATOM    109  N   UNL A   1      32.702  36.045  30.145  1.00  0.00     0.062 N 
ATOM    110  O   UNL A   1      32.134  36.833  30.915  1.00  0.00    -0.258 OA
ATOM    111  O   UNL A   1      32.507  36.002  28.920  1.00  0.00    -0.258 OA
ENDBRANCH 107 109
ENDBRANCH  97  99
ENDBRANCH  85  89
ENDBRANCH  81  83
ENDBRANCH  80  81
ENDBRANCH  79  80
ENDBRANCH  78  79
ENDBRANCH  77  78
ENDBRANCH  76  77
ENDBRANCH   1  76
TORSDOF 23
ENDMDL
