MODEL 1
REMARK VINA RESULT:     -11.2      0.000      0.000
REMARK SMILES Cn1ccc(-c2n[nH]c(=O)n2-c2ccc(C(=O)OCCOCCOCCOC(=O)c3ccc(-c4c5nc(c(-c6c(F)cc(S(=O)(=O)[O-])cc6F)c6ccc([nH]6)c(-c6c(F)cc(S(=O)(=O)[O-])cc6F)c6nc(c(-c7c(F)cc(S(=O)(=O)[O-])cc7F)c7ccc4[nH]7)C=C6)C=C5)cc3)cc2)n1
REMARK SMILES IDX 23 1 22 2 21 3 20 4 19 5 18 6 16 7 17 8 15 9 12 10 13 11
REMARK SMILES IDX 97 12 14 13 96 14 11 15 6 16 7 17 8 18 9 19 10 21 5 22 1 23
REMARK SMILES IDX 2 24 3 25 98 26 4 27 24 28 25 29 26 30 27 31 28 32 29 33
REMARK SMILES IDX 30 34 31 35 95 36 32 37 94 38 33 39 34 40 35 41 88 42 36 43
REMARK SMILES IDX 93 44 87 45 89 46 37 47 92 48 86 49 85 50 38 52 72 53 51 54
REMARK SMILES IDX 71 55 52 56 55 57 70 58 90 59 53 60 54 61 69 63 91 64 56 65
REMARK SMILES IDX 39 66 40 67 49 68 41 69 42 70 48 71 50 72 43 73 44 74 45 75
REMARK SMILES IDX 46 76 47 77 73 78 74 79 83 80 75 81 76 82 82 83 84 84 77 85
REMARK SMILES IDX 78 86 79 87 80 88 81 89 57 90 58 91 67 92 59 93 60 94 66 95
REMARK SMILES IDX 68 96 61 97 62 98 63 99 64 100 65 101
REMARK H PARENT 8 20 89 51 55 62
REMARK Flexibility Score: inf
ROOT
ATOM      1  C   UNL A   1      34.350  22.851  26.415  1.00  0.00     0.188 C 
ENDROOT
BRANCH   1   2
ATOM      2  C   UNL A   1      33.923  21.433  26.866  1.00  0.00     0.188 C 
BRANCH   2   3
ATOM      3  O   UNL A   1      33.472  20.472  25.919  1.00  0.00    -0.376 OA
BRANCH   3   4
ATOM      4  C   UNL A   1      32.410  20.795  25.031  1.00  0.00     0.202 C 
BRANCH   4   5
ATOM      5  C   UNL A   1      32.706  21.436  23.661  1.00  0.00     0.261 C 
BRANCH   5   6
ATOM      6  O   UNL A   1      32.080  22.708  23.426  1.00  0.00    -0.460 OA
BRANCH   6   7
ATOM      7  C   UNL A   1      32.791  23.600  22.697  1.00  0.00     0.338 C 
ATOM      8  O   UNL A   1      33.738  23.364  21.965  1.00  0.00    -0.246 OA
BRANCH   7   9
ATOM      9  C   UNL A   1      32.158  24.935  22.783  1.00  0.00     0.060 A 
ATOM     10  C   UNL A   1      31.120  27.526  23.033  1.00  0.00     0.052 A 
ATOM     11  C   UNL A   1      32.341  27.326  22.387  1.00  0.00     0.028 A 
ATOM     12  C   UNL A   1      30.372  26.408  23.445  1.00  0.00     0.028 A 
ATOM     13  C   UNL A   1      32.875  26.038  22.296  1.00  0.00     0.018 A 
ATOM     14  C   UNL A   1      30.879  25.113  23.311  1.00  0.00     0.018 A 
BRANCH  10  15
ATOM     15  N   UNL A   1      30.685  28.827  23.343  1.00  0.00    -0.242 N 
ATOM     16  C   UNL A   1      30.879  29.524  24.501  1.00  0.00     0.189 A 
ATOM     17  N   UNL A   1      30.291  30.688  24.556  1.00  0.00    -0.150 NA
ATOM     18  N   UNL A   1      29.722  30.810  23.314  1.00  0.00    -0.226 N 
ATOM     19  C   UNL A   1      29.995  29.688  22.527  1.00  0.00     0.348 A 
ATOM     20  H   UNL A   1      29.191  31.584  23.016  1.00  0.00     0.195 HD
ATOM     21  O   UNL A   1      29.644  29.550  21.364  1.00  0.00    -0.246 OA
BRANCH  16  22
ATOM     22  C   UNL A   1      31.779  29.071  25.548  1.00  0.00     0.130 A 
ATOM     23  C   UNL A   1      34.925  29.255  27.069  1.00  0.00     0.173 C 
ATOM     24  N   UNL A   1      33.570  28.935  26.687  1.00  0.00    -0.275 N 
ATOM     25  C   UNL A   1      32.733  28.026  27.260  1.00  0.00     0.109 A 
ATOM     26  N   UNL A   1      33.019  29.587  25.656  1.00  0.00    -0.170 NA
ATOM     27  C   UNL A   1      31.547  28.113  26.566  1.00  0.00     0.054 A 
ENDBRANCH  16  22
ENDBRANCH  10  15
ENDBRANCH   7   9
ENDBRANCH   6   7
ENDBRANCH   5   6
ENDBRANCH   4   5
ENDBRANCH   3   4
ENDBRANCH   2   3
ENDBRANCH   1   2
BRANCH   1  28
ATOM     28  O   UNL A   1      35.676  22.937  25.920  1.00  0.00    -0.376 OA
BRANCH  28  29
ATOM     29  C   UNL A   1      36.365  21.730  25.623  1.00  0.00     0.202 C 
BRANCH  29  30
ATOM     30  C   UNL A   1      37.893  21.726  25.621  1.00  0.00     0.261 C 
BRANCH  30  31
ATOM     31  O   UNL A   1      38.500  22.723  26.424  1.00  0.00    -0.460 OA
BRANCH  31  32
ATOM     32  C   UNL A   1      39.780  22.491  26.772  1.00  0.00     0.338 C 
ATOM     33  O   UNL A   1      40.277  21.419  27.067  1.00  0.00    -0.246 OA
BRANCH  32  34
ATOM     34  C   UNL A   1      40.475  23.783  26.804  1.00  0.00     0.060 A 
ATOM     35  C   UNL A   1      41.770  23.810  27.327  1.00  0.00     0.016 A 
ATOM     36  C   UNL A   1      39.723  24.948  26.599  1.00  0.00     0.016 A 
ATOM     37  C   UNL A   1      42.230  24.994  27.863  1.00  0.00     0.010 A 
ATOM     38  C   UNL A   1      40.166  26.116  27.162  1.00  0.00     0.010 A 
ATOM     39  C   UNL A   1      41.371  26.094  27.864  1.00  0.00    -0.014 A 
BRANCH  39  40
ATOM     40  C   UNL A   1      41.691  27.216  28.722  1.00  0.00     0.031 A 
ATOM     41  C   UNL A   1      42.925  27.946  28.369  1.00  0.00     0.074 A 
ATOM     42  C   UNL A   1      40.786  27.629  29.632  1.00  0.00     0.049 A 
ATOM     43  N   UNL A   1      43.956  28.189  29.108  1.00  0.00    -0.248 NA
ATOM     44  C   UNL A   1      43.079  28.367  26.966  1.00  0.00     0.031 C 
ATOM     45  C   UNL A   1      39.407  27.145  29.785  1.00  0.00     0.029 A 
ATOM     46  N   UNL A   1      40.845  28.667  30.508  1.00  0.00    -0.354 N 
ATOM     47  C   UNL A   1      44.783  28.992  28.327  1.00  0.00     0.074 A 
ATOM     48  C   UNL A   1      44.299  28.897  26.978  1.00  0.00     0.031 C 
ATOM     49  C   UNL A   1      38.705  28.034  30.518  1.00  0.00     0.029 A 
ATOM     50  C   UNL A   1      39.601  29.088  30.962  1.00  0.00     0.049 A 
ATOM     51  H   UNL A   1      41.691  29.083  30.793  1.00  0.00     0.167 HD
ATOM     52  C   UNL A   1      45.623  29.902  28.886  1.00  0.00     0.037 A 
ATOM     53  C   UNL A   1      39.318  30.275  31.552  1.00  0.00     0.037 A 
ATOM     54  C   UNL A   1      45.900  29.592  30.265  1.00  0.00     0.049 A 
ATOM     55  C   UNL A   1      40.602  30.856  32.027  1.00  0.00     0.074 A 
ATOM     56  C   UNL A   1      46.418  28.492  30.923  1.00  0.00     0.029 A 
ATOM     57  N   UNL A   1      45.314  30.369  31.235  1.00  0.00    -0.354 N 
ATOM     58  N   UNL A   1      41.331  30.359  32.988  1.00  0.00    -0.248 NA
ATOM     59  C   UNL A   1      41.294  31.787  31.146  1.00  0.00     0.031 C 
ATOM     60  C   UNL A   1      45.737  28.444  32.173  1.00  0.00     0.029 A 
ATOM     61  C   UNL A   1      44.863  29.531  32.222  1.00  0.00     0.049 A 
ATOM     62  H   UNL A   1      45.232  31.350  31.222  1.00  0.00     0.167 HD
ATOM     63  C   UNL A   1      42.644  30.587  32.600  1.00  0.00     0.074 A 
ATOM     64  C   UNL A   1      42.556  31.569  31.525  1.00  0.00     0.031 C 
ATOM     65  C   UNL A   1      43.654  29.753  32.988  1.00  0.00     0.037 A 
BRANCH  52  66
ATOM     66  C   UNL A   1      45.868  31.269  28.288  1.00  0.00     0.058 A 
ATOM     67  C   UNL A   1      44.774  32.127  28.066  1.00  0.00     0.135 A 
ATOM     68  C   UNL A   1      47.079  31.652  27.663  1.00  0.00     0.135 A 
ATOM     69  F   UNL A   1      43.575  31.857  28.606  1.00  0.00    -0.206 F 
ATOM     70  C   UNL A   1      44.852  33.226  27.212  1.00  0.00     0.059 A 
ATOM     71  C   UNL A   1      47.195  32.779  26.862  1.00  0.00     0.059 A 
ATOM     72  F   UNL A   1      48.185  30.899  27.707  1.00  0.00    -0.206 F 
ATOM     73  C   UNL A   1      46.064  33.528  26.596  1.00  0.00     0.060 A 
BRANCH  73  74
ATOM     74  S   UNL A   1      46.138  34.840  25.367  1.00  0.00     0.124 S 
ATOM     75  O   UNL A   1      45.701  35.988  26.152  1.00  0.00    -0.237 OA
ATOM     76  O   UNL A   1      47.548  34.823  24.987  1.00  0.00    -0.237 OA
ATOM     77  O   UNL A   1      45.211  34.385  24.336  1.00  0.00    -0.744 OA
ENDBRANCH  73  74
ENDBRANCH  52  66
BRANCH  53  78
ATOM     78  C   UNL A   1      38.068  31.075  31.428  1.00  0.00     0.058 A 
ATOM     79  C   UNL A   1      37.255  31.330  32.545  1.00  0.00     0.135 A 
ATOM     80  C   UNL A   1      37.768  31.815  30.264  1.00  0.00     0.135 A 
ATOM     81  F   UNL A   1      37.486  30.697  33.706  1.00  0.00    -0.206 F 
ATOM     82  C   UNL A   1      36.229  32.282  32.521  1.00  0.00     0.059 A 
ATOM     83  C   UNL A   1      36.736  32.749  30.208  1.00  0.00     0.059 A 
ATOM     84  F   UNL A   1      38.525  31.721  29.161  1.00  0.00    -0.206 F 
ATOM     85  C   UNL A   1      35.985  32.997  31.349  1.00  0.00     0.060 A 
BRANCH  85  86
ATOM     86  S   UNL A   1      34.767  34.333  31.352  1.00  0.00     0.124 S 
ATOM     87  O   UNL A   1      33.623  33.696  31.996  1.00  0.00    -0.237 OA
ATOM     88  O   UNL A   1      35.444  35.365  32.130  1.00  0.00    -0.237 OA
ATOM     89  O   UNL A   1      34.594  34.638  29.934  1.00  0.00    -0.744 OA
ENDBRANCH  85  86
ENDBRANCH  53  78
BRANCH  65  90
ATOM     90  C   UNL A   1      43.396  28.804  34.128  1.00  0.00     0.058 A 
ATOM     91  C   UNL A   1      43.465  29.165  35.485  1.00  0.00     0.135 A 
ATOM     92  C   UNL A   1      42.905  27.524  33.830  1.00  0.00     0.135 A 
ATOM     93  F   UNL A   1      43.820  30.404  35.851  1.00  0.00    -0.206 F 
ATOM     94  C   UNL A   1      43.102  28.278  36.500  1.00  0.00     0.059 A 
ATOM     95  C   UNL A   1      42.507  26.634  34.824  1.00  0.00     0.059 A 
ATOM     96  F   UNL A   1      42.754  27.142  32.550  1.00  0.00    -0.206 F 
ATOM     97  C   UNL A   1      42.619  27.015  36.160  1.00  0.00     0.060 A 
BRANCH  97  98
ATOM     98  S   UNL A   1      42.053  25.908  37.471  1.00  0.00     0.124 S 
ATOM     99  O   UNL A   1      43.103  26.060  38.474  1.00  0.00    -0.237 OA
ATOM    100  O   UNL A   1      40.753  26.470  37.826  1.00  0.00    -0.237 OA
ATOM    101  O   UNL A   1      41.999  24.604  36.816  1.00  0.00    -0.744 OA
ENDBRANCH  97  98
ENDBRANCH  65  90
ENDBRANCH  39  40
ENDBRANCH  32  34
ENDBRANCH  31  32
ENDBRANCH  30  31
ENDBRANCH  29  30
ENDBRANCH  28  29
ENDBRANCH   1  28
TORSDOF 22
ENDMDL
MODEL 2
REMARK VINA RESULT:      -9.8      2.693      4.330
REMARK SMILES Cn1ccc(-c2n[nH]c(=O)n2-c2ccc(C(=O)OCCOCCOCCOC(=O)c3ccc(-c4c5nc(c(-c6c(F)cc(S(=O)(=O)[O-])cc6F)c6ccc([nH]6)c(-c6c(F)cc(S(=O)(=O)[O-])cc6F)c6nc(c(-c7c(F)cc(S(=O)(=O)[O-])cc7F)c7ccc4[nH]7)C=C6)C=C5)cc3)cc2)n1
REMARK SMILES IDX 23 1 22 2 21 3 20 4 19 5 18 6 16 7 17 8 15 9 12 10 13 11
REMARK SMILES IDX 97 12 14 13 96 14 11 15 6 16 7 17 8 18 9 19 10 21 5 22 1 23
REMARK SMILES IDX 2 24 3 25 98 26 4 27 24 28 25 29 26 30 27 31 28 32 29 33
REMARK SMILES IDX 30 34 31 35 95 36 32 37 94 38 33 39 34 40 35 41 88 42 36 43
REMARK SMILES IDX 93 44 87 45 89 46 37 47 92 48 86 49 85 50 38 52 72 53 51 54
REMARK SMILES IDX 71 55 52 56 55 57 70 58 90 59 53 60 54 61 69 63 91 64 56 65
REMARK SMILES IDX 39 66 40 67 49 68 41 69 42 70 48 71 50 72 43 73 44 74 45 75
REMARK SMILES IDX 46 76 47 77 73 78 74 79 83 80 75 81 76 82 82 83 84 84 77 85
REMARK SMILES IDX 78 86 79 87 80 88 81 89 57 90 58 91 67 92 59 93 60 94 66 95
REMARK SMILES IDX 68 96 61 97 62 98 63 99 64 100 65 101
REMARK H PARENT 8 20 89 51 55 62
REMARK Flexibility Score: inf
ROOT
ATOM      1  C   UNL A   1      43.200  21.297  26.068  1.00  0.00     0.188 C 
ENDROOT
BRANCH   1   2
ATOM      2  C   UNL A   1      41.683  20.997  26.145  1.00  0.00     0.188 C 
BRANCH   2   3
ATOM      3  O   UNL A   1      40.724  22.020  25.907  1.00  0.00    -0.376 OA
BRANCH   3   4
ATOM      4  C   UNL A   1      39.400  21.880  26.402  1.00  0.00     0.202 C 
BRANCH   4   5
ATOM      5  C   UNL A   1      38.231  21.596  25.437  1.00  0.00     0.261 C 
BRANCH   5   6
ATOM      6  O   UNL A   1      37.023  22.329  25.699  1.00  0.00    -0.460 OA
BRANCH   6   7
ATOM      7  C   UNL A   1      35.865  21.713  25.364  1.00  0.00     0.338 C 
ATOM      8  O   UNL A   1      35.453  20.643  25.781  1.00  0.00    -0.246 OA
BRANCH   7   9
ATOM      9  C   UNL A   1      35.052  22.605  24.507  1.00  0.00     0.060 A 
ATOM     10  C   UNL A   1      33.494  24.411  23.037  1.00  0.00     0.052 A 
ATOM     11  C   UNL A   1      34.662  24.850  23.662  1.00  0.00     0.028 A 
ATOM     12  C   UNL A   1      33.180  23.040  23.056  1.00  0.00     0.028 A 
ATOM     13  C   UNL A   1      35.417  23.956  24.426  1.00  0.00     0.018 A 
ATOM     14  C   UNL A   1      33.960  22.132  23.778  1.00  0.00     0.018 A 
BRANCH  10  15
ATOM     15  N   UNL A   1      32.602  25.337  22.468  1.00  0.00    -0.242 N 
ATOM     16  C   UNL A   1      31.644  26.078  23.099  1.00  0.00     0.189 A 
ATOM     17  N   UNL A   1      30.892  26.802  22.315  1.00  0.00    -0.150 NA
ATOM     18  N   UNL A   1      31.435  26.585  21.074  1.00  0.00    -0.226 N 
ATOM     19  C   UNL A   1      32.528  25.717  21.151  1.00  0.00     0.348 A 
ATOM     20  H   UNL A   1      31.098  26.985  20.240  1.00  0.00     0.195 HD
ATOM     21  O   UNL A   1      33.222  25.385  20.202  1.00  0.00    -0.246 OA
BRANCH  16  22
ATOM     22  C   UNL A   1      31.547  26.164  24.546  1.00  0.00     0.130 A 
ATOM     23  C   UNL A   1      31.904  28.074  27.456  1.00  0.00     0.173 C 
ATOM     24  N   UNL A   1      31.668  27.034  26.483  1.00  0.00    -0.275 N 
ATOM     25  C   UNL A   1      31.278  25.749  26.712  1.00  0.00     0.109 A 
ATOM     26  N   UNL A   1      31.830  27.315  25.185  1.00  0.00    -0.170 NA
ATOM     27  C   UNL A   1      31.156  25.164  25.471  1.00  0.00     0.054 A 
ENDBRANCH  16  22
ENDBRANCH  10  15
ENDBRANCH   7   9
ENDBRANCH   6   7
ENDBRANCH   5   6
ENDBRANCH   4   5
ENDBRANCH   3   4
ENDBRANCH   2   3
ENDBRANCH   1   2
BRANCH   1  28
ATOM     28  O   UNL A   1      43.715  21.389  24.750  1.00  0.00    -0.376 OA
BRANCH  28  29
ATOM     29  C   UNL A   1      44.186  22.650  24.295  1.00  0.00     0.202 C 
BRANCH  29  30
ATOM     30  C   UNL A   1      44.315  23.800  25.293  1.00  0.00     0.261 C 
BRANCH  30  31
ATOM     31  O   UNL A   1      44.098  25.092  24.754  1.00  0.00    -0.460 OA
BRANCH  31  32
ATOM     32  C   UNL A   1      42.962  25.703  25.144  1.00  0.00     0.338 C 
ATOM     33  O   UNL A   1      41.833  25.249  25.101  1.00  0.00    -0.246 OA
BRANCH  32  34
ATOM     34  C   UNL A   1      43.312  27.061  25.575  1.00  0.00     0.060 A 
ATOM     35  C   UNL A   1      44.408  27.208  26.429  1.00  0.00     0.016 A 
ATOM     36  C   UNL A   1      42.380  28.087  25.366  1.00  0.00     0.016 A 
ATOM     37  C   UNL A   1      44.445  28.310  27.256  1.00  0.00     0.010 A 
ATOM     38  C   UNL A   1      42.399  29.165  26.211  1.00  0.00     0.010 A 
ATOM     39  C   UNL A   1      43.379  29.210  27.203  1.00  0.00    -0.014 A 
BRANCH  39  40
ATOM     40  C   UNL A   1      43.223  30.157  28.286  1.00  0.00     0.031 A 
ATOM     41  C   UNL A   1      44.297  31.164  28.400  1.00  0.00     0.074 A 
ATOM     42  C   UNL A   1      42.066  30.184  28.977  1.00  0.00     0.049 A 
ATOM     43  N   UNL A   1      45.047  31.430  29.417  1.00  0.00    -0.248 NA
ATOM     44  C   UNL A   1      44.658  31.903  27.178  1.00  0.00     0.031 C 
ATOM     45  C   UNL A   1      40.842  29.427  28.675  1.00  0.00     0.029 A 
ATOM     46  N   UNL A   1      41.679  30.998  29.995  1.00  0.00    -0.354 N 
ATOM     47  C   UNL A   1      45.814  32.524  29.029  1.00  0.00     0.074 A 
ATOM     48  C   UNL A   1      45.683  32.637  27.602  1.00  0.00     0.031 C 
ATOM     49  C   UNL A   1      39.803  29.988  29.329  1.00  0.00     0.029 A 
ATOM     50  C   UNL A   1      40.301  31.068  30.163  1.00  0.00     0.049 A 
ATOM     51  H   UNL A   1      42.316  31.492  30.560  1.00  0.00     0.167 HD
ATOM     52  C   UNL A   1      46.268  33.432  29.933  1.00  0.00     0.037 A 
ATOM     53  C   UNL A   1      39.620  32.023  30.842  1.00  0.00     0.037 A 
ATOM     54  C   UNL A   1      46.293  32.886  31.266  1.00  0.00     0.049 A 
ATOM     55  C   UNL A   1      40.589  32.717  31.731  1.00  0.00     0.074 A 
ATOM     56  C   UNL A   1      46.894  31.786  31.848  1.00  0.00     0.029 A 
ATOM     57  N   UNL A   1      45.336  33.308  32.157  1.00  0.00    -0.354 N 
ATOM     58  N   UNL A   1      41.180  32.168  32.758  1.00  0.00    -0.248 NA
ATOM     59  C   UNL A   1      41.222  33.931  31.233  1.00  0.00     0.031 C 
ATOM     60  C   UNL A   1      45.981  31.339  32.845  1.00  0.00     0.029 A 
ATOM     61  C   UNL A   1      44.887  32.205  32.837  1.00  0.00     0.049 A 
ATOM     62  H   UNL A   1      45.030  34.235  32.285  1.00  0.00     0.167 HD
ATOM     63  C   UNL A   1      42.455  32.718  32.777  1.00  0.00     0.074 A 
ATOM     64  C   UNL A   1      42.381  33.876  31.893  1.00  0.00     0.031 C 
ATOM     65  C   UNL A   1      43.519  32.024  33.278  1.00  0.00     0.037 A 
BRANCH  52  66
ATOM     66  C   UNL A   1      46.310  34.917  29.655  1.00  0.00     0.058 A 
ATOM     67  C   UNL A   1      47.502  35.626  29.894  1.00  0.00     0.135 A 
ATOM     68  C   UNL A   1      45.159  35.714  29.443  1.00  0.00     0.135 A 
ATOM     69  F   UNL A   1      48.653  34.971  30.113  1.00  0.00    -0.206 F 
ATOM     70  C   UNL A   1      47.531  37.016  30.010  1.00  0.00     0.059 A 
ATOM     71  C   UNL A   1      45.178  37.100  29.489  1.00  0.00     0.059 A 
ATOM     72  F   UNL A   1      43.936  35.192  29.288  1.00  0.00    -0.206 F 
ATOM     73  C   UNL A   1      46.356  37.741  29.829  1.00  0.00     0.060 A 
BRANCH  73  74
ATOM     74  S   UNL A   1      46.344  39.513  30.137  1.00  0.00     0.124 S 
ATOM     75  O   UNL A   1      47.212  39.604  31.305  1.00  0.00    -0.237 OA
ATOM     76  O   UNL A   1      46.889  40.043  28.890  1.00  0.00    -0.237 OA
ATOM     77  O   UNL A   1      44.933  39.802  30.370  1.00  0.00    -0.744 OA
ENDBRANCH  73  74
ENDBRANCH  52  66
BRANCH  53  78
ATOM     78  C   UNL A   1      38.277  32.581  30.522  1.00  0.00     0.058 A 
ATOM     79  C   UNL A   1      38.121  33.586  29.553  1.00  0.00     0.135 A 
ATOM     80  C   UNL A   1      37.088  31.975  30.980  1.00  0.00     0.135 A 
ATOM     81  F   UNL A   1      39.198  34.196  29.034  1.00  0.00    -0.206 F 
ATOM     82  C   UNL A   1      36.867  33.945  29.044  1.00  0.00     0.059 A 
ATOM     83  C   UNL A   1      35.828  32.332  30.508  1.00  0.00     0.059 A 
ATOM     84  F   UNL A   1      37.114  30.947  31.841  1.00  0.00    -0.206 F 
ATOM     85  C   UNL A   1      35.725  33.302  29.520  1.00  0.00     0.060 A 
BRANCH  85  86
ATOM     86  S   UNL A   1      34.121  33.649  28.762  1.00  0.00     0.124 S 
ATOM     87  O   UNL A   1      34.472  34.643  27.755  1.00  0.00    -0.237 OA
ATOM     88  O   UNL A   1      33.729  32.338  28.256  1.00  0.00    -0.237 OA
ATOM     89  O   UNL A   1      33.319  34.148  29.877  1.00  0.00    -0.744 OA
ENDBRANCH  85  86
ENDBRANCH  53  78
BRANCH  65  90
ATOM     90  C   UNL A   1      43.243  30.818  34.136  1.00  0.00     0.058 A 
ATOM     91  C   UNL A   1      43.007  30.873  35.521  1.00  0.00     0.135 A 
ATOM     92  C   UNL A   1      43.054  29.580  33.503  1.00  0.00     0.135 A 
ATOM     93  F   UNL A   1      43.059  32.037  36.182  1.00  0.00    -0.206 F 
ATOM     94  C   UNL A   1      42.639  29.740  36.248  1.00  0.00     0.059 A 
ATOM     95  C   UNL A   1      42.658  28.444  34.203  1.00  0.00     0.059 A 
ATOM     96  F   UNL A   1      43.202  29.476  32.171  1.00  0.00    -0.206 F 
ATOM     97  C   UNL A   1      42.463  28.529  35.580  1.00  0.00     0.060 A 
BRANCH  97  98
ATOM     98  S   UNL A   1      41.888  27.089  36.508  1.00  0.00     0.124 S 
ATOM     99  O   UNL A   1      41.719  26.093  35.454  1.00  0.00    -0.237 OA
ATOM    100  O   UNL A   1      42.987  26.847  37.438  1.00  0.00    -0.237 OA
ATOM    101  O   UNL A   1      40.651  27.556  37.129  1.00  0.00    -0.744 OA
ENDBRANCH  97  98
ENDBRANCH  65  90
ENDBRANCH  39  40
ENDBRANCH  32  34
ENDBRANCH  31  32
ENDBRANCH  30  31
ENDBRANCH  29  30
ENDBRANCH  28  29
ENDBRANCH   1  28
TORSDOF 22
ENDMDL
MODEL 3
REMARK VINA RESULT:      -9.6      2.707      4.338
REMARK SMILES Cn1ccc(-c2n[nH]c(=O)n2-c2ccc(C(=O)OCCOCCOCCOC(=O)c3ccc(-c4c5nc(c(-c6c(F)cc(S(=O)(=O)[O-])cc6F)c6ccc([nH]6)c(-c6c(F)cc(S(=O)(=O)[O-])cc6F)c6nc(c(-c7c(F)cc(S(=O)(=O)[O-])cc7F)c7ccc4[nH]7)C=C6)C=C5)cc3)cc2)n1
REMARK SMILES IDX 23 1 22 2 21 3 20 4 19 5 18 6 16 7 17 8 15 9 12 10 13 11
REMARK SMILES IDX 97 12 14 13 96 14 11 15 6 16 7 17 8 18 9 19 10 21 5 22 1 23
REMARK SMILES IDX 2 24 3 25 98 26 4 27 24 28 25 29 26 30 27 31 28 32 29 33
REMARK SMILES IDX 30 34 31 35 95 36 32 37 94 38 33 39 34 40 35 41 88 42 36 43
REMARK SMILES IDX 93 44 87 45 89 46 37 47 92 48 86 49 85 50 38 52 72 53 51 54
REMARK SMILES IDX 71 55 52 56 55 57 70 58 90 59 53 60 54 61 69 63 91 64 56 65
REMARK SMILES IDX 39 66 40 67 49 68 41 69 42 70 48 71 50 72 43 73 44 74 45 75
REMARK SMILES IDX 46 76 47 77 73 78 74 79 83 80 75 81 76 82 82 83 84 84 77 85
REMARK SMILES IDX 78 86 79 87 80 88 81 89 57 90 58 91 67 92 59 93 60 94 66 95
REMARK SMILES IDX 68 96 61 97 62 98 63 99 64 100 65 101
REMARK H PARENT 8 20 89 51 55 62
REMARK Flexibility Score: inf
ROOT
ATOM      1  C   UNL A   1      42.486  21.042  26.123  1.00  0.00     0.188 C 
ENDROOT
BRANCH   1   2
ATOM      2  C   UNL A   1      42.140  21.992  27.295  1.00  0.00     0.188 C 
BRANCH   2   3
ATOM      3  O   UNL A   1      40.786  22.245  27.653  1.00  0.00    -0.376 OA
BRANCH   3   4
ATOM      4  C   UNL A   1      39.941  22.967  26.767  1.00  0.00     0.202 C 
BRANCH   4   5
ATOM      5  C   UNL A   1      38.612  22.354  26.284  1.00  0.00     0.261 C 
BRANCH   5   6
ATOM      6  O   UNL A   1      37.842  23.175  25.390  1.00  0.00    -0.460 OA
BRANCH   6   7
ATOM      7  C   UNL A   1      37.016  22.522  24.539  1.00  0.00     0.338 C 
ATOM      8  O   UNL A   1      37.071  21.348  24.215  1.00  0.00    -0.246 OA
BRANCH   7   9
ATOM      9  C   UNL A   1      35.898  23.410  24.145  1.00  0.00     0.060 A 
ATOM     10  C   UNL A   1      33.699  25.050  23.573  1.00  0.00     0.052 A 
ATOM     11  C   UNL A   1      34.455  25.278  24.724  1.00  0.00     0.028 A 
ATOM     12  C   UNL A   1      34.127  24.072  22.655  1.00  0.00     0.028 A 
ATOM     13  C   UNL A   1      35.528  24.435  25.027  1.00  0.00     0.018 A 
ATOM     14  C   UNL A   1      35.230  23.259  22.930  1.00  0.00     0.018 A 
BRANCH  10  15
ATOM     15  N   UNL A   1      32.484  25.729  23.374  1.00  0.00    -0.242 N 
ATOM     16  C   UNL A   1      31.249  25.399  23.855  1.00  0.00     0.189 A 
ATOM     17  N   UNL A   1      30.271  26.160  23.446  1.00  0.00    -0.150 NA
ATOM     18  N   UNL A   1      30.909  27.113  22.693  1.00  0.00    -0.226 N 
ATOM     19  C   UNL A   1      32.289  26.894  22.676  1.00  0.00     0.348 A 
ATOM     20  H   UNL A   1      30.455  27.853  22.228  1.00  0.00     0.195 HD
ATOM     21  O   UNL A   1      33.102  27.615  22.116  1.00  0.00    -0.246 OA
BRANCH  16  22
ATOM     22  C   UNL A   1      31.047  24.362  24.852  1.00  0.00     0.130 A 
ATOM     23  C   UNL A   1      31.362  21.001  25.772  1.00  0.00     0.173 C 
ATOM     24  N   UNL A   1      31.082  22.416  25.708  1.00  0.00    -0.275 N 
ATOM     25  C   UNL A   1      30.484  23.192  26.654  1.00  0.00     0.109 A 
ATOM     26  N   UNL A   1      31.440  23.096  24.613  1.00  0.00    -0.170 NA
ATOM     27  C   UNL A   1      30.476  24.471  26.144  1.00  0.00     0.054 A 
ENDBRANCH  16  22
ENDBRANCH  10  15
ENDBRANCH   7   9
ENDBRANCH   6   7
ENDBRANCH   5   6
ENDBRANCH   4   5
ENDBRANCH   3   4
ENDBRANCH   2   3
ENDBRANCH   1   2
BRANCH   1  28
ATOM     28  O   UNL A   1      42.958  21.695  24.956  1.00  0.00    -0.376 OA
BRANCH  28  29
ATOM     29  C   UNL A   1      44.289  21.440  24.532  1.00  0.00     0.202 C 
BRANCH  29  30
ATOM     30  C   UNL A   1      45.403  21.366  25.576  1.00  0.00     0.261 C 
BRANCH  30  31
ATOM     31  O   UNL A   1      46.449  22.306  25.409  1.00  0.00    -0.460 OA
BRANCH  31  32
ATOM     32  C   UNL A   1      46.079  23.513  24.939  1.00  0.00     0.338 C 
ATOM     33  O   UNL A   1      46.528  24.089  23.964  1.00  0.00    -0.246 OA
BRANCH  32  34
ATOM     34  C   UNL A   1      45.071  24.058  25.854  1.00  0.00     0.060 A 
ATOM     35  C   UNL A   1      44.098  24.905  25.318  1.00  0.00     0.016 A 
ATOM     36  C   UNL A   1      45.300  23.956  27.234  1.00  0.00     0.016 A 
ATOM     37  C   UNL A   1      43.506  25.827  26.154  1.00  0.00     0.010 A 
ATOM     38  C   UNL A   1      44.736  24.894  28.058  1.00  0.00     0.010 A 
ATOM     39  C   UNL A   1      43.921  25.871  27.486  1.00  0.00    -0.014 A 
BRANCH  39  40
ATOM     40  C   UNL A   1      43.583  27.037  28.274  1.00  0.00     0.031 A 
ATOM     41  C   UNL A   1      44.585  28.122  28.253  1.00  0.00     0.074 A 
ATOM     42  C   UNL A   1      42.347  27.142  28.802  1.00  0.00     0.049 A 
ATOM     43  N   UNL A   1      45.186  28.683  29.249  1.00  0.00    -0.248 NA
ATOM     44  C   UNL A   1      45.064  28.568  26.933  1.00  0.00     0.031 C 
ATOM     45  C   UNL A   1      41.208  26.242  28.562  1.00  0.00     0.029 A 
ATOM     46  N   UNL A   1      41.795  28.146  29.534  1.00  0.00    -0.354 N 
ATOM     47  C   UNL A   1      45.944  29.706  28.688  1.00  0.00     0.074 A 
ATOM     48  C   UNL A   1      45.992  29.459  27.274  1.00  0.00     0.031 C 
ATOM     49  C   UNL A   1      40.069  26.863  28.934  1.00  0.00     0.029 A 
ATOM     50  C   UNL A   1      40.405  28.149  29.523  1.00  0.00     0.049 A 
ATOM     51  H   UNL A   1      42.330  28.810  30.025  1.00  0.00     0.167 HD
ATOM     52  C   UNL A   1      46.235  30.838  29.382  1.00  0.00     0.037 A 
ATOM     53  C   UNL A   1      39.599  29.184  29.861  1.00  0.00     0.037 A 
ATOM     54  C   UNL A   1      46.115  30.634  30.803  1.00  0.00     0.049 A 
ATOM     55  C   UNL A   1      40.413  30.145  30.651  1.00  0.00     0.074 A 
ATOM     56  C   UNL A   1      46.687  29.758  31.706  1.00  0.00     0.029 A 
ATOM     57  N   UNL A   1      45.033  31.185  31.447  1.00  0.00    -0.354 N 
ATOM     58  N   UNL A   1      40.893  29.909  31.842  1.00  0.00    -0.248 NA
ATOM     59  C   UNL A   1      41.046  31.247  29.939  1.00  0.00     0.031 C 
ATOM     60  C   UNL A   1      45.676  29.497  32.674  1.00  0.00     0.029 A 
ATOM     61  C   UNL A   1      44.552  30.249  32.326  1.00  0.00     0.049 A 
ATOM     62  H   UNL A   1      44.670  32.089  31.304  1.00  0.00     0.167 HD
ATOM     63  C   UNL A   1      42.127  30.543  31.866  1.00  0.00     0.074 A 
ATOM     64  C   UNL A   1      42.113  31.443  30.719  1.00  0.00     0.031 C 
ATOM     65  C   UNL A   1      43.149  30.075  32.642  1.00  0.00     0.037 A 
BRANCH  52  66
ATOM     66  C   UNL A   1      46.243  32.210  28.748  1.00  0.00     0.058 A 
ATOM     67  C   UNL A   1      47.361  33.045  28.935  1.00  0.00     0.135 A 
ATOM     68  C   UNL A   1      45.092  32.841  28.217  1.00  0.00     0.135 A 
ATOM     69  F   UNL A   1      48.504  32.553  29.438  1.00  0.00    -0.206 F 
ATOM     70  C   UNL A   1      47.310  34.419  28.702  1.00  0.00     0.059 A 
ATOM     71  C   UNL A   1      45.042  34.194  27.916  1.00  0.00     0.059 A 
ATOM     72  F   UNL A   1      43.925  32.205  28.061  1.00  0.00    -0.206 F 
ATOM     73  C   UNL A   1      46.135  34.987  28.215  1.00  0.00     0.060 A 
BRANCH  73  74
ATOM     74  S   UNL A   1      46.001  36.775  28.067  1.00  0.00     0.124 S 
ATOM     75  O   UNL A   1      47.334  37.194  28.486  1.00  0.00    -0.237 OA
ATOM     76  O   UNL A   1      45.693  36.941  26.650  1.00  0.00    -0.237 OA
ATOM     77  O   UNL A   1      44.914  37.105  28.982  1.00  0.00    -0.744 OA
ENDBRANCH  73  74
ENDBRANCH  52  66
BRANCH  53  78
ATOM     78  C   UNL A   1      38.284  29.543  29.262  1.00  0.00     0.058 A 
ATOM     79  C   UNL A   1      38.133  29.691  27.873  1.00  0.00     0.135 A 
ATOM     80  C   UNL A   1      37.088  29.511  30.012  1.00  0.00     0.135 A 
ATOM     81  F   UNL A   1      39.213  29.699  27.076  1.00  0.00    -0.206 F 
ATOM     82  C   UNL A   1      36.877  29.767  27.261  1.00  0.00     0.059 A 
ATOM     83  C   UNL A   1      35.828  29.611  29.428  1.00  0.00     0.059 A 
ATOM     84  F   UNL A   1      37.098  29.290  31.335  1.00  0.00    -0.206 F 
ATOM     85  C   UNL A   1      35.727  29.714  28.048  1.00  0.00     0.060 A 
BRANCH  85  86
ATOM     86  S   UNL A   1      34.103  29.659  27.257  1.00  0.00     0.124 S 
ATOM     87  O   UNL A   1      33.515  28.466  27.858  1.00  0.00    -0.237 OA
ATOM     88  O   UNL A   1      33.518  30.932  27.663  1.00  0.00    -0.237 OA
ATOM     89  O   UNL A   1      34.421  29.548  25.836  1.00  0.00    -0.744 OA
ENDBRANCH  85  86
ENDBRANCH  53  78
BRANCH  65  90
ATOM     90  C   UNL A   1      42.823  29.096  33.737  1.00  0.00     0.058 A 
ATOM     91  C   UNL A   1      42.320  29.462  34.998  1.00  0.00     0.135 A 
ATOM     92  C   UNL A   1      42.871  27.725  33.440  1.00  0.00     0.135 A 
ATOM     93  F   UNL A   1      42.139  30.750  35.319  1.00  0.00    -0.206 F 
ATOM     94  C   UNL A   1      41.922  28.507  35.935  1.00  0.00     0.059 A 
ATOM     95  C   UNL A   1      42.450  26.756  34.348  1.00  0.00     0.059 A 
ATOM     96  F   UNL A   1      43.281  27.313  32.229  1.00  0.00    -0.206 F 
ATOM     97  C   UNL A   1      41.987  27.155  35.599  1.00  0.00     0.060 A 
BRANCH  97  98
ATOM     98  S   UNL A   1      41.376  25.927  36.776  1.00  0.00     0.124 S 
ATOM     99  O   UNL A   1      40.587  25.048  35.919  1.00  0.00    -0.237 OA
ATOM    100  O   UNL A   1      42.608  25.354  37.310  1.00  0.00    -0.237 OA
ATOM    101  O   UNL A   1      40.607  26.724  37.730  1.00  0.00    -0.744 OA
ENDBRANCH  97  98
ENDBRANCH  65  90
ENDBRANCH  39  40
ENDBRANCH  32  34
ENDBRANCH  31  32
ENDBRANCH  30  31
ENDBRANCH  29  30
ENDBRANCH  28  29
ENDBRANCH   1  28
TORSDOF 22
ENDMDL
