MODEL 1
REMARK VINA RESULT:      -7.9      0.000      0.000
REMARK SMILES C[C@@H]1[C@@H](C(=O)OCCOCCOCCOC(=O)c2ccc(-c3c4nc(c(-c5c(F)cc(S(=O)(=O)[O-])cc5F)c5ccc([nH]5)c(-c5c(F)cc(S(=O)(=O)[O-])cc5F)c5nc(c(-c6c(F)cc(S(=O)(=O)[O-])cc6F)c6ccc3[nH]6)C=C5)C=C4)cc2)CCN1C(=O)N(C)Cc1ccsc1
REMARK SMILES IDX 10 1 9 2 8 3 7 4 6 5 4 6 5 7 3 8 1 9 2 10 86 11 84 12 85 13
REMARK SMILES IDX 87 14 88 15 89 16 90 17 91 18 92 19 93 20 96 21 94 22 95 23
REMARK SMILES IDX 11 24 12 25 13 26 14 27 15 28 16 29 17 30 18 31 19 32 83 33
REMARK SMILES IDX 20 34 82 35 21 36 22 37 23 38 76 39 24 40 81 41 75 42 77 43
REMARK SMILES IDX 25 44 80 45 74 46 73 47 26 49 60 50 39 51 59 52 40 53 43 54
REMARK SMILES IDX 58 55 78 56 41 57 42 58 57 60 79 61 44 62 27 63 28 64 37 65
REMARK SMILES IDX 29 66 30 67 36 68 38 69 31 70 32 71 33 72 34 73 35 74 61 75
REMARK SMILES IDX 62 76 71 77 63 78 64 79 70 80 72 81 65 82 66 83 67 84 68 85
REMARK SMILES IDX 69 86 45 87 46 88 55 89 47 90 48 91 54 92 56 93 49 94 50 95
REMARK SMILES IDX 51 96 52 97 53 98
REMARK H PARENT 77 48 43 59
REMARK Flexibility Score: inf
ROOT
ATOM      1  C   UNL A   1      33.918  35.237  31.076  1.00  0.00     0.188 C 
ENDROOT
BRANCH   1   2
ATOM      2  O   UNL A   1      33.382  34.233  31.905  1.00  0.00    -0.376 OA
BRANCH   2   3
ATOM      3  C   UNL A   1      34.193  33.147  32.324  1.00  0.00     0.202 C 
BRANCH   3   4
ATOM      4  C   UNL A   1      35.024  32.242  31.391  1.00  0.00     0.261 C 
BRANCH   4   5
ATOM      5  O   UNL A   1      36.278  32.740  30.918  1.00  0.00    -0.463 OA
BRANCH   5   6
ATOM      6  C   UNL A   1      37.344  32.482  31.723  1.00  0.00     0.311 C 
ATOM      7  O   UNL A   1      37.657  31.362  32.101  1.00  0.00    -0.252 OA
BRANCH   6   8
ATOM      8  C   UNL A   1      38.123  33.756  32.019  1.00  0.00     0.123 C 
ATOM      9  C   UNL A   1      40.330  34.470  33.052  1.00  0.00     0.032 C 
ATOM     10  C   UNL A   1      39.174  33.460  33.100  1.00  0.00     0.098 C 
ATOM     11  N   UNL A   1      38.404  33.581  34.336  1.00  0.00    -0.321 N 
ATOM     12  C   UNL A   1      37.244  34.817  32.652  1.00  0.00     0.039 C 
ATOM     13  C   UNL A   1      37.196  34.375  34.101  1.00  0.00     0.122 C 
BRANCH  11  14
ATOM     14  C   UNL A   1      38.412  32.823  35.479  1.00  0.00     0.320 C 
ATOM     15  O   UNL A   1      37.350  32.735  36.113  1.00  0.00    -0.248 OA
BRANCH  14  16
ATOM     16  N   UNL A   1      39.553  32.236  35.978  1.00  0.00    -0.323 N 
ATOM     17  C   UNL A   1      40.835  32.784  36.396  1.00  0.00     0.149 C 
BRANCH  16  18
ATOM     18  C   UNL A   1      39.453  30.788  36.185  1.00  0.00     0.157 C 
BRANCH  18  19
ATOM     19  C   UNL A   1      40.455  30.033  35.335  1.00  0.00    -0.018 A 
ATOM     20  C   UNL A   1      40.381  29.987  33.902  1.00  0.00     0.017 A 
ATOM     21  C   UNL A   1      41.519  29.264  35.781  1.00  0.00     0.070 A 
ATOM     22  C   UNL A   1      41.340  29.172  33.343  1.00  0.00     0.065 A 
ATOM     23  S   UNL A   1      42.357  28.473  34.521  1.00  0.00    -0.152 S 
ENDBRANCH  18  19
ENDBRANCH  16  18
ENDBRANCH  14  16
ENDBRANCH  11  14
ENDBRANCH   6   8
ENDBRANCH   5   6
ENDBRANCH   4   5
ENDBRANCH   3   4
ENDBRANCH   2   3
ENDBRANCH   1   2
BRANCH   1  24
ATOM     24  C   UNL A   1      32.969  35.681  29.945  1.00  0.00     0.188 C 
BRANCH  24  25
ATOM     25  O   UNL A   1      32.626  34.777  28.910  1.00  0.00    -0.376 OA
BRANCH  25  26
ATOM     26  C   UNL A   1      33.670  34.054  28.268  1.00  0.00     0.202 C 
BRANCH  26  27
ATOM     27  C   UNL A   1      33.617  32.522  28.066  1.00  0.00     0.261 C 
BRANCH  27  28
ATOM     28  O   UNL A   1      34.860  31.851  27.809  1.00  0.00    -0.460 OA
BRANCH  28  29
ATOM     29  C   UNL A   1      34.828  30.499  27.899  1.00  0.00     0.338 C 
ATOM     30  O   UNL A   1      33.870  29.768  27.661  1.00  0.00    -0.246 OA
BRANCH  29  31
ATOM     31  C   UNL A   1      36.191  29.981  28.122  1.00  0.00     0.060 A 
ATOM     32  C   UNL A   1      36.539  29.513  29.399  1.00  0.00     0.016 A 
ATOM     33  C   UNL A   1      37.136  30.001  27.097  1.00  0.00     0.016 A 
ATOM     34  C   UNL A   1      37.836  29.072  29.660  1.00  0.00     0.010 A 
ATOM     35  C   UNL A   1      38.445  29.590  27.368  1.00  0.00     0.010 A 
ATOM     36  C   UNL A   1      38.807  29.148  28.656  1.00  0.00    -0.014 A 
BRANCH  36  37
ATOM     37  C   UNL A   1      40.239  28.953  28.993  1.00  0.00     0.031 A 
ATOM     38  C   UNL A   1      40.878  27.633  28.657  1.00  0.00     0.074 A 
ATOM     39  C   UNL A   1      40.960  29.925  29.581  1.00  0.00     0.049 A 
ATOM     40  N   UNL A   1      42.074  27.192  28.946  1.00  0.00    -0.248 NA
ATOM     41  C   UNL A   1      40.052  26.682  27.895  1.00  0.00     0.031 C 
ATOM     42  C   UNL A   1      40.472  31.264  29.907  1.00  0.00     0.029 A 
ATOM     43  N   UNL A   1      42.259  29.923  30.026  1.00  0.00    -0.354 N 
ATOM     44  C   UNL A   1      42.144  25.912  28.409  1.00  0.00     0.074 A 
ATOM     45  C   UNL A   1      40.860  25.636  27.802  1.00  0.00     0.031 C 
ATOM     46  C   UNL A   1      41.454  31.948  30.521  1.00  0.00     0.029 A 
ATOM     47  C   UNL A   1      42.625  31.083  30.665  1.00  0.00     0.049 A 
ATOM     48  H   UNL A   1      42.871  29.162  29.898  1.00  0.00     0.167 HD
ATOM     49  C   UNL A   1      43.185  25.046  28.414  1.00  0.00     0.037 A 
ATOM     50  C   UNL A   1      43.763  31.396  31.319  1.00  0.00     0.037 A 
ATOM     51  C   UNL A   1      44.458  25.321  29.028  1.00  0.00     0.049 A 
ATOM     52  C   UNL A   1      44.876  30.378  31.396  1.00  0.00     0.074 A 
ATOM     53  C   UNL A   1      45.576  24.508  29.092  1.00  0.00     0.029 A 
ATOM     54  N   UNL A   1      44.781  26.496  29.690  1.00  0.00    -0.354 N 
ATOM     55  N   UNL A   1      44.933  29.173  30.881  1.00  0.00    -0.248 NA
ATOM     56  C   UNL A   1      46.081  30.764  32.147  1.00  0.00     0.031 C 
ATOM     57  C   UNL A   1      46.558  25.171  29.835  1.00  0.00     0.029 A 
ATOM     58  C   UNL A   1      46.073  26.422  30.183  1.00  0.00     0.049 A 
ATOM     59  H   UNL A   1      44.180  27.269  29.795  1.00  0.00     0.167 HD
ATOM     60  C   UNL A   1      46.191  28.674  31.213  1.00  0.00     0.074 A 
ATOM     61  C   UNL A   1      46.864  29.710  31.967  1.00  0.00     0.031 C 
ATOM     62  C   UNL A   1      46.740  27.469  30.918  1.00  0.00     0.037 A 
BRANCH  49  63
ATOM     63  C   UNL A   1      42.984  23.709  27.757  1.00  0.00     0.058 A 
ATOM     64  C   UNL A   1      43.224  23.518  26.387  1.00  0.00     0.135 A 
ATOM     65  C   UNL A   1      42.582  22.596  28.512  1.00  0.00     0.135 A 
ATOM     66  F   UNL A   1      43.589  24.552  25.613  1.00  0.00    -0.206 F 
ATOM     67  C   UNL A   1      43.051  22.277  25.785  1.00  0.00     0.059 A 
ATOM     68  C   UNL A   1      42.431  21.338  27.937  1.00  0.00     0.059 A 
ATOM     69  F   UNL A   1      42.335  22.723  29.826  1.00  0.00    -0.206 F 
ATOM     70  C   UNL A   1      42.656  21.191  26.569  1.00  0.00     0.060 A 
BRANCH  70  71
ATOM     71  S   UNL A   1      42.449  19.584  25.774  1.00  0.00     0.124 S 
ATOM     72  O   UNL A   1      41.040  19.628  25.392  1.00  0.00    -0.237 OA
ATOM     73  O   UNL A   1      43.406  19.655  24.674  1.00  0.00    -0.237 OA
ATOM     74  O   UNL A   1      42.782  18.634  26.831  1.00  0.00    -0.744 OA
ENDBRANCH  70  71
ENDBRANCH  49  63
BRANCH  50  75
ATOM     75  C   UNL A   1      43.913  32.724  31.975  1.00  0.00     0.058 A 
ATOM     76  C   UNL A   1      44.362  33.839  31.253  1.00  0.00     0.135 A 
ATOM     77  C   UNL A   1      43.636  32.898  33.340  1.00  0.00     0.135 A 
ATOM     78  F   UNL A   1      44.653  33.721  29.948  1.00  0.00    -0.206 F 
ATOM     79  C   UNL A   1      44.553  35.075  31.863  1.00  0.00     0.059 A 
ATOM     80  C   UNL A   1      43.792  34.131  33.967  1.00  0.00     0.059 A 
ATOM     81  F   UNL A   1      43.197  31.866  34.076  1.00  0.00    -0.206 F 
ATOM     82  C   UNL A   1      44.263  35.211  33.222  1.00  0.00     0.060 A 
BRANCH  82  83
ATOM     83  S   UNL A   1      44.475  36.830  33.992  1.00  0.00     0.124 S 
ATOM     84  O   UNL A   1      45.527  37.412  33.168  1.00  0.00    -0.237 OA
ATOM     85  O   UNL A   1      43.145  37.414  33.842  1.00  0.00    -0.237 OA
ATOM     86  O   UNL A   1      44.855  36.501  35.363  1.00  0.00    -0.744 OA
ENDBRANCH  82  83
ENDBRANCH  50  75
BRANCH  62  87
ATOM     87  C   UNL A   1      48.157  27.216  31.359  1.00  0.00     0.058 A 
ATOM     88  C   UNL A   1      48.454  26.562  32.565  1.00  0.00     0.135 A 
ATOM     89  C   UNL A   1      49.232  27.583  30.532  1.00  0.00     0.135 A 
ATOM     90  F   UNL A   1      47.466  26.193  33.395  1.00  0.00    -0.206 F 
ATOM     91  C   UNL A   1      49.768  26.298  32.944  1.00  0.00     0.059 A 
ATOM     92  C   UNL A   1      50.551  27.303  30.877  1.00  0.00     0.059 A 
ATOM     93  F   UNL A   1      49.004  28.201  29.362  1.00  0.00    -0.206 F 
ATOM     94  C   UNL A   1      50.809  26.670  32.092  1.00  0.00     0.060 A 
BRANCH  94  95
ATOM     95  S   UNL A   1      52.504  26.287  32.579  1.00  0.00     0.124 S 
ATOM     96  O   UNL A   1      53.252  26.700  31.396  1.00  0.00    -0.237 OA
ATOM     97  O   UNL A   1      52.684  27.119  33.765  1.00  0.00    -0.237 OA
ATOM     98  O   UNL A   1      52.471  24.849  32.830  1.00  0.00    -0.744 OA
ENDBRANCH  94  95
ENDBRANCH  62  87
ENDBRANCH  36  37
ENDBRANCH  29  31
ENDBRANCH  28  29
ENDBRANCH  27  28
ENDBRANCH  26  27
ENDBRANCH  25  26
ENDBRANCH  24  25
ENDBRANCH   1  24
TORSDOF 24
ENDMDL
MODEL 2
REMARK VINA RESULT:      -7.5      4.688     10.804
REMARK SMILES C[C@@H]1[C@@H](C(=O)OCCOCCOCCOC(=O)c2ccc(-c3c4nc(c(-c5c(F)cc(S(=O)(=O)[O-])cc5F)c5ccc([nH]5)c(-c5c(F)cc(S(=O)(=O)[O-])cc5F)c5nc(c(-c6c(F)cc(S(=O)(=O)[O-])cc6F)c6ccc3[nH]6)C=C5)C=C4)cc2)CCN1C(=O)N(C)Cc1ccsc1
REMARK SMILES IDX 10 1 9 2 8 3 7 4 6 5 4 6 5 7 3 8 1 9 2 10 86 11 84 12 85 13
REMARK SMILES IDX 87 14 88 15 89 16 90 17 91 18 92 19 93 20 96 21 94 22 95 23
REMARK SMILES IDX 11 24 12 25 13 26 14 27 15 28 16 29 17 30 18 31 19 32 83 33
REMARK SMILES IDX 20 34 82 35 21 36 22 37 23 38 76 39 24 40 81 41 75 42 77 43
REMARK SMILES IDX 25 44 80 45 74 46 73 47 26 49 60 50 39 51 59 52 40 53 43 54
REMARK SMILES IDX 58 55 78 56 41 57 42 58 57 60 79 61 44 62 27 63 28 64 37 65
REMARK SMILES IDX 29 66 30 67 36 68 38 69 31 70 32 71 33 72 34 73 35 74 61 75
REMARK SMILES IDX 62 76 71 77 63 78 64 79 70 80 72 81 65 82 66 83 67 84 68 85
REMARK SMILES IDX 69 86 45 87 46 88 55 89 47 90 48 91 54 92 56 93 49 94 50 95
REMARK SMILES IDX 51 96 52 97 53 98
REMARK H PARENT 77 48 43 59
REMARK Flexibility Score: inf
ROOT
ATOM      1  C   UNL A   1      34.426  31.930  27.671  1.00  0.00     0.188 C 
ENDROOT
BRANCH   1   2
ATOM      2  O   UNL A   1      33.365  31.246  27.046  1.00  0.00    -0.376 OA
BRANCH   2   3
ATOM      3  C   UNL A   1      33.192  29.854  27.259  1.00  0.00     0.202 C 
BRANCH   3   4
ATOM      4  C   UNL A   1      31.952  29.034  26.845  1.00  0.00     0.261 C 
BRANCH   4   5
ATOM      5  O   UNL A   1      32.114  28.044  25.826  1.00  0.00    -0.463 OA
BRANCH   5   6
ATOM      6  C   UNL A   1      32.153  28.523  24.554  1.00  0.00     0.311 C 
ATOM      7  O   UNL A   1      33.154  28.996  24.034  1.00  0.00    -0.252 OA
BRANCH   6   8
ATOM      8  C   UNL A   1      30.815  28.321  23.856  1.00  0.00     0.123 C 
ATOM      9  C   UNL A   1      28.755  26.846  24.028  1.00  0.00     0.032 C 
ATOM     10  C   UNL A   1      30.280  26.921  24.197  1.00  0.00     0.098 C 
ATOM     11  N   UNL A   1      30.971  26.070  23.231  1.00  0.00    -0.321 N 
ATOM     12  C   UNL A   1      30.967  28.290  22.347  1.00  0.00     0.039 C 
ATOM     13  C   UNL A   1      31.440  26.872  22.098  1.00  0.00     0.122 C 
BRANCH  11  14
ATOM     14  C   UNL A   1      31.549  24.835  23.371  1.00  0.00     0.320 C 
ATOM     15  O   UNL A   1      30.831  23.843  23.178  1.00  0.00    -0.248 OA
BRANCH  14  16
ATOM     16  N   UNL A   1      32.850  24.662  23.789  1.00  0.00    -0.323 N 
ATOM     17  C   UNL A   1      34.105  24.545  23.063  1.00  0.00     0.149 C 
BRANCH  16  18
ATOM     18  C   UNL A   1      33.025  24.646  25.245  1.00  0.00     0.157 C 
BRANCH  18  19
ATOM     19  C   UNL A   1      33.184  23.234  25.771  1.00  0.00    -0.018 A 
ATOM     20  C   UNL A   1      33.540  22.946  27.131  1.00  0.00     0.017 A 
ATOM     21  C   UNL A   1      33.069  22.055  25.050  1.00  0.00     0.070 A 
ATOM     22  C   UNL A   1      33.717  21.601  27.365  1.00  0.00     0.065 A 
ATOM     23  S   UNL A   1      33.433  20.662  25.969  1.00  0.00    -0.152 S 
ENDBRANCH  18  19
ENDBRANCH  16  18
ENDBRANCH  14  16
ENDBRANCH  11  14
ENDBRANCH   6   8
ENDBRANCH   5   6
ENDBRANCH   4   5
ENDBRANCH   3   4
ENDBRANCH   2   3
ENDBRANCH   1   2
BRANCH   1  24
ATOM     24  C   UNL A   1      34.021  33.297  28.259  1.00  0.00     0.188 C 
BRANCH  24  25
ATOM     25  O   UNL A   1      34.953  34.046  29.019  1.00  0.00    -0.376 OA
BRANCH  25  26
ATOM     26  C   UNL A   1      34.886  33.970  30.439  1.00  0.00     0.202 C 
BRANCH  26  27
ATOM     27  C   UNL A   1      35.219  32.677  31.217  1.00  0.00     0.261 C 
BRANCH  27  28
ATOM     28  O   UNL A   1      36.283  31.858  30.707  1.00  0.00    -0.460 OA
BRANCH  28  29
ATOM     29  C   UNL A   1      37.001  31.181  31.634  1.00  0.00     0.338 C 
ATOM     30  O   UNL A   1      36.690  30.984  32.807  1.00  0.00    -0.246 OA
BRANCH  29  31
ATOM     31  C   UNL A   1      38.141  30.504  30.988  1.00  0.00     0.060 A 
ATOM     32  C   UNL A   1      39.024  29.755  31.781  1.00  0.00     0.016 A 
ATOM     33  C   UNL A   1      38.370  30.646  29.620  1.00  0.00     0.016 A 
ATOM     34  C   UNL A   1      40.146  29.152  31.212  1.00  0.00     0.010 A 
ATOM     35  C   UNL A   1      39.513  30.069  29.056  1.00  0.00     0.010 A 
ATOM     36  C   UNL A   1      40.418  29.341  29.853  1.00  0.00    -0.014 A 
BRANCH  36  37
ATOM     37  C   UNL A   1      41.739  28.950  29.300  1.00  0.00     0.031 A 
ATOM     38  C   UNL A   1      42.806  30.006  29.189  1.00  0.00     0.074 A 
ATOM     39  C   UNL A   1      41.989  27.688  28.908  1.00  0.00     0.049 A 
ATOM     40  N   UNL A   1      43.993  29.932  28.647  1.00  0.00    -0.248 NA
ATOM     41  C   UNL A   1      42.486  31.322  29.767  1.00  0.00     0.031 C 
ATOM     42  C   UNL A   1      41.059  26.565  29.015  1.00  0.00     0.029 A 
ATOM     43  N   UNL A   1      43.106  27.146  28.322  1.00  0.00    -0.354 N 
ATOM     44  C   UNL A   1      44.560  31.191  28.810  1.00  0.00     0.074 A 
ATOM     45  C   UNL A   1      43.576  32.017  29.475  1.00  0.00     0.031 C 
ATOM     46  C   UNL A   1      41.636  25.471  28.489  1.00  0.00     0.029 A 
ATOM     47  C   UNL A   1      42.959  25.823  27.975  1.00  0.00     0.049 A 
ATOM     48  H   UNL A   1      43.933  27.655  28.164  1.00  0.00     0.167 HD
ATOM     49  C   UNL A   1      45.791  31.619  28.444  1.00  0.00     0.037 A 
ATOM     50  C   UNL A   1      43.786  25.005  27.292  1.00  0.00     0.037 A 
ATOM     51  C   UNL A   1      46.763  30.796  27.772  1.00  0.00     0.049 A 
ATOM     52  C   UNL A   1      45.116  25.532  26.808  1.00  0.00     0.074 A 
ATOM     53  C   UNL A   1      48.038  31.138  27.355  1.00  0.00     0.029 A 
ATOM     54  N   UNL A   1      46.567  29.471  27.413  1.00  0.00    -0.354 N 
ATOM     55  N   UNL A   1      45.644  26.722  26.972  1.00  0.00    -0.248 NA
ATOM     56  C   UNL A   1      45.962  24.603  26.043  1.00  0.00     0.031 C 
ATOM     57  C   UNL A   1      48.594  30.034  26.700  1.00  0.00     0.029 A 
ATOM     58  C   UNL A   1      47.689  28.987  26.761  1.00  0.00     0.049 A 
ATOM     59  H   UNL A   1      45.751  28.952  27.594  1.00  0.00     0.167 HD
ATOM     60  C   UNL A   1      46.897  26.671  26.364  1.00  0.00     0.074 A 
ATOM     61  C   UNL A   1      47.050  25.332  25.837  1.00  0.00     0.031 C 
ATOM     62  C   UNL A   1      47.837  27.643  26.256  1.00  0.00     0.037 A 
BRANCH  49  63
ATOM     63  C   UNL A   1      46.149  33.049  28.740  1.00  0.00     0.058 A 
ATOM     64  C   UNL A   1      46.706  33.429  29.971  1.00  0.00     0.135 A 
ATOM     65  C   UNL A   1      45.967  34.046  27.768  1.00  0.00     0.135 A 
ATOM     66  F   UNL A   1      46.882  32.521  30.944  1.00  0.00    -0.206 F 
ATOM     67  C   UNL A   1      47.050  34.750  30.236  1.00  0.00     0.059 A 
ATOM     68  C   UNL A   1      46.331  35.368  28.001  1.00  0.00     0.059 A 
ATOM     69  F   UNL A   1      45.434  33.738  26.574  1.00  0.00    -0.206 F 
ATOM     70  C   UNL A   1      46.860  35.713  29.243  1.00  0.00     0.060 A 
BRANCH  70  71
ATOM     71  S   UNL A   1      47.323  37.421  29.600  1.00  0.00     0.124 S 
ATOM     72  O   UNL A   1      47.748  37.888  28.283  1.00  0.00    -0.237 OA
ATOM     73  O   UNL A   1      46.073  37.985  30.099  1.00  0.00    -0.237 OA
ATOM     74  O   UNL A   1      48.386  37.287  30.591  1.00  0.00    -0.744 OA
ENDBRANCH  70  71
ENDBRANCH  49  63
BRANCH  50  75
ATOM     75  C   UNL A   1      43.384  23.601  27.001  1.00  0.00     0.058 A 
ATOM     76  C   UNL A   1      42.934  23.228  25.727  1.00  0.00     0.135 A 
ATOM     77  C   UNL A   1      43.415  22.613  27.998  1.00  0.00     0.135 A 
ATOM     78  F   UNL A   1      42.873  24.139  24.744  1.00  0.00    -0.206 F 
ATOM     79  C   UNL A   1      42.510  21.931  25.453  1.00  0.00     0.059 A 
ATOM     80  C   UNL A   1      43.024  21.302  27.741  1.00  0.00     0.059 A 
ATOM     81  F   UNL A   1      43.844  22.915  29.233  1.00  0.00    -0.206 F 
ATOM     82  C   UNL A   1      42.561  20.974  26.468  1.00  0.00     0.060 A 
BRANCH  82  83
ATOM     83  S   UNL A   1      42.047  19.285  26.089  1.00  0.00     0.124 S 
ATOM     84  O   UNL A   1      42.508  18.566  27.271  1.00  0.00    -0.237 OA
ATOM     85  O   UNL A   1      40.601  19.433  25.950  1.00  0.00    -0.237 OA
ATOM     86  O   UNL A   1      42.761  18.989  24.850  1.00  0.00    -0.744 OA
ENDBRANCH  82  83
ENDBRANCH  50  75
BRANCH  62  87
ATOM     87  C   UNL A   1      49.140  27.289  25.590  1.00  0.00     0.058 A 
ATOM     88  C   UNL A   1      49.336  27.446  24.210  1.00  0.00     0.135 A 
ATOM     89  C   UNL A   1      50.229  26.842  26.358  1.00  0.00     0.135 A 
ATOM     90  F   UNL A   1      48.329  27.865  23.427  1.00  0.00    -0.206 F 
ATOM     91  C   UNL A   1      50.558  27.153  23.610  1.00  0.00     0.059 A 
ATOM     92  C   UNL A   1      51.468  26.571  25.785  1.00  0.00     0.059 A 
ATOM     93  F   UNL A   1      50.100  26.685  27.686  1.00  0.00    -0.206 F 
ATOM     94  C   UNL A   1      51.619  26.719  24.408  1.00  0.00     0.060 A 
BRANCH  94  95
ATOM     95  S   UNL A   1      53.208  26.379  23.623  1.00  0.00     0.124 S 
ATOM     96  O   UNL A   1      53.871  27.675  23.723  1.00  0.00    -0.237 OA
ATOM     97  O   UNL A   1      53.755  25.321  24.467  1.00  0.00    -0.237 OA
ATOM     98  O   UNL A   1      52.839  25.967  22.271  1.00  0.00    -0.744 OA
ENDBRANCH  94  95
ENDBRANCH  62  87
ENDBRANCH  36  37
ENDBRANCH  29  31
ENDBRANCH  28  29
ENDBRANCH  27  28
ENDBRANCH  26  27
ENDBRANCH  25  26
ENDBRANCH  24  25
ENDBRANCH   1  24
TORSDOF 24
ENDMDL
MODEL 3
REMARK VINA RESULT:      -7.4      4.794     10.880
REMARK SMILES C[C@@H]1[C@@H](C(=O)OCCOCCOCCOC(=O)c2ccc(-c3c4nc(c(-c5c(F)cc(S(=O)(=O)[O-])cc5F)c5ccc([nH]5)c(-c5c(F)cc(S(=O)(=O)[O-])cc5F)c5nc(c(-c6c(F)cc(S(=O)(=O)[O-])cc6F)c6ccc3[nH]6)C=C5)C=C4)cc2)CCN1C(=O)N(C)Cc1ccsc1
REMARK SMILES IDX 10 1 9 2 8 3 7 4 6 5 4 6 5 7 3 8 1 9 2 10 86 11 84 12 85 13
REMARK SMILES IDX 87 14 88 15 89 16 90 17 91 18 92 19 93 20 96 21 94 22 95 23
REMARK SMILES IDX 11 24 12 25 13 26 14 27 15 28 16 29 17 30 18 31 19 32 83 33
REMARK SMILES IDX 20 34 82 35 21 36 22 37 23 38 76 39 24 40 81 41 75 42 77 43
REMARK SMILES IDX 25 44 80 45 74 46 73 47 26 49 60 50 39 51 59 52 40 53 43 54
REMARK SMILES IDX 58 55 78 56 41 57 42 58 57 60 79 61 44 62 27 63 28 64 37 65
REMARK SMILES IDX 29 66 30 67 36 68 38 69 31 70 32 71 33 72 34 73 35 74 61 75
REMARK SMILES IDX 62 76 71 77 63 78 64 79 70 80 72 81 65 82 66 83 67 84 68 85
REMARK SMILES IDX 69 86 45 87 46 88 55 89 47 90 48 91 54 92 56 93 49 94 50 95
REMARK SMILES IDX 51 96 52 97 53 98
REMARK H PARENT 77 48 43 59
REMARK Flexibility Score: inf
ROOT
ATOM      1  C   UNL A   1      34.599  31.540  27.945  1.00  0.00     0.188 C 
ENDROOT
BRANCH   1   2
ATOM      2  O   UNL A   1      33.631  30.964  27.101  1.00  0.00    -0.376 OA
BRANCH   2   3
ATOM      3  C   UNL A   1      33.220  29.621  27.301  1.00  0.00     0.202 C 
BRANCH   3   4
ATOM      4  C   UNL A   1      31.835  29.047  26.937  1.00  0.00     0.261 C 
BRANCH   4   5
ATOM      5  O   UNL A   1      31.755  28.141  25.834  1.00  0.00    -0.463 OA
BRANCH   5   6
ATOM      6  C   UNL A   1      31.560  28.723  24.620  1.00  0.00     0.311 C 
ATOM      7  O   UNL A   1      32.274  29.606  24.165  1.00  0.00    -0.252 OA
BRANCH   6   8
ATOM      8  C   UNL A   1      30.391  28.079  23.889  1.00  0.00     0.123 C 
ATOM      9  C   UNL A   1      28.778  26.137  24.167  1.00  0.00     0.032 C 
ATOM     10  C   UNL A   1      30.209  26.642  24.405  1.00  0.00     0.098 C 
ATOM     11  N   UNL A   1      31.183  25.893  23.615  1.00  0.00    -0.321 N 
ATOM     12  C   UNL A   1      30.683  27.896  22.412  1.00  0.00     0.039 C 
ATOM     13  C   UNL A   1      31.530  26.639  22.402  1.00  0.00     0.122 C 
BRANCH  11  14
ATOM     14  C   UNL A   1      32.047  24.889  23.969  1.00  0.00     0.320 C 
ATOM     15  O   UNL A   1      33.262  25.119  23.873  1.00  0.00    -0.248 OA
BRANCH  14  16
ATOM     16  N   UNL A   1      31.620  23.634  24.341  1.00  0.00    -0.323 N 
ATOM     17  C   UNL A   1      30.891  23.151  25.504  1.00  0.00     0.149 C 
BRANCH  16  18
ATOM     18  C   UNL A   1      31.898  22.579  23.360  1.00  0.00     0.157 C 
BRANCH  18  19
ATOM     19  C   UNL A   1      32.875  21.557  23.904  1.00  0.00    -0.018 A 
ATOM     20  C   UNL A   1      32.540  20.171  24.069  1.00  0.00     0.017 A 
ATOM     21  C   UNL A   1      34.166  21.791  24.355  1.00  0.00     0.070 A 
ATOM     22  C   UNL A   1      33.548  19.443  24.662  1.00  0.00     0.065 A 
ATOM     23  S   UNL A   1      34.918  20.401  25.004  1.00  0.00    -0.152 S 
ENDBRANCH  18  19
ENDBRANCH  16  18
ENDBRANCH  14  16
ENDBRANCH  11  14
ENDBRANCH   6   8
ENDBRANCH   5   6
ENDBRANCH   4   5
ENDBRANCH   3   4
ENDBRANCH   2   3
ENDBRANCH   1   2
BRANCH   1  24
ATOM     24  C   UNL A   1      34.558  33.082  27.977  1.00  0.00     0.188 C 
BRANCH  24  25
ATOM     25  O   UNL A   1      35.300  33.792  28.952  1.00  0.00    -0.376 OA
BRANCH  25  26
ATOM     26  C   UNL A   1      34.608  34.325  30.075  1.00  0.00     0.202 C 
BRANCH  26  27
ATOM     27  C   UNL A   1      34.401  33.523  31.380  1.00  0.00     0.261 C 
BRANCH  27  28
ATOM     28  O   UNL A   1      34.990  32.215  31.447  1.00  0.00    -0.460 OA
BRANCH  28  29
ATOM     29  C   UNL A   1      36.009  32.073  32.330  1.00  0.00     0.338 C 
ATOM     30  O   UNL A   1      35.972  32.296  33.538  1.00  0.00    -0.246 OA
BRANCH  29  31
ATOM     31  C   UNL A   1      37.144  31.394  31.678  1.00  0.00     0.060 A 
ATOM     32  C   UNL A   1      38.156  30.843  32.480  1.00  0.00     0.016 A 
ATOM     33  C   UNL A   1      37.240  31.343  30.288  1.00  0.00     0.016 A 
ATOM     34  C   UNL A   1      39.273  30.247  31.896  1.00  0.00     0.010 A 
ATOM     35  C   UNL A   1      38.376  30.775  29.703  1.00  0.00     0.010 A 
ATOM     36  C   UNL A   1      39.409  30.247  30.503  1.00  0.00    -0.014 A 
BRANCH  36  37
ATOM     37  C   UNL A   1      40.706  29.877  29.884  1.00  0.00     0.031 A 
ATOM     38  C   UNL A   1      41.731  30.959  29.677  1.00  0.00     0.074 A 
ATOM     39  C   UNL A   1      40.972  28.611  29.517  1.00  0.00     0.049 A 
ATOM     40  N   UNL A   1      42.886  30.903  29.068  1.00  0.00    -0.248 NA
ATOM     41  C   UNL A   1      41.406  32.283  30.233  1.00  0.00     0.031 C 
ATOM     42  C   UNL A   1      40.085  27.465  29.713  1.00  0.00     0.029 A 
ATOM     43  N   UNL A   1      42.069  28.082  28.881  1.00  0.00    -0.354 N 
ATOM     44  C   UNL A   1      43.422  32.182  29.158  1.00  0.00     0.074 A 
ATOM     45  C   UNL A   1      42.454  33.000  29.855  1.00  0.00     0.031 C 
ATOM     46  C   UNL A   1      40.664  26.371  29.187  1.00  0.00     0.029 A 
ATOM     47  C   UNL A   1      41.943  26.746  28.584  1.00  0.00     0.049 A 
ATOM     48  H   UNL A   1      42.869  28.610  28.659  1.00  0.00     0.167 HD
ATOM     49  C   UNL A   1      44.616  32.634  28.706  1.00  0.00     0.037 A 
ATOM     50  C   UNL A   1      42.753  25.931  27.879  1.00  0.00     0.037 A 
ATOM     51  C   UNL A   1      45.572  31.819  28.003  1.00  0.00     0.049 A 
ATOM     52  C   UNL A   1      44.035  26.480  27.300  1.00  0.00     0.074 A 
ATOM     53  C   UNL A   1      46.809  32.183  27.500  1.00  0.00     0.029 A 
ATOM     54  N   UNL A   1      45.397  30.477  27.697  1.00  0.00    -0.354 N 
ATOM     55  N   UNL A   1      44.535  27.689  27.395  1.00  0.00    -0.248 NA
ATOM     56  C   UNL A   1      44.864  25.552  26.515  1.00  0.00     0.031 C 
ATOM     57  C   UNL A   1      47.360  31.076  26.847  1.00  0.00     0.029 A 
ATOM     58  C   UNL A   1      46.493  30.005  26.994  1.00  0.00     0.049 A 
ATOM     59  H   UNL A   1      44.609  29.940  27.942  1.00  0.00     0.167 HD
ATOM     60  C   UNL A   1      45.751  27.655  26.716  1.00  0.00     0.074 A 
ATOM     61  C   UNL A   1      45.914  26.305  26.222  1.00  0.00     0.031 C 
ATOM     62  C   UNL A   1      46.652  28.651  26.522  1.00  0.00     0.037 A 
BRANCH  49  63
ATOM     63  C   UNL A   1      44.947  34.083  28.936  1.00  0.00     0.058 A 
ATOM     64  C   UNL A   1      44.570  35.078  28.022  1.00  0.00     0.135 A 
ATOM     65  C   UNL A   1      45.616  34.485  30.103  1.00  0.00     0.135 A 
ATOM     66  F   UNL A   1      43.946  34.748  26.880  1.00  0.00    -0.206 F 
ATOM     67  C   UNL A   1      44.864  36.419  28.245  1.00  0.00     0.059 A 
ATOM     68  C   UNL A   1      45.895  35.823  30.361  1.00  0.00     0.059 A 
ATOM     69  F   UNL A   1      46.004  33.572  31.009  1.00  0.00    -0.206 F 
ATOM     70  C   UNL A   1      45.526  36.782  29.420  1.00  0.00     0.060 A 
BRANCH  70  71
ATOM     71  S   UNL A   1      45.889  38.528  29.699  1.00  0.00     0.124 S 
ATOM     72  O   UNL A   1      46.672  38.856  28.511  1.00  0.00    -0.237 OA
ATOM     73  O   UNL A   1      44.555  39.117  29.760  1.00  0.00    -0.237 OA
ATOM     74  O   UNL A   1      46.628  38.526  30.957  1.00  0.00    -0.744 OA
ENDBRANCH  70  71
ENDBRANCH  49  63
BRANCH  50  75
ATOM     75  C   UNL A   1      42.378  24.507  27.656  1.00  0.00     0.058 A 
ATOM     76  C   UNL A   1      41.428  24.153  26.688  1.00  0.00     0.135 A 
ATOM     77  C   UNL A   1      42.943  23.475  28.423  1.00  0.00     0.135 A 
ATOM     78  F   UNL A   1      40.849  25.104  25.938  1.00  0.00    -0.206 F 
ATOM     79  C   UNL A   1      41.032  22.832  26.500  1.00  0.00     0.059 A 
ATOM     80  C   UNL A   1      42.586  22.144  28.235  1.00  0.00     0.059 A 
ATOM     81  F   UNL A   1      43.863  23.758  29.358  1.00  0.00    -0.206 F 
ATOM     82  C   UNL A   1      41.620  21.833  27.279  1.00  0.00     0.060 A 
BRANCH  82  83
ATOM     83  S   UNL A   1      41.129  20.119  26.998  1.00  0.00     0.124 S 
ATOM     84  O   UNL A   1      40.009  20.281  26.079  1.00  0.00    -0.237 OA
ATOM     85  O   UNL A   1      42.346  19.545  26.432  1.00  0.00    -0.237 OA
ATOM     86  O   UNL A   1      40.787  19.646  28.336  1.00  0.00    -0.744 OA
ENDBRANCH  82  83
ENDBRANCH  50  75
BRANCH  62  87
ATOM     87  C   UNL A   1      47.924  28.314  25.791  1.00  0.00     0.058 A 
ATOM     88  C   UNL A   1      49.155  28.196  26.455  1.00  0.00     0.135 A 
ATOM     89  C   UNL A   1      47.897  28.045  24.411  1.00  0.00     0.135 A 
ATOM     90  F   UNL A   1      49.239  28.446  27.771  1.00  0.00    -0.206 F 
ATOM     91  C   UNL A   1      50.318  27.845  25.775  1.00  0.00     0.059 A 
ATOM     92  C   UNL A   1      49.042  27.663  23.717  1.00  0.00     0.059 A 
ATOM     93  F   UNL A   1      46.745  28.131  23.728  1.00  0.00    -0.206 F 
ATOM     94  C   UNL A   1      50.250  27.577  24.406  1.00  0.00     0.060 A 
BRANCH  94  95
ATOM     95  S   UNL A   1      51.759  27.086  23.545  1.00  0.00     0.124 S 
ATOM     96  O   UNL A   1      51.285  26.957  22.171  1.00  0.00    -0.237 OA
ATOM     97  O   UNL A   1      52.649  28.212  23.806  1.00  0.00    -0.237 OA
ATOM     98  O   UNL A   1      52.132  25.834  24.199  1.00  0.00    -0.744 OA
ENDBRANCH  94  95
ENDBRANCH  62  87
ENDBRANCH  36  37
ENDBRANCH  29  31
ENDBRANCH  28  29
ENDBRANCH  27  28
ENDBRANCH  26  27
ENDBRANCH  25  26
ENDBRANCH  24  25
ENDBRANCH   1  24
TORSDOF 24
ENDMDL
