MODEL 1
REMARK VINA RESULT:     -11.3      0.000      0.000
REMARK SMILES CC(C)(C)c1cc(Nc2ccccc2C(=O)OCCOCCOCCOC(=O)c2ccc(-c3c4nc(c(-c5c(F)cc(S(=O)(=O)[O-])cc5F)c5ccc([nH]5)c(-c5c(F)cc(S(=O)(=O)[O-])cc5F)c5nc(c(-c6c(F)cc(S(=O)(=O)[O-])cc6F)c6ccc3[nH]6)C=C5)C=C4)cc2)cc2c1OCC2(C)C
REMARK SMILES IDX 21 1 20 2 19 3 18 4 17 5 15 6 16 7 14 8 9 9 10 10 11 11
REMARK SMILES IDX 13 12 12 13 8 14 7 16 5 17 6 18 97 19 96 20 98 21 95 22
REMARK SMILES IDX 100 23 99 24 101 25 102 26 2 27 1 28 3 29 4 30 22 31 23 32
REMARK SMILES IDX 24 33 25 34 26 35 27 36 28 37 29 38 30 39 94 40 31 41 93 42
REMARK SMILES IDX 32 43 33 44 34 45 87 46 35 47 92 48 86 49 88 50 36 51 91 52
REMARK SMILES IDX 85 53 84 54 37 56 71 57 50 58 70 59 51 60 54 61 69 62 89 63
REMARK SMILES IDX 52 64 53 65 68 67 90 68 55 69 38 70 39 71 48 72 40 73 41 74
REMARK SMILES IDX 47 75 49 76 42 77 43 78 44 79 45 80 46 81 72 82 73 83 82 84
REMARK SMILES IDX 74 85 75 86 81 87 83 88 76 89 77 90 78 91 79 92 80 93 56 94
REMARK SMILES IDX 57 95 66 96 58 97 59 98 65 99 67 100 60 101 61 102 62 103
REMARK SMILES IDX 63 104 64 105
REMARK H PARENT 8 15 88 55 54 66
REMARK Flexibility Score: inf
ROOT
ATOM      1  C   UNL A   1      33.583  30.510  27.155  1.00  0.00     0.188 C 
ENDROOT
BRANCH   1   2
ATOM      2  O   UNL A   1      33.989  29.175  27.376  1.00  0.00    -0.376 OA
BRANCH   2   3
ATOM      3  C   UNL A   1      33.179  28.094  26.945  1.00  0.00     0.202 C 
BRANCH   3   4
ATOM      4  C   UNL A   1      31.750  27.865  27.453  1.00  0.00     0.261 C 
BRANCH   4   5
ATOM      5  O   UNL A   1      30.872  27.216  26.523  1.00  0.00    -0.460 OA
BRANCH   5   6
ATOM      6  C   UNL A   1      31.226  25.946  26.197  1.00  0.00     0.340 C 
ATOM      7  O   UNL A   1      31.275  24.997  26.963  1.00  0.00    -0.246 OA
BRANCH   6   8
ATOM      8  C   UNL A   1      31.401  25.780  24.735  1.00  0.00     0.083 A 
ATOM      9  C   UNL A   1      31.407  24.542  24.066  1.00  0.00     0.053 A 
ATOM     10  C   UNL A   1      31.449  24.572  22.658  1.00  0.00     0.027 A 
ATOM     11  C   UNL A   1      31.655  25.758  21.949  1.00  0.00     0.002 A 
ATOM     12  C   UNL A   1      31.604  26.975  24.017  1.00  0.00     0.018 A 
ATOM     13  C   UNL A   1      31.772  26.959  22.635  1.00  0.00     0.001 A 
BRANCH   9  14
ATOM     14  N   UNL A   1      31.534  23.306  24.746  1.00  0.00    -0.355 N 
ATOM     15  H   UNL A   1      30.740  23.007  25.246  1.00  0.00     0.167 HD
BRANCH  14  16
ATOM     16  C   UNL A   1      32.658  22.443  24.799  1.00  0.00     0.039 A 
ATOM     17  C   UNL A   1      33.575  20.134  24.606  1.00  0.00     0.002 A 
ATOM     18  C   UNL A   1      32.487  21.050  24.640  1.00  0.00     0.034 A 
ATOM     19  C   UNL A   1      34.845  20.702  24.728  1.00  0.00     0.127 A 
ATOM     20  C   UNL A   1      35.032  22.064  24.888  1.00  0.00     0.006 A 
ATOM     21  O   UNL A   1      36.030  20.016  24.700  1.00  0.00    -0.492 OA
ATOM     22  C   UNL A   1      33.957  22.930  24.948  1.00  0.00     0.034 A 
ATOM     23  C   UNL A   1      36.479  22.415  24.931  1.00  0.00     0.028 C 
ATOM     24  C   UNL A   1      37.078  20.999  24.887  1.00  0.00     0.240 C 
ATOM     25  C   UNL A   1      36.872  23.239  23.698  1.00  0.00     0.020 C 
ATOM     26  C   UNL A   1      36.871  23.159  26.211  1.00  0.00     0.020 C 
BRANCH  17  27
ATOM     27  C   UNL A   1      33.332  18.616  24.500  1.00  0.00    -0.009 C 
ATOM     28  C   UNL A   1      32.489  18.355  23.235  1.00  0.00     0.016 C 
ATOM     29  C   UNL A   1      32.586  18.014  25.714  1.00  0.00     0.016 C 
ATOM     30  C   UNL A   1      34.652  17.815  24.378  1.00  0.00     0.016 C 
ENDBRANCH  17  27
ENDBRANCH  14  16
ENDBRANCH   9  14
ENDBRANCH   6   8
ENDBRANCH   5   6
ENDBRANCH   4   5
ENDBRANCH   3   4
ENDBRANCH   2   3
ENDBRANCH   1   2
BRANCH   1  31
ATOM     31  C   UNL A   1      34.419  31.681  27.711  1.00  0.00     0.188 C 
BRANCH  31  32
ATOM     32  O   UNL A   1      33.802  32.711  28.451  1.00  0.00    -0.376 OA
BRANCH  32  33
ATOM     33  C   UNL A   1      34.518  33.404  29.457  1.00  0.00     0.202 C 
BRANCH  33  34
ATOM     34  C   UNL A   1      35.245  32.717  30.623  1.00  0.00     0.261 C 
BRANCH  34  35
ATOM     35  O   UNL A   1      35.993  31.540  30.306  1.00  0.00    -0.460 OA
BRANCH  35  36
ATOM     36  C   UNL A   1      36.747  31.043  31.320  1.00  0.00     0.338 C 
ATOM     37  O   UNL A   1      36.416  30.892  32.485  1.00  0.00    -0.246 OA
BRANCH  36  38
ATOM     38  C   UNL A   1      38.005  30.521  30.757  1.00  0.00     0.060 A 
ATOM     39  C   UNL A   1      38.216  30.520  29.379  1.00  0.00     0.016 A 
ATOM     40  C   UNL A   1      38.984  30.026  31.630  1.00  0.00     0.016 A 
ATOM     41  C   UNL A   1      39.422  30.033  28.873  1.00  0.00     0.010 A 
ATOM     42  C   UNL A   1      40.183  29.526  31.121  1.00  0.00     0.010 A 
ATOM     43  C   UNL A   1      40.418  29.543  29.739  1.00  0.00    -0.014 A 
BRANCH  43  44
ATOM     44  C   UNL A   1      41.755  29.194  29.197  1.00  0.00     0.031 A 
ATOM     45  C   UNL A   1      42.879  30.185  29.161  1.00  0.00     0.074 A 
ATOM     46  C   UNL A   1      41.940  27.942  28.737  1.00  0.00     0.049 A 
ATOM     47  N   UNL A   1      44.126  29.994  28.812  1.00  0.00    -0.248 NA
ATOM     48  C   UNL A   1      42.569  31.565  29.562  1.00  0.00     0.031 C 
ATOM     49  C   UNL A   1      40.906  26.906  28.692  1.00  0.00     0.029 A 
ATOM     50  N   UNL A   1      43.056  27.323  28.238  1.00  0.00    -0.354 N 
ATOM     51  C   UNL A   1      44.761  31.218  28.976  1.00  0.00     0.074 A 
ATOM     52  C   UNL A   1      43.746  32.160  29.404  1.00  0.00     0.031 C 
ATOM     53  C   UNL A   1      41.444  25.771  28.222  1.00  0.00     0.029 A 
ATOM     54  C   UNL A   1      42.853  26.003  27.913  1.00  0.00     0.049 A 
ATOM     55  H   UNL A   1      43.921  27.779  28.122  1.00  0.00     0.167 HD
ATOM     56  C   UNL A   1      46.072  31.517  28.805  1.00  0.00     0.037 A 
ATOM     57  C   UNL A   1      43.704  25.077  27.430  1.00  0.00     0.037 A 
ATOM     58  C   UNL A   1      47.071  30.573  28.361  1.00  0.00     0.049 A 
ATOM     59  C   UNL A   1      45.143  25.449  27.207  1.00  0.00     0.074 A 
ATOM     60  C   UNL A   1      48.431  30.775  28.197  1.00  0.00     0.029 A 
ATOM     61  N   UNL A   1      46.820  29.256  27.998  1.00  0.00    -0.354 N 
ATOM     62  N   UNL A   1      45.745  26.590  27.442  1.00  0.00    -0.248 NA
ATOM     63  C   UNL A   1      46.021  24.406  26.656  1.00  0.00     0.031 C 
ATOM     64  C   UNL A   1      48.992  29.600  27.684  1.00  0.00     0.029 A 
ATOM     65  C   UNL A   1      47.993  28.647  27.579  1.00  0.00     0.049 A 
ATOM     66  H   UNL A   1      45.939  28.820  28.032  1.00  0.00     0.167 HD
ATOM     67  C   UNL A   1      47.075  26.398  27.084  1.00  0.00     0.074 A 
ATOM     68  C   UNL A   1      47.193  25.026  26.635  1.00  0.00     0.031 C 
ATOM     69  C   UNL A   1      48.103  27.282  27.122  1.00  0.00     0.037 A 
BRANCH  56  70
ATOM     70  C   UNL A   1      46.523  32.920  29.111  1.00  0.00     0.058 A 
ATOM     71  C   UNL A   1      46.512  33.920  28.126  1.00  0.00     0.135 A 
ATOM     72  C   UNL A   1      46.883  33.294  30.416  1.00  0.00     0.135 A 
ATOM     73  F   UNL A   1      46.182  33.618  26.859  1.00  0.00    -0.206 F 
ATOM     74  C   UNL A   1      46.856  35.236  28.419  1.00  0.00     0.059 A 
ATOM     75  C   UNL A   1      47.207  34.610  30.738  1.00  0.00     0.059 A 
ATOM     76  F   UNL A   1      46.906  32.380  31.399  1.00  0.00    -0.206 F 
ATOM     77  C   UNL A   1      47.199  35.573  29.729  1.00  0.00     0.060 A 
BRANCH  77  78
ATOM     78  S   UNL A   1      47.619  37.290  30.092  1.00  0.00     0.124 S 
ATOM     79  O   UNL A   1      48.231  37.713  28.837  1.00  0.00    -0.237 OA
ATOM     80  O   UNL A   1      46.315  37.873  30.389  1.00  0.00    -0.237 OA
ATOM     81  O   UNL A   1      48.530  37.187  31.229  1.00  0.00    -0.744 OA
ENDBRANCH  77  78
ENDBRANCH  56  70
BRANCH  57  82
ATOM     82  C   UNL A   1      43.215  23.700  27.164  1.00  0.00     0.058 A 
ATOM     83  C   UNL A   1      42.872  23.295  25.866  1.00  0.00     0.135 A 
ATOM     84  C   UNL A   1      43.117  22.751  28.193  1.00  0.00     0.135 A 
ATOM     85  F   UNL A   1      42.947  24.168  24.849  1.00  0.00    -0.206 F 
ATOM     86  C   UNL A   1      42.442  22.000  25.597  1.00  0.00     0.059 A 
ATOM     87  C   UNL A   1      42.714  21.444  27.946  1.00  0.00     0.059 A 
ATOM     88  F   UNL A   1      43.449  23.086  29.451  1.00  0.00    -0.206 F 
ATOM     89  C   UNL A   1      42.372  21.080  26.645  1.00  0.00     0.060 A 
BRANCH  89  90
ATOM     90  S   UNL A   1      41.865  19.387  26.271  1.00  0.00     0.124 S 
ATOM     91  O   UNL A   1      42.258  18.687  27.488  1.00  0.00    -0.237 OA
ATOM     92  O   UNL A   1      40.430  19.541  26.056  1.00  0.00    -0.237 OA
ATOM     93  O   UNL A   1      42.640  19.062  25.077  1.00  0.00    -0.744 OA
ENDBRANCH  89  90
ENDBRANCH  57  82
BRANCH  69  94
ATOM     94  C   UNL A   1      49.453  26.800  26.665  1.00  0.00     0.058 A 
ATOM     95  C   UNL A   1      50.366  26.218  27.561  1.00  0.00     0.135 A 
ATOM     96  C   UNL A   1      49.815  26.858  25.310  1.00  0.00     0.135 A 
ATOM     97  F   UNL A   1      50.074  26.145  28.869  1.00  0.00    -0.206 F 
ATOM     98  C   UNL A   1      51.593  25.724  27.131  1.00  0.00     0.059 A 
ATOM     99  C   UNL A   1      51.027  26.346  24.853  1.00  0.00     0.059 A 
ATOM    100  F   UNL A   1      48.980  27.399  24.408  1.00  0.00    -0.206 F 
ATOM    101  C   UNL A   1      51.913  25.787  25.773  1.00  0.00     0.060 A 
BRANCH 101 102
ATOM    102  S   UNL A   1      53.490  25.098  25.227  1.00  0.00     0.124 S 
ATOM    103  O   UNL A   1      53.664  25.748  23.932  1.00  0.00    -0.237 OA
ATOM    104  O   UNL A   1      54.400  25.533  26.282  1.00  0.00    -0.237 OA
ATOM    105  O   UNL A   1      53.236  23.661  25.178  1.00  0.00    -0.744 OA
ENDBRANCH 101 102
ENDBRANCH  69  94
ENDBRANCH  43  44
ENDBRANCH  36  38
ENDBRANCH  35  36
ENDBRANCH  34  35
ENDBRANCH  33  34
ENDBRANCH  32  33
ENDBRANCH  31  32
ENDBRANCH   1  31
TORSDOF 23
ENDMDL
MODEL 2
REMARK VINA RESULT:     -11.0      1.172      2.211
REMARK SMILES CC(C)(C)c1cc(Nc2ccccc2C(=O)OCCOCCOCCOC(=O)c2ccc(-c3c4nc(c(-c5c(F)cc(S(=O)(=O)[O-])cc5F)c5ccc([nH]5)c(-c5c(F)cc(S(=O)(=O)[O-])cc5F)c5nc(c(-c6c(F)cc(S(=O)(=O)[O-])cc6F)c6ccc3[nH]6)C=C5)C=C4)cc2)cc2c1OCC2(C)C
REMARK SMILES IDX 21 1 20 2 19 3 18 4 17 5 15 6 16 7 14 8 9 9 10 10 11 11
REMARK SMILES IDX 13 12 12 13 8 14 7 16 5 17 6 18 97 19 96 20 98 21 95 22
REMARK SMILES IDX 100 23 99 24 101 25 102 26 2 27 1 28 3 29 4 30 22 31 23 32
REMARK SMILES IDX 24 33 25 34 26 35 27 36 28 37 29 38 30 39 94 40 31 41 93 42
REMARK SMILES IDX 32 43 33 44 34 45 87 46 35 47 92 48 86 49 88 50 36 51 91 52
REMARK SMILES IDX 85 53 84 54 37 56 71 57 50 58 70 59 51 60 54 61 69 62 89 63
REMARK SMILES IDX 52 64 53 65 68 67 90 68 55 69 38 70 39 71 48 72 40 73 41 74
REMARK SMILES IDX 47 75 49 76 42 77 43 78 44 79 45 80 46 81 72 82 73 83 82 84
REMARK SMILES IDX 74 85 75 86 81 87 83 88 76 89 77 90 78 91 79 92 80 93 56 94
REMARK SMILES IDX 57 95 66 96 58 97 59 98 65 99 67 100 60 101 61 102 62 103
REMARK SMILES IDX 63 104 64 105
REMARK H PARENT 8 15 88 55 54 66
REMARK Flexibility Score: inf
ROOT
ATOM      1  C   UNL A   1      31.605  29.300  25.159  1.00  0.00     0.188 C 
ENDROOT
BRANCH   1   2
ATOM      2  O   UNL A   1      32.640  28.957  24.262  1.00  0.00    -0.376 OA
BRANCH   2   3
ATOM      3  C   UNL A   1      32.339  28.516  22.948  1.00  0.00     0.202 C 
BRANCH   3   4
ATOM      4  C   UNL A   1      32.167  27.038  22.580  1.00  0.00     0.261 C 
BRANCH   4   5
ATOM      5  O   UNL A   1      31.358  26.275  23.486  1.00  0.00    -0.460 OA
BRANCH   5   6
ATOM      6  C   UNL A   1      31.914  25.107  23.899  1.00  0.00     0.340 C 
ATOM      7  O   UNL A   1      33.009  24.680  23.571  1.00  0.00    -0.246 OA
BRANCH   6   8
ATOM      8  C   UNL A   1      31.101  24.452  24.951  1.00  0.00     0.083 A 
ATOM      9  C   UNL A   1      31.110  23.071  25.223  1.00  0.00     0.053 A 
ATOM     10  C   UNL A   1      30.380  22.632  26.345  1.00  0.00     0.027 A 
ATOM     11  C   UNL A   1      29.539  23.487  27.061  1.00  0.00     0.002 A 
ATOM     12  C   UNL A   1      30.255  25.312  25.678  1.00  0.00     0.018 A 
ATOM     13  C   UNL A   1      29.446  24.823  26.701  1.00  0.00     0.001 A 
BRANCH   9  14
ATOM     14  N   UNL A   1      31.675  22.120  24.338  1.00  0.00    -0.355 N 
ATOM     15  H   UNL A   1      31.184  21.971  23.497  1.00  0.00     0.167 HD
BRANCH  14  16
ATOM     16  C   UNL A   1      32.856  21.355  24.507  1.00  0.00     0.039 A 
ATOM     17  C   UNL A   1      33.956  19.118  24.515  1.00  0.00     0.002 A 
ATOM     18  C   UNL A   1      32.802  19.945  24.432  1.00  0.00     0.034 A 
ATOM     19  C   UNL A   1      35.171  19.792  24.667  1.00  0.00     0.127 A 
ATOM     20  C   UNL A   1      35.244  21.172  24.747  1.00  0.00     0.006 A 
ATOM     21  O   UNL A   1      36.404  19.203  24.748  1.00  0.00    -0.492 OA
ATOM     22  C   UNL A   1      34.104  21.952  24.693  1.00  0.00     0.034 A 
ATOM     23  C   UNL A   1      36.654  21.639  24.843  1.00  0.00     0.028 C 
ATOM     24  C   UNL A   1      37.361  20.275  24.924  1.00  0.00     0.240 C 
ATOM     25  C   UNL A   1      37.054  22.415  23.581  1.00  0.00     0.020 C 
ATOM     26  C   UNL A   1      36.914  22.490  26.090  1.00  0.00     0.020 C 
BRANCH  17  27
ATOM     27  C   UNL A   1      33.836  17.583  24.498  1.00  0.00    -0.009 C 
ATOM     28  C   UNL A   1      32.533  17.198  25.228  1.00  0.00     0.016 C 
ATOM     29  C   UNL A   1      35.013  16.853  25.187  1.00  0.00     0.016 C 
ATOM     30  C   UNL A   1      33.773  17.013  23.059  1.00  0.00     0.016 C 
ENDBRANCH  17  27
ENDBRANCH  14  16
ENDBRANCH   9  14
ENDBRANCH   6   8
ENDBRANCH   5   6
ENDBRANCH   4   5
ENDBRANCH   3   4
ENDBRANCH   2   3
ENDBRANCH   1   2
BRANCH   1  31
ATOM     31  C   UNL A   1      31.798  30.450  26.169  1.00  0.00     0.188 C 
BRANCH  31  32
ATOM     32  O   UNL A   1      32.664  30.294  27.272  1.00  0.00    -0.376 OA
BRANCH  32  33
ATOM     33  C   UNL A   1      33.994  30.778  27.218  1.00  0.00     0.202 C 
BRANCH  33  34
ATOM     34  C   UNL A   1      34.774  31.286  28.440  1.00  0.00     0.261 C 
BRANCH  34  35
ATOM     35  O   UNL A   1      35.621  30.340  29.096  1.00  0.00    -0.460 OA
BRANCH  35  36
ATOM     36  C   UNL A   1      36.580  30.878  29.893  1.00  0.00     0.338 C 
ATOM     37  O   UNL A   1      36.416  31.572  30.883  1.00  0.00    -0.246 OA
BRANCH  36  38
ATOM     38  C   UNL A   1      37.888  30.332  29.489  1.00  0.00     0.060 A 
ATOM     39  C   UNL A   1      38.127  29.982  28.160  1.00  0.00     0.016 A 
ATOM     40  C   UNL A   1      38.884  30.169  30.461  1.00  0.00     0.016 A 
ATOM     41  C   UNL A   1      39.380  29.480  27.801  1.00  0.00     0.010 A 
ATOM     42  C   UNL A   1      40.131  29.654  30.102  1.00  0.00     0.010 A 
ATOM     43  C   UNL A   1      40.393  29.323  28.766  1.00  0.00    -0.014 A 
BRANCH  43  44
ATOM     44  C   UNL A   1      41.765  28.955  28.335  1.00  0.00     0.031 A 
ATOM     45  C   UNL A   1      42.879  29.957  28.296  1.00  0.00     0.074 A 
ATOM     46  C   UNL A   1      41.992  27.675  27.982  1.00  0.00     0.049 A 
ATOM     47  N   UNL A   1      44.147  29.760  28.039  1.00  0.00    -0.248 NA
ATOM     48  C   UNL A   1      42.529  31.358  28.572  1.00  0.00     0.031 C 
ATOM     49  C   UNL A   1      40.973  26.623  27.950  1.00  0.00     0.029 A 
ATOM     50  N   UNL A   1      43.143  27.037  27.601  1.00  0.00    -0.354 N 
ATOM     51  C   UNL A   1      44.758  31.002  28.151  1.00  0.00     0.074 A 
ATOM     52  C   UNL A   1      43.708  31.958  28.444  1.00  0.00     0.031 C 
ATOM     53  C   UNL A   1      41.551  25.464  27.601  1.00  0.00     0.029 A 
ATOM     54  C   UNL A   1      42.975  25.695  27.363  1.00  0.00     0.049 A 
ATOM     55  H   UNL A   1      44.009  27.497  27.506  1.00  0.00     0.167 HD
ATOM     56  C   UNL A   1      46.074  31.307  28.040  1.00  0.00     0.037 A 
ATOM     57  C   UNL A   1      43.864  24.749  27.004  1.00  0.00     0.037 A 
ATOM     58  C   UNL A   1      47.108  30.348  27.731  1.00  0.00     0.049 A 
ATOM     59  C   UNL A   1      45.310  25.124  26.844  1.00  0.00     0.074 A 
ATOM     60  C   UNL A   1      48.473  30.558  27.637  1.00  0.00     0.029 A 
ATOM     61  N   UNL A   1      46.894  29.005  27.451  1.00  0.00    -0.354 N 
ATOM     62  N   UNL A   1      45.885  26.288  27.030  1.00  0.00    -0.248 NA
ATOM     63  C   UNL A   1      46.232  24.057  26.428  1.00  0.00     0.031 C 
ATOM     64  C   UNL A   1      49.079  29.357  27.248  1.00  0.00     0.029 A 
ATOM     65  C   UNL A   1      48.098  28.384  27.153  1.00  0.00     0.049 A 
ATOM     66  H   UNL A   1      46.017  28.559  27.464  1.00  0.00     0.167 HD
ATOM     67  C   UNL A   1      47.236  26.091  26.771  1.00  0.00     0.074 A 
ATOM     68  C   UNL A   1      47.397  24.691  26.433  1.00  0.00     0.031 C 
ATOM     69  C   UNL A   1      48.251  26.991  26.807  1.00  0.00     0.037 A 
BRANCH  56  70
ATOM     70  C   UNL A   1      46.489  32.736  28.268  1.00  0.00     0.058 A 
ATOM     71  C   UNL A   1      46.912  33.180  29.531  1.00  0.00     0.135 A 
ATOM     72  C   UNL A   1      46.552  33.647  27.201  1.00  0.00     0.135 A 
ATOM     73  F   UNL A   1      46.867  32.353  30.588  1.00  0.00    -0.206 F 
ATOM     74  C   UNL A   1      47.367  34.479  29.732  1.00  0.00     0.059 A 
ATOM     75  C   UNL A   1      47.028  34.945  27.374  1.00  0.00     0.059 A 
ATOM     76  F   UNL A   1      46.165  33.276  25.971  1.00  0.00    -0.206 F 
ATOM     77  C   UNL A   1      47.426  35.354  28.646  1.00  0.00     0.060 A 
BRANCH  77  78
ATOM     78  S   UNL A   1      48.042  37.028  28.925  1.00  0.00     0.124 S 
ATOM     79  O   UNL A   1      47.186  37.476  30.018  1.00  0.00    -0.237 OA
ATOM     80  O   UNL A   1      49.439  36.791  29.272  1.00  0.00    -0.237 OA
ATOM     81  O   UNL A   1      47.820  37.691  27.644  1.00  0.00    -0.744 OA
ENDBRANCH  77  78
ENDBRANCH  56  70
BRANCH  57  82
ATOM     82  C   UNL A   1      43.407  23.349  26.811  1.00  0.00     0.058 A 
ATOM     83  C   UNL A   1      43.280  22.802  25.526  1.00  0.00     0.135 A 
ATOM     84  C   UNL A   1      43.126  22.518  27.907  1.00  0.00     0.135 A 
ATOM     85  F   UNL A   1      43.534  23.559  24.448  1.00  0.00    -0.206 F 
ATOM     86  C   UNL A   1      42.882  21.484  25.332  1.00  0.00     0.059 A 
ATOM     87  C   UNL A   1      42.752  21.189  27.740  1.00  0.00     0.059 A 
ATOM     88  F   UNL A   1      43.249  22.990  29.158  1.00  0.00    -0.206 F 
ATOM     89  C   UNL A   1      42.626  20.683  26.447  1.00  0.00     0.060 A 
BRANCH  89  90
ATOM     90  S   UNL A   1      42.165  18.958  26.180  1.00  0.00     0.124 S 
ATOM     91  O   UNL A   1      43.030  18.591  25.065  1.00  0.00    -0.237 OA
ATOM     92  O   UNL A   1      42.491  18.354  27.469  1.00  0.00    -0.237 OA
ATOM     93  O   UNL A   1      40.739  19.035  25.874  1.00  0.00    -0.744 OA
ENDBRANCH  89  90
ENDBRANCH  57  82
BRANCH  69  94
ATOM     94  C   UNL A   1      49.632  26.496  26.472  1.00  0.00     0.058 A 
ATOM     95  C   UNL A   1      50.145  26.580  25.167  1.00  0.00     0.135 A 
ATOM     96  C   UNL A   1      50.477  25.994  27.475  1.00  0.00     0.135 A 
ATOM     97  F   UNL A   1      49.377  27.044  24.169  1.00  0.00    -0.206 F 
ATOM     98  C   UNL A   1      51.440  26.172  24.867  1.00  0.00     0.059 A 
ATOM     99  C   UNL A   1      51.786  25.604  27.202  1.00  0.00     0.059 A 
ATOM    100  F   UNL A   1      50.041  25.896  28.741  1.00  0.00    -0.206 F 
ATOM    101  C   UNL A   1      52.256  25.691  25.893  1.00  0.00     0.060 A 
BRANCH 101 102
ATOM    102  S   UNL A   1      53.950  25.210  25.492  1.00  0.00     0.124 S 
ATOM    103  O   UNL A   1      54.704  25.880  26.547  1.00  0.00    -0.237 OA
ATOM    104  O   UNL A   1      53.889  23.755  25.583  1.00  0.00    -0.237 OA
ATOM    105  O   UNL A   1      54.146  25.741  24.147  1.00  0.00    -0.744 OA
ENDBRANCH 101 102
ENDBRANCH  69  94
ENDBRANCH  43  44
ENDBRANCH  36  38
ENDBRANCH  35  36
ENDBRANCH  34  35
ENDBRANCH  33  34
ENDBRANCH  32  33
ENDBRANCH  31  32
ENDBRANCH   1  31
TORSDOF 23
ENDMDL
MODEL 3
REMARK VINA RESULT:     -10.7      4.463      5.827
REMARK SMILES CC(C)(C)c1cc(Nc2ccccc2C(=O)OCCOCCOCCOC(=O)c2ccc(-c3c4nc(c(-c5c(F)cc(S(=O)(=O)[O-])cc5F)c5ccc([nH]5)c(-c5c(F)cc(S(=O)(=O)[O-])cc5F)c5nc(c(-c6c(F)cc(S(=O)(=O)[O-])cc6F)c6ccc3[nH]6)C=C5)C=C4)cc2)cc2c1OCC2(C)C
REMARK SMILES IDX 21 1 20 2 19 3 18 4 17 5 15 6 16 7 14 8 9 9 10 10 11 11
REMARK SMILES IDX 13 12 12 13 8 14 7 16 5 17 6 18 97 19 96 20 98 21 95 22
REMARK SMILES IDX 100 23 99 24 101 25 102 26 2 27 1 28 3 29 4 30 22 31 23 32
REMARK SMILES IDX 24 33 25 34 26 35 27 36 28 37 29 38 30 39 94 40 31 41 93 42
REMARK SMILES IDX 32 43 33 44 34 45 87 46 35 47 92 48 86 49 88 50 36 51 91 52
REMARK SMILES IDX 85 53 84 54 37 56 71 57 50 58 70 59 51 60 54 61 69 62 89 63
REMARK SMILES IDX 52 64 53 65 68 67 90 68 55 69 38 70 39 71 48 72 40 73 41 74
REMARK SMILES IDX 47 75 49 76 42 77 43 78 44 79 45 80 46 81 72 82 73 83 82 84
REMARK SMILES IDX 74 85 75 86 81 87 83 88 76 89 77 90 78 91 79 92 80 93 56 94
REMARK SMILES IDX 57 95 66 96 58 97 59 98 65 99 67 100 60 101 61 102 62 103
REMARK SMILES IDX 63 104 64 105
REMARK H PARENT 8 15 88 55 54 66
REMARK Flexibility Score: inf
ROOT
ATOM      1  C   UNL A   1      29.954  28.902  23.366  1.00  0.00     0.188 C 
ENDROOT
BRANCH   1   2
ATOM      2  O   UNL A   1      30.325  28.139  22.237  1.00  0.00    -0.376 OA
BRANCH   2   3
ATOM      3  C   UNL A   1      31.689  27.848  21.980  1.00  0.00     0.202 C 
BRANCH   3   4
ATOM      4  C   UNL A   1      32.255  26.424  21.976  1.00  0.00     0.261 C 
BRANCH   4   5
ATOM      5  O   UNL A   1      31.294  25.386  22.212  1.00  0.00    -0.460 OA
BRANCH   5   6
ATOM      6  C   UNL A   1      31.778  24.301  22.869  1.00  0.00     0.340 C 
ATOM      7  O   UNL A   1      32.676  23.570  22.482  1.00  0.00    -0.246 OA
BRANCH   6   8
ATOM      8  C   UNL A   1      31.198  24.175  24.227  1.00  0.00     0.083 A 
ATOM      9  C   UNL A   1      31.247  23.007  25.012  1.00  0.00     0.053 A 
ATOM     10  C   UNL A   1      30.766  23.099  26.333  1.00  0.00     0.027 A 
ATOM     11  C   UNL A   1      30.106  24.238  26.802  1.00  0.00     0.002 A 
ATOM     12  C   UNL A   1      30.536  25.323  24.705  1.00  0.00     0.018 A 
ATOM     13  C   UNL A   1      29.956  25.339  25.971  1.00  0.00     0.001 A 
BRANCH   9  14
ATOM     14  N   UNL A   1      31.600  21.742  24.480  1.00  0.00    -0.355 N 
ATOM     15  H   UNL A   1      30.903  21.289  23.950  1.00  0.00     0.167 HD
BRANCH  14  16
ATOM     16  C   UNL A   1      32.826  21.044  24.613  1.00  0.00     0.039 A 
ATOM     17  C   UNL A   1      34.051  18.873  24.571  1.00  0.00     0.002 A 
ATOM     18  C   UNL A   1      32.850  19.634  24.524  1.00  0.00     0.034 A 
ATOM     19  C   UNL A   1      35.229  19.614  24.701  1.00  0.00     0.127 A 
ATOM     20  C   UNL A   1      35.225  20.995  24.794  1.00  0.00     0.006 A 
ATOM     21  O   UNL A   1      36.495  19.095  24.746  1.00  0.00    -0.492 OA
ATOM     22  C   UNL A   1      34.042  21.709  24.775  1.00  0.00     0.034 A 
ATOM     23  C   UNL A   1      36.609  21.541  24.861  1.00  0.00     0.028 C 
ATOM     24  C   UNL A   1      37.394  20.219  24.911  1.00  0.00     0.240 C 
ATOM     25  C   UNL A   1      36.933  22.350  23.599  1.00  0.00     0.020 C 
ATOM     26  C   UNL A   1      36.850  22.393  26.111  1.00  0.00     0.020 C 
BRANCH  17  27
ATOM     27  C   UNL A   1      34.018  17.334  24.540  1.00  0.00    -0.009 C 
ATOM     28  C   UNL A   1      34.063  16.886  23.064  1.00  0.00     0.016 C 
ATOM     29  C   UNL A   1      32.760  16.720  25.196  1.00  0.00     0.016 C 
ATOM     30  C   UNL A   1      35.227  16.704  25.274  1.00  0.00     0.016 C 
ENDBRANCH  17  27
ENDBRANCH  14  16
ENDBRANCH   9  14
ENDBRANCH   6   8
ENDBRANCH   5   6
ENDBRANCH   4   5
ENDBRANCH   3   4
ENDBRANCH   2   3
ENDBRANCH   1   2
BRANCH   1  31
ATOM     31  C   UNL A   1      31.031  29.460  24.319  1.00  0.00     0.188 C 
BRANCH  31  32
ATOM     32  O   UNL A   1      31.562  28.654  25.347  1.00  0.00    -0.376 OA
BRANCH  32  33
ATOM     33  C   UNL A   1      32.879  28.140  25.251  1.00  0.00     0.202 C 
BRANCH  33  34
ATOM     34  C   UNL A   1      33.744  27.761  26.462  1.00  0.00     0.261 C 
BRANCH  34  35
ATOM     35  O   UNL A   1      33.706  28.652  27.580  1.00  0.00    -0.460 OA
BRANCH  35  36
ATOM     36  C   UNL A   1      34.362  29.828  27.404  1.00  0.00     0.338 C 
ATOM     37  O   UNL A   1      33.925  30.852  26.906  1.00  0.00    -0.246 OA
BRANCH  36  38
ATOM     38  C   UNL A   1      35.662  29.748  28.093  1.00  0.00     0.060 A 
ATOM     39  C   UNL A   1      35.734  29.327  29.421  1.00  0.00     0.016 A 
ATOM     40  C   UNL A   1      36.823  30.104  27.393  1.00  0.00     0.016 A 
ATOM     41  C   UNL A   1      36.979  29.247  30.046  1.00  0.00     0.010 A 
ATOM     42  C   UNL A   1      38.066  30.036  28.025  1.00  0.00     0.010 A 
ATOM     43  C   UNL A   1      38.154  29.590  29.350  1.00  0.00    -0.014 A 
BRANCH  43  44
ATOM     44  C   UNL A   1      39.477  29.333  29.973  1.00  0.00     0.031 A 
ATOM     45  C   UNL A   1      39.957  30.109  31.163  1.00  0.00     0.074 A 
ATOM     46  C   UNL A   1      40.246  28.365  29.440  1.00  0.00     0.049 A 
ATOM     47  N   UNL A   1      41.041  29.928  31.873  1.00  0.00    -0.248 NA
ATOM     48  C   UNL A   1      39.122  31.232  31.611  1.00  0.00     0.031 C 
ATOM     49  C   UNL A   1      39.893  27.571  28.260  1.00  0.00     0.029 A 
ATOM     50  N   UNL A   1      41.467  27.873  29.822  1.00  0.00    -0.354 N 
ATOM     51  C   UNL A   1      41.010  30.892  32.872  1.00  0.00     0.074 A 
ATOM     52  C   UNL A   1      39.824  31.693  32.641  1.00  0.00     0.031 C 
ATOM     53  C   UNL A   1      40.861  26.670  28.035  1.00  0.00     0.029 A 
ATOM     54  C   UNL A   1      41.910  26.835  29.037  1.00  0.00     0.049 A 
ATOM     55  H   UNL A   1      41.978  28.229  30.585  1.00  0.00     0.167 HD
ATOM     56  C   UNL A   1      41.879  31.073  33.895  1.00  0.00     0.037 A 
ATOM     57  C   UNL A   1      43.030  26.092  29.118  1.00  0.00     0.037 A 
ATOM     58  C   UNL A   1      43.067  30.279  34.105  1.00  0.00     0.049 A 
ATOM     59  C   UNL A   1      44.001  26.345  30.237  1.00  0.00     0.074 A 
ATOM     60  C   UNL A   1      43.986  30.364  35.137  1.00  0.00     0.029 A 
ATOM     61  N   UNL A   1      43.509  29.266  33.264  1.00  0.00    -0.354 N 
ATOM     62  N   UNL A   1      43.917  27.209  31.221  1.00  0.00    -0.248 NA
ATOM     63  C   UNL A   1      45.217  25.519  30.263  1.00  0.00     0.031 C 
ATOM     64  C   UNL A   1      45.011  29.442  34.892  1.00  0.00     0.029 A 
ATOM     65  C   UNL A   1      44.704  28.743  33.737  1.00  0.00     0.049 A 
ATOM     66  H   UNL A   1      43.043  28.963  32.452  1.00  0.00     0.167 HD
ATOM     67  C   UNL A   1      45.060  27.020  31.990  1.00  0.00     0.074 A 
ATOM     68  C   UNL A   1      45.809  25.947  31.370  1.00  0.00     0.031 C 
ATOM     69  C   UNL A   1      45.451  27.681  33.108  1.00  0.00     0.037 A 
BRANCH  56  70
ATOM     70  C   UNL A   1      41.583  32.164  34.889  1.00  0.00     0.058 A 
ATOM     71  C   UNL A   1      42.070  33.469  34.707  1.00  0.00     0.135 A 
ATOM     72  C   UNL A   1      40.734  31.932  35.984  1.00  0.00     0.135 A 
ATOM     73  F   UNL A   1      42.890  33.746  33.681  1.00  0.00    -0.206 F 
ATOM     74  C   UNL A   1      41.739  34.499  35.581  1.00  0.00     0.059 A 
ATOM     75  C   UNL A   1      40.369  32.953  36.858  1.00  0.00     0.059 A 
ATOM     76  F   UNL A   1      40.236  30.705  36.204  1.00  0.00    -0.206 F 
ATOM     77  C   UNL A   1      40.884  34.233  36.652  1.00  0.00     0.060 A 
BRANCH  77  78
ATOM     78  S   UNL A   1      40.450  35.590  37.761  1.00  0.00     0.124 S 
ATOM     79  O   UNL A   1      40.132  36.652  36.812  1.00  0.00    -0.237 OA
ATOM     80  O   UNL A   1      39.317  35.039  38.497  1.00  0.00    -0.237 OA
ATOM     81  O   UNL A   1      41.664  35.794  38.544  1.00  0.00    -0.744 OA
ENDBRANCH  77  78
ENDBRANCH  56  70
BRANCH  57  82
ATOM     82  C   UNL A   1      43.267  25.013  28.125  1.00  0.00     0.058 A 
ATOM     83  C   UNL A   1      43.820  25.298  26.869  1.00  0.00     0.135 A 
ATOM     84  C   UNL A   1      42.980  23.672  28.425  1.00  0.00     0.135 A 
ATOM     85  F   UNL A   1      44.108  26.566  26.535  1.00  0.00    -0.206 F 
ATOM     86  C   UNL A   1      44.075  24.294  25.940  1.00  0.00     0.059 A 
ATOM     87  C   UNL A   1      43.250  22.648  27.525  1.00  0.00     0.059 A 
ATOM     88  F   UNL A   1      42.464  23.346  29.621  1.00  0.00    -0.206 F 
ATOM     89  C   UNL A   1      43.791  22.970  26.281  1.00  0.00     0.060 A 
BRANCH  89  90
ATOM     90  S   UNL A   1      44.179  21.672  25.088  1.00  0.00     0.124 S 
ATOM     91  O   UNL A   1      44.119  22.403  23.828  1.00  0.00    -0.237 OA
ATOM     92  O   UNL A   1      45.508  21.250  25.520  1.00  0.00    -0.237 OA
ATOM     93  O   UNL A   1      43.118  20.692  25.301  1.00  0.00    -0.744 OA
ENDBRANCH  89  90
ENDBRANCH  57  82
BRANCH  69  94
ATOM     94  C   UNL A   1      46.753  27.267  33.741  1.00  0.00     0.058 A 
ATOM     95  C   UNL A   1      47.963  27.897  33.409  1.00  0.00     0.135 A 
ATOM     96  C   UNL A   1      46.784  26.276  34.736  1.00  0.00     0.135 A 
ATOM     97  F   UNL A   1      47.992  28.845  32.459  1.00  0.00    -0.206 F 
ATOM     98  C   UNL A   1      49.158  27.552  34.032  1.00  0.00     0.059 A 
ATOM     99  C   UNL A   1      47.964  25.932  35.390  1.00  0.00     0.059 A 
ATOM    100  F   UNL A   1      45.655  25.643  35.096  1.00  0.00    -0.206 F 
ATOM    101  C   UNL A   1      49.148  26.572  35.026  1.00  0.00     0.060 A 
BRANCH 101 102
ATOM    102  S   UNL A   1      50.701  26.170  35.855  1.00  0.00     0.124 S 
ATOM    103  O   UNL A   1      51.504  27.355  35.568  1.00  0.00    -0.237 OA
ATOM    104  O   UNL A   1      50.280  26.011  37.243  1.00  0.00    -0.237 OA
ATOM    105  O   UNL A   1      51.134  24.944  35.191  1.00  0.00    -0.744 OA
ENDBRANCH 101 102
ENDBRANCH  69  94
ENDBRANCH  43  44
ENDBRANCH  36  38
ENDBRANCH  35  36
ENDBRANCH  34  35
ENDBRANCH  33  34
ENDBRANCH  32  33
ENDBRANCH  31  32
ENDBRANCH   1  31
TORSDOF 23
ENDMDL
