MODEL 1
REMARK VINA RESULT:      -9.4      0.000      0.000
REMARK SMILES C[C@@H]1CCC[C@H](NC(=O)N(C)CC(=O)OCCOCCOCCOC(=O)c2ccc(-c3c4nc(c(-c5c(F)cc(S(=O)(=O)[O-])cc5F)c5ccc([nH]5)c(-c5c(F)cc(S(=O)(=O)[O-])cc5F)c5nc(c(-c6c(F)cc(S(=O)(=O)[O-])cc6F)c6ccc3[nH]6)C=C5)C=C4)cc2)C1
REMARK SMILES IDX 19 1 18 2 17 3 16 4 15 5 13 6 14 7 12 8 10 9 11 10 8 11 7 12
REMARK SMILES IDX 9 14 6 15 1 16 2 17 3 18 93 19 4 20 5 21 20 22 21 23 22 24
REMARK SMILES IDX 23 25 24 26 25 27 26 28 27 29 28 30 92 31 29 32 91 33 30 34
REMARK SMILES IDX 31 35 32 36 85 37 33 38 90 39 84 40 86 41 34 42 89 43 83 44
REMARK SMILES IDX 82 45 35 47 69 48 48 49 68 50 49 51 52 52 67 53 87 54 50 55
REMARK SMILES IDX 51 56 66 58 88 59 53 60 36 61 37 62 46 63 38 64 39 65 45 66
REMARK SMILES IDX 47 67 40 68 41 69 42 70 43 71 44 72 70 73 71 74 80 75 72 76
REMARK SMILES IDX 73 77 79 78 81 79 74 80 75 81 76 82 77 83 78 84 54 85 55 86
REMARK SMILES IDX 64 87 56 88 57 89 63 90 65 91 58 92 59 93 60 94 61 95 62 96
REMARK H PARENT 7 13 86 46 52 57
REMARK Flexibility Score: inf
ROOT
ATOM      1  C   UNL A   1      31.781  29.326  24.348  1.00  0.00     0.188 C 
ENDROOT
BRANCH   1   2
ATOM      2  O   UNL A   1      30.555  28.691  23.973  1.00  0.00    -0.376 OA
BRANCH   2   3
ATOM      3  C   UNL A   1      30.316  28.476  22.589  1.00  0.00     0.202 C 
BRANCH   3   4
ATOM      4  C   UNL A   1      30.738  27.105  22.062  1.00  0.00     0.261 C 
BRANCH   4   5
ATOM      5  O   UNL A   1      32.157  26.883  22.190  1.00  0.00    -0.462 OA
BRANCH   5   6
ATOM      6  C   UNL A   1      32.575  25.608  21.963  1.00  0.00     0.325 C 
ATOM      7  O   UNL A   1      33.308  25.277  21.036  1.00  0.00    -0.250 OA
BRANCH   6   8
ATOM      8  C   UNL A   1      32.057  24.587  22.983  1.00  0.00     0.243 C 
BRANCH   8   9
ATOM      9  N   UNL A   1      32.574  24.586  24.369  1.00  0.00    -0.317 N 
ATOM     10  C   UNL A   1      31.636  24.118  25.368  1.00  0.00     0.149 C 
BRANCH   9  11
ATOM     11  C   UNL A   1      33.858  24.999  24.563  1.00  0.00     0.317 C 
ATOM     12  N   UNL A   1      34.943  24.270  24.233  1.00  0.00    -0.335 N 
ATOM     13  H   UNL A   1      35.769  24.658  24.603  1.00  0.00     0.165 HD
ATOM     14  O   UNL A   1      34.101  26.103  25.059  1.00  0.00    -0.249 OA
BRANCH  12  15
ATOM     15  C   UNL A   1      35.211  23.052  23.469  1.00  0.00     0.084 C 
ATOM     16  C   UNL A   1      34.708  21.843  26.543  1.00  0.00     0.008 C 
ATOM     17  C   UNL A   1      35.000  21.124  25.231  1.00  0.00    -0.012 C 
ATOM     18  C   UNL A   1      36.498  20.862  25.077  1.00  0.00     0.003 C 
ATOM     19  C   UNL A   1      34.406  21.854  24.008  1.00  0.00     0.028 C 
ATOM     20  C   UNL A   1      37.269  22.122  24.702  1.00  0.00     0.002 C 
ATOM     21  C   UNL A   1      36.719  22.745  23.422  1.00  0.00     0.025 C 
ENDBRANCH  12  15
ENDBRANCH   9  11
ENDBRANCH   8   9
ENDBRANCH   6   8
ENDBRANCH   5   6
ENDBRANCH   4   5
ENDBRANCH   3   4
ENDBRANCH   2   3
ENDBRANCH   1   2
BRANCH   1  22
ATOM     22  C   UNL A   1      32.070  29.473  25.848  1.00  0.00     0.188 C 
BRANCH  22  23
ATOM     23  O   UNL A   1      33.004  30.528  26.090  1.00  0.00    -0.376 OA
BRANCH  23  24
ATOM     24  C   UNL A   1      32.983  31.023  27.419  1.00  0.00     0.202 C 
BRANCH  24  25
ATOM     25  C   UNL A   1      32.448  32.452  27.458  1.00  0.00     0.261 C 
BRANCH  25  26
ATOM     26  O   UNL A   1      33.476  33.457  27.478  1.00  0.00    -0.460 OA
BRANCH  26  27
ATOM     27  C   UNL A   1      33.441  34.328  28.512  1.00  0.00     0.338 C 
ATOM     28  O   UNL A   1      32.597  35.177  28.722  1.00  0.00    -0.246 OA
BRANCH  27  29
ATOM     29  C   UNL A   1      34.562  34.020  29.421  1.00  0.00     0.060 A 
ATOM     30  C   UNL A   1      35.860  34.387  29.052  1.00  0.00     0.016 A 
ATOM     31  C   UNL A   1      34.336  33.325  30.611  1.00  0.00     0.016 A 
ATOM     32  C   UNL A   1      36.942  34.044  29.868  1.00  0.00     0.010 A 
ATOM     33  C   UNL A   1      35.420  32.968  31.417  1.00  0.00     0.010 A 
ATOM     34  C   UNL A   1      36.733  33.303  31.038  1.00  0.00    -0.014 A 
BRANCH  34  35
ATOM     35  C   UNL A   1      37.881  32.743  31.793  1.00  0.00     0.031 A 
ATOM     36  C   UNL A   1      38.608  31.553  31.227  1.00  0.00     0.074 A 
ATOM     37  C   UNL A   1      38.271  33.273  32.967  1.00  0.00     0.049 A 
ATOM     38  N   UNL A   1      39.569  30.838  31.751  1.00  0.00    -0.248 NA
ATOM     39  C   UNL A   1      38.189  31.108  29.888  1.00  0.00     0.031 C 
ATOM     40  C   UNL A   1      37.679  34.448  33.603  1.00  0.00     0.029 A 
ATOM     41  N   UNL A   1      39.256  32.878  33.839  1.00  0.00    -0.354 N 
ATOM     42  C   UNL A   1      39.864  29.854  30.815  1.00  0.00     0.074 A 
ATOM     43  C   UNL A   1      38.964  30.051  29.698  1.00  0.00     0.031 C 
ATOM     44  C   UNL A   1      38.306  34.674  34.772  1.00  0.00     0.029 A 
ATOM     45  C   UNL A   1      39.318  33.640  34.981  1.00  0.00     0.049 A 
ATOM     46  H   UNL A   1      39.860  32.121  33.662  1.00  0.00     0.167 HD
ATOM     47  C   UNL A   1      40.801  28.878  30.876  1.00  0.00     0.037 A 
ATOM     48  C   UNL A   1      40.089  33.503  36.080  1.00  0.00     0.037 A 
ATOM     49  C   UNL A   1      41.697  28.684  31.986  1.00  0.00     0.049 A 
ATOM     50  C   UNL A   1      41.084  32.372  36.153  1.00  0.00     0.074 A 
ATOM     51  C   UNL A   1      42.683  27.725  32.140  1.00  0.00     0.029 A 
ATOM     52  N   UNL A   1      41.715  29.462  33.134  1.00  0.00    -0.354 N 
ATOM     53  N   UNL A   1      41.350  31.446  35.262  1.00  0.00    -0.248 NA
ATOM     54  C   UNL A   1      41.880  32.266  37.385  1.00  0.00     0.031 C 
ATOM     55  C   UNL A   1      43.273  27.901  33.397  1.00  0.00     0.029 A 
ATOM     56  C   UNL A   1      42.683  28.996  34.008  1.00  0.00     0.049 A 
ATOM     57  H   UNL A   1      41.126  30.233  33.303  1.00  0.00     0.167 HD
ATOM     58  C   UNL A   1      42.358  30.662  35.816  1.00  0.00     0.074 A 
ATOM     59  C   UNL A   1      42.662  31.228  37.114  1.00  0.00     0.031 C 
ATOM     60  C   UNL A   1      42.976  29.573  35.296  1.00  0.00     0.037 A 
BRANCH  47  61
ATOM     61  C   UNL A   1      40.887  27.930  29.714  1.00  0.00     0.058 A 
ATOM     62  C   UNL A   1      39.946  26.905  29.529  1.00  0.00     0.135 A 
ATOM     63  C   UNL A   1      41.915  28.058  28.765  1.00  0.00     0.135 A 
ATOM     64  F   UNL A   1      38.955  26.727  30.417  1.00  0.00    -0.206 F 
ATOM     65  C   UNL A   1      40.036  26.022  28.456  1.00  0.00     0.059 A 
ATOM     66  C   UNL A   1      42.010  27.200  27.673  1.00  0.00     0.059 A 
ATOM     67  F   UNL A   1      42.842  29.020  28.898  1.00  0.00    -0.206 F 
ATOM     68  C   UNL A   1      41.075  26.176  27.537  1.00  0.00     0.060 A 
BRANCH  68  69
ATOM     69  S   UNL A   1      41.184  25.019  26.155  1.00  0.00     0.124 S 
ATOM     70  O   UNL A   1      39.838  24.456  26.139  1.00  0.00    -0.237 OA
ATOM     71  O   UNL A   1      41.515  25.896  25.036  1.00  0.00    -0.237 OA
ATOM     72  O   UNL A   1      42.244  24.102  26.563  1.00  0.00    -0.744 OA
ENDBRANCH  68  69
ENDBRANCH  47  61
BRANCH  48  73
ATOM     73  C   UNL A   1      39.945  34.455  37.213  1.00  0.00     0.058 A 
ATOM     74  C   UNL A   1      40.740  35.606  37.298  1.00  0.00     0.135 A 
ATOM     75  C   UNL A   1      39.014  34.227  38.240  1.00  0.00     0.135 A 
ATOM     76  F   UNL A   1      41.657  35.858  36.351  1.00  0.00    -0.206 F 
ATOM     77  C   UNL A   1      40.629  36.493  38.364  1.00  0.00     0.059 A 
ATOM     78  C   UNL A   1      38.867  35.111  39.303  1.00  0.00     0.059 A 
ATOM     79  F   UNL A   1      38.226  33.141  38.204  1.00  0.00    -0.206 F 
ATOM     80  C   UNL A   1      39.687  36.237  39.362  1.00  0.00     0.060 A 
BRANCH  80  81
ATOM     81  S   UNL A   1      39.516  37.418  40.719  1.00  0.00     0.124 S 
ATOM     82  O   UNL A   1      39.245  36.533  41.846  1.00  0.00    -0.237 OA
ATOM     83  O   UNL A   1      40.820  38.074  40.724  1.00  0.00    -0.237 OA
ATOM     84  O   UNL A   1      38.402  38.259  40.293  1.00  0.00    -0.744 OA
ENDBRANCH  80  81
ENDBRANCH  48  73
BRANCH  60  85
ATOM     85  C   UNL A   1      44.067  28.938  36.116  1.00  0.00     0.058 A 
ATOM     86  C   UNL A   1      45.380  29.431  36.103  1.00  0.00     0.135 A 
ATOM     87  C   UNL A   1      43.782  27.851  36.958  1.00  0.00     0.135 A 
ATOM     88  F   UNL A   1      45.706  30.465  35.312  1.00  0.00    -0.206 F 
ATOM     89  C   UNL A   1      46.381  28.854  36.880  1.00  0.00     0.059 A 
ATOM     90  C   UNL A   1      44.761  27.274  37.761  1.00  0.00     0.059 A 
ATOM     91  F   UNL A   1      42.538  27.348  37.017  1.00  0.00    -0.206 F 
ATOM     92  C   UNL A   1      46.060  27.774  37.706  1.00  0.00     0.060 A 
BRANCH  92  93
ATOM     93  S   UNL A   1      47.359  27.049  38.731  1.00  0.00     0.124 S 
ATOM     94  O   UNL A   1      47.607  28.120  39.691  1.00  0.00    -0.237 OA
ATOM     95  O   UNL A   1      46.710  25.856  39.265  1.00  0.00    -0.237 OA
ATOM     96  O   UNL A   1      48.438  26.794  37.781  1.00  0.00    -0.744 OA
ENDBRANCH  92  93
ENDBRANCH  60  85
ENDBRANCH  34  35
ENDBRANCH  27  29
ENDBRANCH  26  27
ENDBRANCH  25  26
ENDBRANCH  24  25
ENDBRANCH  23  24
ENDBRANCH  22  23
ENDBRANCH   1  22
TORSDOF 23
ENDMDL
MODEL 2
REMARK VINA RESULT:      -9.4      6.174      8.832
REMARK SMILES C[C@@H]1CCC[C@H](NC(=O)N(C)CC(=O)OCCOCCOCCOC(=O)c2ccc(-c3c4nc(c(-c5c(F)cc(S(=O)(=O)[O-])cc5F)c5ccc([nH]5)c(-c5c(F)cc(S(=O)(=O)[O-])cc5F)c5nc(c(-c6c(F)cc(S(=O)(=O)[O-])cc6F)c6ccc3[nH]6)C=C5)C=C4)cc2)C1
REMARK SMILES IDX 19 1 18 2 17 3 16 4 15 5 13 6 14 7 12 8 10 9 11 10 8 11 7 12
REMARK SMILES IDX 9 14 6 15 1 16 2 17 3 18 93 19 4 20 5 21 20 22 21 23 22 24
REMARK SMILES IDX 23 25 24 26 25 27 26 28 27 29 28 30 92 31 29 32 91 33 30 34
REMARK SMILES IDX 31 35 32 36 85 37 33 38 90 39 84 40 86 41 34 42 89 43 83 44
REMARK SMILES IDX 82 45 35 47 69 48 48 49 68 50 49 51 52 52 67 53 87 54 50 55
REMARK SMILES IDX 51 56 66 58 88 59 53 60 36 61 37 62 46 63 38 64 39 65 45 66
REMARK SMILES IDX 47 67 40 68 41 69 42 70 43 71 44 72 70 73 71 74 80 75 72 76
REMARK SMILES IDX 73 77 79 78 81 79 74 80 75 81 76 82 77 83 78 84 54 85 55 86
REMARK SMILES IDX 64 87 56 88 57 89 63 90 65 91 58 92 59 93 60 94 61 95 62 96
REMARK H PARENT 7 13 86 46 52 57
REMARK Flexibility Score: inf
ROOT
ATOM      1  C   UNL A   1      34.750  31.863  28.574  1.00  0.00     0.188 C 
ENDROOT
BRANCH   1   2
ATOM      2  O   UNL A   1      33.579  31.785  27.756  1.00  0.00    -0.376 OA
BRANCH   2   3
ATOM      3  C   UNL A   1      33.317  30.559  27.087  1.00  0.00     0.202 C 
BRANCH   3   4
ATOM      4  C   UNL A   1      31.861  30.340  26.678  1.00  0.00     0.261 C 
BRANCH   4   5
ATOM      5  O   UNL A   1      31.743  29.540  25.485  1.00  0.00    -0.462 OA
BRANCH   5   6
ATOM      6  C   UNL A   1      32.503  28.412  25.455  1.00  0.00     0.325 C 
ATOM      7  O   UNL A   1      33.557  28.307  24.835  1.00  0.00    -0.250 OA
BRANCH   6   8
ATOM      8  C   UNL A   1      31.937  27.253  26.284  1.00  0.00     0.243 C 
BRANCH   8   9
ATOM      9  N   UNL A   1      31.375  26.059  25.616  1.00  0.00    -0.317 N 
ATOM     10  C   UNL A   1      30.557  26.340  24.455  1.00  0.00     0.149 C 
BRANCH   9  11
ATOM     11  C   UNL A   1      31.690  24.839  26.136  1.00  0.00     0.317 C 
ATOM     12  N   UNL A   1      32.455  23.925  25.508  1.00  0.00    -0.335 N 
ATOM     13  H   UNL A   1      32.428  23.052  25.961  1.00  0.00     0.165 HD
ATOM     14  O   UNL A   1      31.283  24.502  27.252  1.00  0.00    -0.249 OA
BRANCH  12  15
ATOM     15  C   UNL A   1      33.316  23.895  24.325  1.00  0.00     0.084 C 
ATOM     16  C   UNL A   1      34.538  21.365  26.133  1.00  0.00     0.008 C 
ATOM     17  C   UNL A   1      34.937  21.882  24.757  1.00  0.00    -0.012 C 
ATOM     18  C   UNL A   1      36.093  22.877  24.864  1.00  0.00     0.003 C 
ATOM     19  C   UNL A   1      33.743  22.458  23.968  1.00  0.00     0.028 C 
ATOM     20  C   UNL A   1      35.638  24.237  25.380  1.00  0.00     0.002 C 
ATOM     21  C   UNL A   1      34.535  24.820  24.501  1.00  0.00     0.025 C 
ENDBRANCH  12  15
ENDBRANCH   9  11
ENDBRANCH   8   9
ENDBRANCH   6   8
ENDBRANCH   5   6
ENDBRANCH   4   5
ENDBRANCH   3   4
ENDBRANCH   2   3
ENDBRANCH   1   2
BRANCH   1  22
ATOM     22  C   UNL A   1      35.039  33.201  29.268  1.00  0.00     0.188 C 
BRANCH  22  23
ATOM     23  O   UNL A   1      34.405  33.263  30.548  1.00  0.00    -0.376 OA
BRANCH  23  24
ATOM     24  C   UNL A   1      35.308  33.419  31.631  1.00  0.00     0.202 C 
BRANCH  24  25
ATOM     25  C   UNL A   1      35.572  32.080  32.316  1.00  0.00     0.261 C 
BRANCH  25  26
ATOM     26  O   UNL A   1      36.915  31.595  32.144  1.00  0.00    -0.460 OA
BRANCH  26  27
ATOM     27  C   UNL A   1      37.043  30.397  31.529  1.00  0.00     0.338 C 
ATOM     28  O   UNL A   1      36.181  29.551  31.394  1.00  0.00    -0.246 OA
BRANCH  27  29
ATOM     29  C   UNL A   1      38.397  30.313  30.949  1.00  0.00     0.060 A 
ATOM     30  C   UNL A   1      38.565  30.509  29.576  1.00  0.00     0.016 A 
ATOM     31  C   UNL A   1      39.491  29.992  31.756  1.00  0.00     0.016 A 
ATOM     32  C   UNL A   1      39.830  30.366  28.998  1.00  0.00     0.010 A 
ATOM     33  C   UNL A   1      40.752  29.833  31.175  1.00  0.00     0.010 A 
ATOM     34  C   UNL A   1      40.925  29.993  29.788  1.00  0.00    -0.014 A 
BRANCH  34  35
ATOM     35  C   UNL A   1      42.218  29.624  29.161  1.00  0.00     0.031 A 
ATOM     36  C   UNL A   1      42.399  28.218  28.652  1.00  0.00     0.074 A 
ATOM     37  C   UNL A   1      43.221  30.513  29.050  1.00  0.00     0.049 A 
ATOM     38  N   UNL A   1      43.465  27.642  28.161  1.00  0.00    -0.248 NA
ATOM     39  C   UNL A   1      41.216  27.345  28.711  1.00  0.00     0.031 C 
ATOM     40  C   UNL A   1      43.160  31.914  29.464  1.00  0.00     0.029 A 
ATOM     41  N   UNL A   1      44.496  30.362  28.562  1.00  0.00    -0.354 N 
ATOM     42  C   UNL A   1      43.088  26.339  27.862  1.00  0.00     0.074 A 
ATOM     43  C   UNL A   1      41.700  26.203  28.247  1.00  0.00     0.031 C 
ATOM     44  C   UNL A   1      44.351  32.492  29.223  1.00  0.00     0.029 A 
ATOM     45  C   UNL A   1      45.266  31.495  28.671  1.00  0.00     0.049 A 
ATOM     46  H   UNL A   1      44.827  29.521  28.172  1.00  0.00     0.167 HD
ATOM     47  C   UNL A   1      43.827  25.347  27.311  1.00  0.00     0.037 A 
ATOM     48  C   UNL A   1      46.568  31.697  28.379  1.00  0.00     0.037 A 
ATOM     49  C   UNL A   1      45.208  25.483  26.927  1.00  0.00     0.049 A 
ATOM     50  C   UNL A   1      47.390  30.560  27.825  1.00  0.00     0.074 A 
ATOM     51  C   UNL A   1      46.042  24.536  26.359  1.00  0.00     0.029 A 
ATOM     52  N   UNL A   1      45.959  26.640  27.072  1.00  0.00    -0.354 N 
ATOM     53  N   UNL A   1      47.021  29.332  27.550  1.00  0.00    -0.248 NA
ATOM     54  C   UNL A   1      48.806  30.839  27.545  1.00  0.00     0.031 C 
ATOM     55  C   UNL A   1      47.308  25.110  26.194  1.00  0.00     0.029 A 
ATOM     56  C   UNL A   1      47.251  26.427  26.621  1.00  0.00     0.049 A 
ATOM     57  H   UNL A   1      45.624  27.489  27.443  1.00  0.00     0.167 HD
ATOM     58  C   UNL A   1      48.153  28.698  27.045  1.00  0.00     0.074 A 
ATOM     59  C   UNL A   1      49.216  29.681  27.043  1.00  0.00     0.031 C 
ATOM     60  C   UNL A   1      48.298  27.417  26.621  1.00  0.00     0.037 A 
BRANCH  47  61
ATOM     61  C   UNL A   1      43.159  24.016  27.115  1.00  0.00     0.058 A 
ATOM     62  C   UNL A   1      43.066  23.078  28.155  1.00  0.00     0.135 A 
ATOM     63  C   UNL A   1      42.591  23.680  25.875  1.00  0.00     0.135 A 
ATOM     64  F   UNL A   1      43.609  23.341  29.354  1.00  0.00    -0.206 F 
ATOM     65  C   UNL A   1      42.456  21.841  27.965  1.00  0.00     0.059 A 
ATOM     66  C   UNL A   1      41.956  22.459  25.670  1.00  0.00     0.059 A 
ATOM     67  F   UNL A   1      42.656  24.541  24.847  1.00  0.00    -0.206 F 
ATOM     68  C   UNL A   1      41.908  21.540  26.717  1.00  0.00     0.060 A 
BRANCH  68  69
ATOM     69  S   UNL A   1      41.126  19.930  26.482  1.00  0.00     0.124 S 
ATOM     70  O   UNL A   1      41.213  19.365  27.825  1.00  0.00    -0.237 OA
ATOM     71  O   UNL A   1      39.785  20.294  26.036  1.00  0.00    -0.237 OA
ATOM     72  O   UNL A   1      41.965  19.288  25.476  1.00  0.00    -0.744 OA
ENDBRANCH  68  69
ENDBRANCH  47  61
BRANCH  48  73
ATOM     73  C   UNL A   1      47.186  33.028  28.618  1.00  0.00     0.058 A 
ATOM     74  C   UNL A   1      47.763  33.348  29.855  1.00  0.00     0.135 A 
ATOM     75  C   UNL A   1      47.204  34.011  27.615  1.00  0.00     0.135 A 
ATOM     76  F   UNL A   1      47.753  32.448  30.851  1.00  0.00    -0.206 F 
ATOM     77  C   UNL A   1      48.326  34.597  30.096  1.00  0.00     0.059 A 
ATOM     78  C   UNL A   1      47.783  35.258  27.824  1.00  0.00     0.059 A 
ATOM     79  F   UNL A   1      46.669  33.753  26.412  1.00  0.00    -0.206 F 
ATOM     80  C   UNL A   1      48.333  35.546  29.073  1.00  0.00     0.060 A 
BRANCH  80  81
ATOM     81  S   UNL A   1      49.107  37.149  29.379  1.00  0.00     0.124 S 
ATOM     82  O   UNL A   1      47.964  37.953  29.795  1.00  0.00    -0.237 OA
ATOM     83  O   UNL A   1      50.076  36.830  30.424  1.00  0.00    -0.237 OA
ATOM     84  O   UNL A   1      49.686  37.495  28.084  1.00  0.00    -0.744 OA
ENDBRANCH  80  81
ENDBRANCH  48  73
BRANCH  60  85
ATOM     85  C   UNL A   1      49.646  27.012  26.089  1.00  0.00     0.058 A 
ATOM     86  C   UNL A   1      50.595  26.372  26.899  1.00  0.00     0.135 A 
ATOM     87  C   UNL A   1      49.971  27.227  24.740  1.00  0.00     0.135 A 
ATOM     88  F   UNL A   1      50.335  26.147  28.197  1.00  0.00    -0.206 F 
ATOM     89  C   UNL A   1      51.833  25.979  26.397  1.00  0.00     0.059 A 
ATOM     90  C   UNL A   1      51.193  26.822  24.211  1.00  0.00     0.059 A 
ATOM     91  F   UNL A   1      49.094  27.825  23.918  1.00  0.00    -0.206 F 
ATOM     92  C   UNL A   1      52.123  26.210  25.050  1.00  0.00     0.060 A 
BRANCH  92  93
ATOM     93  S   UNL A   1      53.720  25.672  24.400  1.00  0.00     0.124 S 
ATOM     94  O   UNL A   1      53.561  25.937  22.974  1.00  0.00    -0.237 OA
ATOM     95  O   UNL A   1      54.656  26.542  25.106  1.00  0.00    -0.237 OA
ATOM     96  O   UNL A   1      53.781  24.263  24.775  1.00  0.00    -0.744 OA
ENDBRANCH  92  93
ENDBRANCH  60  85
ENDBRANCH  34  35
ENDBRANCH  27  29
ENDBRANCH  26  27
ENDBRANCH  25  26
ENDBRANCH  24  25
ENDBRANCH  23  24
ENDBRANCH  22  23
ENDBRANCH   1  22
TORSDOF 23
ENDMDL
MODEL 3
REMARK VINA RESULT:      -9.4      6.062     11.113
REMARK SMILES C[C@@H]1CCC[C@H](NC(=O)N(C)CC(=O)OCCOCCOCCOC(=O)c2ccc(-c3c4nc(c(-c5c(F)cc(S(=O)(=O)[O-])cc5F)c5ccc([nH]5)c(-c5c(F)cc(S(=O)(=O)[O-])cc5F)c5nc(c(-c6c(F)cc(S(=O)(=O)[O-])cc6F)c6ccc3[nH]6)C=C5)C=C4)cc2)C1
REMARK SMILES IDX 19 1 18 2 17 3 16 4 15 5 13 6 14 7 12 8 10 9 11 10 8 11 7 12
REMARK SMILES IDX 9 14 6 15 1 16 2 17 3 18 93 19 4 20 5 21 20 22 21 23 22 24
REMARK SMILES IDX 23 25 24 26 25 27 26 28 27 29 28 30 92 31 29 32 91 33 30 34
REMARK SMILES IDX 31 35 32 36 85 37 33 38 90 39 84 40 86 41 34 42 89 43 83 44
REMARK SMILES IDX 82 45 35 47 69 48 48 49 68 50 49 51 52 52 67 53 87 54 50 55
REMARK SMILES IDX 51 56 66 58 88 59 53 60 36 61 37 62 46 63 38 64 39 65 45 66
REMARK SMILES IDX 47 67 40 68 41 69 42 70 43 71 44 72 70 73 71 74 80 75 72 76
REMARK SMILES IDX 73 77 79 78 81 79 74 80 75 81 76 82 77 83 78 84 54 85 55 86
REMARK SMILES IDX 64 87 56 88 57 89 63 90 65 91 58 92 59 93 60 94 61 95 62 96
REMARK H PARENT 7 13 86 46 52 57
REMARK Flexibility Score: inf
ROOT
ATOM      1  C   UNL A   1      34.794  33.957  28.262  1.00  0.00     0.188 C 
ENDROOT
BRANCH   1   2
ATOM      2  O   UNL A   1      34.391  32.914  27.371  1.00  0.00    -0.376 OA
BRANCH   2   3
ATOM      3  C   UNL A   1      34.827  31.592  27.657  1.00  0.00     0.202 C 
BRANCH   3   4
ATOM      4  C   UNL A   1      33.733  30.525  27.620  1.00  0.00     0.261 C 
BRANCH   4   5
ATOM      5  O   UNL A   1      33.510  30.017  26.289  1.00  0.00    -0.462 OA
BRANCH   5   6
ATOM      6  C   UNL A   1      32.224  30.070  25.848  1.00  0.00     0.325 C 
ATOM      7  O   UNL A   1      31.420  30.940  26.169  1.00  0.00    -0.250 OA
BRANCH   6   8
ATOM      8  C   UNL A   1      31.844  28.939  24.884  1.00  0.00     0.243 C 
BRANCH   8   9
ATOM      9  N   UNL A   1      31.525  27.591  25.402  1.00  0.00    -0.317 N 
ATOM     10  C   UNL A   1      31.445  27.495  26.844  1.00  0.00     0.149 C 
BRANCH   9  11
ATOM     11  C   UNL A   1      31.325  26.597  24.490  1.00  0.00     0.317 C 
ATOM     12  N   UNL A   1      32.273  25.718  24.111  1.00  0.00    -0.335 N 
ATOM     13  H   UNL A   1      31.992  25.193  23.328  1.00  0.00     0.165 HD
ATOM     14  O   UNL A   1      30.224  26.442  23.953  1.00  0.00    -0.249 OA
BRANCH  12  15
ATOM     15  C   UNL A   1      33.614  25.343  24.562  1.00  0.00     0.084 C 
ATOM     16  C   UNL A   1      32.857  22.836  22.488  1.00  0.00     0.008 C 
ATOM     17  C   UNL A   1      34.125  23.112  23.287  1.00  0.00    -0.012 C 
ATOM     18  C   UNL A   1      34.093  22.376  24.627  1.00  0.00     0.003 C 
ATOM     19  C   UNL A   1      34.405  24.620  23.456  1.00  0.00     0.028 C 
ATOM     20  C   UNL A   1      33.164  23.046  25.631  1.00  0.00     0.002 C 
ATOM     21  C   UNL A   1      33.551  24.506  25.853  1.00  0.00     0.025 C 
ENDBRANCH  12  15
ENDBRANCH   9  11
ENDBRANCH   8   9
ENDBRANCH   6   8
ENDBRANCH   5   6
ENDBRANCH   4   5
ENDBRANCH   3   4
ENDBRANCH   2   3
ENDBRANCH   1   2
BRANCH   1  22
ATOM     22  C   UNL A   1      33.743  34.490  29.247  1.00  0.00     0.188 C 
BRANCH  22  23
ATOM     23  O   UNL A   1      33.762  33.748  30.468  1.00  0.00    -0.376 OA
BRANCH  23  24
ATOM     24  C   UNL A   1      34.957  33.900  31.217  1.00  0.00     0.202 C 
BRANCH  24  25
ATOM     25  C   UNL A   1      35.492  32.543  31.668  1.00  0.00     0.261 C 
BRANCH  25  26
ATOM     26  O   UNL A   1      36.223  31.839  30.649  1.00  0.00    -0.460 OA
BRANCH  26  27
ATOM     27  C   UNL A   1      36.599  30.574  30.949  1.00  0.00     0.338 C 
ATOM     28  O   UNL A   1      35.903  29.703  31.432  1.00  0.00    -0.246 OA
BRANCH  27  29
ATOM     29  C   UNL A   1      37.992  30.382  30.502  1.00  0.00     0.060 A 
ATOM     30  C   UNL A   1      38.280  30.419  29.135  1.00  0.00     0.016 A 
ATOM     31  C   UNL A   1      39.001  30.118  31.431  1.00  0.00     0.016 A 
ATOM     32  C   UNL A   1      39.582  30.172  28.688  1.00  0.00     0.010 A 
ATOM     33  C   UNL A   1      40.298  29.855  30.982  1.00  0.00     0.010 A 
ATOM     34  C   UNL A   1      40.591  29.855  29.606  1.00  0.00    -0.014 A 
BRANCH  34  35
ATOM     35  C   UNL A   1      41.915  29.376  29.137  1.00  0.00     0.031 A 
ATOM     36  C   UNL A   1      43.054  30.358  29.061  1.00  0.00     0.074 A 
ATOM     37  C   UNL A   1      42.108  28.095  28.774  1.00  0.00     0.049 A 
ATOM     38  N   UNL A   1      44.264  30.195  28.593  1.00  0.00    -0.248 NA
ATOM     39  C   UNL A   1      42.787  31.709  29.582  1.00  0.00     0.031 C 
ATOM     40  C   UNL A   1      41.101  27.037  28.839  1.00  0.00     0.029 A 
ATOM     41  N   UNL A   1      43.220  27.470  28.267  1.00  0.00    -0.354 N 
ATOM     42  C   UNL A   1      44.899  31.420  28.751  1.00  0.00     0.074 A 
ATOM     43  C   UNL A   1      43.935  32.324  29.340  1.00  0.00     0.031 C 
ATOM     44  C   UNL A   1      41.640  25.894  28.377  1.00  0.00     0.029 A 
ATOM     45  C   UNL A   1      43.016  26.148  27.953  1.00  0.00     0.049 A 
ATOM     46  H   UNL A   1      44.084  27.927  28.140  1.00  0.00     0.167 HD
ATOM     47  C   UNL A   1      46.173  31.761  28.441  1.00  0.00     0.037 A 
ATOM     48  C   UNL A   1      43.837  25.253  27.368  1.00  0.00     0.037 A 
ATOM     49  C   UNL A   1      47.133  30.862  27.857  1.00  0.00     0.049 A 
ATOM     50  C   UNL A   1      45.232  25.671  26.973  1.00  0.00     0.074 A 
ATOM     51  C   UNL A   1      48.449  31.113  27.508  1.00  0.00     0.029 A 
ATOM     52  N   UNL A   1      46.881  29.537  27.534  1.00  0.00    -0.354 N 
ATOM     53  N   UNL A   1      45.819  26.834  27.126  1.00  0.00    -0.248 NA
ATOM     54  C   UNL A   1      46.072  24.655  26.323  1.00  0.00     0.031 C 
ATOM     55  C   UNL A   1      48.982  29.950  26.941  1.00  0.00     0.029 A 
ATOM     56  C   UNL A   1      48.011  28.962  26.975  1.00  0.00     0.049 A 
ATOM     57  H   UNL A   1      46.025  29.073  27.680  1.00  0.00     0.167 HD
ATOM     58  C   UNL A   1      47.104  26.682  26.611  1.00  0.00     0.074 A 
ATOM     59  C   UNL A   1      47.212  25.314  26.153  1.00  0.00     0.031 C 
ATOM     60  C   UNL A   1      48.104  27.595  26.526  1.00  0.00     0.037 A 
BRANCH  47  61
ATOM     61  C   UNL A   1      46.592  33.180  28.706  1.00  0.00     0.058 A 
ATOM     62  C   UNL A   1      46.436  34.187  27.741  1.00  0.00     0.135 A 
ATOM     63  C   UNL A   1      47.142  33.539  29.947  1.00  0.00     0.135 A 
ATOM     64  F   UNL A   1      45.933  33.893  26.531  1.00  0.00    -0.206 F 
ATOM     65  C   UNL A   1      46.835  35.497  27.988  1.00  0.00     0.059 A 
ATOM     66  C   UNL A   1      47.527  34.847  30.223  1.00  0.00     0.059 A 
ATOM     67  F   UNL A   1      47.316  32.612  30.904  1.00  0.00    -0.206 F 
ATOM     68  C   UNL A   1      47.384  35.816  29.232  1.00  0.00     0.060 A 
BRANCH  68  69
ATOM     69  S   UNL A   1      47.905  37.517  29.536  1.00  0.00     0.124 S 
ATOM     70  O   UNL A   1      49.044  37.640  28.631  1.00  0.00    -0.237 OA
ATOM     71  O   UNL A   1      46.718  38.281  29.164  1.00  0.00    -0.237 OA
ATOM     72  O   UNL A   1      48.230  37.524  30.959  1.00  0.00    -0.744 OA
ENDBRANCH  68  69
ENDBRANCH  47  61
BRANCH  48  73
ATOM     73  C   UNL A   1      43.363  23.868  27.104  1.00  0.00     0.058 A 
ATOM     74  C   UNL A   1      43.478  22.865  28.077  1.00  0.00     0.135 A 
ATOM     75  C   UNL A   1      42.793  23.518  25.869  1.00  0.00     0.135 A 
ATOM     76  F   UNL A   1      44.033  23.146  29.266  1.00  0.00    -0.206 F 
ATOM     77  C   UNL A   1      43.057  21.562  27.834  1.00  0.00     0.059 A 
ATOM     78  C   UNL A   1      42.342  22.228  25.611  1.00  0.00     0.059 A 
ATOM     79  F   UNL A   1      42.656  24.443  24.906  1.00  0.00    -0.206 F 
ATOM     80  C   UNL A   1      42.488  21.253  26.597  1.00  0.00     0.060 A 
BRANCH  80  81
ATOM     81  S   UNL A   1      41.901  19.569  26.307  1.00  0.00     0.124 S 
ATOM     82  O   UNL A   1      40.468  19.783  26.139  1.00  0.00    -0.237 OA
ATOM     83  O   UNL A   1      42.633  19.190  25.102  1.00  0.00    -0.237 OA
ATOM     84  O   UNL A   1      42.297  18.863  27.521  1.00  0.00    -0.744 OA
ENDBRANCH  80  81
ENDBRANCH  48  73
BRANCH  60  85
ATOM     85  C   UNL A   1      49.414  27.136  25.945  1.00  0.00     0.058 A 
ATOM     86  C   UNL A   1      49.710  27.295  24.583  1.00  0.00     0.135 A 
ATOM     87  C   UNL A   1      50.400  26.574  26.771  1.00  0.00     0.135 A 
ATOM     88  F   UNL A   1      48.800  27.823  23.750  1.00  0.00    -0.206 F 
ATOM     89  C   UNL A   1      50.932  26.888  24.053  1.00  0.00     0.059 A 
ATOM     90  C   UNL A   1      51.637  26.183  26.267  1.00  0.00     0.059 A 
ATOM     91  F   UNL A   1      50.172  26.411  28.084  1.00  0.00    -0.206 F 
ATOM     92  C   UNL A   1      51.889  26.332  24.905  1.00  0.00     0.060 A 
BRANCH  92  93
ATOM     93  S   UNL A   1      53.482  25.833  24.214  1.00  0.00     0.124 S 
ATOM     94  O   UNL A   1      53.786  24.645  25.006  1.00  0.00    -0.237 OA
ATOM     95  O   UNL A   1      53.157  25.594  22.812  1.00  0.00    -0.237 OA
ATOM     96  O   UNL A   1      54.337  26.990  24.464  1.00  0.00    -0.744 OA
ENDBRANCH  92  93
ENDBRANCH  60  85
ENDBRANCH  34  35
ENDBRANCH  27  29
ENDBRANCH  26  27
ENDBRANCH  25  26
ENDBRANCH  24  25
ENDBRANCH  23  24
ENDBRANCH  22  23
ENDBRANCH   1  22
TORSDOF 23
ENDMDL
