MODEL 1
REMARK VINA RESULT:      -9.9      0.000      0.000
REMARK SMILES O=C(C[C@@H]1CN(C(=O)[C@H]2C[C@H](O)C[NH2+]2)CCO1)OCCOCCOCCOC(=O)c1ccc(-c2c3nc(c(-c4c(F)cc(S(=O)(=O)[O-])cc4F)c4ccc([nH]4)c(-c4c(F)cc(S(=O)(=O)[O-])cc4F)c4nc(c(-c5c(F)cc(S(=O)(=O)[O-])cc5F)c5ccc2[nH]5)C=C4)C=C3)cc1
REMARK SMILES IDX 22 1 21 2 20 3 19 4 18 5 2 6 1 7 3 8 4 9 5 10 17 11 6 12
REMARK SMILES IDX 16 13 15 14 7 15 8 16 9 17 10 18 14 19 11 20 13 21 12 24
REMARK SMILES IDX 23 26 24 27 25 28 26 29 27 30 28 31 29 32 30 33 31 34 95 35
REMARK SMILES IDX 32 36 94 37 33 38 34 39 35 40 88 41 36 42 93 43 87 44 89 45
REMARK SMILES IDX 37 46 92 47 86 48 85 49 38 51 72 52 51 53 71 54 52 55 55 56
REMARK SMILES IDX 70 57 90 58 53 59 54 60 69 62 91 63 56 64 39 65 40 66 49 67
REMARK SMILES IDX 41 68 42 69 48 70 50 71 43 72 44 73 45 74 46 75 47 76 73 77
REMARK SMILES IDX 74 78 83 79 75 80 76 81 82 82 84 83 77 84 78 85 79 86 80 87
REMARK SMILES IDX 81 88 57 89 58 90 67 91 59 92 60 93 66 94 68 95 61 96 62 97
REMARK SMILES IDX 63 98 64 99 65 100
REMARK H PARENT 14 22 14 23 12 25 89 50 55 61
REMARK Flexibility Score: inf
ROOT
ATOM      1  C   UNL A   1      40.019  21.529  26.091  1.00  0.00     0.188 C 
ENDROOT
BRANCH   1   2
ATOM      2  O   UNL A   1      38.668  21.876  26.297  1.00  0.00    -0.376 OA
BRANCH   2   3
ATOM      3  C   UNL A   1      37.779  21.621  25.239  1.00  0.00     0.202 C 
BRANCH   3   4
ATOM      4  C   UNL A   1      36.326  21.498  25.667  1.00  0.00     0.261 C 
BRANCH   4   5
ATOM      5  O   UNL A   1      35.475  20.523  25.001  1.00  0.00    -0.463 OA
BRANCH   5   6
ATOM      6  C   UNL A   1      34.145  20.350  24.876  1.00  0.00     0.308 C 
ATOM      7  O   UNL A   1      33.613  19.422  25.482  1.00  0.00    -0.252 OA
BRANCH   6   8
ATOM      8  C   UNL A   1      33.315  21.261  24.010  1.00  0.00     0.156 C 
BRANCH   8   9
ATOM      9  C   UNL A   1      32.475  22.218  24.815  1.00  0.00     0.148 C 
ATOM     10  C   UNL A   1      32.635  23.640  24.289  1.00  0.00     0.152 C 
ATOM     11  O   UNL A   1      32.845  22.146  26.196  1.00  0.00    -0.374 OA
ATOM     12  N   UNL A   1      31.779  24.539  25.030  1.00  0.00    -0.333 N 
ATOM     13  C   UNL A   1      31.965  22.975  26.977  1.00  0.00     0.182 C 
ATOM     14  C   UNL A   1      31.978  24.437  26.489  1.00  0.00     0.148 C 
BRANCH  12  15
ATOM     15  C   UNL A   1      30.951  25.509  24.488  1.00  0.00     0.281 C 
ATOM     16  O   UNL A   1      29.838  25.720  24.983  1.00  0.00    -0.268 OA
BRANCH  15  17
ATOM     17  C   UNL A   1      31.360  26.300  23.199  1.00  0.00     0.275 C 
ATOM     18  C   UNL A   1      32.647  27.121  23.219  1.00  0.00     0.113 C 
ATOM     19  N   UNL A   1      31.408  25.402  22.015  1.00  0.00    -0.334 N 
ATOM     20  C   UNL A   1      33.447  26.679  21.997  1.00  0.00     0.175 C 
ATOM     21  C   UNL A   1      32.428  25.955  21.121  1.00  0.00     0.293 C 
ATOM     22  H   UNL A   1      30.501  25.384  21.549  1.00  0.00     0.347 HD
ATOM     23  H   UNL A   1      31.631  24.445  22.285  1.00  0.00     0.347 HD
BRANCH  20  24
ATOM     24  O   UNL A   1      34.012  27.818  21.365  1.00  0.00    -0.387 OA
ATOM     25  H   UNL A   1      34.872  28.018  21.767  1.00  0.00     0.211 HD
ENDBRANCH  20  24
ENDBRANCH  15  17
ENDBRANCH  12  15
ENDBRANCH   8   9
ENDBRANCH   6   8
ENDBRANCH   5   6
ENDBRANCH   4   5
ENDBRANCH   3   4
ENDBRANCH   2   3
ENDBRANCH   1   2
BRANCH   1  26
ATOM     26  C   UNL A   1      40.729  20.946  27.321  1.00  0.00     0.188 C 
BRANCH  26  27
ATOM     27  O   UNL A   1      42.135  20.748  27.299  1.00  0.00    -0.376 OA
BRANCH  27  28
ATOM     28  C   UNL A   1      42.869  21.070  26.128  1.00  0.00     0.202 C 
BRANCH  28  29
ATOM     29  C   UNL A   1      43.878  22.235  26.168  1.00  0.00     0.261 C 
BRANCH  29  30
ATOM     30  O   UNL A   1      43.491  23.420  26.901  1.00  0.00    -0.460 OA
BRANCH  30  31
ATOM     31  C   UNL A   1      42.962  24.440  26.168  1.00  0.00     0.338 C 
ATOM     32  O   UNL A   1      42.861  24.474  24.957  1.00  0.00    -0.246 OA
BRANCH  31  33
ATOM     33  C   UNL A   1      42.317  25.461  27.050  1.00  0.00     0.060 A 
ATOM     34  C   UNL A   1      42.839  26.765  27.046  1.00  0.00     0.016 A 
ATOM     35  C   UNL A   1      41.243  25.157  27.889  1.00  0.00     0.016 A 
ATOM     36  C   UNL A   1      42.339  27.741  27.916  1.00  0.00     0.010 A 
ATOM     37  C   UNL A   1      40.760  26.131  28.783  1.00  0.00     0.010 A 
ATOM     38  C   UNL A   1      41.335  27.417  28.837  1.00  0.00    -0.014 A 
BRANCH  38  39
ATOM     39  C   UNL A   1      41.066  28.330  29.989  1.00  0.00     0.031 A 
ATOM     40  C   UNL A   1      41.919  28.184  31.228  1.00  0.00     0.074 A 
ATOM     41  C   UNL A   1      40.133  29.301  29.944  1.00  0.00     0.049 A 
ATOM     42  N   UNL A   1      41.860  28.830  32.366  1.00  0.00    -0.248 NA
ATOM     43  C   UNL A   1      42.983  27.168  31.172  1.00  0.00     0.031 C 
ATOM     44  C   UNL A   1      39.268  29.596  28.805  1.00  0.00     0.029 A 
ATOM     45  N   UNL A   1      39.752  30.220  30.898  1.00  0.00    -0.354 N 
ATOM     46  C   UNL A   1      42.876  28.302  33.156  1.00  0.00     0.074 A 
ATOM     47  C   UNL A   1      43.507  27.253  32.385  1.00  0.00     0.031 C 
ATOM     48  C   UNL A   1      38.445  30.610  29.131  1.00  0.00     0.029 A 
ATOM     49  C   UNL A   1      38.703  31.022  30.512  1.00  0.00     0.049 A 
ATOM     50  H   UNL A   1      40.190  30.294  31.776  1.00  0.00     0.167 HD
ATOM     51  C   UNL A   1      43.266  28.665  34.403  1.00  0.00     0.037 A 
ATOM     52  C   UNL A   1      38.018  31.964  31.195  1.00  0.00     0.037 A 
ATOM     53  C   UNL A   1      42.641  29.702  35.181  1.00  0.00     0.049 A 
ATOM     54  C   UNL A   1      38.412  32.294  32.617  1.00  0.00     0.074 A 
ATOM     55  C   UNL A   1      42.962  30.134  36.457  1.00  0.00     0.029 A 
ATOM     56  N   UNL A   1      41.565  30.470  34.760  1.00  0.00    -0.354 N 
ATOM     57  N   UNL A   1      39.384  31.794  33.344  1.00  0.00    -0.248 NA
ATOM     58  C   UNL A   1      37.622  33.324  33.309  1.00  0.00     0.031 C 
ATOM     59  C   UNL A   1      42.048  31.125  36.828  1.00  0.00     0.029 A 
ATOM     60  C   UNL A   1      41.198  31.358  35.760  1.00  0.00     0.049 A 
ATOM     61  H   UNL A   1      41.126  30.395  33.882  1.00  0.00     0.167 HD
ATOM     62  C   UNL A   1      39.340  32.472  34.560  1.00  0.00     0.074 A 
ATOM     63  C   UNL A   1      38.258  33.428  34.467  1.00  0.00     0.031 C 
ATOM     64  C   UNL A   1      40.127  32.318  35.656  1.00  0.00     0.037 A 
BRANCH  51  65
ATOM     65  C   UNL A   1      44.425  27.920  35.013  1.00  0.00     0.058 A 
ATOM     66  C   UNL A   1      45.746  28.382  34.890  1.00  0.00     0.135 A 
ATOM     67  C   UNL A   1      44.209  26.752  35.763  1.00  0.00     0.135 A 
ATOM     68  F   UNL A   1      46.013  29.482  34.169  1.00  0.00    -0.206 F 
ATOM     69  C   UNL A   1      46.812  27.699  35.467  1.00  0.00     0.059 A 
ATOM     70  C   UNL A   1      45.257  26.071  36.375  1.00  0.00     0.059 A 
ATOM     71  F   UNL A   1      42.967  26.264  35.912  1.00  0.00    -0.206 F 
ATOM     72  C   UNL A   1      46.557  26.545  36.209  1.00  0.00     0.060 A 
BRANCH  72  73
ATOM     73  S   UNL A   1      47.953  25.679  36.958  1.00  0.00     0.124 S 
ATOM     74  O   UNL A   1      48.950  25.758  35.895  1.00  0.00    -0.237 OA
ATOM     75  O   UNL A   1      48.223  26.490  38.141  1.00  0.00    -0.237 OA
ATOM     76  O   UNL A   1      47.424  24.345  37.223  1.00  0.00    -0.744 OA
ENDBRANCH  72  73
ENDBRANCH  51  65
BRANCH  52  77
ATOM     77  C   UNL A   1      36.858  32.660  30.564  1.00  0.00     0.058 A 
ATOM     78  C   UNL A   1      37.041  33.709  29.649  1.00  0.00     0.135 A 
ATOM     79  C   UNL A   1      35.538  32.318  30.901  1.00  0.00     0.135 A 
ATOM     80  F   UNL A   1      38.280  34.092  29.307  1.00  0.00    -0.206 F 
ATOM     81  C   UNL A   1      35.963  34.409  29.112  1.00  0.00     0.059 A 
ATOM     82  C   UNL A   1      34.444  32.979  30.352  1.00  0.00     0.059 A 
ATOM     83  F   UNL A   1      35.303  31.319  31.767  1.00  0.00    -0.206 F 
ATOM     84  C   UNL A   1      34.667  34.034  29.469  1.00  0.00     0.060 A 
BRANCH  84  85
ATOM     85  S   UNL A   1      33.273  34.922  28.740  1.00  0.00     0.124 S 
ATOM     86  O   UNL A   1      32.691  33.901  27.877  1.00  0.00    -0.237 OA
ATOM     87  O   UNL A   1      32.492  35.285  29.919  1.00  0.00    -0.237 OA
ATOM     88  O   UNL A   1      33.911  36.042  28.053  1.00  0.00    -0.744 OA
ENDBRANCH  84  85
ENDBRANCH  52  77
BRANCH  64  89
ATOM     89  C   UNL A   1      39.887  33.236  36.829  1.00  0.00     0.058 A 
ATOM     90  C   UNL A   1      38.923  32.954  37.811  1.00  0.00     0.135 A 
ATOM     91  C   UNL A   1      40.664  34.395  36.994  1.00  0.00     0.135 A 
ATOM     92  F   UNL A   1      38.150  31.862  37.706  1.00  0.00    -0.206 F 
ATOM     93  C   UNL A   1      38.713  33.806  38.892  1.00  0.00     0.059 A 
ATOM     94  C   UNL A   1      40.495  35.243  38.085  1.00  0.00     0.059 A 
ATOM     95  F   UNL A   1      41.612  34.708  36.096  1.00  0.00    -0.206 F 
ATOM     96  C   UNL A   1      39.505  34.950  39.020  1.00  0.00     0.060 A 
BRANCH  96  97
ATOM     97  S   UNL A   1      39.234  36.037  40.437  1.00  0.00     0.124 S 
ATOM     98  O   UNL A   1      40.548  36.029  41.070  1.00  0.00    -0.237 OA
ATOM     99  O   UNL A   1      38.846  37.291  39.797  1.00  0.00    -0.237 OA
ATOM    100  O   UNL A   1      38.173  35.367  41.183  1.00  0.00    -0.744 OA
ENDBRANCH  96  97
ENDBRANCH  64  89
ENDBRANCH  38  39
ENDBRANCH  31  33
ENDBRANCH  30  31
ENDBRANCH  29  30
ENDBRANCH  28  29
ENDBRANCH  27  28
ENDBRANCH  26  27
ENDBRANCH   1  26
TORSDOF 24
ENDMDL
MODEL 2
REMARK VINA RESULT:      -9.8      1.391      2.068
REMARK SMILES O=C(C[C@@H]1CN(C(=O)[C@H]2C[C@H](O)C[NH2+]2)CCO1)OCCOCCOCCOC(=O)c1ccc(-c2c3nc(c(-c4c(F)cc(S(=O)(=O)[O-])cc4F)c4ccc([nH]4)c(-c4c(F)cc(S(=O)(=O)[O-])cc4F)c4nc(c(-c5c(F)cc(S(=O)(=O)[O-])cc5F)c5ccc2[nH]5)C=C4)C=C3)cc1
REMARK SMILES IDX 22 1 21 2 20 3 19 4 18 5 2 6 1 7 3 8 4 9 5 10 17 11 6 12
REMARK SMILES IDX 16 13 15 14 7 15 8 16 9 17 10 18 14 19 11 20 13 21 12 24
REMARK SMILES IDX 23 26 24 27 25 28 26 29 27 30 28 31 29 32 30 33 31 34 95 35
REMARK SMILES IDX 32 36 94 37 33 38 34 39 35 40 88 41 36 42 93 43 87 44 89 45
REMARK SMILES IDX 37 46 92 47 86 48 85 49 38 51 72 52 51 53 71 54 52 55 55 56
REMARK SMILES IDX 70 57 90 58 53 59 54 60 69 62 91 63 56 64 39 65 40 66 49 67
REMARK SMILES IDX 41 68 42 69 48 70 50 71 43 72 44 73 45 74 46 75 47 76 73 77
REMARK SMILES IDX 74 78 83 79 75 80 76 81 82 82 84 83 77 84 78 85 79 86 80 87
REMARK SMILES IDX 81 88 57 89 58 90 67 91 59 92 60 93 66 94 68 95 61 96 62 97
REMARK SMILES IDX 63 98 64 99 65 100
REMARK H PARENT 14 22 14 23 12 25 89 50 55 61
REMARK Flexibility Score: inf
ROOT
ATOM      1  C   UNL A   1      39.801  22.197  26.056  1.00  0.00     0.188 C 
ENDROOT
BRANCH   1   2
ATOM      2  O   UNL A   1      38.396  22.280  25.986  1.00  0.00    -0.376 OA
BRANCH   2   3
ATOM      3  C   UNL A   1      37.732  21.236  25.318  1.00  0.00     0.202 C 
BRANCH   3   4
ATOM      4  C   UNL A   1      36.216  21.309  25.408  1.00  0.00     0.261 C 
BRANCH   4   5
ATOM      5  O   UNL A   1      35.532  22.464  24.847  1.00  0.00    -0.463 OA
BRANCH   5   6
ATOM      6  C   UNL A   1      34.581  23.312  25.285  1.00  0.00     0.308 C 
ATOM      7  O   UNL A   1      33.560  22.845  25.785  1.00  0.00    -0.252 OA
BRANCH   6   8
ATOM      8  C   UNL A   1      34.749  24.805  25.165  1.00  0.00     0.156 C 
BRANCH   8   9
ATOM      9  C   UNL A   1      34.014  25.377  23.981  1.00  0.00     0.148 C 
ATOM     10  C   UNL A   1      32.822  26.206  24.443  1.00  0.00     0.152 C 
ATOM     11  O   UNL A   1      33.588  24.318  23.116  1.00  0.00    -0.374 OA
ATOM     12  N   UNL A   1      32.161  26.799  23.301  1.00  0.00    -0.333 N 
ATOM     13  C   UNL A   1      32.988  24.873  21.931  1.00  0.00     0.182 C 
ATOM     14  C   UNL A   1      31.807  25.802  22.272  1.00  0.00     0.148 C 
BRANCH  12  15
ATOM     15  C   UNL A   1      31.751  28.118  23.190  1.00  0.00     0.281 C 
ATOM     16  O   UNL A   1      32.364  29.009  23.788  1.00  0.00    -0.268 OA
BRANCH  15  17
ATOM     17  C   UNL A   1      30.466  28.505  22.382  1.00  0.00     0.275 C 
ATOM     18  C   UNL A   1      29.108  28.410  23.074  1.00  0.00     0.113 C 
ATOM     19  N   UNL A   1      30.590  29.869  21.804  1.00  0.00    -0.334 N 
ATOM     20  C   UNL A   1      28.436  29.765  22.870  1.00  0.00     0.175 C 
ATOM     21  C   UNL A   1      29.232  30.415  21.741  1.00  0.00     0.293 C 
ATOM     22  H   UNL A   1      30.996  29.820  20.869  1.00  0.00     0.347 HD
ATOM     23  H   UNL A   1      31.200  30.458  22.370  1.00  0.00     0.347 HD
BRANCH  20  24
ATOM     24  O   UNL A   1      27.068  29.570  22.542  1.00  0.00    -0.387 OA
ATOM     25  H   UNL A   1      26.550  29.482  23.357  1.00  0.00     0.211 HD
ENDBRANCH  20  24
ENDBRANCH  15  17
ENDBRANCH  12  15
ENDBRANCH   8   9
ENDBRANCH   6   8
ENDBRANCH   5   6
ENDBRANCH   4   5
ENDBRANCH   3   4
ENDBRANCH   2   3
ENDBRANCH   1   2
BRANCH   1  26
ATOM     26  C   UNL A   1      40.342  21.468  27.294  1.00  0.00     0.188 C 
BRANCH  26  27
ATOM     27  O   UNL A   1      41.483  20.630  27.181  1.00  0.00    -0.376 OA
BRANCH  27  28
ATOM     28  C   UNL A   1      42.356  20.783  26.073  1.00  0.00     0.202 C 
BRANCH  28  29
ATOM     29  C   UNL A   1      43.547  21.757  26.181  1.00  0.00     0.261 C 
BRANCH  29  30
ATOM     30  O   UNL A   1      43.358  22.946  26.981  1.00  0.00    -0.460 OA
BRANCH  30  31
ATOM     31  C   UNL A   1      43.291  24.127  26.305  1.00  0.00     0.338 C 
ATOM     32  O   UNL A   1      43.548  24.294  25.128  1.00  0.00    -0.246 OA
BRANCH  31  33
ATOM     33  C   UNL A   1      42.658  25.194  27.140  1.00  0.00     0.060 A 
ATOM     34  C   UNL A   1      43.276  26.455  27.184  1.00  0.00     0.016 A 
ATOM     35  C   UNL A   1      41.503  24.971  27.892  1.00  0.00     0.016 A 
ATOM     36  C   UNL A   1      42.785  27.466  28.020  1.00  0.00     0.010 A 
ATOM     37  C   UNL A   1      41.027  25.979  28.752  1.00  0.00     0.010 A 
ATOM     38  C   UNL A   1      41.692  27.218  28.858  1.00  0.00    -0.014 A 
BRANCH  38  39
ATOM     39  C   UNL A   1      41.404  28.148  29.991  1.00  0.00     0.031 A 
ATOM     40  C   UNL A   1      42.228  28.013  31.252  1.00  0.00     0.074 A 
ATOM     41  C   UNL A   1      40.479  29.125  29.913  1.00  0.00     0.049 A 
ATOM     42  N   UNL A   1      42.148  28.674  32.379  1.00  0.00    -0.248 NA
ATOM     43  C   UNL A   1      43.285  26.988  31.233  1.00  0.00     0.031 C 
ATOM     44  C   UNL A   1      39.642  29.411  28.751  1.00  0.00     0.029 A 
ATOM     45  N   UNL A   1      40.084  30.060  30.845  1.00  0.00    -0.354 N 
ATOM     46  C   UNL A   1      43.142  28.150  33.198  1.00  0.00     0.074 A 
ATOM     47  C   UNL A   1      43.782  27.086  32.456  1.00  0.00     0.031 C 
ATOM     48  C   UNL A   1      38.819  30.435  29.044  1.00  0.00     0.029 A 
ATOM     49  C   UNL A   1      39.050  30.865  30.425  1.00  0.00     0.049 A 
ATOM     50  H   UNL A   1      40.503  30.143  31.732  1.00  0.00     0.167 HD
ATOM     51  C   UNL A   1      43.507  28.527  34.449  1.00  0.00     0.037 A 
ATOM     52  C   UNL A   1      38.356  31.820  31.080  1.00  0.00     0.037 A 
ATOM     53  C   UNL A   1      42.872  29.580  35.199  1.00  0.00     0.049 A 
ATOM     54  C   UNL A   1      38.722  32.167  32.506  1.00  0.00     0.074 A 
ATOM     55  C   UNL A   1      43.167  30.026  36.476  1.00  0.00     0.029 A 
ATOM     56  N   UNL A   1      41.811  30.349  34.744  1.00  0.00    -0.354 N 
ATOM     57  N   UNL A   1      39.673  31.669  33.261  1.00  0.00    -0.248 NA
ATOM     58  C   UNL A   1      37.924  33.212  33.166  1.00  0.00     0.031 C 
ATOM     59  C   UNL A   1      42.253  31.029  36.813  1.00  0.00     0.029 A 
ATOM     60  C   UNL A   1      41.429  31.253  35.724  1.00  0.00     0.049 A 
ATOM     61  H   UNL A   1      41.392  30.266  33.857  1.00  0.00     0.167 HD
ATOM     62  C   UNL A   1      39.607  32.365  34.467  1.00  0.00     0.074 A 
ATOM     63  C   UNL A   1      38.535  33.327  34.337  1.00  0.00     0.031 C 
ATOM     64  C   UNL A   1      40.368  32.220  35.582  1.00  0.00     0.037 A 
BRANCH  51  65
ATOM     65  C   UNL A   1      44.646  27.782  35.095  1.00  0.00     0.058 A 
ATOM     66  C   UNL A   1      44.432  26.611  35.842  1.00  0.00     0.135 A 
ATOM     67  C   UNL A   1      45.970  28.222  34.935  1.00  0.00     0.135 A 
ATOM     68  F   UNL A   1      43.186  26.156  36.044  1.00  0.00    -0.206 F 
ATOM     69  C   UNL A   1      45.488  25.919  36.427  1.00  0.00     0.059 A 
ATOM     70  C   UNL A   1      47.044  27.527  35.485  1.00  0.00     0.059 A 
ATOM     71  F   UNL A   1      46.233  29.336  34.233  1.00  0.00    -0.206 F 
ATOM     72  C   UNL A   1      46.790  26.384  36.241  1.00  0.00     0.060 A 
BRANCH  72  73
ATOM     73  S   UNL A   1      48.147  25.465  36.999  1.00  0.00     0.124 S 
ATOM     74  O   UNL A   1      49.294  25.964  36.246  1.00  0.00    -0.237 OA
ATOM     75  O   UNL A   1      48.070  25.890  38.392  1.00  0.00    -0.237 OA
ATOM     76  O   UNL A   1      47.795  24.070  36.751  1.00  0.00    -0.744 OA
ENDBRANCH  72  73
ENDBRANCH  51  65
BRANCH  52  77
ATOM     77  C   UNL A   1      37.216  32.516  30.414  1.00  0.00     0.058 A 
ATOM     78  C   UNL A   1      37.416  33.653  29.615  1.00  0.00     0.135 A 
ATOM     79  C   UNL A   1      35.894  32.082  30.602  1.00  0.00     0.135 A 
ATOM     80  F   UNL A   1      38.657  34.125  29.419  1.00  0.00    -0.206 F 
ATOM     81  C   UNL A   1      36.350  34.348  29.049  1.00  0.00     0.059 A 
ATOM     82  C   UNL A   1      34.815  32.739  30.020  1.00  0.00     0.059 A 
ATOM     83  F   UNL A   1      35.643  30.997  31.352  1.00  0.00    -0.206 F 
ATOM     84  C   UNL A   1      35.051  33.881  29.257  1.00  0.00     0.060 A 
BRANCH  84  85
ATOM     85  S   UNL A   1      33.676  34.766  28.490  1.00  0.00     0.124 S 
ATOM     86  O   UNL A   1      32.577  33.825  28.680  1.00  0.00    -0.237 OA
ATOM     87  O   UNL A   1      33.617  35.988  29.286  1.00  0.00    -0.237 OA
ATOM     88  O   UNL A   1      34.121  34.947  27.111  1.00  0.00    -0.744 OA
ENDBRANCH  84  85
ENDBRANCH  52  77
BRANCH  64  89
ATOM     89  C   UNL A   1      40.108  33.155  36.737  1.00  0.00     0.058 A 
ATOM     90  C   UNL A   1      39.130  32.887  37.707  1.00  0.00     0.135 A 
ATOM     91  C   UNL A   1      40.882  34.318  36.897  1.00  0.00     0.135 A 
ATOM     92  F   UNL A   1      38.359  31.793  37.607  1.00  0.00    -0.206 F 
ATOM     93  C   UNL A   1      38.902  33.756  38.773  1.00  0.00     0.059 A 
ATOM     94  C   UNL A   1      40.695  35.182  37.972  1.00  0.00     0.059 A 
ATOM     95  F   UNL A   1      41.844  34.617  36.009  1.00  0.00    -0.206 F 
ATOM     96  C   UNL A   1      39.691  34.901  38.896  1.00  0.00     0.060 A 
BRANCH  96  97
ATOM     97  S   UNL A   1      39.396  36.010  40.291  1.00  0.00     0.124 S 
ATOM     98  O   UNL A   1      40.699  36.009  40.948  1.00  0.00    -0.237 OA
ATOM     99  O   UNL A   1      39.022  37.255  39.626  1.00  0.00    -0.237 OA
ATOM    100  O   UNL A   1      38.321  35.353  41.027  1.00  0.00    -0.744 OA
ENDBRANCH  96  97
ENDBRANCH  64  89
ENDBRANCH  38  39
ENDBRANCH  31  33
ENDBRANCH  30  31
ENDBRANCH  29  30
ENDBRANCH  28  29
ENDBRANCH  27  28
ENDBRANCH  26  27
ENDBRANCH   1  26
TORSDOF 24
ENDMDL
MODEL 3
REMARK VINA RESULT:      -9.8      1.557      3.384
REMARK SMILES O=C(C[C@@H]1CN(C(=O)[C@H]2C[C@H](O)C[NH2+]2)CCO1)OCCOCCOCCOC(=O)c1ccc(-c2c3nc(c(-c4c(F)cc(S(=O)(=O)[O-])cc4F)c4ccc([nH]4)c(-c4c(F)cc(S(=O)(=O)[O-])cc4F)c4nc(c(-c5c(F)cc(S(=O)(=O)[O-])cc5F)c5ccc2[nH]5)C=C4)C=C3)cc1
REMARK SMILES IDX 22 1 21 2 20 3 19 4 18 5 2 6 1 7 3 8 4 9 5 10 17 11 6 12
REMARK SMILES IDX 16 13 15 14 7 15 8 16 9 17 10 18 14 19 11 20 13 21 12 24
REMARK SMILES IDX 23 26 24 27 25 28 26 29 27 30 28 31 29 32 30 33 31 34 95 35
REMARK SMILES IDX 32 36 94 37 33 38 34 39 35 40 88 41 36 42 93 43 87 44 89 45
REMARK SMILES IDX 37 46 92 47 86 48 85 49 38 51 72 52 51 53 71 54 52 55 55 56
REMARK SMILES IDX 70 57 90 58 53 59 54 60 69 62 91 63 56 64 39 65 40 66 49 67
REMARK SMILES IDX 41 68 42 69 48 70 50 71 43 72 44 73 45 74 46 75 47 76 73 77
REMARK SMILES IDX 74 78 83 79 75 80 76 81 82 82 84 83 77 84 78 85 79 86 80 87
REMARK SMILES IDX 81 88 57 89 58 90 67 91 59 92 60 93 66 94 68 95 61 96 62 97
REMARK SMILES IDX 63 98 64 99 65 100
REMARK H PARENT 14 22 14 23 12 25 89 50 55 61
REMARK Flexibility Score: inf
ROOT
ATOM      1  C   UNL A   1      40.179  21.982  26.155  1.00  0.00     0.188 C 
ENDROOT
BRANCH   1   2
ATOM      2  O   UNL A   1      38.771  22.030  26.111  1.00  0.00    -0.376 OA
BRANCH   2   3
ATOM      3  C   UNL A   1      38.175  23.290  26.294  1.00  0.00     0.202 C 
BRANCH   3   4
ATOM      4  C   UNL A   1      36.959  23.532  25.413  1.00  0.00     0.261 C 
BRANCH   4   5
ATOM      5  O   UNL A   1      35.653  23.085  25.875  1.00  0.00    -0.463 OA
BRANCH   5   6
ATOM      6  C   UNL A   1      34.474  23.687  26.121  1.00  0.00     0.308 C 
ATOM      7  O   UNL A   1      34.394  24.905  25.981  1.00  0.00    -0.252 OA
BRANCH   6   8
ATOM      8  C   UNL A   1      33.271  22.897  26.566  1.00  0.00     0.156 C 
BRANCH   8   9
ATOM      9  C   UNL A   1      32.559  22.230  25.417  1.00  0.00     0.148 C 
ATOM     10  C   UNL A   1      33.428  21.131  24.818  1.00  0.00     0.152 C 
ATOM     11  O   UNL A   1      32.220  23.204  24.425  1.00  0.00    -0.374 OA
ATOM     12  N   UNL A   1      32.711  20.459  23.757  1.00  0.00    -0.333 N 
ATOM     13  C   UNL A   1      31.440  22.585  23.385  1.00  0.00     0.182 C 
ATOM     14  C   UNL A   1      32.185  21.397  22.746  1.00  0.00     0.148 C 
BRANCH  12  15
ATOM     15  C   UNL A   1      32.616  19.088  23.578  1.00  0.00     0.281 C 
ATOM     16  O   UNL A   1      32.047  18.632  22.580  1.00  0.00    -0.268 OA
BRANCH  15  17
ATOM     17  C   UNL A   1      33.147  18.088  24.659  1.00  0.00     0.275 C 
ATOM     18  C   UNL A   1      32.528  16.694  24.738  1.00  0.00     0.113 C 
ATOM     19  N   UNL A   1      34.622  17.927  24.560  1.00  0.00    -0.334 N 
ATOM     20  C   UNL A   1      33.694  15.711  24.691  1.00  0.00     0.175 C 
ATOM     21  C   UNL A   1      34.919  16.565  25.010  1.00  0.00     0.293 C 
ATOM     22  H   UNL A   1      35.092  18.608  25.159  1.00  0.00     0.347 HD
ATOM     23  H   UNL A   1      34.949  18.083  23.607  1.00  0.00     0.347 HD
BRANCH  20  24
ATOM     24  O   UNL A   1      33.478  14.676  25.640  1.00  0.00    -0.387 OA
ATOM     25  H   UNL A   1      32.544  14.417  25.628  1.00  0.00     0.211 HD
ENDBRANCH  20  24
ENDBRANCH  15  17
ENDBRANCH  12  15
ENDBRANCH   8   9
ENDBRANCH   6   8
ENDBRANCH   5   6
ENDBRANCH   4   5
ENDBRANCH   3   4
ENDBRANCH   2   3
ENDBRANCH   1   2
BRANCH   1  26
ATOM     26  C   UNL A   1      40.759  21.144  27.303  1.00  0.00     0.188 C 
BRANCH  26  27
ATOM     27  O   UNL A   1      42.085  20.643  27.216  1.00  0.00    -0.376 OA
BRANCH  27  28
ATOM     28  C   UNL A   1      42.902  21.014  26.116  1.00  0.00     0.202 C 
BRANCH  28  29
ATOM     29  C   UNL A   1      43.869  22.206  26.264  1.00  0.00     0.261 C 
BRANCH  29  30
ATOM     30  O   UNL A   1      43.400  23.349  27.015  1.00  0.00    -0.460 OA
BRANCH  30  31
ATOM     31  C   UNL A   1      42.911  24.393  26.288  1.00  0.00     0.338 C 
ATOM     32  O   UNL A   1      42.820  24.440  25.076  1.00  0.00    -0.246 OA
BRANCH  31  33
ATOM     33  C   UNL A   1      42.298  25.429  27.174  1.00  0.00     0.060 A 
ATOM     34  C   UNL A   1      42.833  26.728  27.142  1.00  0.00     0.016 A 
ATOM     35  C   UNL A   1      41.242  25.145  28.042  1.00  0.00     0.016 A 
ATOM     36  C   UNL A   1      42.364  27.719  28.013  1.00  0.00     0.010 A 
ATOM     37  C   UNL A   1      40.792  26.133  28.937  1.00  0.00     0.010 A 
ATOM     38  C   UNL A   1      41.380  27.414  28.962  1.00  0.00    -0.014 A 
BRANCH  38  39
ATOM     39  C   UNL A   1      41.148  28.342  30.110  1.00  0.00     0.031 A 
ATOM     40  C   UNL A   1      42.027  28.198  31.332  1.00  0.00     0.074 A 
ATOM     41  C   UNL A   1      40.226  29.325  30.076  1.00  0.00     0.049 A 
ATOM     42  N   UNL A   1      42.001  28.856  32.464  1.00  0.00    -0.248 NA
ATOM     43  C   UNL A   1      43.076  27.168  31.262  1.00  0.00     0.031 C 
ATOM     44  C   UNL A   1      39.339  29.619  28.954  1.00  0.00     0.029 A 
ATOM     45  N   UNL A   1      39.878  30.258  31.028  1.00  0.00    -0.354 N 
ATOM     46  C   UNL A   1      43.028  28.324  33.236  1.00  0.00     0.074 A 
ATOM     47  C   UNL A   1      43.629  27.259  32.463  1.00  0.00     0.031 C 
ATOM     48  C   UNL A   1      38.536  30.646  29.287  1.00  0.00     0.029 A 
ATOM     49  C   UNL A   1      38.831  31.070  30.657  1.00  0.00     0.049 A 
ATOM     50  H   UNL A   1      40.337  30.335  31.896  1.00  0.00     0.167 HD
ATOM     51  C   UNL A   1      43.451  28.694  34.470  1.00  0.00     0.037 A 
ATOM     52  C   UNL A   1      38.173  32.027  31.346  1.00  0.00     0.037 A 
ATOM     53  C   UNL A   1      42.856  29.748  35.251  1.00  0.00     0.049 A 
ATOM     54  C   UNL A   1      38.603  32.366  32.755  1.00  0.00     0.074 A 
ATOM     55  C   UNL A   1      43.210  30.188  36.515  1.00  0.00     0.029 A 
ATOM     56  N   UNL A   1      41.780  30.525  34.847  1.00  0.00    -0.354 N 
ATOM     57  N   UNL A   1      39.585  31.861  33.466  1.00  0.00    -0.248 NA
ATOM     58  C   UNL A   1      37.842  33.413  33.454  1.00  0.00     0.031 C 
ATOM     59  C   UNL A   1      42.318  31.195  36.896  1.00  0.00     0.029 A 
ATOM     60  C   UNL A   1      41.446  31.427  35.845  1.00  0.00     0.049 A 
ATOM     61  H   UNL A   1      41.321  30.446  33.979  1.00  0.00     0.167 HD
ATOM     62  C   UNL A   1      39.577  32.553  34.675  1.00  0.00     0.074 A 
ATOM     63  C   UNL A   1      38.505  33.521  34.596  1.00  0.00     0.031 C 
ATOM     64  C   UNL A   1      40.386  32.400  35.755  1.00  0.00     0.037 A 
BRANCH  51  65
ATOM     65  C   UNL A   1      44.613  27.942  35.062  1.00  0.00     0.058 A 
ATOM     66  C   UNL A   1      45.942  28.336  34.832  1.00  0.00     0.135 A 
ATOM     67  C   UNL A   1      44.396  26.836  35.902  1.00  0.00     0.135 A 
ATOM     68  F   UNL A   1      46.209  29.373  34.023  1.00  0.00    -0.206 F 
ATOM     69  C   UNL A   1      47.013  27.646  35.392  1.00  0.00     0.059 A 
ATOM     70  C   UNL A   1      45.452  26.151  36.497  1.00  0.00     0.059 A 
ATOM     71  F   UNL A   1      43.147  26.415  36.156  1.00  0.00    -0.206 F 
ATOM     72  C   UNL A   1      46.757  26.556  36.225  1.00  0.00     0.060 A 
BRANCH  72  73
ATOM     73  S   UNL A   1      48.160  25.681  36.950  1.00  0.00     0.124 S 
ATOM     74  O   UNL A   1      49.215  26.685  36.847  1.00  0.00    -0.237 OA
ATOM     75  O   UNL A   1      47.685  25.396  38.299  1.00  0.00    -0.237 OA
ATOM     76  O   UNL A   1      48.319  24.516  36.084  1.00  0.00    -0.744 OA
ENDBRANCH  72  73
ENDBRANCH  51  65
BRANCH  52  77
ATOM     77  C   UNL A   1      37.008  32.731  30.734  1.00  0.00     0.058 A 
ATOM     78  C   UNL A   1      35.687  32.338  31.005  1.00  0.00     0.135 A 
ATOM     79  C   UNL A   1      37.195  33.784  29.825  1.00  0.00     0.135 A 
ATOM     80  F   UNL A   1      35.450  31.323  31.851  1.00  0.00    -0.206 F 
ATOM     81  C   UNL A   1      34.599  32.944  30.382  1.00  0.00     0.059 A 
ATOM     82  C   UNL A   1      36.123  34.428  29.214  1.00  0.00     0.059 A 
ATOM     83  F   UNL A   1      38.436  34.205  29.530  1.00  0.00    -0.206 F 
ATOM     84  C   UNL A   1      34.828  33.991  29.488  1.00  0.00     0.060 A 
BRANCH  84  85
ATOM     85  S   UNL A   1      33.411  34.797  28.711  1.00  0.00     0.124 S 
ATOM     86  O   UNL A   1      32.983  33.782  27.754  1.00  0.00    -0.237 OA
ATOM     87  O   UNL A   1      32.524  35.018  29.849  1.00  0.00    -0.237 OA
ATOM     88  O   UNL A   1      33.989  36.007  28.133  1.00  0.00    -0.744 OA
ENDBRANCH  84  85
ENDBRANCH  52  77
BRANCH  64  89
ATOM     89  C   UNL A   1      40.183  33.333  36.923  1.00  0.00     0.058 A 
ATOM     90  C   UNL A   1      40.906  34.529  37.056  1.00  0.00     0.135 A 
ATOM     91  C   UNL A   1      39.219  33.043  37.904  1.00  0.00     0.135 A 
ATOM     92  F   UNL A   1      41.842  34.858  36.151  1.00  0.00    -0.206 F 
ATOM     93  C   UNL A   1      40.707  35.385  38.136  1.00  0.00     0.059 A 
ATOM     94  C   UNL A   1      38.980  33.901  38.974  1.00  0.00     0.059 A 
ATOM     95  F   UNL A   1      38.486  31.921  37.821  1.00  0.00    -0.206 F 
ATOM     96  C   UNL A   1      39.741  35.062  39.091  1.00  0.00     0.060 A 
BRANCH  96  97
ATOM     97  S   UNL A   1      39.481  36.189  40.478  1.00  0.00     0.124 S 
ATOM     98  O   UNL A   1      38.852  35.311  41.458  1.00  0.00    -0.237 OA
ATOM     99  O   UNL A   1      40.841  36.616  40.791  1.00  0.00    -0.237 OA
ATOM    100  O   UNL A   1      38.619  37.225  39.918  1.00  0.00    -0.744 OA
ENDBRANCH  96  97
ENDBRANCH  64  89
ENDBRANCH  38  39
ENDBRANCH  31  33
ENDBRANCH  30  31
ENDBRANCH  29  30
ENDBRANCH  28  29
ENDBRANCH  27  28
ENDBRANCH  26  27
ENDBRANCH   1  26
TORSDOF 24
ENDMDL
