MODEL 1
REMARK VINA RESULT:      -9.8      0.000      0.000
REMARK SMILES Cc1cccc2[nH]cc(C[C@H](NC(=O)OC(C)(C)C)C(=O)OCCOCCOCCOC(=O)c3ccc(-c4c5nc(c(-c6c(F)cc(S(=O)(=O)[O-])cc6F)c6ccc([nH]6)c(-c6c(F)cc(S(=O)(=O)[O-])cc6F)c6nc(c(-c7c(F)cc(S(=O)(=O)[O-])cc7F)c7ccc4[nH]7)C=C6)C=C5)cc3)c12
REMARK SMILES IDX 26 1 25 2 24 3 23 4 22 5 20 6 21 7 11 8 10 9 9 10 1 11 2 12
REMARK SMILES IDX 3 13 100 14 4 15 6 16 5 17 7 18 8 19 12 21 13 22 14 24 15 25
REMARK SMILES IDX 16 26 17 27 18 28 19 29 27 30 28 31 29 32 30 33 31 34 32 35
REMARK SMILES IDX 33 36 34 37 35 38 99 39 36 40 98 41 37 42 38 43 39 44 92 45
REMARK SMILES IDX 40 46 97 47 91 48 93 49 41 50 96 51 90 52 89 53 42 55 76 56
REMARK SMILES IDX 55 57 75 58 56 59 59 60 74 61 94 62 57 63 58 64 73 66 95 67
REMARK SMILES IDX 60 68 43 69 44 70 53 71 45 72 46 73 52 74 54 75 47 76 48 77
REMARK SMILES IDX 49 78 50 79 51 80 77 81 78 82 87 83 79 84 80 85 86 86 88 87
REMARK SMILES IDX 81 88 82 89 83 90 84 91 85 92 61 93 62 94 71 95 63 96 64 97
REMARK SMILES IDX 70 98 72 99 65 100 66 101 67 102 68 103 69 104
REMARK H PARENT 7 20 12 23 93 54 59 65
REMARK Flexibility Score: inf
ROOT
ATOM      1  C   UNL A   1      38.882  21.729  26.377  1.00  0.00     0.188 C 
ENDROOT
BRANCH   1   2
ATOM      2  O   UNL A   1      38.916  23.036  25.833  1.00  0.00    -0.376 OA
BRANCH   2   3
ATOM      3  C   UNL A   1      37.890  23.950  26.192  1.00  0.00     0.202 C 
BRANCH   3   4
ATOM      4  C   UNL A   1      36.450  23.776  25.659  1.00  0.00     0.261 C 
BRANCH   4   5
ATOM      5  O   UNL A   1      35.643  22.776  26.318  1.00  0.00    -0.462 OA
BRANCH   5   6
ATOM      6  C   UNL A   1      34.388  23.115  26.717  1.00  0.00     0.329 C 
ATOM      7  O   UNL A   1      33.823  22.623  27.690  1.00  0.00    -0.250 OA
BRANCH   6   8
ATOM      8  C   UNL A   1      33.674  24.094  25.742  1.00  0.00     0.200 C 
BRANCH   8   9
ATOM      9  C   UNL A   1      32.320  24.476  26.384  1.00  0.00     0.075 C 
BRANCH   9  10
ATOM     10  C   UNL A   1      31.436  25.261  25.442  1.00  0.00    -0.020 A 
ATOM     11  C   UNL A   1      33.614  27.712  26.207  1.00  0.00     0.045 C 
ATOM     12  C   UNL A   1      32.348  27.765  25.389  1.00  0.00    -0.041 A 
ATOM     13  C   UNL A   1      32.028  29.027  24.834  1.00  0.00     0.004 A 
ATOM     14  C   UNL A   1      31.488  26.666  25.096  1.00  0.00     0.006 A 
ATOM     15  C   UNL A   1      30.889  29.230  24.065  1.00  0.00     0.002 A 
ATOM     16  C   UNL A   1      30.349  26.918  24.318  1.00  0.00     0.046 A 
ATOM     17  C   UNL A   1      30.022  28.178  23.803  1.00  0.00     0.027 A 
ATOM     18  N   UNL A   1      29.653  25.739  24.192  1.00  0.00    -0.361 N 
ATOM     19  C   UNL A   1      30.318  24.731  24.821  1.00  0.00     0.087 A 
ATOM     20  H   UNL A   1      28.798  25.639  23.716  1.00  0.00     0.166 HD
ENDBRANCH   9  10
ENDBRANCH   8   9
BRANCH   8  21
ATOM     21  N   UNL A   1      33.420  23.639  24.364  1.00  0.00    -0.308 N 
ATOM     22  C   UNL A   1      33.024  22.413  23.897  1.00  0.00     0.408 C 
ATOM     23  H   UNL A   1      33.554  24.324  23.669  1.00  0.00     0.168 HD
ATOM     24  O   UNL A   1      32.996  22.202  22.696  1.00  0.00    -0.225 OA
BRANCH  22  25
ATOM     25  O   UNL A   1      32.646  21.532  24.862  1.00  0.00    -0.444 OA
BRANCH  25  26
ATOM     26  C   UNL A   1      33.204  20.177  24.875  1.00  0.00     0.106 C 
ATOM     27  C   UNL A   1      34.716  20.148  24.615  1.00  0.00     0.056 C 
ATOM     28  C   UNL A   1      32.858  19.438  26.174  1.00  0.00     0.056 C 
ATOM     29  C   UNL A   1      32.534  19.437  23.703  1.00  0.00     0.056 C 
ENDBRANCH  25  26
ENDBRANCH  22  25
ENDBRANCH   8  21
ENDBRANCH   6   8
ENDBRANCH   5   6
ENDBRANCH   4   5
ENDBRANCH   3   4
ENDBRANCH   2   3
ENDBRANCH   1   2
BRANCH   1  30
ATOM     30  C   UNL A   1      39.741  20.613  25.749  1.00  0.00     0.188 C 
BRANCH  30  31
ATOM     31  O   UNL A   1      40.665  19.942  26.578  1.00  0.00    -0.376 OA
BRANCH  31  32
ATOM     32  C   UNL A   1      41.392  20.563  27.626  1.00  0.00     0.202 C 
BRANCH  32  33
ATOM     33  C   UNL A   1      42.442  21.659  27.432  1.00  0.00     0.261 C 
BRANCH  33  34
ATOM     34  O   UNL A   1      43.693  21.202  26.980  1.00  0.00    -0.460 OA
BRANCH  34  35
ATOM     35  C   UNL A   1      43.800  21.323  25.645  1.00  0.00     0.338 C 
ATOM     36  O   UNL A   1      43.435  20.535  24.791  1.00  0.00    -0.246 OA
BRANCH  35  37
ATOM     37  C   UNL A   1      44.354  22.643  25.358  1.00  0.00     0.060 A 
ATOM     38  C   UNL A   1      45.397  23.025  26.205  1.00  0.00     0.016 A 
ATOM     39  C   UNL A   1      43.466  23.532  24.766  1.00  0.00     0.016 A 
ATOM     40  C   UNL A   1      45.301  24.251  26.792  1.00  0.00     0.010 A 
ATOM     41  C   UNL A   1      43.328  24.729  25.397  1.00  0.00     0.010 A 
ATOM     42  C   UNL A   1      44.175  25.005  26.475  1.00  0.00    -0.014 A 
BRANCH  42  43
ATOM     43  C   UNL A   1      43.889  26.149  27.296  1.00  0.00     0.031 A 
ATOM     44  C   UNL A   1      44.919  27.182  27.110  1.00  0.00     0.074 A 
ATOM     45  C   UNL A   1      42.744  26.223  27.998  1.00  0.00     0.049 A 
ATOM     46  N   UNL A   1      45.882  27.489  27.913  1.00  0.00    -0.248 NA
ATOM     47  C   UNL A   1      45.071  27.734  25.752  1.00  0.00     0.031 C 
ATOM     48  C   UNL A   1      41.603  25.298  27.951  1.00  0.00     0.029 A 
ATOM     49  N   UNL A   1      42.301  27.218  28.808  1.00  0.00    -0.354 N 
ATOM     50  C   UNL A   1      46.559  28.504  27.249  1.00  0.00     0.074 A 
ATOM     51  C   UNL A   1      46.239  28.366  25.857  1.00  0.00     0.031 C 
ATOM     52  C   UNL A   1      40.522  25.902  28.496  1.00  0.00     0.029 A 
ATOM     53  C   UNL A   1      40.928  27.185  29.041  1.00  0.00     0.049 A 
ATOM     54  H   UNL A   1      42.895  27.900  29.196  1.00  0.00     0.167 HD
ATOM     55  C   UNL A   1      46.951  29.618  27.921  1.00  0.00     0.037 A 
ATOM     56  C   UNL A   1      40.206  28.218  29.545  1.00  0.00     0.037 A 
ATOM     57  C   UNL A   1      46.904  29.403  29.344  1.00  0.00     0.049 A 
ATOM     58  C   UNL A   1      41.170  29.094  30.267  1.00  0.00     0.074 A 
ATOM     59  C   UNL A   1      47.654  28.713  30.271  1.00  0.00     0.029 A 
ATOM     60  N   UNL A   1      45.669  29.629  29.898  1.00  0.00    -0.354 N 
ATOM     61  N   UNL A   1      41.837  28.711  31.325  1.00  0.00    -0.248 NA
ATOM     62  C   UNL A   1      41.697  30.282  29.602  1.00  0.00     0.031 C 
ATOM     63  C   UNL A   1      46.773  28.407  31.351  1.00  0.00     0.029 A 
ATOM     64  C   UNL A   1      45.516  28.948  31.078  1.00  0.00     0.049 A 
ATOM     65  H   UNL A   1      44.980  30.207  29.499  1.00  0.00     0.167 HD
ATOM     66  C   UNL A   1      43.065  29.336  31.210  1.00  0.00     0.074 A 
ATOM     67  C   UNL A   1      42.864  30.406  30.243  1.00  0.00     0.031 C 
ATOM     68  C   UNL A   1      44.204  28.727  31.652  1.00  0.00     0.037 A 
BRANCH  55  69
ATOM     69  C   UNL A   1      46.887  31.008  27.327  1.00  0.00     0.058 A 
ATOM     70  C   UNL A   1      48.046  31.803  27.315  1.00  0.00     0.135 A 
ATOM     71  C   UNL A   1      45.684  31.684  26.999  1.00  0.00     0.135 A 
ATOM     72  F   UNL A   1      49.234  31.277  27.652  1.00  0.00    -0.206 F 
ATOM     73  C   UNL A   1      48.010  33.166  27.013  1.00  0.00     0.059 A 
ATOM     74  C   UNL A   1      45.637  33.020  26.631  1.00  0.00     0.059 A 
ATOM     75  F   UNL A   1      44.480  31.116  27.115  1.00  0.00    -0.206 F 
ATOM     76  C   UNL A   1      46.799  33.764  26.669  1.00  0.00     0.060 A 
BRANCH  76  77
ATOM     77  S   UNL A   1      46.736  35.528  26.323  1.00  0.00     0.124 S 
ATOM     78  O   UNL A   1      45.333  35.708  25.970  1.00  0.00    -0.237 OA
ATOM     79  O   UNL A   1      47.155  36.098  27.599  1.00  0.00    -0.237 OA
ATOM     80  O   UNL A   1      47.689  35.691  25.229  1.00  0.00    -0.744 OA
ENDBRANCH  76  77
ENDBRANCH  55  69
BRANCH  56  81
ATOM     81  C   UNL A   1      38.876  28.707  29.087  1.00  0.00     0.058 A 
ATOM     82  C   UNL A   1      37.813  28.833  30.001  1.00  0.00     0.135 A 
ATOM     83  C   UNL A   1      38.707  29.356  27.847  1.00  0.00     0.135 A 
ATOM     84  F   UNL A   1      37.887  28.246  31.206  1.00  0.00    -0.206 F 
ATOM     85  C   UNL A   1      36.696  29.633  29.741  1.00  0.00     0.059 A 
ATOM     86  C   UNL A   1      37.596  30.148  27.562  1.00  0.00     0.059 A 
ATOM     87  F   UNL A   1      39.662  29.323  26.906  1.00  0.00    -0.206 F 
ATOM     88  C   UNL A   1      36.614  30.316  28.529  1.00  0.00     0.060 A 
BRANCH  88  89
ATOM     89  S   UNL A   1      35.293  31.525  28.280  1.00  0.00     0.124 S 
ATOM     90  O   UNL A   1      34.310  30.750  27.531  1.00  0.00    -0.237 OA
ATOM     91  O   UNL A   1      34.928  31.865  29.651  1.00  0.00    -0.237 OA
ATOM     92  O   UNL A   1      35.948  32.593  27.529  1.00  0.00    -0.744 OA
ENDBRANCH  88  89
ENDBRANCH  56  81
BRANCH  68  93
ATOM     93  C   UNL A   1      44.057  27.670  32.712  1.00  0.00     0.058 A 
ATOM     94  C   UNL A   1      44.013  26.287  32.475  1.00  0.00     0.135 A 
ATOM     95  C   UNL A   1      44.016  28.094  34.048  1.00  0.00     0.135 A 
ATOM     96  F   UNL A   1      44.136  25.798  31.232  1.00  0.00    -0.206 F 
ATOM     97  C   UNL A   1      43.882  25.367  33.519  1.00  0.00     0.059 A 
ATOM     98  C   UNL A   1      43.918  27.197  35.106  1.00  0.00     0.059 A 
ATOM     99  F   UNL A   1      44.104  29.402  34.342  1.00  0.00    -0.206 F 
ATOM    100  C   UNL A   1      43.831  25.835  34.833  1.00  0.00     0.060 A 
BRANCH 100 101
ATOM    101  S   UNL A   1      43.684  24.652  36.189  1.00  0.00     0.124 S 
ATOM    102  O   UNL A   1      44.718  23.677  35.861  1.00  0.00    -0.237 OA
ATOM    103  O   UNL A   1      43.942  25.483  37.362  1.00  0.00    -0.237 OA
ATOM    104  O   UNL A   1      42.311  24.166  36.070  1.00  0.00    -0.744 OA
ENDBRANCH 100 101
ENDBRANCH  68  93
ENDBRANCH  42  43
ENDBRANCH  35  37
ENDBRANCH  34  35
ENDBRANCH  33  34
ENDBRANCH  32  33
ENDBRANCH  31  32
ENDBRANCH  30  31
ENDBRANCH   1  30
TORSDOF 25
ENDMDL
MODEL 2
REMARK VINA RESULT:      -9.4      8.111     15.520
REMARK SMILES Cc1cccc2[nH]cc(C[C@H](NC(=O)OC(C)(C)C)C(=O)OCCOCCOCCOC(=O)c3ccc(-c4c5nc(c(-c6c(F)cc(S(=O)(=O)[O-])cc6F)c6ccc([nH]6)c(-c6c(F)cc(S(=O)(=O)[O-])cc6F)c6nc(c(-c7c(F)cc(S(=O)(=O)[O-])cc7F)c7ccc4[nH]7)C=C6)C=C5)cc3)c12
REMARK SMILES IDX 26 1 25 2 24 3 23 4 22 5 20 6 21 7 11 8 10 9 9 10 1 11 2 12
REMARK SMILES IDX 3 13 100 14 4 15 6 16 5 17 7 18 8 19 12 21 13 22 14 24 15 25
REMARK SMILES IDX 16 26 17 27 18 28 19 29 27 30 28 31 29 32 30 33 31 34 32 35
REMARK SMILES IDX 33 36 34 37 35 38 99 39 36 40 98 41 37 42 38 43 39 44 92 45
REMARK SMILES IDX 40 46 97 47 91 48 93 49 41 50 96 51 90 52 89 53 42 55 76 56
REMARK SMILES IDX 55 57 75 58 56 59 59 60 74 61 94 62 57 63 58 64 73 66 95 67
REMARK SMILES IDX 60 68 43 69 44 70 53 71 45 72 46 73 52 74 54 75 47 76 48 77
REMARK SMILES IDX 49 78 50 79 51 80 77 81 78 82 87 83 79 84 80 85 86 86 88 87
REMARK SMILES IDX 81 88 82 89 83 90 84 91 85 92 61 93 62 94 71 95 63 96 64 97
REMARK SMILES IDX 70 98 72 99 65 100 66 101 67 102 68 103 69 104
REMARK H PARENT 7 20 12 23 93 54 59 65
REMARK Flexibility Score: inf
ROOT
ATOM      1  C   UNL A   1      43.328  41.696  25.627  1.00  0.00     0.188 C 
ENDROOT
BRANCH   1   2
ATOM      2  O   UNL A   1      43.151  41.940  24.243  1.00  0.00    -0.376 OA
BRANCH   2   3
ATOM      3  C   UNL A   1      41.841  42.199  23.759  1.00  0.00     0.202 C 
BRANCH   3   4
ATOM      4  C   UNL A   1      41.537  42.178  22.245  1.00  0.00     0.261 C 
BRANCH   4   5
ATOM      5  O   UNL A   1      41.560  43.455  21.572  1.00  0.00    -0.462 OA
BRANCH   5   6
ATOM      6  C   UNL A   1      41.996  43.503  20.284  1.00  0.00     0.329 C 
ATOM      7  O   UNL A   1      41.273  43.317  19.310  1.00  0.00    -0.250 OA
BRANCH   6   8
ATOM      8  C   UNL A   1      43.536  43.682  20.160  1.00  0.00     0.200 C 
BRANCH   8   9
ATOM      9  C   UNL A   1      43.827  44.187  18.729  1.00  0.00     0.075 C 
BRANCH   9  10
ATOM     10  C   UNL A   1      43.956  45.691  18.662  1.00  0.00    -0.020 A 
ATOM     11  C   UNL A   1      41.515  45.318  16.371  1.00  0.00     0.045 C 
ATOM     12  C   UNL A   1      42.275  46.555  16.781  1.00  0.00    -0.041 A 
ATOM     13  C   UNL A   1      41.898  47.752  16.127  1.00  0.00     0.004 A 
ATOM     14  C   UNL A   1      43.288  46.628  17.782  1.00  0.00     0.006 A 
ATOM     15  C   UNL A   1      42.514  48.968  16.395  1.00  0.00     0.002 A 
ATOM     16  C   UNL A   1      43.884  47.875  18.017  1.00  0.00     0.046 A 
ATOM     17  C   UNL A   1      43.529  49.047  17.339  1.00  0.00     0.027 A 
ATOM     18  N   UNL A   1      44.846  47.709  18.984  1.00  0.00    -0.361 N 
ATOM     19  C   UNL A   1      44.867  46.416  19.411  1.00  0.00     0.087 A 
ATOM     20  H   UNL A   1      45.436  48.422  19.319  1.00  0.00     0.166 HD
ENDBRANCH   9  10
ENDBRANCH   8   9
BRANCH   8  21
ATOM     21  N   UNL A   1      44.395  42.513  20.421  1.00  0.00    -0.308 N 
ATOM     22  C   UNL A   1      45.381  42.333  21.355  1.00  0.00     0.408 C 
ATOM     23  H   UNL A   1      44.233  41.740  19.833  1.00  0.00     0.168 HD
ATOM     24  O   UNL A   1      46.071  41.327  21.322  1.00  0.00    -0.225 OA
BRANCH  22  25
ATOM     25  O   UNL A   1      45.465  43.317  22.291  1.00  0.00    -0.444 OA
BRANCH  25  26
ATOM     26  C   UNL A   1      46.716  44.062  22.458  1.00  0.00     0.106 C 
ATOM     27  C   UNL A   1      47.540  43.589  23.663  1.00  0.00     0.056 C 
ATOM     28  C   UNL A   1      47.559  44.042  21.177  1.00  0.00     0.056 C 
ATOM     29  C   UNL A   1      46.302  45.518  22.743  1.00  0.00     0.056 C 
ENDBRANCH  25  26
ENDBRANCH  22  25
ENDBRANCH   8  21
ENDBRANCH   6   8
ENDBRANCH   5   6
ENDBRANCH   4   5
ENDBRANCH   3   4
ENDBRANCH   2   3
ENDBRANCH   1   2
BRANCH   1  30
ATOM     30  C   UNL A   1      43.017  40.302  26.208  1.00  0.00     0.188 C 
BRANCH  30  31
ATOM     31  O   UNL A   1      43.165  40.116  27.599  1.00  0.00    -0.376 OA
BRANCH  31  32
ATOM     32  C   UNL A   1      42.364  39.238  28.374  1.00  0.00     0.202 C 
BRANCH  32  33
ATOM     33  C   UNL A   1      42.563  37.723  28.463  1.00  0.00     0.261 C 
BRANCH  33  34
ATOM     34  O   UNL A   1      43.867  37.320  28.803  1.00  0.00    -0.460 OA
BRANCH  34  35
ATOM     35  C   UNL A   1      44.485  36.744  27.756  1.00  0.00     0.338 C 
ATOM     36  O   UNL A   1      44.725  37.235  26.668  1.00  0.00    -0.246 OA
BRANCH  35  37
ATOM     37  C   UNL A   1      44.931  35.418  28.173  1.00  0.00     0.060 A 
ATOM     38  C   UNL A   1      44.318  34.364  27.492  1.00  0.00     0.016 A 
ATOM     39  C   UNL A   1      45.381  35.340  29.485  1.00  0.00     0.016 A 
ATOM     40  C   UNL A   1      43.778  33.368  28.248  1.00  0.00     0.010 A 
ATOM     41  C   UNL A   1      44.789  34.384  30.251  1.00  0.00     0.010 A 
ATOM     42  C   UNL A   1      43.906  33.496  29.628  1.00  0.00    -0.014 A 
BRANCH  42  43
ATOM     43  C   UNL A   1      43.098  32.641  30.453  1.00  0.00     0.031 A 
ATOM     44  C   UNL A   1      43.554  31.249  30.348  1.00  0.00     0.074 A 
ATOM     45  C   UNL A   1      42.165  33.160  31.273  1.00  0.00     0.049 A 
ATOM     46  N   UNL A   1      42.998  30.284  29.695  1.00  0.00    -0.248 NA
ATOM     47  C   UNL A   1      44.937  30.966  30.773  1.00  0.00     0.031 C 
ATOM     48  C   UNL A   1      41.916  34.578  31.564  1.00  0.00     0.029 A 
ATOM     49  N   UNL A   1      41.326  32.518  32.125  1.00  0.00    -0.354 N 
ATOM     50  C   UNL A   1      43.842  29.203  29.914  1.00  0.00     0.074 A 
ATOM     51  C   UNL A   1      45.122  29.748  30.268  1.00  0.00     0.031 C 
ATOM     52  C   UNL A   1      41.176  34.674  32.692  1.00  0.00     0.029 A 
ATOM     53  C   UNL A   1      40.795  33.339  33.117  1.00  0.00     0.049 A 
ATOM     54  H   UNL A   1      41.111  31.561  32.049  1.00  0.00     0.167 HD
ATOM     55  C   UNL A   1      43.327  27.984  30.225  1.00  0.00     0.037 A 
ATOM     56  C   UNL A   1      40.194  32.892  34.248  1.00  0.00     0.037 A 
ATOM     57  C   UNL A   1      41.920  27.930  29.923  1.00  0.00     0.049 A 
ATOM     58  C   UNL A   1      39.744  31.501  33.966  1.00  0.00     0.074 A 
ATOM     59  C   UNL A   1      41.149  27.845  28.785  1.00  0.00     0.029 A 
ATOM     60  N   UNL A   1      41.119  28.411  30.929  1.00  0.00    -0.354 N 
ATOM     61  N   UNL A   1      38.842  31.205  33.066  1.00  0.00    -0.248 NA
ATOM     62  C   UNL A   1      40.564  30.377  34.409  1.00  0.00     0.031 C 
ATOM     63  C   UNL A   1      39.889  28.429  29.110  1.00  0.00     0.029 A 
ATOM     64  C   UNL A   1      39.903  28.824  30.448  1.00  0.00     0.049 A 
ATOM     65  H   UNL A   1      41.383  28.453  31.876  1.00  0.00     0.167 HD
ATOM     66  C   UNL A   1      39.254  29.994  32.542  1.00  0.00     0.074 A 
ATOM     67  C   UNL A   1      40.202  29.458  33.509  1.00  0.00     0.031 C 
ATOM     68  C   UNL A   1      39.045  29.694  31.227  1.00  0.00     0.037 A 
BRANCH  55  69
ATOM     69  C   UNL A   1      43.957  27.052  31.236  1.00  0.00     0.058 A 
ATOM     70  C   UNL A   1      44.349  25.765  30.832  1.00  0.00     0.135 A 
ATOM     71  C   UNL A   1      43.963  27.276  32.636  1.00  0.00     0.135 A 
ATOM     72  F   UNL A   1      44.338  25.428  29.532  1.00  0.00    -0.206 F 
ATOM     73  C   UNL A   1      44.707  24.773  31.748  1.00  0.00     0.059 A 
ATOM     74  C   UNL A   1      44.380  26.328  33.559  1.00  0.00     0.059 A 
ATOM     75  F   UNL A   1      43.473  28.388  33.194  1.00  0.00    -0.206 F 
ATOM     76  C   UNL A   1      44.722  25.067  33.110  1.00  0.00     0.060 A 
BRANCH  76  77
ATOM     77  S   UNL A   1      45.137  23.785  34.300  1.00  0.00     0.124 S 
ATOM     78  O   UNL A   1      46.532  24.095  34.593  1.00  0.00    -0.237 OA
ATOM     79  O   UNL A   1      44.182  24.050  35.371  1.00  0.00    -0.237 OA
ATOM     80  O   UNL A   1      44.907  22.549  33.558  1.00  0.00    -0.744 OA
ENDBRANCH  76  77
ENDBRANCH  55  69
BRANCH  56  81
ATOM     81  C   UNL A   1      40.371  33.404  35.636  1.00  0.00     0.058 A 
ATOM     82  C   UNL A   1      41.653  33.455  36.215  1.00  0.00     0.135 A 
ATOM     83  C   UNL A   1      39.365  34.141  36.293  1.00  0.00     0.135 A 
ATOM     84  F   UNL A   1      42.671  32.781  35.658  1.00  0.00    -0.206 F 
ATOM     85  C   UNL A   1      41.942  34.264  37.319  1.00  0.00     0.059 A 
ATOM     86  C   UNL A   1      39.627  34.944  37.401  1.00  0.00     0.059 A 
ATOM     87  F   UNL A   1      38.111  34.184  35.821  1.00  0.00    -0.206 F 
ATOM     88  C   UNL A   1      40.927  35.033  37.884  1.00  0.00     0.060 A 
BRANCH  88  89
ATOM     89  S   UNL A   1      41.340  36.248  39.158  1.00  0.00     0.124 S 
ATOM     90  O   UNL A   1      42.030  35.426  40.147  1.00  0.00    -0.237 OA
ATOM     91  O   UNL A   1      42.171  37.193  38.421  1.00  0.00    -0.237 OA
ATOM     92  O   UNL A   1      40.037  36.760  39.573  1.00  0.00    -0.744 OA
ENDBRANCH  88  89
ENDBRANCH  56  81
BRANCH  68  93
ATOM     93  C   UNL A   1      37.930  30.415  30.522  1.00  0.00     0.058 A 
ATOM     94  C   UNL A   1      36.573  30.054  30.572  1.00  0.00     0.135 A 
ATOM     95  C   UNL A   1      38.259  31.572  29.802  1.00  0.00     0.135 A 
ATOM     96  F   UNL A   1      36.166  29.012  31.311  1.00  0.00    -0.206 F 
ATOM     97  C   UNL A   1      35.594  30.784  29.892  1.00  0.00     0.059 A 
ATOM     98  C   UNL A   1      37.299  32.333  29.145  1.00  0.00     0.059 A 
ATOM     99  F   UNL A   1      39.533  31.997  29.758  1.00  0.00    -0.206 F 
ATOM    100  C   UNL A   1      35.971  31.922  29.177  1.00  0.00     0.060 A 
BRANCH 100 101
ATOM    101  S   UNL A   1      34.708  32.882  28.315  1.00  0.00     0.124 S 
ATOM    102  O   UNL A   1      33.976  31.850  27.588  1.00  0.00    -0.237 OA
ATOM    103  O   UNL A   1      33.987  33.516  29.416  1.00  0.00    -0.237 OA
ATOM    104  O   UNL A   1      35.484  33.797  27.481  1.00  0.00    -0.744 OA
ENDBRANCH 100 101
ENDBRANCH  68  93
ENDBRANCH  42  43
ENDBRANCH  35  37
ENDBRANCH  34  35
ENDBRANCH  33  34
ENDBRANCH  32  33
ENDBRANCH  31  32
ENDBRANCH  30  31
ENDBRANCH   1  30
TORSDOF 25
ENDMDL
MODEL 3
REMARK VINA RESULT:      -9.4      2.971      4.151
REMARK SMILES Cc1cccc2[nH]cc(C[C@H](NC(=O)OC(C)(C)C)C(=O)OCCOCCOCCOC(=O)c3ccc(-c4c5nc(c(-c6c(F)cc(S(=O)(=O)[O-])cc6F)c6ccc([nH]6)c(-c6c(F)cc(S(=O)(=O)[O-])cc6F)c6nc(c(-c7c(F)cc(S(=O)(=O)[O-])cc7F)c7ccc4[nH]7)C=C6)C=C5)cc3)c12
REMARK SMILES IDX 26 1 25 2 24 3 23 4 22 5 20 6 21 7 11 8 10 9 9 10 1 11 2 12
REMARK SMILES IDX 3 13 100 14 4 15 6 16 5 17 7 18 8 19 12 21 13 22 14 24 15 25
REMARK SMILES IDX 16 26 17 27 18 28 19 29 27 30 28 31 29 32 30 33 31 34 32 35
REMARK SMILES IDX 33 36 34 37 35 38 99 39 36 40 98 41 37 42 38 43 39 44 92 45
REMARK SMILES IDX 40 46 97 47 91 48 93 49 41 50 96 51 90 52 89 53 42 55 76 56
REMARK SMILES IDX 55 57 75 58 56 59 59 60 74 61 94 62 57 63 58 64 73 66 95 67
REMARK SMILES IDX 60 68 43 69 44 70 53 71 45 72 46 73 52 74 54 75 47 76 48 77
REMARK SMILES IDX 49 78 50 79 51 80 77 81 78 82 87 83 79 84 80 85 86 86 88 87
REMARK SMILES IDX 81 88 82 89 83 90 84 91 85 92 61 93 62 94 71 95 63 96 64 97
REMARK SMILES IDX 70 98 72 99 65 100 66 101 67 102 68 103 69 104
REMARK H PARENT 7 20 12 23 93 54 59 65
REMARK Flexibility Score: inf
ROOT
ATOM      1  C   UNL A   1      40.165  21.078  26.243  1.00  0.00     0.188 C 
ENDROOT
BRANCH   1   2
ATOM      2  O   UNL A   1      38.854  21.187  25.719  1.00  0.00    -0.376 OA
BRANCH   2   3
ATOM      3  C   UNL A   1      38.218  22.457  25.736  1.00  0.00     0.202 C 
BRANCH   3   4
ATOM      4  C   UNL A   1      37.226  22.862  24.623  1.00  0.00     0.261 C 
BRANCH   4   5
ATOM      5  O   UNL A   1      36.158  21.930  24.350  1.00  0.00    -0.462 OA
BRANCH   5   6
ATOM      6  C   UNL A   1      35.148  21.817  25.255  1.00  0.00     0.329 C 
ATOM      7  O   UNL A   1      35.218  21.140  26.278  1.00  0.00    -0.250 OA
BRANCH   6   8
ATOM      8  C   UNL A   1      33.836  22.522  24.807  1.00  0.00     0.200 C 
BRANCH   8   9
ATOM      9  C   UNL A   1      32.857  22.473  26.002  1.00  0.00     0.075 C 
BRANCH   9  10
ATOM     10  C   UNL A   1      31.915  23.655  26.025  1.00  0.00    -0.020 A 
ATOM     11  C   UNL A   1      34.813  25.356  25.795  1.00  0.00     0.045 C 
ATOM     12  C   UNL A   1      33.406  25.865  25.983  1.00  0.00    -0.041 A 
ATOM     13  C   UNL A   1      33.266  27.272  26.052  1.00  0.00     0.004 A 
ATOM     14  C   UNL A   1      32.224  25.070  26.052  1.00  0.00     0.006 A 
ATOM     15  C   UNL A   1      32.033  27.886  26.232  1.00  0.00     0.002 A 
ATOM     16  C   UNL A   1      31.002  25.732  26.236  1.00  0.00     0.046 A 
ATOM     17  C   UNL A   1      30.878  27.122  26.339  1.00  0.00     0.027 A 
ATOM     18  N   UNL A   1      30.013  24.781  26.309  1.00  0.00    -0.361 N 
ATOM     19  C   UNL A   1      30.541  23.538  26.137  1.00  0.00     0.087 A 
ATOM     20  H   UNL A   1      29.060  24.972  26.463  1.00  0.00     0.166 HD
ENDBRANCH   9  10
ENDBRANCH   8   9
BRANCH   8  21
ATOM     21  N   UNL A   1      33.140  22.001  23.617  1.00  0.00    -0.308 N 
ATOM     22  C   UNL A   1      32.921  22.583  22.397  1.00  0.00     0.408 C 
ATOM     23  H   UNL A   1      32.776  21.091  23.715  1.00  0.00     0.168 HD
ATOM     24  O   UNL A   1      32.202  22.030  21.582  1.00  0.00    -0.225 OA
BRANCH  22  25
ATOM     25  O   UNL A   1      33.592  23.749  22.194  1.00  0.00    -0.444 OA
BRANCH  25  26
ATOM     26  C   UNL A   1      32.848  24.992  21.970  1.00  0.00     0.106 C 
ATOM     27  C   UNL A   1      31.441  24.968  22.580  1.00  0.00     0.056 C 
ATOM     28  C   UNL A   1      33.635  26.214  22.458  1.00  0.00     0.056 C 
ATOM     29  C   UNL A   1      32.673  25.106  20.444  1.00  0.00     0.056 C 
ENDBRANCH  25  26
ENDBRANCH  22  25
ENDBRANCH   8  21
ENDBRANCH   6   8
ENDBRANCH   5   6
ENDBRANCH   4   5
ENDBRANCH   3   4
ENDBRANCH   2   3
ENDBRANCH   1   2
BRANCH   1  30
ATOM     30  C   UNL A   1      41.039  22.338  26.397  1.00  0.00     0.188 C 
BRANCH  30  31
ATOM     31  O   UNL A   1      41.418  22.727  27.700  1.00  0.00    -0.376 OA
BRANCH  31  32
ATOM     32  C   UNL A   1      41.098  23.980  28.282  1.00  0.00     0.202 C 
BRANCH  32  33
ATOM     33  C   UNL A   1      41.365  25.340  27.632  1.00  0.00     0.261 C 
BRANCH  33  34
ATOM     34  O   UNL A   1      42.690  25.535  27.200  1.00  0.00    -0.460 OA
BRANCH  34  35
ATOM     35  C   UNL A   1      42.725  25.975  25.930  1.00  0.00     0.338 C 
ATOM     36  O   UNL A   1      42.309  25.413  24.933  1.00  0.00    -0.246 OA
BRANCH  35  37
ATOM     37  C   UNL A   1      43.271  27.329  25.939  1.00  0.00     0.060 A 
ATOM     38  C   UNL A   1      44.323  27.519  26.839  1.00  0.00     0.016 A 
ATOM     39  C   UNL A   1      42.373  28.322  25.570  1.00  0.00     0.016 A 
ATOM     40  C   UNL A   1      44.229  28.581  27.687  1.00  0.00     0.010 A 
ATOM     41  C   UNL A   1      42.239  29.347  26.454  1.00  0.00     0.010 A 
ATOM     42  C   UNL A   1      43.096  29.381  27.558  1.00  0.00    -0.014 A 
BRANCH  42  43
ATOM     43  C   UNL A   1      42.816  30.311  28.616  1.00  0.00     0.031 A 
ATOM     44  C   UNL A   1      43.913  31.279  28.750  1.00  0.00     0.074 A 
ATOM     45  C   UNL A   1      41.627  30.297  29.247  1.00  0.00     0.049 A 
ATOM     46  N   UNL A   1      44.829  31.313  29.659  1.00  0.00    -0.248 NA
ATOM     47  C   UNL A   1      44.197  32.131  27.580  1.00  0.00     0.031 C 
ATOM     48  C   UNL A   1      40.442  29.497  28.908  1.00  0.00     0.029 A 
ATOM     49  N   UNL A   1      41.182  31.097  30.249  1.00  0.00    -0.354 N 
ATOM     50  C   UNL A   1      45.611  32.405  29.305  1.00  0.00     0.074 A 
ATOM     51  C   UNL A   1      45.388  32.631  27.905  1.00  0.00     0.031 C 
ATOM     52  C   UNL A   1      39.359  30.029  29.520  1.00  0.00     0.029 A 
ATOM     53  C   UNL A   1      39.796  31.109  30.386  1.00  0.00     0.049 A 
ATOM     54  H   UNL A   1      41.783  31.620  30.826  1.00  0.00     0.167 HD
ATOM     55  C   UNL A   1      46.015  33.293  30.251  1.00  0.00     0.037 A 
ATOM     56  C   UNL A   1      39.099  32.040  31.085  1.00  0.00     0.037 A 
ATOM     57  C   UNL A   1      45.850  32.745  31.573  1.00  0.00     0.049 A 
ATOM     58  C   UNL A   1      40.054  32.643  32.056  1.00  0.00     0.074 A 
ATOM     59  C   UNL A   1      46.487  31.799  32.344  1.00  0.00     0.029 A 
ATOM     60  N   UNL A   1      44.591  32.920  32.093  1.00  0.00    -0.354 N 
ATOM     61  N   UNL A   1      40.618  31.969  33.023  1.00  0.00    -0.248 NA
ATOM     62  C   UNL A   1      40.696  33.915  31.734  1.00  0.00     0.031 C 
ATOM     63  C   UNL A   1      45.513  31.307  33.262  1.00  0.00     0.029 A 
ATOM     64  C   UNL A   1      44.313  31.988  33.058  1.00  0.00     0.049 A 
ATOM     65  H   UNL A   1      43.968  33.627  31.808  1.00  0.00     0.167 HD
ATOM     66  C   UNL A   1      41.885  32.511  33.138  1.00  0.00     0.074 A 
ATOM     67  C   UNL A   1      41.817  33.795  32.453  1.00  0.00     0.031 C 
ATOM     68  C   UNL A   1      42.951  31.732  33.482  1.00  0.00     0.037 A 
BRANCH  55  69
ATOM     69  C   UNL A   1      46.073  34.786  30.014  1.00  0.00     0.058 A 
ATOM     70  C   UNL A   1      47.289  35.463  30.209  1.00  0.00     0.135 A 
ATOM     71  C   UNL A   1      44.936  35.616  29.849  1.00  0.00     0.135 A 
ATOM     72  F   UNL A   1      48.424  34.777  30.420  1.00  0.00    -0.206 F 
ATOM     73  C   UNL A   1      47.366  36.858  30.249  1.00  0.00     0.059 A 
ATOM     74  C   UNL A   1      45.001  37.001  29.817  1.00  0.00     0.059 A 
ATOM     75  F   UNL A   1      43.689  35.136  29.809  1.00  0.00    -0.206 F 
ATOM     76  C   UNL A   1      46.215  37.617  30.048  1.00  0.00     0.060 A 
BRANCH  76  77
ATOM     77  S   UNL A   1      46.296  39.411  30.143  1.00  0.00     0.124 S 
ATOM     78  O   UNL A   1      47.736  39.637  30.206  1.00  0.00    -0.237 OA
ATOM     79  O   UNL A   1      45.637  39.806  28.903  1.00  0.00    -0.237 OA
ATOM     80  O   UNL A   1      45.555  39.718  31.363  1.00  0.00    -0.744 OA
ENDBRANCH  76  77
ENDBRANCH  55  69
BRANCH  56  81
ATOM     81  C   UNL A   1      37.836  32.722  30.684  1.00  0.00     0.058 A 
ATOM     82  C   UNL A   1      37.831  33.629  29.608  1.00  0.00     0.135 A 
ATOM     83  C   UNL A   1      36.574  32.270  31.120  1.00  0.00     0.135 A 
ATOM     84  F   UNL A   1      38.987  34.113  29.129  1.00  0.00    -0.206 F 
ATOM     85  C   UNL A   1      36.655  33.989  28.942  1.00  0.00     0.059 A 
ATOM     86  C   UNL A   1      35.389  32.626  30.479  1.00  0.00     0.059 A 
ATOM     87  F   UNL A   1      36.457  31.388  32.123  1.00  0.00    -0.206 F 
ATOM     88  C   UNL A   1      35.441  33.453  29.364  1.00  0.00     0.060 A 
BRANCH  88  89
ATOM     89  S   UNL A   1      33.955  33.731  28.372  1.00  0.00     0.124 S 
ATOM     90  O   UNL A   1      33.059  34.359  29.338  1.00  0.00    -0.237 OA
ATOM     91  O   UNL A   1      34.455  34.596  27.309  1.00  0.00    -0.237 OA
ATOM     92  O   UNL A   1      33.573  32.387  27.950  1.00  0.00    -0.744 OA
ENDBRANCH  88  89
ENDBRANCH  56  81
BRANCH  68  93
ATOM     93  C   UNL A   1      42.665  30.465  34.240  1.00  0.00     0.058 A 
ATOM     94  C   UNL A   1      42.382  30.390  35.614  1.00  0.00     0.135 A 
ATOM     95  C   UNL A   1      42.621  29.269  33.510  1.00  0.00     0.135 A 
ATOM     96  F   UNL A   1      42.317  31.499  36.364  1.00  0.00    -0.206 F 
ATOM     97  C   UNL A   1      42.119  29.170  36.243  1.00  0.00     0.059 A 
ATOM     98  C   UNL A   1      42.329  28.048  34.106  1.00  0.00     0.059 A 
ATOM     99  F   UNL A   1      42.834  29.282  32.183  1.00  0.00    -0.206 F 
ATOM    100  C   UNL A   1      42.099  28.002  35.478  1.00  0.00     0.060 A 
BRANCH 100 101
ATOM    101  S   UNL A   1      41.737  26.425  36.280  1.00  0.00     0.124 S 
ATOM    102  O   UNL A   1      43.072  25.889  36.524  1.00  0.00    -0.237 OA
ATOM    103  O   UNL A   1      40.993  26.840  37.467  1.00  0.00    -0.237 OA
ATOM    104  O   UNL A   1      40.950  25.706  35.282  1.00  0.00    -0.744 OA
ENDBRANCH 100 101
ENDBRANCH  68  93
ENDBRANCH  42  43
ENDBRANCH  35  37
ENDBRANCH  34  35
ENDBRANCH  33  34
ENDBRANCH  32  33
ENDBRANCH  31  32
ENDBRANCH  30  31
ENDBRANCH   1  30
TORSDOF 25
ENDMDL
