MODEL 1
REMARK VINA RESULT:      -9.7      0.000      0.000
REMARK SMILES CCCCCCNC(=O)Oc1cccc(-c2ccc([C@@H](C)C(=O)OCCOCCOCCOC(=O)c3ccc(-c4c5nc(c(-c6c(F)cc(S(=O)(=O)[O-])cc6F)c6ccc([nH]6)c(-c6c(F)cc(S(=O)(=O)[O-])cc6F)c6nc(c(-c7c(F)cc(S(=O)(=O)[O-])cc7F)c7ccc4[nH]7)C=C6)C=C5)cc3)cc2F)c1
REMARK SMILES IDX 25 1 24 2 22 3 23 4 20 5 21 6 19 7 16 8 17 9 103 10 18 11
REMARK SMILES IDX 102 12 104 13 15 14 11 15 12 16 105 17 13 18 14 19 10 20
REMARK SMILES IDX 8 21 7 22 9 24 6 25 5 26 4 27 3 28 2 29 1 30 26 31 27 32
REMARK SMILES IDX 28 33 29 34 30 35 31 36 32 37 33 38 34 39 35 40 36 41 37 42
REMARK SMILES IDX 101 43 38 44 100 45 39 46 40 47 41 48 94 49 42 50 99 51
REMARK SMILES IDX 93 52 95 53 43 54 98 55 92 56 91 57 44 59 78 60 57 61 77 62
REMARK SMILES IDX 58 63 61 64 76 65 96 66 59 67 60 68 75 70 97 71 62 72 45 73
REMARK SMILES IDX 46 74 55 75 47 76 48 77 54 78 56 79 49 80 50 81 51 82 52 83
REMARK SMILES IDX 53 84 79 85 80 86 89 87 81 88 82 89 88 90 90 91 83 92 84 93
REMARK SMILES IDX 85 94 86 95 87 96 63 97 64 98 73 99 65 100 66 101 72 102
REMARK SMILES IDX 74 103 67 104 68 105 69 106 70 107 71 108
REMARK H PARENT 7 23 95 58 61 69
REMARK Flexibility Score: inf
ROOT
ATOM      1  C   UNL A   1      43.311  22.761  25.160  1.00  0.00     0.261 C 
ENDROOT
BRANCH   1   2
ATOM      2  O   UNL A   1      42.156  21.906  25.314  1.00  0.00    -0.463 OA
BRANCH   2   3
ATOM      3  C   UNL A   1      41.303  22.228  26.318  1.00  0.00     0.313 C 
ATOM      4  O   UNL A   1      41.472  23.200  27.055  1.00  0.00    -0.252 OA
BRANCH   3   5
ATOM      5  C   UNL A   1      40.081  21.322  26.496  1.00  0.00     0.126 C 
ATOM      6  C   UNL A   1      40.489  19.891  26.146  1.00  0.00     0.025 C 
BRANCH   5   7
ATOM      7  C   UNL A   1      38.734  21.654  25.853  1.00  0.00    -0.031 A 
ATOM      8  C   UNL A   1      36.199  22.400  24.722  1.00  0.00     0.018 A 
ATOM      9  C   UNL A   1      36.741  21.115  24.540  1.00  0.00     0.012 A 
ATOM     10  C   UNL A   1      36.951  23.295  25.490  1.00  0.00     0.131 A 
ATOM     11  C   UNL A   1      37.981  20.742  25.102  1.00  0.00     0.005 A 
ATOM     12  C   UNL A   1      38.184  22.936  26.050  1.00  0.00     0.044 A 
ATOM     13  F   UNL A   1      36.492  24.533  25.732  1.00  0.00    -0.206 F 
BRANCH   8  14
ATOM     14  C   UNL A   1      34.874  22.771  24.176  1.00  0.00    -0.012 A 
ATOM     15  C   UNL A   1      33.287  24.404  23.314  1.00  0.00     0.133 A 
ATOM     16  C   UNL A   1      32.283  23.441  23.249  1.00  0.00     0.047 A 
ATOM     17  C   UNL A   1      34.569  24.087  23.777  1.00  0.00     0.056 A 
ATOM     18  C   UNL A   1      32.569  22.135  23.631  1.00  0.00     0.004 A 
ATOM     19  C   UNL A   1      33.850  21.806  24.090  1.00  0.00     0.009 A 
BRANCH  15  20
ATOM     20  O   UNL A   1      32.905  25.730  23.035  1.00  0.00    -0.410 OA
BRANCH  20  21
ATOM     21  C   UNL A   1      33.110  26.213  21.752  1.00  0.00     0.412 C 
ATOM     22  N   UNL A   1      33.015  27.576  21.662  1.00  0.00    -0.321 N 
ATOM     23  H   UNL A   1      33.259  27.975  20.795  1.00  0.00     0.167 HD
ATOM     24  O   UNL A   1      33.319  25.527  20.752  1.00  0.00    -0.224 OA
BRANCH  22  25
ATOM     25  C   UNL A   1      32.594  28.496  22.703  1.00  0.00     0.119 C 
BRANCH  25  26
ATOM     26  C   UNL A   1      31.137  28.935  22.564  1.00  0.00     0.021 C 
BRANCH  26  27
ATOM     27  C   UNL A   1      30.254  28.678  23.791  1.00  0.00     0.002 C 
BRANCH  27  28
ATOM     28  C   UNL A   1      30.916  27.916  24.946  1.00  0.00    -0.000 C 
BRANCH  28  29
ATOM     29  C   UNL A   1      31.779  28.757  25.890  1.00  0.00    -0.003 C 
ATOM     30  C   UNL A   1      32.063  28.074  27.221  1.00  0.00     0.004 C 
ENDBRANCH  28  29
ENDBRANCH  27  28
ENDBRANCH  26  27
ENDBRANCH  25  26
ENDBRANCH  22  25
ENDBRANCH  20  21
ENDBRANCH  15  20
ENDBRANCH   8  14
ENDBRANCH   5   7
ENDBRANCH   3   5
ENDBRANCH   2   3
ENDBRANCH   1   2
BRANCH   1  31
ATOM     31  C   UNL A   1      44.408  22.207  24.240  1.00  0.00     0.202 C 
BRANCH  31  32
ATOM     32  O   UNL A   1      45.314  23.135  23.657  1.00  0.00    -0.376 OA
BRANCH  32  33
ATOM     33  C   UNL A   1      46.606  23.303  24.230  1.00  0.00     0.188 C 
BRANCH  33  34
ATOM     34  C   UNL A   1      46.737  23.976  25.603  1.00  0.00     0.188 C 
BRANCH  34  35
ATOM     35  O   UNL A   1      47.668  25.038  25.648  1.00  0.00    -0.376 OA
BRANCH  35  36
ATOM     36  C   UNL A   1      47.581  25.980  24.593  1.00  0.00     0.202 C 
BRANCH  36  37
ATOM     37  C   UNL A   1      47.033  27.336  25.049  1.00  0.00     0.261 C 
BRANCH  37  38
ATOM     38  O   UNL A   1      46.167  27.294  26.200  1.00  0.00    -0.460 OA
BRANCH  38  39
ATOM     39  C   UNL A   1      44.843  27.166  25.968  1.00  0.00     0.338 C 
ATOM     40  O   UNL A   1      44.314  26.536  25.057  1.00  0.00    -0.246 OA
BRANCH  39  41
ATOM     41  C   UNL A   1      44.113  27.720  27.125  1.00  0.00     0.060 A 
ATOM     42  C   UNL A   1      44.115  29.108  27.334  1.00  0.00     0.016 A 
ATOM     43  C   UNL A   1      43.424  26.876  27.997  1.00  0.00     0.016 A 
ATOM     44  C   UNL A   1      43.446  29.650  28.433  1.00  0.00     0.010 A 
ATOM     45  C   UNL A   1      42.773  27.419  29.107  1.00  0.00     0.010 A 
ATOM     46  C   UNL A   1      42.804  28.805  29.347  1.00  0.00    -0.014 A 
BRANCH  46  47
ATOM     47  C   UNL A   1      42.319  29.331  30.648  1.00  0.00     0.031 A 
ATOM     48  C   UNL A   1      41.023  30.095  30.670  1.00  0.00     0.074 A 
ATOM     49  C   UNL A   1      43.020  29.158  31.784  1.00  0.00     0.049 A 
ATOM     50  N   UNL A   1      40.453  30.740  31.655  1.00  0.00    -0.248 NA
ATOM     51  C   UNL A   1      40.271  30.142  29.405  1.00  0.00     0.031 C 
ATOM     52  C   UNL A   1      44.269  28.409  31.903  1.00  0.00     0.029 A 
ATOM     53  N   UNL A   1      42.784  29.622  33.055  1.00  0.00    -0.354 N 
ATOM     54  C   UNL A   1      39.287  31.282  31.127  1.00  0.00     0.074 A 
ATOM     55  C   UNL A   1      39.241  30.909  29.730  1.00  0.00     0.031 C 
ATOM     56  C   UNL A   1      44.702  28.484  33.173  1.00  0.00     0.029 A 
ATOM     57  C   UNL A   1      43.783  29.316  33.948  1.00  0.00     0.049 A 
ATOM     58  H   UNL A   1      41.975  30.126  33.303  1.00  0.00     0.167 HD
ATOM     59  C   UNL A   1      38.339  32.019  31.751  1.00  0.00     0.037 A 
ATOM     60  C   UNL A   1      43.951  29.691  35.234  1.00  0.00     0.037 A 
ATOM     61  C   UNL A   1      38.389  32.388  33.142  1.00  0.00     0.049 A 
ATOM     62  C   UNL A   1      42.913  30.566  35.893  1.00  0.00     0.074 A 
ATOM     63  C   UNL A   1      37.465  33.114  33.872  1.00  0.00     0.029 A 
ATOM     64  N   UNL A   1      39.422  32.067  34.011  1.00  0.00    -0.354 N 
ATOM     65  N   UNL A   1      41.803  31.055  35.391  1.00  0.00    -0.248 NA
ATOM     66  C   UNL A   1      43.150  30.943  37.295  1.00  0.00     0.031 C 
ATOM     67  C   UNL A   1      37.964  33.278  35.168  1.00  0.00     0.029 A 
ATOM     68  C   UNL A   1      39.170  32.603  35.263  1.00  0.00     0.049 A 
ATOM     69  H   UNL A   1      40.217  31.536  33.773  1.00  0.00     0.167 HD
ATOM     70  C   UNL A   1      41.197  31.768  36.422  1.00  0.00     0.074 A 
ATOM     71  C   UNL A   1      42.059  31.640  37.578  1.00  0.00     0.031 C 
ATOM     72  C   UNL A   1      40.031  32.462  36.412  1.00  0.00     0.037 A 
BRANCH  59  73
ATOM     73  C   UNL A   1      37.177  32.504  30.928  1.00  0.00     0.058 A 
ATOM     74  C   UNL A   1      36.013  31.736  30.766  1.00  0.00     0.135 A 
ATOM     75  C   UNL A   1      37.217  33.770  30.322  1.00  0.00     0.135 A 
ATOM     76  F   UNL A   1      35.930  30.510  31.307  1.00  0.00    -0.206 F 
ATOM     77  C   UNL A   1      34.937  32.198  30.015  1.00  0.00     0.059 A 
ATOM     78  C   UNL A   1      36.142  34.263  29.590  1.00  0.00     0.059 A 
ATOM     79  F   UNL A   1      38.308  34.542  30.441  1.00  0.00    -0.206 F 
ATOM     80  C   UNL A   1      35.011  33.465  29.431  1.00  0.00     0.060 A 
BRANCH  80  81
ATOM     81  S   UNL A   1      33.602  34.051  28.467  1.00  0.00     0.124 S 
ATOM     82  O   UNL A   1      34.238  35.023  27.583  1.00  0.00    -0.237 OA
ATOM     83  O   UNL A   1      33.132  32.827  27.826  1.00  0.00    -0.237 OA
ATOM     84  O   UNL A   1      32.709  34.612  29.475  1.00  0.00    -0.744 OA
ENDBRANCH  80  81
ENDBRANCH  59  73
BRANCH  60  85
ATOM     85  C   UNL A   1      45.162  29.259  35.983  1.00  0.00     0.058 A 
ATOM     86  C   UNL A   1      45.161  28.089  36.755  1.00  0.00     0.135 A 
ATOM     87  C   UNL A   1      46.346  30.015  35.947  1.00  0.00     0.135 A 
ATOM     88  F   UNL A   1      44.049  27.341  36.836  1.00  0.00    -0.206 F 
ATOM     89  C   UNL A   1      46.283  27.686  37.474  1.00  0.00     0.059 A 
ATOM     90  C   UNL A   1      47.490  29.618  36.634  1.00  0.00     0.059 A 
ATOM     91  F   UNL A   1      46.403  31.142  35.220  1.00  0.00    -0.206 F 
ATOM     92  C   UNL A   1      47.445  28.456  37.403  1.00  0.00     0.060 A 
BRANCH  92  93
ATOM     93  S   UNL A   1      48.910  27.897  38.298  1.00  0.00     0.124 S 
ATOM     94  O   UNL A   1      49.177  29.037  39.169  1.00  0.00    -0.237 OA
ATOM     95  O   UNL A   1      48.422  26.690  38.959  1.00  0.00    -0.237 OA
ATOM     96  O   UNL A   1      49.887  27.671  37.238  1.00  0.00    -0.744 OA
ENDBRANCH  92  93
ENDBRANCH  60  85
BRANCH  72  97
ATOM     97  C   UNL A   1      39.587  33.106  37.698  1.00  0.00     0.058 A 
ATOM     98  C   UNL A   1      40.143  34.311  38.156  1.00  0.00     0.135 A 
ATOM     99  C   UNL A   1      38.540  32.543  38.448  1.00  0.00     0.135 A 
ATOM    100  F   UNL A   1      41.148  34.891  37.481  1.00  0.00    -0.206 F 
ATOM    101  C   UNL A   1      39.693  34.923  39.323  1.00  0.00     0.059 A 
ATOM    102  C   UNL A   1      38.054  33.153  39.601  1.00  0.00     0.059 A 
ATOM    103  F   UNL A   1      37.963  31.399  38.049  1.00  0.00    -0.206 F 
ATOM    104  C   UNL A   1      38.645  34.338  40.036  1.00  0.00     0.060 A 
BRANCH 104 105
ATOM    105  S   UNL A   1      38.045  35.162  41.527  1.00  0.00     0.124 S 
ATOM    106  O   UNL A   1      38.059  36.562  41.116  1.00  0.00    -0.237 OA
ATOM    107  O   UNL A   1      36.723  34.566  41.703  1.00  0.00    -0.237 OA
ATOM    108  O   UNL A   1      39.030  34.795  42.540  1.00  0.00    -0.744 OA
ENDBRANCH 104 105
ENDBRANCH  72  97
ENDBRANCH  46  47
ENDBRANCH  39  41
ENDBRANCH  38  39
ENDBRANCH  37  38
ENDBRANCH  36  37
ENDBRANCH  35  36
ENDBRANCH  34  35
ENDBRANCH  33  34
ENDBRANCH  32  33
ENDBRANCH  31  32
ENDBRANCH   1  31
TORSDOF 29
ENDMDL
MODEL 2
REMARK VINA RESULT:      -9.7      1.176      2.108
REMARK SMILES CCCCCCNC(=O)Oc1cccc(-c2ccc([C@@H](C)C(=O)OCCOCCOCCOC(=O)c3ccc(-c4c5nc(c(-c6c(F)cc(S(=O)(=O)[O-])cc6F)c6ccc([nH]6)c(-c6c(F)cc(S(=O)(=O)[O-])cc6F)c6nc(c(-c7c(F)cc(S(=O)(=O)[O-])cc7F)c7ccc4[nH]7)C=C6)C=C5)cc3)cc2F)c1
REMARK SMILES IDX 25 1 24 2 22 3 23 4 20 5 21 6 19 7 16 8 17 9 103 10 18 11
REMARK SMILES IDX 102 12 104 13 15 14 11 15 12 16 105 17 13 18 14 19 10 20
REMARK SMILES IDX 8 21 7 22 9 24 6 25 5 26 4 27 3 28 2 29 1 30 26 31 27 32
REMARK SMILES IDX 28 33 29 34 30 35 31 36 32 37 33 38 34 39 35 40 36 41 37 42
REMARK SMILES IDX 101 43 38 44 100 45 39 46 40 47 41 48 94 49 42 50 99 51
REMARK SMILES IDX 93 52 95 53 43 54 98 55 92 56 91 57 44 59 78 60 57 61 77 62
REMARK SMILES IDX 58 63 61 64 76 65 96 66 59 67 60 68 75 70 97 71 62 72 45 73
REMARK SMILES IDX 46 74 55 75 47 76 48 77 54 78 56 79 49 80 50 81 51 82 52 83
REMARK SMILES IDX 53 84 79 85 80 86 89 87 81 88 82 89 88 90 90 91 83 92 84 93
REMARK SMILES IDX 85 94 86 95 87 96 63 97 64 98 73 99 65 100 66 101 72 102
REMARK SMILES IDX 74 103 67 104 68 105 69 106 70 107 71 108
REMARK H PARENT 7 23 95 58 61 69
REMARK Flexibility Score: inf
ROOT
ATOM      1  C   UNL A   1      43.469  22.879  25.136  1.00  0.00     0.261 C 
ENDROOT
BRANCH   1   2
ATOM      2  O   UNL A   1      42.259  22.095  25.247  1.00  0.00    -0.463 OA
BRANCH   2   3
ATOM      3  C   UNL A   1      41.371  22.495  26.191  1.00  0.00     0.313 C 
ATOM      4  O   UNL A   1      41.468  23.565  26.790  1.00  0.00    -0.252 OA
BRANCH   3   5
ATOM      5  C   UNL A   1      40.205  21.545  26.479  1.00  0.00     0.126 C 
ATOM      6  C   UNL A   1      40.644  20.123  26.127  1.00  0.00     0.025 C 
BRANCH   5   7
ATOM      7  C   UNL A   1      38.801  21.808  25.934  1.00  0.00    -0.031 A 
ATOM      8  C   UNL A   1      36.156  22.425  24.991  1.00  0.00     0.018 A 
ATOM      9  C   UNL A   1      36.754  21.173  24.755  1.00  0.00     0.012 A 
ATOM     10  C   UNL A   1      36.911  23.352  25.718  1.00  0.00     0.131 A 
ATOM     11  C   UNL A   1      38.048  20.864  25.225  1.00  0.00     0.005 A 
ATOM     12  C   UNL A   1      38.196  23.056  26.187  1.00  0.00     0.044 A 
ATOM     13  F   UNL A   1      36.402  24.560  26.007  1.00  0.00    -0.206 F 
BRANCH   8  14
ATOM     14  C   UNL A   1      34.779  22.727  24.542  1.00  0.00    -0.012 A 
ATOM     15  C   UNL A   1      32.773  24.108  24.546  1.00  0.00     0.133 A 
ATOM     16  C   UNL A   1      32.101  23.190  23.742  1.00  0.00     0.047 A 
ATOM     17  C   UNL A   1      34.094  23.887  24.954  1.00  0.00     0.056 A 
ATOM     18  C   UNL A   1      32.766  22.044  23.319  1.00  0.00     0.004 A 
ATOM     19  C   UNL A   1      34.089  21.817  23.716  1.00  0.00     0.009 A 
BRANCH  15  20
ATOM     20  O   UNL A   1      32.012  25.182  25.044  1.00  0.00    -0.410 OA
BRANCH  20  21
ATOM     21  C   UNL A   1      31.478  25.069  26.318  1.00  0.00     0.412 C 
ATOM     22  N   UNL A   1      31.682  26.178  27.095  1.00  0.00    -0.321 N 
ATOM     23  H   UNL A   1      31.229  26.189  27.969  1.00  0.00     0.167 HD
ATOM     24  O   UNL A   1      30.906  24.078  26.771  1.00  0.00    -0.224 OA
BRANCH  22  25
ATOM     25  C   UNL A   1      32.492  27.338  26.770  1.00  0.00     0.119 C 
BRANCH  25  26
ATOM     26  C   UNL A   1      31.723  28.656  26.876  1.00  0.00     0.021 C 
BRANCH  26  27
ATOM     27  C   UNL A   1      32.563  29.874  27.278  1.00  0.00     0.002 C 
BRANCH  27  28
ATOM     28  C   UNL A   1      33.874  30.069  26.507  1.00  0.00    -0.000 C 
BRANCH  28  29
ATOM     29  C   UNL A   1      35.102  30.407  27.356  1.00  0.00    -0.003 C 
ATOM     30  C   UNL A   1      35.361  29.405  28.473  1.00  0.00     0.004 C 
ENDBRANCH  28  29
ENDBRANCH  27  28
ENDBRANCH  26  27
ENDBRANCH  25  26
ENDBRANCH  22  25
ENDBRANCH  20  21
ENDBRANCH  15  20
ENDBRANCH   8  14
ENDBRANCH   5   7
ENDBRANCH   3   5
ENDBRANCH   2   3
ENDBRANCH   1   2
BRANCH   1  31
ATOM     31  C   UNL A   1      44.483  22.364  24.105  1.00  0.00     0.202 C 
BRANCH  31  32
ATOM     32  O   UNL A   1      45.472  23.271  23.640  1.00  0.00    -0.376 OA
BRANCH  32  33
ATOM     33  C   UNL A   1      46.701  23.389  24.348  1.00  0.00     0.188 C 
BRANCH  33  34
ATOM     34  C   UNL A   1      46.699  23.998  25.757  1.00  0.00     0.188 C 
BRANCH  34  35
ATOM     35  O   UNL A   1      47.359  25.244  25.857  1.00  0.00    -0.376 OA
BRANCH  35  36
ATOM     36  C   UNL A   1      47.309  26.063  24.702  1.00  0.00     0.202 C 
BRANCH  36  37
ATOM     37  C   UNL A   1      46.266  27.179  24.808  1.00  0.00     0.261 C 
BRANCH  37  38
ATOM     38  O   UNL A   1      45.531  27.220  26.047  1.00  0.00    -0.460 OA
BRANCH  38  39
ATOM     39  C   UNL A   1      44.210  26.944  25.986  1.00  0.00     0.338 C 
ATOM     40  O   UNL A   1      43.658  26.156  25.226  1.00  0.00    -0.246 OA
BRANCH  39  41
ATOM     41  C   UNL A   1      43.550  27.579  27.144  1.00  0.00     0.060 A 
ATOM     42  C   UNL A   1      43.724  28.954  27.362  1.00  0.00     0.016 A 
ATOM     43  C   UNL A   1      42.757  26.822  28.008  1.00  0.00     0.016 A 
ATOM     44  C   UNL A   1      43.124  29.569  28.463  1.00  0.00     0.010 A 
ATOM     45  C   UNL A   1      42.175  27.436  29.120  1.00  0.00     0.010 A 
ATOM     46  C   UNL A   1      42.377  28.805  29.369  1.00  0.00    -0.014 A 
BRANCH  46  47
ATOM     47  C   UNL A   1      41.956  29.380  30.672  1.00  0.00     0.031 A 
ATOM     48  C   UNL A   1      40.705  30.216  30.711  1.00  0.00     0.074 A 
ATOM     49  C   UNL A   1      42.676  29.187  31.792  1.00  0.00     0.049 A 
ATOM     50  N   UNL A   1      40.199  30.909  31.698  1.00  0.00    -0.248 NA
ATOM     51  C   UNL A   1      39.925  30.283  29.465  1.00  0.00     0.031 C 
ATOM     52  C   UNL A   1      43.884  28.372  31.894  1.00  0.00     0.029 A 
ATOM     53  N   UNL A   1      42.499  29.686  33.060  1.00  0.00    -0.354 N 
ATOM     54  C   UNL A   1      39.051  31.505  31.190  1.00  0.00     0.074 A 
ATOM     55  C   UNL A   1      38.948  31.112  29.801  1.00  0.00     0.031 C 
ATOM     56  C   UNL A   1      44.354  28.444  33.152  1.00  0.00     0.029 A 
ATOM     57  C   UNL A   1      43.502  29.340  33.934  1.00  0.00     0.049 A 
ATOM     58  H   UNL A   1      41.726  30.239  33.319  1.00  0.00     0.167 HD
ATOM     59  C   UNL A   1      38.161  32.305  31.824  1.00  0.00     0.037 A 
ATOM     60  C   UNL A   1      43.724  29.727  35.208  1.00  0.00     0.037 A 
ATOM     61  C   UNL A   1      38.268  32.694  33.206  1.00  0.00     0.049 A 
ATOM     62  C   UNL A   1      42.754  30.670  35.876  1.00  0.00     0.074 A 
ATOM     63  C   UNL A   1      37.405  33.483  33.945  1.00  0.00     0.029 A 
ATOM     64  N   UNL A   1      39.304  32.331  34.054  1.00  0.00    -0.354 N 
ATOM     65  N   UNL A   1      41.660  31.211  35.393  1.00  0.00    -0.248 NA
ATOM     66  C   UNL A   1      43.048  31.057  37.265  1.00  0.00     0.031 C 
ATOM     67  C   UNL A   1      37.946  33.642  35.224  1.00  0.00     0.029 A 
ATOM     68  C   UNL A   1      39.115  32.902  35.302  1.00  0.00     0.049 A 
ATOM     69  H   UNL A   1      40.062  31.753  33.806  1.00  0.00     0.167 HD
ATOM     70  C   UNL A   1      41.122  31.975  36.425  1.00  0.00     0.074 A 
ATOM     71  C   UNL A   1      42.005  31.819  37.561  1.00  0.00     0.031 C 
ATOM     72  C   UNL A   1      39.996  32.733  36.432  1.00  0.00     0.037 A 
BRANCH  59  73
ATOM     73  C   UNL A   1      37.008  32.840  31.021  1.00  0.00     0.058 A 
ATOM     74  C   UNL A   1      37.149  33.942  30.163  1.00  0.00     0.135 A 
ATOM     75  C   UNL A   1      35.751  32.217  31.085  1.00  0.00     0.135 A 
ATOM     76  F   UNL A   1      38.324  34.588  30.080  1.00  0.00    -0.206 F 
ATOM     77  C   UNL A   1      36.080  34.421  29.413  1.00  0.00     0.059 A 
ATOM     78  C   UNL A   1      34.675  32.662  30.322  1.00  0.00     0.059 A 
ATOM     79  F   UNL A   1      35.559  31.162  31.892  1.00  0.00    -0.206 F 
ATOM     80  C   UNL A   1      34.847  33.773  29.499  1.00  0.00     0.060 A 
BRANCH  80  81
ATOM     81  S   UNL A   1      33.473  34.403  28.512  1.00  0.00     0.124 S 
ATOM     82  O   UNL A   1      34.138  35.418  27.701  1.00  0.00    -0.237 OA
ATOM     83  O   UNL A   1      33.033  33.211  27.794  1.00  0.00    -0.237 OA
ATOM     84  O   UNL A   1      32.540  34.911  29.511  1.00  0.00    -0.744 OA
ENDBRANCH  80  81
ENDBRANCH  59  73
BRANCH  60  85
ATOM     85  C   UNL A   1      44.929  29.241  35.934  1.00  0.00     0.058 A 
ATOM     86  C   UNL A   1      46.133  29.958  35.909  1.00  0.00     0.135 A 
ATOM     87  C   UNL A   1      44.900  28.042  36.667  1.00  0.00     0.135 A 
ATOM     88  F   UNL A   1      46.217  31.101  35.209  1.00  0.00    -0.206 F 
ATOM     89  C   UNL A   1      47.269  29.503  36.570  1.00  0.00     0.059 A 
ATOM     90  C   UNL A   1      46.015  27.580  37.360  1.00  0.00     0.059 A 
ATOM     91  F   UNL A   1      43.771  27.318  36.728  1.00  0.00    -0.206 F 
ATOM     92  C   UNL A   1      47.199  28.313  37.297  1.00  0.00     0.060 A 
BRANCH  92  93
ATOM     93  S   UNL A   1      48.665  27.758  38.194  1.00  0.00     0.124 S 
ATOM     94  O   UNL A   1      49.658  27.697  37.127  1.00  0.00    -0.237 OA
ATOM     95  O   UNL A   1      48.846  28.826  39.173  1.00  0.00    -0.237 OA
ATOM     96  O   UNL A   1      48.254  26.472  38.748  1.00  0.00    -0.744 OA
ENDBRANCH  92  93
ENDBRANCH  60  85
BRANCH  72  97
ATOM     97  C   UNL A   1      39.622  33.423  37.716  1.00  0.00     0.058 A 
ATOM     98  C   UNL A   1      38.624  32.921  38.565  1.00  0.00     0.135 A 
ATOM     99  C   UNL A   1      40.321  34.568  38.135  1.00  0.00     0.135 A 
ATOM    100  F   UNL A   1      37.921  31.832  38.214  1.00  0.00    -0.206 F 
ATOM    101  C   UNL A   1      38.317  33.540  39.774  1.00  0.00     0.059 A 
ATOM    102  C   UNL A   1      40.052  35.186  39.353  1.00  0.00     0.059 A 
ATOM    103  F   UNL A   1      41.294  35.083  37.368  1.00  0.00    -0.206 F 
ATOM    104  C   UNL A   1      39.040  34.671  40.161  1.00  0.00     0.060 A 
BRANCH 104 105
ATOM    105  S   UNL A   1      38.659  35.442  41.748  1.00  0.00     0.124 S 
ATOM    106  O   UNL A   1      39.767  34.978  42.576  1.00  0.00    -0.237 OA
ATOM    107  O   UNL A   1      38.668  36.864  41.415  1.00  0.00    -0.237 OA
ATOM    108  O   UNL A   1      37.349  34.894  42.089  1.00  0.00    -0.744 OA
ENDBRANCH 104 105
ENDBRANCH  72  97
ENDBRANCH  46  47
ENDBRANCH  39  41
ENDBRANCH  38  39
ENDBRANCH  37  38
ENDBRANCH  36  37
ENDBRANCH  35  36
ENDBRANCH  34  35
ENDBRANCH  33  34
ENDBRANCH  32  33
ENDBRANCH  31  32
ENDBRANCH   1  31
TORSDOF 29
ENDMDL
MODEL 3
REMARK VINA RESULT:      -9.2      6.229     11.082
REMARK SMILES CCCCCCNC(=O)Oc1cccc(-c2ccc([C@@H](C)C(=O)OCCOCCOCCOC(=O)c3ccc(-c4c5nc(c(-c6c(F)cc(S(=O)(=O)[O-])cc6F)c6ccc([nH]6)c(-c6c(F)cc(S(=O)(=O)[O-])cc6F)c6nc(c(-c7c(F)cc(S(=O)(=O)[O-])cc7F)c7ccc4[nH]7)C=C6)C=C5)cc3)cc2F)c1
REMARK SMILES IDX 25 1 24 2 22 3 23 4 20 5 21 6 19 7 16 8 17 9 103 10 18 11
REMARK SMILES IDX 102 12 104 13 15 14 11 15 12 16 105 17 13 18 14 19 10 20
REMARK SMILES IDX 8 21 7 22 9 24 6 25 5 26 4 27 3 28 2 29 1 30 26 31 27 32
REMARK SMILES IDX 28 33 29 34 30 35 31 36 32 37 33 38 34 39 35 40 36 41 37 42
REMARK SMILES IDX 101 43 38 44 100 45 39 46 40 47 41 48 94 49 42 50 99 51
REMARK SMILES IDX 93 52 95 53 43 54 98 55 92 56 91 57 44 59 78 60 57 61 77 62
REMARK SMILES IDX 58 63 61 64 76 65 96 66 59 67 60 68 75 70 97 71 62 72 45 73
REMARK SMILES IDX 46 74 55 75 47 76 48 77 54 78 56 79 49 80 50 81 51 82 52 83
REMARK SMILES IDX 53 84 79 85 80 86 89 87 81 88 82 89 88 90 90 91 83 92 84 93
REMARK SMILES IDX 85 94 86 95 87 96 63 97 64 98 73 99 65 100 66 101 72 102
REMARK SMILES IDX 74 103 67 104 68 105 69 106 70 107 71 108
REMARK H PARENT 7 23 95 58 61 69
REMARK Flexibility Score: inf
ROOT
ATOM      1  C   UNL A   1      44.495  23.164  34.017  1.00  0.00     0.261 C 
ENDROOT
BRANCH   1   2
ATOM      2  O   UNL A   1      45.637  22.295  34.188  1.00  0.00    -0.463 OA
BRANCH   2   3
ATOM      3  C   UNL A   1      46.824  22.906  34.429  1.00  0.00     0.313 C 
ATOM      4  O   UNL A   1      47.042  24.082  34.140  1.00  0.00    -0.252 OA
BRANCH   3   5
ATOM      5  C   UNL A   1      47.905  22.059  35.107  1.00  0.00     0.126 C 
ATOM      6  C   UNL A   1      48.724  21.365  34.019  1.00  0.00     0.025 C 
BRANCH   5   7
ATOM      7  C   UNL A   1      47.568  21.067  36.221  1.00  0.00    -0.031 A 
ATOM      8  C   UNL A   1      47.077  19.184  38.336  1.00  0.00     0.018 A 
ATOM      9  C   UNL A   1      46.047  19.629  37.487  1.00  0.00     0.012 A 
ATOM     10  C   UNL A   1      48.355  19.696  38.092  1.00  0.00     0.131 A 
ATOM     11  C   UNL A   1      46.286  20.546  36.441  1.00  0.00     0.005 A 
ATOM     12  C   UNL A   1      48.603  20.609  37.059  1.00  0.00     0.044 A 
ATOM     13  F   UNL A   1      49.397  19.303  38.842  1.00  0.00    -0.206 F 
BRANCH   8  14
ATOM     14  C   UNL A   1      46.833  18.182  39.397  1.00  0.00    -0.012 A 
ATOM     15  C   UNL A   1      45.361  16.723  40.677  1.00  0.00     0.133 A 
ATOM     16  C   UNL A   1      46.406  16.356  41.521  1.00  0.00     0.047 A 
ATOM     17  C   UNL A   1      45.558  17.630  39.628  1.00  0.00     0.056 A 
ATOM     18  C   UNL A   1      47.673  16.885  41.302  1.00  0.00     0.004 A 
ATOM     19  C   UNL A   1      47.882  17.788  40.252  1.00  0.00     0.009 A 
BRANCH  15  20
ATOM     20  O   UNL A   1      44.080  16.256  41.023  1.00  0.00    -0.410 OA
BRANCH  20  21
ATOM     21  C   UNL A   1      43.505  16.729  42.192  1.00  0.00     0.412 C 
ATOM     22  N   UNL A   1      42.553  15.893  42.709  1.00  0.00    -0.321 N 
ATOM     23  H   UNL A   1      42.194  16.132  43.594  1.00  0.00     0.167 HD
ATOM     24  O   UNL A   1      43.759  17.806  42.731  1.00  0.00    -0.224 OA
BRANCH  22  25
ATOM     25  C   UNL A   1      42.015  14.691  42.096  1.00  0.00     0.119 C 
BRANCH  25  26
ATOM     26  C   UNL A   1      41.291  13.782  43.089  1.00  0.00     0.021 C 
BRANCH  26  27
ATOM     27  C   UNL A   1      41.262  12.295  42.716  1.00  0.00     0.002 C 
BRANCH  27  28
ATOM     28  C   UNL A   1      42.574  11.527  42.917  1.00  0.00    -0.000 C 
BRANCH  28  29
ATOM     29  C   UNL A   1      42.502  10.321  43.858  1.00  0.00    -0.003 C 
ATOM     30  C   UNL A   1      43.564  10.338  44.948  1.00  0.00     0.004 C 
ENDBRANCH  28  29
ENDBRANCH  27  28
ENDBRANCH  26  27
ENDBRANCH  25  26
ENDBRANCH  22  25
ENDBRANCH  20  21
ENDBRANCH  15  20
ENDBRANCH   8  14
ENDBRANCH   5   7
ENDBRANCH   3   5
ENDBRANCH   2   3
ENDBRANCH   1   2
BRANCH   1  31
ATOM     31  C   UNL A   1      43.795  23.053  32.656  1.00  0.00     0.202 C 
BRANCH  31  32
ATOM     32  O   UNL A   1      44.243  23.904  31.610  1.00  0.00    -0.376 OA
BRANCH  32  33
ATOM     33  C   UNL A   1      44.381  23.380  30.293  1.00  0.00     0.188 C 
BRANCH  33  34
ATOM     34  C   UNL A   1      43.209  23.504  29.310  1.00  0.00     0.188 C 
BRANCH  34  35
ATOM     35  O   UNL A   1      42.886  22.308  28.630  1.00  0.00    -0.376 OA
BRANCH  35  36
ATOM     36  C   UNL A   1      42.637  22.436  27.241  1.00  0.00     0.202 C 
BRANCH  36  37
ATOM     37  C   UNL A   1      42.847  23.865  26.728  1.00  0.00     0.261 C 
BRANCH  37  38
ATOM     38  O   UNL A   1      41.668  24.513  26.212  1.00  0.00    -0.460 OA
BRANCH  38  39
ATOM     39  C   UNL A   1      41.728  25.852  26.047  1.00  0.00     0.338 C 
ATOM     40  O   UNL A   1      41.662  26.465  24.986  1.00  0.00    -0.246 OA
BRANCH  39  41
ATOM     41  C   UNL A   1      41.655  26.488  27.377  1.00  0.00     0.060 A 
ATOM     42  C   UNL A   1      40.612  26.136  28.248  1.00  0.00     0.016 A 
ATOM     43  C   UNL A   1      42.616  27.422  27.768  1.00  0.00     0.016 A 
ATOM     44  C   UNL A   1      40.515  26.739  29.503  1.00  0.00     0.010 A 
ATOM     45  C   UNL A   1      42.504  28.040  29.016  1.00  0.00     0.010 A 
ATOM     46  C   UNL A   1      41.439  27.724  29.878  1.00  0.00    -0.014 A 
BRANCH  46  47
ATOM     47  C   UNL A   1      41.204  28.558  31.084  1.00  0.00     0.031 A 
ATOM     48  C   UNL A   1      40.110  29.590  31.034  1.00  0.00     0.074 A 
ATOM     49  C   UNL A   1      41.955  28.423  32.192  1.00  0.00     0.049 A 
ATOM     50  N   UNL A   1      39.788  30.504  31.912  1.00  0.00    -0.248 NA
ATOM     51  C   UNL A   1      39.269  29.594  29.826  1.00  0.00     0.031 C 
ATOM     52  C   UNL A   1      43.019  27.439  32.379  1.00  0.00     0.029 A 
ATOM     53  N   UNL A   1      41.945  29.136  33.366  1.00  0.00    -0.354 N 
ATOM     54  C   UNL A   1      38.721  31.201  31.358  1.00  0.00     0.074 A 
ATOM     55  C   UNL A   1      38.464  30.619  30.058  1.00  0.00     0.031 C 
ATOM     56  C   UNL A   1      43.577  27.626  33.588  1.00  0.00     0.029 A 
ATOM     57  C   UNL A   1      42.935  28.765  34.245  1.00  0.00     0.049 A 
ATOM     58  H   UNL A   1      41.291  29.846  33.560  1.00  0.00     0.167 HD
ATOM     59  C   UNL A   1      38.016  32.230  31.885  1.00  0.00     0.037 A 
ATOM     60  C   UNL A   1      43.301  29.302  35.428  1.00  0.00     0.037 A 
ATOM     61  C   UNL A   1      38.276  32.806  33.179  1.00  0.00     0.049 A 
ATOM     62  C   UNL A   1      42.542  30.489  35.969  1.00  0.00     0.074 A 
ATOM     63  C   UNL A   1      37.603  33.836  33.811  1.00  0.00     0.029 A 
ATOM     64  N   UNL A   1      39.293  32.409  34.034  1.00  0.00    -0.354 N 
ATOM     65  N   UNL A   1      41.520  31.127  35.446  1.00  0.00    -0.248 NA
ATOM     66  C   UNL A   1      42.986  31.032  37.262  1.00  0.00     0.031 C 
ATOM     67  C   UNL A   1      38.246  34.098  35.025  1.00  0.00     0.029 A 
ATOM     68  C   UNL A   1      39.282  33.191  35.178  1.00  0.00     0.049 A 
ATOM     69  H   UNL A   1      39.929  31.678  33.856  1.00  0.00     0.167 HD
ATOM     70  C   UNL A   1      41.183  32.122  36.358  1.00  0.00     0.074 A 
ATOM     71  C   UNL A   1      42.102  31.998  37.470  1.00  0.00     0.031 C 
ATOM     72  C   UNL A   1      40.197  33.053  36.284  1.00  0.00     0.037 A 
BRANCH  59  73
ATOM     73  C   UNL A   1      36.914  32.821  31.051  1.00  0.00     0.058 A 
ATOM     74  C   UNL A   1      37.176  33.723  30.008  1.00  0.00     0.135 A 
ATOM     75  C   UNL A   1      35.578  32.451  31.277  1.00  0.00     0.135 A 
ATOM     76  F   UNL A   1      38.433  34.126  29.762  1.00  0.00    -0.206 F 
ATOM     77  C   UNL A   1      36.151  34.254  29.231  1.00  0.00     0.059 A 
ATOM     78  C   UNL A   1      34.540  32.949  30.495  1.00  0.00     0.059 A 
ATOM     79  F   UNL A   1      35.271  31.596  32.265  1.00  0.00    -0.206 F 
ATOM     80  C   UNL A   1      34.835  33.859  29.483  1.00  0.00     0.060 A 
BRANCH  80  81
ATOM     81  S   UNL A   1      33.519  34.552  28.460  1.00  0.00     0.124 S 
ATOM     82  O   UNL A   1      34.245  35.561  27.695  1.00  0.00    -0.237 OA
ATOM     83  O   UNL A   1      33.069  33.389  27.702  1.00  0.00    -0.237 OA
ATOM     84  O   UNL A   1      32.566  35.070  29.435  1.00  0.00    -0.744 OA
ENDBRANCH  80  81
ENDBRANCH  59  73
BRANCH  60  85
ATOM     85  C   UNL A   1      44.456  28.737  36.177  1.00  0.00     0.058 A 
ATOM     86  C   UNL A   1      44.292  27.668  37.068  1.00  0.00     0.135 A 
ATOM     87  C   UNL A   1      45.750  29.263  36.020  1.00  0.00     0.135 A 
ATOM     88  F   UNL A   1      43.074  27.142  37.267  1.00  0.00    -0.206 F 
ATOM     89  C   UNL A   1      45.363  27.145  37.787  1.00  0.00     0.059 A 
ATOM     90  C   UNL A   1      46.842  28.738  36.706  1.00  0.00     0.059 A 
ATOM     91  F   UNL A   1      45.963  30.284  35.176  1.00  0.00    -0.206 F 
ATOM     92  C   UNL A   1      46.636  27.685  37.595  1.00  0.00     0.060 A 
BRANCH  92  93
ATOM     93  S   UNL A   1      48.027  26.964  38.494  1.00  0.00     0.124 S 
ATOM     94  O   UNL A   1      47.433  25.743  39.028  1.00  0.00    -0.237 OA
ATOM     95  O   UNL A   1      49.014  26.783  37.435  1.00  0.00    -0.237 OA
ATOM     96  O   UNL A   1      48.356  27.988  39.481  1.00  0.00    -0.744 OA
ENDBRANCH  92  93
ENDBRANCH  60  85
BRANCH  72  97
ATOM     97  C   UNL A   1      40.025  33.988  37.451  1.00  0.00     0.058 A 
ATOM     98  C   UNL A   1      40.603  35.267  37.468  1.00  0.00     0.135 A 
ATOM     99  C   UNL A   1      39.213  33.623  38.538  1.00  0.00     0.135 A 
ATOM    100  F   UNL A   1      41.391  35.667  36.458  1.00  0.00    -0.206 F 
ATOM    101  C   UNL A   1      40.400  36.143  38.532  1.00  0.00     0.059 A 
ATOM    102  C   UNL A   1      38.972  34.493  39.598  1.00  0.00     0.059 A 
ATOM    103  F   UNL A   1      38.625  32.417  38.567  1.00  0.00    -0.206 F 
ATOM    104  C   UNL A   1      39.579  35.748  39.590  1.00  0.00     0.060 A 
BRANCH 104 105
ATOM    105  S   UNL A   1      39.292  36.908  40.944  1.00  0.00     0.124 S 
ATOM    106  O   UNL A   1      38.678  38.031  40.245  1.00  0.00    -0.237 OA
ATOM    107  O   UNL A   1      38.409  36.148  41.824  1.00  0.00    -0.237 OA
ATOM    108  O   UNL A   1      40.631  37.153  41.472  1.00  0.00    -0.744 OA
ENDBRANCH 104 105
ENDBRANCH  72  97
ENDBRANCH  46  47
ENDBRANCH  39  41
ENDBRANCH  38  39
ENDBRANCH  37  38
ENDBRANCH  36  37
ENDBRANCH  35  36
ENDBRANCH  34  35
ENDBRANCH  33  34
ENDBRANCH  32  33
ENDBRANCH  31  32
ENDBRANCH   1  31
TORSDOF 29
ENDMDL
