MODEL 1
REMARK VINA RESULT:      -9.3      0.000      0.000
REMARK SMILES [NH3+][C@@H](Cc1ccc(F)cc1C(F)(F)F)C(=O)OCCOCCOCCOC(=O)c1ccc(-c2c3nc(c(-c4c(F)cc(S(=O)(=O)[O-])cc4F)c4ccc([nH]4)c(-c4c(F)cc(S(=O)(=O)[O-])cc4F)c4nc(c(-c5c(F)cc(S(=O)(=O)[O-])cc5F)c5ccc2[nH]5)C=C4)C=C3)cc1
REMARK SMILES IDX 21 1 20 2 19 3 18 4 17 5 15 6 16 7 2 8 1 9 3 13 4 14 5 15
REMARK SMILES IDX 10 16 6 17 9 18 7 19 8 20 11 21 12 22 13 23 14 24 22 25
REMARK SMILES IDX 23 26 24 27 25 28 26 29 27 30 28 31 29 32 30 33 94 34 31 35
REMARK SMILES IDX 93 36 32 37 33 38 34 39 87 40 35 41 92 42 86 43 88 44 36 45
REMARK SMILES IDX 91 46 85 47 84 48 37 50 71 51 50 52 70 53 51 54 54 55 69 56
REMARK SMILES IDX 89 57 52 58 53 59 68 61 90 62 55 63 38 64 39 65 48 66 40 67
REMARK SMILES IDX 41 68 47 69 49 70 42 71 43 72 44 73 45 74 46 75 72 76 73 77
REMARK SMILES IDX 82 78 74 79 75 80 81 81 83 82 76 83 77 84 78 85 79 86 80 87
REMARK SMILES IDX 56 88 57 89 66 90 58 91 59 92 65 93 67 94 60 95 61 96 62 97
REMARK SMILES IDX 63 98 64 99
REMARK H PARENT 1 10 1 11 1 12 88 49 54 60
REMARK Flexibility Score: inf
ROOT
ATOM      1  C   UNL A   1      35.120  24.617  25.048  1.00  0.00     0.188 C 
ENDROOT
BRANCH   1   2
ATOM      2  O   UNL A   1      33.767  24.876  24.676  1.00  0.00    -0.376 OA
BRANCH   2   3
ATOM      3  C   UNL A   1      32.912  25.525  25.603  1.00  0.00     0.202 C 
BRANCH   3   4
ATOM      4  C   UNL A   1      31.895  24.661  26.355  1.00  0.00     0.261 C 
BRANCH   4   5
ATOM      5  O   UNL A   1      32.147  23.248  26.273  1.00  0.00    -0.459 OA
BRANCH   5   6
ATOM      6  C   UNL A   1      31.224  22.517  25.585  1.00  0.00     0.365 C 
ATOM      7  O   UNL A   1      30.140  22.165  26.038  1.00  0.00    -0.245 OA
BRANCH   6   8
ATOM      8  C   UNL A   1      31.720  22.051  24.204  1.00  0.00     0.296 C 
BRANCH   8   9
ATOM      9  N   UNL A   1      31.458  23.003  23.104  1.00  0.00    -0.346 N 
ATOM     10  H   UNL A   1      31.907  23.895  23.311  1.00  0.00     0.345 HD
ATOM     11  H   UNL A   1      30.452  23.144  23.008  1.00  0.00     0.345 HD
ATOM     12  H   UNL A   1      31.833  22.627  22.233  1.00  0.00     0.345 HD
ENDBRANCH   8   9
BRANCH   8  13
ATOM     13  C   UNL A   1      33.199  21.628  24.280  1.00  0.00     0.113 C 
BRANCH  13  14
ATOM     14  C   UNL A   1      33.469  20.131  24.236  1.00  0.00    -0.029 A 
ATOM     15  C   UNL A   1      32.374  19.306  23.891  1.00  0.00     0.007 A 
ATOM     16  C   UNL A   1      34.714  19.525  24.532  1.00  0.00     0.062 A 
ATOM     17  C   UNL A   1      32.494  17.919  23.848  1.00  0.00     0.039 A 
ATOM     18  C   UNL A   1      34.806  18.117  24.494  1.00  0.00     0.052 A 
ATOM     19  C   UNL A   1      33.710  17.336  24.152  1.00  0.00     0.123 A 
ATOM     20  F   UNL A   1      33.834  16.003  24.119  1.00  0.00    -0.207 F 
BRANCH  16  21
ATOM     21  C   UNL A   1      35.965  20.266  24.957  1.00  0.00     0.416 C 
ATOM     22  F   UNL A   1      35.819  20.819  26.193  1.00  0.00    -0.166 F 
ATOM     23  F   UNL A   1      37.058  19.455  25.040  1.00  0.00    -0.166 F 
ATOM     24  F   UNL A   1      36.333  21.286  24.137  1.00  0.00    -0.166 F 
ENDBRANCH  16  21
ENDBRANCH  13  14
ENDBRANCH   8  13
ENDBRANCH   6   8
ENDBRANCH   5   6
ENDBRANCH   4   5
ENDBRANCH   3   4
ENDBRANCH   2   3
ENDBRANCH   1   2
BRANCH   1  25
ATOM     25  C   UNL A   1      35.409  23.737  26.281  1.00  0.00     0.188 C 
BRANCH  25  26
ATOM     26  O   UNL A   1      36.747  23.831  26.744  1.00  0.00    -0.376 OA
BRANCH  26  27
ATOM     27  C   UNL A   1      37.750  23.724  25.754  1.00  0.00     0.202 C 
BRANCH  27  28
ATOM     28  C   UNL A   1      39.101  23.250  26.300  1.00  0.00     0.261 C 
BRANCH  28  29
ATOM     29  O   UNL A   1      40.165  24.218  26.241  1.00  0.00    -0.460 OA
BRANCH  29  30
ATOM     30  C   UNL A   1      41.177  24.091  27.130  1.00  0.00     0.338 C 
ATOM     31  O   UNL A   1      42.065  23.255  27.109  1.00  0.00    -0.246 OA
BRANCH  30  32
ATOM     32  C   UNL A   1      41.126  25.257  28.042  1.00  0.00     0.060 A 
ATOM     33  C   UNL A   1      42.277  26.032  28.241  1.00  0.00     0.016 A 
ATOM     34  C   UNL A   1      39.930  25.610  28.671  1.00  0.00     0.016 A 
ATOM     35  C   UNL A   1      42.230  27.169  29.060  1.00  0.00     0.010 A 
ATOM     36  C   UNL A   1      39.892  26.730  29.509  1.00  0.00     0.010 A 
ATOM     37  C   UNL A   1      41.041  27.516  29.714  1.00  0.00    -0.014 A 
BRANCH  37  38
ATOM     38  C   UNL A   1      40.986  28.635  30.693  1.00  0.00     0.031 A 
ATOM     39  C   UNL A   1      41.860  28.573  31.915  1.00  0.00     0.074 A 
ATOM     40  C   UNL A   1      40.122  29.658  30.538  1.00  0.00     0.049 A 
ATOM     41  N   UNL A   1      41.832  29.318  32.990  1.00  0.00    -0.248 NA
ATOM     42  C   UNL A   1      42.902  27.534  31.929  1.00  0.00     0.031 C 
ATOM     43  C   UNL A   1      39.256  29.865  29.378  1.00  0.00     0.029 A 
ATOM     44  N   UNL A   1      39.807  30.700  31.382  1.00  0.00    -0.354 N 
ATOM     45  C   UNL A   1      42.835  28.826  33.816  1.00  0.00     0.074 A 
ATOM     46  C   UNL A   1      43.454  27.719  33.120  1.00  0.00     0.031 C 
ATOM     47  C   UNL A   1      38.480  30.941  29.600  1.00  0.00     0.029 A 
ATOM     48  C   UNL A   1      38.756  31.470  30.936  1.00  0.00     0.049 A 
ATOM     49  H   UNL A   1      40.288  30.876  32.222  1.00  0.00     0.167 HD
ATOM     50  C   UNL A   1      43.200  29.258  35.045  1.00  0.00     0.037 A 
ATOM     51  C   UNL A   1      38.063  32.451  31.553  1.00  0.00     0.037 A 
ATOM     52  C   UNL A   1      42.590  30.368  35.729  1.00  0.00     0.049 A 
ATOM     53  C   UNL A   1      38.433  32.858  32.960  1.00  0.00     0.074 A 
ATOM     54  C   UNL A   1      42.925  30.898  36.964  1.00  0.00     0.029 A 
ATOM     55  N   UNL A   1      41.523  31.111  35.251  1.00  0.00    -0.354 N 
ATOM     56  N   UNL A   1      39.396  32.401  33.722  1.00  0.00    -0.248 NA
ATOM     57  C   UNL A   1      37.614  33.903  33.598  1.00  0.00     0.031 C 
ATOM     58  C   UNL A   1      42.023  31.922  37.258  1.00  0.00     0.029 A 
ATOM     59  C   UNL A   1      41.164  32.069  36.182  1.00  0.00     0.049 A 
ATOM     60  H   UNL A   1      41.085  30.976  34.380  1.00  0.00     0.167 HD
ATOM     61  C   UNL A   1      39.313  33.114  34.916  1.00  0.00     0.074 A 
ATOM     62  C   UNL A   1      38.212  34.041  34.774  1.00  0.00     0.031 C 
ATOM     63  C   UNL A   1      40.078  33.004  36.028  1.00  0.00     0.037 A 
BRANCH  50  64
ATOM     64  C   UNL A   1      44.303  28.535  35.763  1.00  0.00     0.058 A 
ATOM     65  C   UNL A   1      45.644  28.846  35.488  1.00  0.00     0.135 A 
ATOM     66  C   UNL A   1      44.038  27.448  36.607  1.00  0.00     0.135 A 
ATOM     67  F   UNL A   1      45.949  29.884  34.693  1.00  0.00    -0.206 F 
ATOM     68  C   UNL A   1      46.685  28.076  35.991  1.00  0.00     0.059 A 
ATOM     69  C   UNL A   1      45.066  26.674  37.141  1.00  0.00     0.059 A 
ATOM     70  F   UNL A   1      42.773  27.125  36.918  1.00  0.00    -0.206 F 
ATOM     71  C   UNL A   1      46.386  26.983  36.805  1.00  0.00     0.060 A 
BRANCH  71  72
ATOM     72  S   UNL A   1      47.748  25.968  37.416  1.00  0.00     0.124 S 
ATOM     73  O   UNL A   1      47.748  24.861  36.467  1.00  0.00    -0.237 OA
ATOM     74  O   UNL A   1      48.878  26.888  37.321  1.00  0.00    -0.237 OA
ATOM     75  O   UNL A   1      47.338  25.631  38.776  1.00  0.00    -0.744 OA
ENDBRANCH  71  72
ENDBRANCH  50  64
BRANCH  51  76
ATOM     76  C   UNL A   1      36.900  33.086  30.870  1.00  0.00     0.058 A 
ATOM     77  C   UNL A   1      37.087  34.053  29.868  1.00  0.00     0.135 A 
ATOM     78  C   UNL A   1      35.582  32.725  31.186  1.00  0.00     0.135 A 
ATOM     79  F   UNL A   1      38.327  34.433  29.522  1.00  0.00    -0.206 F 
ATOM     80  C   UNL A   1      36.011  34.652  29.221  1.00  0.00     0.059 A 
ATOM     81  C   UNL A   1      34.489  33.290  30.531  1.00  0.00     0.059 A 
ATOM     82  F   UNL A   1      35.349  31.788  32.117  1.00  0.00    -0.206 F 
ATOM     83  C   UNL A   1      34.715  34.263  29.559  1.00  0.00     0.060 A 
BRANCH  83  84
ATOM     84  S   UNL A   1      33.333  35.035  28.688  1.00  0.00     0.124 S 
ATOM     85  O   UNL A   1      34.024  36.001  27.840  1.00  0.00    -0.237 OA
ATOM     86  O   UNL A   1      32.732  33.899  27.997  1.00  0.00    -0.237 OA
ATOM     87  O   UNL A   1      32.532  35.606  29.766  1.00  0.00    -0.744 OA
ENDBRANCH  83  84
ENDBRANCH  51  76
BRANCH  63  88
ATOM     88  C   UNL A   1      39.792  33.913  37.194  1.00  0.00     0.058 A 
ATOM     89  C   UNL A   1      40.501  35.117  37.346  1.00  0.00     0.135 A 
ATOM     90  C   UNL A   1      38.929  33.526  38.230  1.00  0.00     0.135 A 
ATOM     91  F   UNL A   1      41.345  35.530  36.387  1.00  0.00    -0.206 F 
ATOM     92  C   UNL A   1      40.396  35.882  38.502  1.00  0.00     0.059 A 
ATOM     93  C   UNL A   1      38.789  34.290  39.386  1.00  0.00     0.059 A 
ATOM     94  F   UNL A   1      38.220  32.391  38.128  1.00  0.00    -0.206 F 
ATOM     95  C   UNL A   1      39.546  35.453  39.523  1.00  0.00     0.060 A 
BRANCH  95  96
ATOM     96  S   UNL A   1      39.459  36.436  41.036  1.00  0.00     0.124 S 
ATOM     97  O   UNL A   1      38.961  35.460  41.999  1.00  0.00    -0.237 OA
ATOM     98  O   UNL A   1      40.847  36.851  41.213  1.00  0.00    -0.237 OA
ATOM     99  O   UNL A   1      38.530  37.508  40.692  1.00  0.00    -0.744 OA
ENDBRANCH  95  96
ENDBRANCH  63  88
ENDBRANCH  37  38
ENDBRANCH  30  32
ENDBRANCH  29  30
ENDBRANCH  28  29
ENDBRANCH  27  28
ENDBRANCH  26  27
ENDBRANCH  25  26
ENDBRANCH   1  25
TORSDOF 24
ENDMDL
MODEL 2
REMARK VINA RESULT:      -8.7      9.280     16.078
REMARK SMILES [NH3+][C@@H](Cc1ccc(F)cc1C(F)(F)F)C(=O)OCCOCCOCCOC(=O)c1ccc(-c2c3nc(c(-c4c(F)cc(S(=O)(=O)[O-])cc4F)c4ccc([nH]4)c(-c4c(F)cc(S(=O)(=O)[O-])cc4F)c4nc(c(-c5c(F)cc(S(=O)(=O)[O-])cc5F)c5ccc2[nH]5)C=C4)C=C3)cc1
REMARK SMILES IDX 21 1 20 2 19 3 18 4 17 5 15 6 16 7 2 8 1 9 3 13 4 14 5 15
REMARK SMILES IDX 10 16 6 17 9 18 7 19 8 20 11 21 12 22 13 23 14 24 22 25
REMARK SMILES IDX 23 26 24 27 25 28 26 29 27 30 28 31 29 32 30 33 94 34 31 35
REMARK SMILES IDX 93 36 32 37 33 38 34 39 87 40 35 41 92 42 86 43 88 44 36 45
REMARK SMILES IDX 91 46 85 47 84 48 37 50 71 51 50 52 70 53 51 54 54 55 69 56
REMARK SMILES IDX 89 57 52 58 53 59 68 61 90 62 55 63 38 64 39 65 48 66 40 67
REMARK SMILES IDX 41 68 47 69 49 70 42 71 43 72 44 73 45 74 46 75 72 76 73 77
REMARK SMILES IDX 82 78 74 79 75 80 81 81 83 82 76 83 77 84 78 85 79 86 80 87
REMARK SMILES IDX 56 88 57 89 66 90 58 91 59 92 65 93 67 94 60 95 61 96 62 97
REMARK SMILES IDX 63 98 64 99
REMARK H PARENT 1 10 1 11 1 12 88 49 54 60
REMARK Flexibility Score: inf
ROOT
ATOM      1  C   UNL A   1      45.218  39.697  26.013  1.00  0.00     0.188 C 
ENDROOT
BRANCH   1   2
ATOM      2  O   UNL A   1      44.125  39.107  26.716  1.00  0.00    -0.376 OA
BRANCH   2   3
ATOM      3  C   UNL A   1      42.856  39.738  26.666  1.00  0.00     0.202 C 
BRANCH   3   4
ATOM      4  C   UNL A   1      42.816  41.225  26.301  1.00  0.00     0.261 C 
BRANCH   4   5
ATOM      5  O   UNL A   1      42.388  41.489  24.954  1.00  0.00    -0.459 OA
BRANCH   5   6
ATOM      6  C   UNL A   1      43.163  42.356  24.241  1.00  0.00     0.365 C 
ATOM      7  O   UNL A   1      44.253  42.778  24.613  1.00  0.00    -0.245 OA
BRANCH   6   8
ATOM      8  C   UNL A   1      42.484  42.871  22.960  1.00  0.00     0.296 C 
BRANCH   8   9
ATOM      9  N   UNL A   1      41.565  44.011  23.168  1.00  0.00    -0.346 N 
ATOM     10  H   UNL A   1      40.618  43.737  22.907  1.00  0.00     0.345 HD
ATOM     11  H   UNL A   1      41.863  44.797  22.589  1.00  0.00     0.345 HD
ATOM     12  H   UNL A   1      41.581  44.286  24.149  1.00  0.00     0.345 HD
ENDBRANCH   8   9
BRANCH   8  13
ATOM     13  C   UNL A   1      43.536  43.152  21.870  1.00  0.00     0.113 C 
BRANCH  13  14
ATOM     14  C   UNL A   1      43.005  43.704  20.556  1.00  0.00    -0.029 A 
ATOM     15  C   UNL A   1      41.690  43.324  20.200  1.00  0.00     0.007 A 
ATOM     16  C   UNL A   1      43.735  44.539  19.676  1.00  0.00     0.062 A 
ATOM     17  C   UNL A   1      41.110  43.743  19.006  1.00  0.00     0.039 A 
ATOM     18  C   UNL A   1      43.129  44.940  18.465  1.00  0.00     0.052 A 
ATOM     19  C   UNL A   1      41.836  44.547  18.147  1.00  0.00     0.123 A 
ATOM     20  F   UNL A   1      41.289  44.951  16.993  1.00  0.00    -0.207 F 
BRANCH  16  21
ATOM     21  C   UNL A   1      45.162  44.998  19.893  1.00  0.00     0.416 C 
ATOM     22  F   UNL A   1      45.224  46.031  20.778  1.00  0.00    -0.166 F 
ATOM     23  F   UNL A   1      45.960  44.020  20.409  1.00  0.00    -0.166 F 
ATOM     24  F   UNL A   1      45.801  45.433  18.774  1.00  0.00    -0.166 F 
ENDBRANCH  16  21
ENDBRANCH  13  14
ENDBRANCH   8  13
ENDBRANCH   6   8
ENDBRANCH   5   6
ENDBRANCH   4   5
ENDBRANCH   3   4
ENDBRANCH   2   3
ENDBRANCH   1   2
BRANCH   1  25
ATOM     25  C   UNL A   1      46.497  40.075  26.787  1.00  0.00     0.188 C 
BRANCH  25  26
ATOM     26  O   UNL A   1      47.661  39.416  26.314  1.00  0.00    -0.376 OA
BRANCH  26  27
ATOM     27  C   UNL A   1      47.921  38.146  26.876  1.00  0.00     0.202 C 
BRANCH  27  28
ATOM     28  C   UNL A   1      48.776  38.202  28.146  1.00  0.00     0.261 C 
BRANCH  28  29
ATOM     29  O   UNL A   1      49.156  36.925  28.691  1.00  0.00    -0.460 OA
BRANCH  29  30
ATOM     30  C   UNL A   1      48.618  36.565  29.879  1.00  0.00     0.338 C 
ATOM     31  O   UNL A   1      48.429  37.288  30.842  1.00  0.00    -0.246 OA
BRANCH  30  32
ATOM     32  C   UNL A   1      48.132  35.171  29.750  1.00  0.00     0.060 A 
ATOM     33  C   UNL A   1      47.617  34.729  28.523  1.00  0.00     0.016 A 
ATOM     34  C   UNL A   1      48.220  34.289  30.829  1.00  0.00     0.016 A 
ATOM     35  C   UNL A   1      47.203  33.398  28.370  1.00  0.00     0.010 A 
ATOM     36  C   UNL A   1      47.780  32.969  30.681  1.00  0.00     0.010 A 
ATOM     37  C   UNL A   1      47.264  32.513  29.454  1.00  0.00    -0.014 A 
BRANCH  37  38
ATOM     38  C   UNL A   1      46.711  31.135  29.370  1.00  0.00     0.031 A 
ATOM     39  C   UNL A   1      47.576  30.040  28.808  1.00  0.00     0.074 A 
ATOM     40  C   UNL A   1      45.437  30.869  29.720  1.00  0.00     0.049 A 
ATOM     41  N   UNL A   1      47.245  28.826  28.452  1.00  0.00    -0.248 NA
ATOM     42  C   UNL A   1      49.002  30.356  28.622  1.00  0.00     0.031 C 
ATOM     43  C   UNL A   1      44.510  31.825  30.323  1.00  0.00     0.029 A 
ATOM     44  N   UNL A   1      44.693  29.719  29.584  1.00  0.00    -0.354 N 
ATOM     45  C   UNL A   1      48.413  28.240  27.979  1.00  0.00     0.074 A 
ATOM     46  C   UNL A   1      49.462  29.230  28.093  1.00  0.00     0.031 C 
ATOM     47  C   UNL A   1      43.309  31.236  30.468  1.00  0.00     0.029 A 
ATOM     48  C   UNL A   1      43.367  29.878  29.923  1.00  0.00     0.049 A 
ATOM     49  H   UNL A   1      45.072  28.865  29.275  1.00  0.00     0.167 HD
ATOM     50  C   UNL A   1      48.589  26.991  27.491  1.00  0.00     0.037 A 
ATOM     51  C   UNL A   1      42.314  29.049  29.763  1.00  0.00     0.037 A 
ATOM     52  C   UNL A   1      47.546  26.004  27.391  1.00  0.00     0.049 A 
ATOM     53  C   UNL A   1      42.519  27.690  29.136  1.00  0.00     0.074 A 
ATOM     54  C   UNL A   1      47.647  24.698  26.942  1.00  0.00     0.029 A 
ATOM     55  N   UNL A   1      46.219  26.209  27.731  1.00  0.00    -0.354 N 
ATOM     56  N   UNL A   1      43.631  27.139  28.713  1.00  0.00    -0.248 NA
ATOM     57  C   UNL A   1      41.328  26.846  28.948  1.00  0.00     0.031 C 
ATOM     58  C   UNL A   1      46.370  24.132  26.955  1.00  0.00     0.029 A 
ATOM     59  C   UNL A   1      45.485  25.066  27.467  1.00  0.00     0.049 A 
ATOM     60  H   UNL A   1      45.853  27.043  28.103  1.00  0.00     0.167 HD
ATOM     61  C   UNL A   1      43.277  25.881  28.231  1.00  0.00     0.074 A 
ATOM     62  C   UNL A   1      41.850  25.745  28.422  1.00  0.00     0.031 C 
ATOM     63  C   UNL A   1      44.066  24.929  27.677  1.00  0.00     0.037 A 
BRANCH  50  64
ATOM     64  C   UNL A   1      49.953  26.595  27.004  1.00  0.00     0.058 A 
ATOM     65  C   UNL A   1      50.289  26.747  25.649  1.00  0.00     0.135 A 
ATOM     66  C   UNL A   1      50.867  25.938  27.840  1.00  0.00     0.135 A 
ATOM     67  F   UNL A   1      49.451  27.377  24.811  1.00  0.00    -0.206 F 
ATOM     68  C   UNL A   1      51.467  26.222  25.131  1.00  0.00     0.059 A 
ATOM     69  C   UNL A   1      52.063  25.423  27.347  1.00  0.00     0.059 A 
ATOM     70  F   UNL A   1      50.601  25.788  29.147  1.00  0.00    -0.206 F 
ATOM     71  C   UNL A   1      52.341  25.549  25.985  1.00  0.00     0.060 A 
BRANCH  71  72
ATOM     72  S   UNL A   1      53.846  24.837  25.286  1.00  0.00     0.124 S 
ATOM     73  O   UNL A   1      54.811  25.062  26.356  1.00  0.00    -0.237 OA
ATOM     74  O   UNL A   1      53.451  23.449  25.066  1.00  0.00    -0.237 OA
ATOM     75  O   UNL A   1      54.059  25.619  24.072  1.00  0.00    -0.744 OA
ENDBRANCH  71  72
ENDBRANCH  50  64
BRANCH  51  76
ATOM     76  C   UNL A   1      40.945  29.496  30.151  1.00  0.00     0.058 A 
ATOM     77  C   UNL A   1      39.996  29.851  29.178  1.00  0.00     0.135 A 
ATOM     78  C   UNL A   1      40.551  29.555  31.496  1.00  0.00     0.135 A 
ATOM     79  F   UNL A   1      40.317  29.808  27.876  1.00  0.00    -0.206 F 
ATOM     80  C   UNL A   1      38.715  30.267  29.526  1.00  0.00     0.059 A 
ATOM     81  C   UNL A   1      39.264  29.940  31.867  1.00  0.00     0.059 A 
ATOM     82  F   UNL A   1      41.411  29.201  32.462  1.00  0.00    -0.206 F 
ATOM     83  C   UNL A   1      38.357  30.308  30.873  1.00  0.00     0.060 A 
BRANCH  83  84
ATOM     84  S   UNL A   1      36.681  30.827  31.301  1.00  0.00     0.124 S 
ATOM     85  O   UNL A   1      36.324  29.850  32.324  1.00  0.00    -0.237 OA
ATOM     86  O   UNL A   1      36.893  32.192  31.773  1.00  0.00    -0.237 OA
ATOM     87  O   UNL A   1      35.959  30.708  30.038  1.00  0.00    -0.744 OA
ENDBRANCH  83  84
ENDBRANCH  51  76
BRANCH  63  88
ATOM     88  C   UNL A   1      43.436  23.632  27.246  1.00  0.00     0.058 A 
ATOM     89  C   UNL A   1      43.061  22.672  28.203  1.00  0.00     0.135 A 
ATOM     90  C   UNL A   1      43.339  23.278  25.892  1.00  0.00     0.135 A 
ATOM     91  F   UNL A   1      43.141  22.956  29.513  1.00  0.00    -0.206 F 
ATOM     92  C   UNL A   1      42.654  21.395  27.831  1.00  0.00     0.059 A 
ATOM     93  C   UNL A   1      42.909  22.014  25.497  1.00  0.00     0.059 A 
ATOM     94  F   UNL A   1      43.673  24.162  24.939  1.00  0.00    -0.206 F 
ATOM     95  C   UNL A   1      42.593  21.071  26.476  1.00  0.00     0.060 A 
BRANCH  95  96
ATOM     96  S   UNL A   1      42.107  19.394  26.016  1.00  0.00     0.124 S 
ATOM     97  O   UNL A   1      40.654  19.510  25.946  1.00  0.00    -0.237 OA
ATOM     98  O   UNL A   1      42.791  19.215  24.739  1.00  0.00    -0.237 OA
ATOM     99  O   UNL A   1      42.619  18.578  27.113  1.00  0.00    -0.744 OA
ENDBRANCH  95  96
ENDBRANCH  63  88
ENDBRANCH  37  38
ENDBRANCH  30  32
ENDBRANCH  29  30
ENDBRANCH  28  29
ENDBRANCH  27  28
ENDBRANCH  26  27
ENDBRANCH  25  26
ENDBRANCH   1  25
TORSDOF 24
ENDMDL
MODEL 3
REMARK VINA RESULT:      -8.7      5.117     11.157
REMARK SMILES [NH3+][C@@H](Cc1ccc(F)cc1C(F)(F)F)C(=O)OCCOCCOCCOC(=O)c1ccc(-c2c3nc(c(-c4c(F)cc(S(=O)(=O)[O-])cc4F)c4ccc([nH]4)c(-c4c(F)cc(S(=O)(=O)[O-])cc4F)c4nc(c(-c5c(F)cc(S(=O)(=O)[O-])cc5F)c5ccc2[nH]5)C=C4)C=C3)cc1
REMARK SMILES IDX 21 1 20 2 19 3 18 4 17 5 15 6 16 7 2 8 1 9 3 13 4 14 5 15
REMARK SMILES IDX 10 16 6 17 9 18 7 19 8 20 11 21 12 22 13 23 14 24 22 25
REMARK SMILES IDX 23 26 24 27 25 28 26 29 27 30 28 31 29 32 30 33 94 34 31 35
REMARK SMILES IDX 93 36 32 37 33 38 34 39 87 40 35 41 92 42 86 43 88 44 36 45
REMARK SMILES IDX 91 46 85 47 84 48 37 50 71 51 50 52 70 53 51 54 54 55 69 56
REMARK SMILES IDX 89 57 52 58 53 59 68 61 90 62 55 63 38 64 39 65 48 66 40 67
REMARK SMILES IDX 41 68 47 69 49 70 42 71 43 72 44 73 45 74 46 75 72 76 73 77
REMARK SMILES IDX 82 78 74 79 75 80 81 81 83 82 76 83 77 84 78 85 79 86 80 87
REMARK SMILES IDX 56 88 57 89 66 90 58 91 59 92 65 93 67 94 60 95 61 96 62 97
REMARK SMILES IDX 63 98 64 99
REMARK H PARENT 1 10 1 11 1 12 88 49 54 60
REMARK Flexibility Score: inf
ROOT
ATOM      1  C   UNL A   1      44.409  23.989  28.985  1.00  0.00     0.188 C 
ENDROOT
BRANCH   1   2
ATOM      2  O   UNL A   1      45.445  23.142  28.488  1.00  0.00    -0.376 OA
BRANCH   2   3
ATOM      3  C   UNL A   1      46.001  23.414  27.212  1.00  0.00     0.202 C 
BRANCH   3   4
ATOM      4  C   UNL A   1      46.746  24.740  27.031  1.00  0.00     0.261 C 
BRANCH   4   5
ATOM      5  O   UNL A   1      45.972  25.767  26.389  1.00  0.00    -0.459 OA
BRANCH   5   6
ATOM      6  C   UNL A   1      46.202  25.941  25.055  1.00  0.00     0.365 C 
ATOM      7  O   UNL A   1      46.591  25.058  24.298  1.00  0.00    -0.245 OA
BRANCH   6   8
ATOM      8  C   UNL A   1      46.053  27.401  24.595  1.00  0.00     0.296 C 
BRANCH   8   9
ATOM      9  N   UNL A   1      45.087  28.198  25.382  1.00  0.00    -0.346 N 
ATOM     10  H   UNL A   1      45.390  28.236  26.355  1.00  0.00     0.345 HD
ATOM     11  H   UNL A   1      44.165  27.764  25.330  1.00  0.00     0.345 HD
ATOM     12  H   UNL A   1      45.039  29.144  25.004  1.00  0.00     0.345 HD
ENDBRANCH   8   9
BRANCH   8  13
ATOM     13  C   UNL A   1      47.433  28.077  24.496  1.00  0.00     0.113 C 
BRANCH  13  14
ATOM     14  C   UNL A   1      48.253  27.741  23.258  1.00  0.00    -0.029 A 
ATOM     15  C   UNL A   1      47.644  28.006  22.010  1.00  0.00     0.007 A 
ATOM     16  C   UNL A   1      49.551  27.175  23.277  1.00  0.00     0.062 A 
ATOM     17  C   UNL A   1      48.286  27.713  20.810  1.00  0.00     0.039 A 
ATOM     18  C   UNL A   1      50.175  26.874  22.047  1.00  0.00     0.052 A 
ATOM     19  C   UNL A   1      49.547  27.147  20.839  1.00  0.00     0.123 A 
ATOM     20  F   UNL A   1      50.170  26.855  19.690  1.00  0.00    -0.207 F 
BRANCH  16  21
ATOM     21  C   UNL A   1      50.318  26.795  24.527  1.00  0.00     0.416 C 
ATOM     22  F   UNL A   1      51.552  26.306  24.223  1.00  0.00    -0.166 F 
ATOM     23  F   UNL A   1      50.534  27.854  25.358  1.00  0.00    -0.166 F 
ATOM     24  F   UNL A   1      49.724  25.845  25.297  1.00  0.00    -0.166 F 
ENDBRANCH  16  21
ENDBRANCH  13  14
ENDBRANCH   8  13
ENDBRANCH   6   8
ENDBRANCH   5   6
ENDBRANCH   4   5
ENDBRANCH   3   4
ENDBRANCH   2   3
ENDBRANCH   1   2
BRANCH   1  25
ATOM     25  C   UNL A   1      42.999  23.406  29.209  1.00  0.00     0.188 C 
BRANCH  25  26
ATOM     26  O   UNL A   1      42.747  22.229  28.458  1.00  0.00    -0.376 OA
BRANCH  26  27
ATOM     27  C   UNL A   1      41.530  22.205  27.740  1.00  0.00     0.202 C 
BRANCH  27  28
ATOM     28  C   UNL A   1      41.594  22.945  26.401  1.00  0.00     0.261 C 
BRANCH  28  29
ATOM     29  O   UNL A   1      40.978  24.245  26.383  1.00  0.00    -0.460 OA
BRANCH  29  30
ATOM     30  C   UNL A   1      41.794  25.325  26.354  1.00  0.00     0.338 C 
ATOM     31  O   UNL A   1      42.559  25.636  25.458  1.00  0.00    -0.246 OA
BRANCH  30  32
ATOM     32  C   UNL A   1      41.467  26.168  27.528  1.00  0.00     0.060 A 
ATOM     33  C   UNL A   1      42.315  27.229  27.876  1.00  0.00     0.016 A 
ATOM     34  C   UNL A   1      40.302  25.936  28.262  1.00  0.00     0.016 A 
ATOM     35  C   UNL A   1      41.991  28.068  28.951  1.00  0.00     0.010 A 
ATOM     36  C   UNL A   1      39.995  26.759  29.352  1.00  0.00     0.010 A 
ATOM     37  C   UNL A   1      40.838  27.827  29.709  1.00  0.00    -0.014 A 
BRANCH  37  38
ATOM     38  C   UNL A   1      40.531  28.611  30.935  1.00  0.00     0.031 A 
ATOM     39  C   UNL A   1      39.469  29.674  30.870  1.00  0.00     0.074 A 
ATOM     40  C   UNL A   1      41.231  28.434  32.073  1.00  0.00     0.049 A 
ATOM     41  N   UNL A   1      39.177  30.607  31.739  1.00  0.00    -0.248 NA
ATOM     42  C   UNL A   1      38.623  29.688  29.665  1.00  0.00     0.031 C 
ATOM     43  C   UNL A   1      42.250  27.407  32.286  1.00  0.00     0.029 A 
ATOM     44  N   UNL A   1      41.213  29.139  33.255  1.00  0.00    -0.354 N 
ATOM     45  C   UNL A   1      38.133  31.332  31.179  1.00  0.00     0.074 A 
ATOM     46  C   UNL A   1      37.840  30.733  29.895  1.00  0.00     0.031 C 
ATOM     47  C   UNL A   1      42.788  27.574  33.508  1.00  0.00     0.029 A 
ATOM     48  C   UNL A   1      42.190  28.748  34.144  1.00  0.00     0.049 A 
ATOM     49  H   UNL A   1      40.564  29.854  33.446  1.00  0.00     0.167 HD
ATOM     50  C   UNL A   1      37.484  32.403  31.690  1.00  0.00     0.037 A 
ATOM     51  C   UNL A   1      42.590  29.303  35.308  1.00  0.00     0.037 A 
ATOM     52  C   UNL A   1      37.770  32.989  32.973  1.00  0.00     0.049 A 
ATOM     53  C   UNL A   1      41.908  30.550  35.818  1.00  0.00     0.074 A 
ATOM     54  C   UNL A   1      37.134  34.055  33.586  1.00  0.00     0.029 A 
ATOM     55  N   UNL A   1      38.773  32.574  33.834  1.00  0.00    -0.354 N 
ATOM     56  N   UNL A   1      40.907  31.214  35.291  1.00  0.00    -0.248 NA
ATOM     57  C   UNL A   1      42.415  31.134  37.070  1.00  0.00     0.031 C 
ATOM     58  C   UNL A   1      37.788  34.321  34.790  1.00  0.00     0.029 A 
ATOM     59  C   UNL A   1      38.795  33.385  34.955  1.00  0.00     0.049 A 
ATOM     60  H   UNL A   1      39.379  31.815  33.672  1.00  0.00     0.167 HD
ATOM     61  C   UNL A   1      40.654  32.276  36.155  1.00  0.00     0.074 A 
ATOM     62  C   UNL A   1      41.597  32.165  37.245  1.00  0.00     0.031 C 
ATOM     63  C   UNL A   1      39.725  33.257  36.049  1.00  0.00     0.037 A 
BRANCH  50  64
ATOM     64  C   UNL A   1      36.400  33.044  30.873  1.00  0.00     0.058 A 
ATOM     65  C   UNL A   1      36.730  33.937  29.840  1.00  0.00     0.135 A 
ATOM     66  C   UNL A   1      35.046  32.889  31.202  1.00  0.00     0.135 A 
ATOM     67  F   UNL A   1      38.012  34.112  29.482  1.00  0.00    -0.206 F 
ATOM     68  C   UNL A   1      35.757  34.686  29.191  1.00  0.00     0.059 A 
ATOM     69  C   UNL A   1      34.052  33.614  30.550  1.00  0.00     0.059 A 
ATOM     70  F   UNL A   1      34.679  32.031  32.167  1.00  0.00    -0.206 F 
ATOM     71  C   UNL A   1      34.422  34.529  29.562  1.00  0.00     0.060 A 
BRANCH  71  72
ATOM     72  S   UNL A   1      33.176  35.541  28.737  1.00  0.00     0.124 S 
ATOM     73  O   UNL A   1      34.000  36.490  27.996  1.00  0.00    -0.237 OA
ATOM     74  O   UNL A   1      32.464  34.552  27.933  1.00  0.00    -0.237 OA
ATOM     75  O   UNL A   1      32.409  36.104  29.844  1.00  0.00    -0.744 OA
ENDBRANCH  71  72
ENDBRANCH  50  64
BRANCH  51  76
ATOM     76  C   UNL A   1      43.741  28.719  36.056  1.00  0.00     0.058 A 
ATOM     77  C   UNL A   1      43.569  27.609  36.899  1.00  0.00     0.135 A 
ATOM     78  C   UNL A   1      45.036  29.242  35.926  1.00  0.00     0.135 A 
ATOM     79  F   UNL A   1      42.353  27.064  37.057  1.00  0.00    -0.206 F 
ATOM     80  C   UNL A   1      44.634  27.053  37.601  1.00  0.00     0.059 A 
ATOM     81  C   UNL A   1      46.123  28.684  36.596  1.00  0.00     0.059 A 
ATOM     82  F   UNL A   1      45.258  30.286  35.114  1.00  0.00    -0.206 F 
ATOM     83  C   UNL A   1      45.908  27.597  37.442  1.00  0.00     0.060 A 
BRANCH  83  84
ATOM     84  S   UNL A   1      47.281  26.845  38.343  1.00  0.00     0.124 S 
ATOM     85  O   UNL A   1      46.825  26.962  39.724  1.00  0.00    -0.237 OA
ATOM     86  O   UNL A   1      47.304  25.492  37.794  1.00  0.00    -0.237 OA
ATOM     87  O   UNL A   1      48.420  27.683  37.984  1.00  0.00    -0.744 OA
ENDBRANCH  83  84
ENDBRANCH  51  76
BRANCH  63  88
ATOM     88  C   UNL A   1      39.642  34.293  37.138  1.00  0.00     0.058 A 
ATOM     89  C   UNL A   1      40.425  35.459  37.069  1.00  0.00     0.135 A 
ATOM     90  C   UNL A   1      38.907  34.065  38.311  1.00  0.00     0.135 A 
ATOM     91  F   UNL A   1      41.152  35.721  35.972  1.00  0.00    -0.206 F 
ATOM     92  C   UNL A   1      40.513  36.340  38.142  1.00  0.00     0.059 A 
ATOM     93  C   UNL A   1      38.961  34.948  39.387  1.00  0.00     0.059 A 
ATOM     94  F   UNL A   1      38.136  32.973  38.422  1.00  0.00    -0.206 F 
ATOM     95  C   UNL A   1      39.787  36.069  39.302  1.00  0.00     0.060 A 
BRANCH  95  96
ATOM     96  S   UNL A   1      39.951  37.200  40.701  1.00  0.00     0.124 S 
ATOM     97  O   UNL A   1      39.052  36.599  41.680  1.00  0.00    -0.237 OA
ATOM     98  O   UNL A   1      41.375  37.106  41.005  1.00  0.00    -0.237 OA
ATOM     99  O   UNL A   1      39.517  38.482  40.154  1.00  0.00    -0.744 OA
ENDBRANCH  95  96
ENDBRANCH  63  88
ENDBRANCH  37  38
ENDBRANCH  30  32
ENDBRANCH  29  30
ENDBRANCH  28  29
ENDBRANCH  27  28
ENDBRANCH  26  27
ENDBRANCH  25  26
ENDBRANCH   1  25
TORSDOF 24
ENDMDL
