MODEL 1
REMARK VINA RESULT:      -9.9      0.000      0.000
REMARK SMILES CCC1(CC)CCN(C(=O)NC(CC)(CC)C(=O)OCCOCCOCCOC(=O)c2ccc(-c3c4nc(c(-c5c(F)cc(S(=O)(=O)[O-])cc5F)c5ccc([nH]5)c(-c5c(F)cc(S(=O)(=O)[O-])cc5F)c5nc(c(-c6c(F)cc(S(=O)(=O)[O-])cc6F)c6ccc3[nH]6)C=C5)C=C4)cc2)CC1
REMARK SMILES IDX 24 1 23 2 22 3 21 4 20 5 19 6 17 7 18 8 12 9 11 10 3 11 6 12
REMARK SMILES IDX 98 13 7 14 97 15 8 16 9 17 10 18 2 20 1 21 4 22 5 23 13 24
REMARK SMILES IDX 14 25 15 26 16 27 25 28 26 29 27 30 28 31 29 32 30 33 31 34
REMARK SMILES IDX 32 35 96 36 33 37 95 38 34 39 35 40 36 41 89 42 37 43 94 44
REMARK SMILES IDX 88 45 90 46 38 47 93 48 87 49 86 50 39 52 73 53 52 54 72 55
REMARK SMILES IDX 53 56 56 57 71 58 91 59 54 60 55 61 70 63 92 64 57 65 40 66
REMARK SMILES IDX 41 67 50 68 42 69 43 70 49 71 51 72 44 73 45 74 46 75 47 76
REMARK SMILES IDX 48 77 74 78 75 79 84 80 76 81 77 82 83 83 85 84 78 85 79 86
REMARK SMILES IDX 80 87 81 88 82 89 58 90 59 91 68 92 60 93 61 94 67 95 69 96
REMARK SMILES IDX 62 97 63 98 64 99 65 100 66 101
REMARK H PARENT 11 19 90 51 56 62
REMARK Flexibility Score: inf
ROOT
ATOM      1  C   UNL A   1      36.844  22.235  24.919  1.00  0.00     0.188 C 
ENDROOT
BRANCH   1   2
ATOM      2  C   UNL A   1      35.450  21.623  24.823  1.00  0.00     0.188 C 
BRANCH   2   3
ATOM      3  O   UNL A   1      35.368  20.202  24.734  1.00  0.00    -0.376 OA
BRANCH   3   4
ATOM      4  C   UNL A   1      34.121  19.585  25.033  1.00  0.00     0.202 C 
BRANCH   4   5
ATOM      5  C   UNL A   1      32.945  20.214  24.286  1.00  0.00     0.261 C 
BRANCH   5   6
ATOM      6  O   UNL A   1      32.161  20.972  25.219  1.00  0.00    -0.461 OA
BRANCH   6   7
ATOM      7  C   UNL A   1      31.994  22.300  24.949  1.00  0.00     0.331 C 
ATOM      8  O   UNL A   1      31.626  22.715  23.856  1.00  0.00    -0.249 OA
BRANCH   7   9
ATOM      9  C   UNL A   1      32.172  23.192  26.233  1.00  0.00     0.139 C 
BRANCH   9  10
ATOM     10  N   UNL A   1      33.197  24.318  26.171  1.00  0.00    -0.322 N 
ATOM     11  C   UNL A   1      31.702  28.827  24.354  1.00  0.00    -0.027 C 
ATOM     12  C   UNL A   1      33.218  28.572  24.091  1.00  0.00     0.028 C 
ATOM     13  C   UNL A   1      31.139  27.625  25.113  1.00  0.00     0.028 C 
ATOM     14  C   UNL A   1      33.626  27.120  23.734  1.00  0.00     0.122 C 
ATOM     15  C   UNL A   1      31.565  26.252  24.644  1.00  0.00     0.122 C 
ATOM     16  N   UNL A   1      32.986  26.110  24.593  1.00  0.00    -0.325 N 
ATOM     17  C   UNL A   1      33.728  25.220  25.314  1.00  0.00     0.318 C 
ATOM     18  O   UNL A   1      34.960  25.292  25.364  1.00  0.00    -0.249 OA
ATOM     19  H   UNL A   1      33.614  24.425  27.057  1.00  0.00     0.166 HD
BRANCH  11  20
ATOM     20  C   UNL A   1      30.878  29.135  23.070  1.00  0.00     0.004 C 
ATOM     21  C   UNL A   1      29.394  28.807  23.054  1.00  0.00     0.004 C 
ENDBRANCH  11  20
BRANCH  11  22
ATOM     22  C   UNL A   1      31.522  30.031  25.358  1.00  0.00     0.004 C 
ATOM     23  C   UNL A   1      31.915  29.801  26.807  1.00  0.00     0.004 C 
ENDBRANCH  11  22
ENDBRANCH   9  10
BRANCH   9  24
ATOM     24  C   UNL A   1      32.593  22.160  27.329  1.00  0.00     0.037 C 
ATOM     25  C   UNL A   1      33.960  22.346  27.975  1.00  0.00     0.007 C 
ENDBRANCH   9  24
BRANCH   9  26
ATOM     26  C   UNL A   1      30.759  23.826  26.603  1.00  0.00     0.037 C 
ATOM     27  C   UNL A   1      29.683  22.876  27.132  1.00  0.00     0.007 C 
ENDBRANCH   9  26
ENDBRANCH   7   9
ENDBRANCH   6   7
ENDBRANCH   5   6
ENDBRANCH   4   5
ENDBRANCH   3   4
ENDBRANCH   2   3
ENDBRANCH   1   2
BRANCH   1  28
ATOM     28  O   UNL A   1      37.964  21.399  24.653  1.00  0.00    -0.376 OA
BRANCH  28  29
ATOM     29  C   UNL A   1      38.866  21.092  25.712  1.00  0.00     0.202 C 
BRANCH  29  30
ATOM     30  C   UNL A   1      39.490  19.693  25.713  1.00  0.00     0.261 C 
BRANCH  30  31
ATOM     31  O   UNL A   1      40.498  19.490  26.725  1.00  0.00    -0.460 OA
BRANCH  31  32
ATOM     32  C   UNL A   1      41.760  19.351  26.272  1.00  0.00     0.338 C 
ATOM     33  O   UNL A   1      42.236  18.357  25.715  1.00  0.00    -0.246 OA
BRANCH  32  34
ATOM     34  C   UNL A   1      42.549  20.577  26.469  1.00  0.00     0.060 A 
ATOM     35  C   UNL A   1      42.526  21.200  27.723  1.00  0.00     0.016 A 
ATOM     36  C   UNL A   1      43.148  21.217  25.380  1.00  0.00     0.016 A 
ATOM     37  C   UNL A   1      43.052  22.486  27.879  1.00  0.00     0.010 A 
ATOM     38  C   UNL A   1      43.670  22.508  25.540  1.00  0.00     0.010 A 
ATOM     39  C   UNL A   1      43.589  23.171  26.780  1.00  0.00    -0.014 A 
BRANCH  39  40
ATOM     40  C   UNL A   1      43.966  24.610  26.874  1.00  0.00     0.031 A 
ATOM     41  C   UNL A   1      45.405  25.018  26.697  1.00  0.00     0.074 A 
ATOM     42  C   UNL A   1      43.048  25.555  27.145  1.00  0.00     0.049 A 
ATOM     43  N   UNL A   1      45.966  26.186  26.885  1.00  0.00    -0.248 NA
ATOM     44  C   UNL A   1      46.332  23.971  26.242  1.00  0.00     0.031 C 
ATOM     45  C   UNL A   1      41.614  25.320  27.270  1.00  0.00     0.029 A 
ATOM     46  N   UNL A   1      43.192  26.900  27.389  1.00  0.00    -0.354 N 
ATOM     47  C   UNL A   1      47.314  26.014  26.590  1.00  0.00     0.074 A 
ATOM     48  C   UNL A   1      47.488  24.624  26.224  1.00  0.00     0.031 C 
ATOM     49  C   UNL A   1      41.010  26.470  27.611  1.00  0.00     0.029 A 
ATOM     50  C   UNL A   1      42.021  27.516  27.763  1.00  0.00     0.049 A 
ATOM     51  H   UNL A   1      44.050  27.376  27.304  1.00  0.00     0.167 HD
ATOM     52  C   UNL A   1      48.313  26.930  26.619  1.00  0.00     0.037 A 
ATOM     53  C   UNL A   1      41.790  28.765  28.215  1.00  0.00     0.037 A 
ATOM     54  C   UNL A   1      48.144  28.316  26.974  1.00  0.00     0.049 A 
ATOM     55  C   UNL A   1      42.928  29.742  28.333  1.00  0.00     0.074 A 
ATOM     56  C   UNL A   1      49.094  29.323  26.989  1.00  0.00     0.029 A 
ATOM     57  N   UNL A   1      46.951  28.889  27.390  1.00  0.00    -0.354 N 
ATOM     58  N   UNL A   1      44.195  29.572  28.040  1.00  0.00    -0.248 NA
ATOM     59  C   UNL A   1      42.607  31.082  28.850  1.00  0.00     0.031 C 
ATOM     60  C   UNL A   1      48.489  30.492  27.465  1.00  0.00     0.029 A 
ATOM     61  C   UNL A   1      47.151  30.226  27.704  1.00  0.00     0.049 A 
ATOM     62  H   UNL A   1      46.090  28.417  27.454  1.00  0.00     0.167 HD
ATOM     63  C   UNL A   1      44.819  30.784  28.322  1.00  0.00     0.074 A 
ATOM     64  C   UNL A   1      43.788  31.684  28.798  1.00  0.00     0.031 C 
ATOM     65  C   UNL A   1      46.127  31.117  28.194  1.00  0.00     0.037 A 
BRANCH  52  66
ATOM     66  C   UNL A   1      49.700  26.447  26.293  1.00  0.00     0.058 A 
ATOM     67  C   UNL A   1      50.274  26.637  25.026  1.00  0.00     0.135 A 
ATOM     68  C   UNL A   1      50.469  25.797  27.271  1.00  0.00     0.135 A 
ATOM     69  F   UNL A   1      49.577  27.242  24.052  1.00  0.00    -0.206 F 
ATOM     70  C   UNL A   1      51.550  26.168  24.730  1.00  0.00     0.059 A 
ATOM     71  C   UNL A   1      51.757  25.340  27.004  1.00  0.00     0.059 A 
ATOM     72  F   UNL A   1      49.969  25.593  28.499  1.00  0.00    -0.206 F 
ATOM     73  C   UNL A   1      52.281  25.513  25.724  1.00  0.00     0.060 A 
BRANCH  73  74
ATOM     74  S   UNL A   1      53.925  24.887  25.320  1.00  0.00     0.124 S 
ATOM     75  O   UNL A   1      54.670  25.227  26.529  1.00  0.00    -0.237 OA
ATOM     76  O   UNL A   1      53.678  23.465  25.108  1.00  0.00    -0.237 OA
ATOM     77  O   UNL A   1      54.293  25.641  24.125  1.00  0.00    -0.744 OA
ENDBRANCH  73  74
ENDBRANCH  52  66
BRANCH  53  78
ATOM     78  C   UNL A   1      40.416  29.144  28.636  1.00  0.00     0.058 A 
ATOM     79  C   UNL A   1      40.065  29.225  29.991  1.00  0.00     0.135 A 
ATOM     80  C   UNL A   1      39.431  29.456  27.684  1.00  0.00     0.135 A 
ATOM     81  F   UNL A   1      40.965  28.917  30.936  1.00  0.00    -0.206 F 
ATOM     82  C   UNL A   1      38.787  29.606  30.390  1.00  0.00     0.059 A 
ATOM     83  C   UNL A   1      38.154  29.859  28.059  1.00  0.00     0.059 A 
ATOM     84  F   UNL A   1      39.718  29.396  26.375  1.00  0.00    -0.206 F 
ATOM     85  C   UNL A   1      37.840  29.928  29.415  1.00  0.00     0.060 A 
BRANCH  85  86
ATOM     86  S   UNL A   1      36.207  30.490  29.942  1.00  0.00     0.124 S 
ATOM     87  O   UNL A   1      36.423  31.925  30.093  1.00  0.00    -0.237 OA
ATOM     88  O   UNL A   1      35.364  30.086  28.821  1.00  0.00    -0.237 OA
ATOM     89  O   UNL A   1      35.981  29.752  31.182  1.00  0.00    -0.744 OA
ENDBRANCH  85  86
ENDBRANCH  53  78
BRANCH  65  90
ATOM     90  C   UNL A   1      46.530  32.516  28.571  1.00  0.00     0.058 A 
ATOM     91  C   UNL A   1      47.008  32.822  29.855  1.00  0.00     0.135 A 
ATOM     92  C   UNL A   1      46.487  33.555  27.626  1.00  0.00     0.135 A 
ATOM     93  F   UNL A   1      47.062  31.870  30.800  1.00  0.00    -0.206 F 
ATOM     94  C   UNL A   1      47.414  34.109  30.195  1.00  0.00     0.059 A 
ATOM     95  C   UNL A   1      46.910  34.845  27.936  1.00  0.00     0.059 A 
ATOM     96  F   UNL A   1      46.047  33.318  26.380  1.00  0.00    -0.206 F 
ATOM     97  C   UNL A   1      47.364  35.115  29.227  1.00  0.00     0.060 A 
BRANCH  97  98
ATOM     98  S   UNL A   1      47.931  36.773  29.667  1.00  0.00     0.124 S 
ATOM     99  O   UNL A   1      47.739  36.775  31.114  1.00  0.00    -0.237 OA
ATOM    100  O   UNL A   1      49.317  36.763  29.211  1.00  0.00    -0.237 OA
ATOM    101  O   UNL A   1      47.036  37.648  28.915  1.00  0.00    -0.744 OA
ENDBRANCH  97  98
ENDBRANCH  65  90
ENDBRANCH  39  40
ENDBRANCH  32  34
ENDBRANCH  31  32
ENDBRANCH  30  31
ENDBRANCH  29  30
ENDBRANCH  28  29
ENDBRANCH   1  28
TORSDOF 25
ENDMDL
MODEL 2
REMARK VINA RESULT:      -9.0      5.794      7.965
REMARK SMILES CCC1(CC)CCN(C(=O)NC(CC)(CC)C(=O)OCCOCCOCCOC(=O)c2ccc(-c3c4nc(c(-c5c(F)cc(S(=O)(=O)[O-])cc5F)c5ccc([nH]5)c(-c5c(F)cc(S(=O)(=O)[O-])cc5F)c5nc(c(-c6c(F)cc(S(=O)(=O)[O-])cc6F)c6ccc3[nH]6)C=C5)C=C4)cc2)CC1
REMARK SMILES IDX 24 1 23 2 22 3 21 4 20 5 19 6 17 7 18 8 12 9 11 10 3 11 6 12
REMARK SMILES IDX 98 13 7 14 97 15 8 16 9 17 10 18 2 20 1 21 4 22 5 23 13 24
REMARK SMILES IDX 14 25 15 26 16 27 25 28 26 29 27 30 28 31 29 32 30 33 31 34
REMARK SMILES IDX 32 35 96 36 33 37 95 38 34 39 35 40 36 41 89 42 37 43 94 44
REMARK SMILES IDX 88 45 90 46 38 47 93 48 87 49 86 50 39 52 73 53 52 54 72 55
REMARK SMILES IDX 53 56 56 57 71 58 91 59 54 60 55 61 70 63 92 64 57 65 40 66
REMARK SMILES IDX 41 67 50 68 42 69 43 70 49 71 51 72 44 73 45 74 46 75 47 76
REMARK SMILES IDX 48 77 74 78 75 79 84 80 76 81 77 82 83 83 85 84 78 85 79 86
REMARK SMILES IDX 80 87 81 88 82 89 58 90 59 91 68 92 60 93 61 94 67 95 69 96
REMARK SMILES IDX 62 97 63 98 64 99 65 100 66 101
REMARK H PARENT 11 19 90 51 56 62
REMARK Flexibility Score: inf
ROOT
ATOM      1  C   UNL A   1      41.420  21.098  26.148  1.00  0.00     0.188 C 
ENDROOT
BRANCH   1   2
ATOM      2  C   UNL A   1      40.113  21.739  26.607  1.00  0.00     0.188 C 
BRANCH   2   3
ATOM      3  O   UNL A   1      38.959  21.512  25.800  1.00  0.00    -0.376 OA
BRANCH   3   4
ATOM      4  C   UNL A   1      37.934  22.499  25.810  1.00  0.00     0.202 C 
BRANCH   4   5
ATOM      5  C   UNL A   1      37.122  22.535  24.514  1.00  0.00     0.261 C 
BRANCH   5   6
ATOM      6  O   UNL A   1      35.745  22.766  24.842  1.00  0.00    -0.461 OA
BRANCH   6   7
ATOM      7  C   UNL A   1      34.873  22.884  23.798  1.00  0.00     0.331 C 
ATOM      8  O   UNL A   1      35.200  23.339  22.707  1.00  0.00    -0.249 OA
BRANCH   7   9
ATOM      9  C   UNL A   1      33.477  22.232  24.115  1.00  0.00     0.139 C 
BRANCH   9  10
ATOM     10  N   UNL A   1      32.570  22.954  25.104  1.00  0.00    -0.322 N 
ATOM     11  C   UNL A   1      31.604  27.884  24.314  1.00  0.00    -0.027 C 
ATOM     12  C   UNL A   1      31.553  27.522  25.831  1.00  0.00     0.028 C 
ATOM     13  C   UNL A   1      31.911  26.611  23.527  1.00  0.00     0.028 C 
ATOM     14  C   UNL A   1      32.590  26.484  26.332  1.00  0.00     0.122 C 
ATOM     15  C   UNL A   1      32.980  25.697  24.083  1.00  0.00     0.122 C 
ATOM     16  N   UNL A   1      32.727  25.323  25.439  1.00  0.00    -0.325 N 
ATOM     17  C   UNL A   1      32.526  24.051  25.893  1.00  0.00     0.318 C 
ATOM     18  O   UNL A   1      32.118  23.828  27.038  1.00  0.00    -0.249 OA
ATOM     19  H   UNL A   1      31.729  22.450  25.199  1.00  0.00     0.166 HD
BRANCH  11  20
ATOM     20  C   UNL A   1      32.601  29.029  23.970  1.00  0.00     0.004 C 
ATOM     21  C   UNL A   1      33.423  28.928  22.696  1.00  0.00     0.004 C 
ENDBRANCH  11  20
BRANCH  11  22
ATOM     22  C   UNL A   1      30.170  28.309  23.811  1.00  0.00     0.004 C 
ATOM     23  C   UNL A   1      29.923  29.786  23.561  1.00  0.00     0.004 C 
ENDBRANCH  11  22
ENDBRANCH   9  10
BRANCH   9  24
ATOM     24  C   UNL A   1      33.860  20.828  24.685  1.00  0.00     0.037 C 
ATOM     25  C   UNL A   1      33.309  20.456  26.055  1.00  0.00     0.007 C 
ENDBRANCH   9  24
BRANCH   9  26
ATOM     26  C   UNL A   1      32.683  22.059  22.745  1.00  0.00     0.037 C 
ATOM     27  C   UNL A   1      31.226  22.525  22.717  1.00  0.00     0.007 C 
ENDBRANCH   9  26
ENDBRANCH   7   9
ENDBRANCH   6   7
ENDBRANCH   5   6
ENDBRANCH   4   5
ENDBRANCH   3   4
ENDBRANCH   2   3
ENDBRANCH   1   2
BRANCH   1  28
ATOM     28  O   UNL A   1      42.557  21.209  26.996  1.00  0.00    -0.376 OA
BRANCH  28  29
ATOM     29  C   UNL A   1      43.248  22.453  27.067  1.00  0.00     0.202 C 
BRANCH  29  30
ATOM     30  C   UNL A   1      43.483  23.195  25.748  1.00  0.00     0.261 C 
BRANCH  30  31
ATOM     31  O   UNL A   1      43.522  24.632  25.871  1.00  0.00    -0.460 OA
BRANCH  31  32
ATOM     32  C   UNL A   1      42.358  25.221  26.208  1.00  0.00     0.338 C 
ATOM     33  O   UNL A   1      41.270  25.080  25.639  1.00  0.00    -0.246 OA
BRANCH  32  34
ATOM     34  C   UNL A   1      42.496  26.056  27.411  1.00  0.00     0.060 A 
ATOM     35  C   UNL A   1      41.637  25.825  28.494  1.00  0.00     0.016 A 
ATOM     36  C   UNL A   1      43.325  27.181  27.403  1.00  0.00     0.016 A 
ATOM     37  C   UNL A   1      41.566  26.745  29.544  1.00  0.00     0.010 A 
ATOM     38  C   UNL A   1      43.247  28.103  28.456  1.00  0.00     0.010 A 
ATOM     39  C   UNL A   1      42.338  27.916  29.514  1.00  0.00    -0.014 A 
BRANCH  39  40
ATOM     40  C   UNL A   1      42.130  29.004  30.512  1.00  0.00     0.031 A 
ATOM     41  C   UNL A   1      43.032  29.096  31.714  1.00  0.00     0.074 A 
ATOM     42  C   UNL A   1      41.130  29.893  30.375  1.00  0.00     0.049 A 
ATOM     43  N   UNL A   1      42.935  29.867  32.768  1.00  0.00    -0.248 NA
ATOM     44  C   UNL A   1      44.203  28.206  31.726  1.00  0.00     0.031 C 
ATOM     45  C   UNL A   1      40.226  29.972  29.233  1.00  0.00     0.029 A 
ATOM     46  N   UNL A   1      40.693  30.886  31.221  1.00  0.00    -0.354 N 
ATOM     47  C   UNL A   1      44.018  29.544  33.579  1.00  0.00     0.074 A 
ATOM     48  C   UNL A   1      44.751  28.497  32.899  1.00  0.00     0.031 C 
ATOM     49  C   UNL A   1      39.312  30.928  29.464  1.00  0.00     0.029 A 
ATOM     50  C   UNL A   1      39.545  31.506  30.787  1.00  0.00     0.049 A 
ATOM     51  H   UNL A   1      41.156  31.128  32.055  1.00  0.00     0.167 HD
ATOM     52  C   UNL A   1      44.370  30.073  34.776  1.00  0.00     0.037 A 
ATOM     53  C   UNL A   1      38.748  32.406  31.396  1.00  0.00     0.037 A 
ATOM     54  C   UNL A   1      43.648  31.121  35.452  1.00  0.00     0.049 A 
ATOM     55  C   UNL A   1      39.101  32.913  32.769  1.00  0.00     0.074 A 
ATOM     56  C   UNL A   1      43.958  31.745  36.649  1.00  0.00     0.029 A 
ATOM     57  N   UNL A   1      42.467  31.691  35.001  1.00  0.00    -0.354 N 
ATOM     58  N   UNL A   1      40.133  32.610  33.519  1.00  0.00    -0.248 NA
ATOM     59  C   UNL A   1      38.178  33.880  33.382  1.00  0.00     0.031 C 
ATOM     60  C   UNL A   1      42.936  32.654  36.948  1.00  0.00     0.029 A 
ATOM     61  C   UNL A   1      42.012  32.630  35.916  1.00  0.00     0.049 A 
ATOM     62  H   UNL A   1      42.016  31.462  34.157  1.00  0.00     0.167 HD
ATOM     63  C   UNL A   1      39.992  33.358  34.684  1.00  0.00     0.074 A 
ATOM     64  C   UNL A   1      38.780  34.138  34.535  1.00  0.00     0.031 C 
ATOM     65  C   UNL A   1      40.797  33.394  35.775  1.00  0.00     0.037 A 
BRANCH  52  66
ATOM     66  C   UNL A   1      45.578  29.492  35.457  1.00  0.00     0.058 A 
ATOM     67  C   UNL A   1      45.483  28.407  36.342  1.00  0.00     0.135 A 
ATOM     68  C   UNL A   1      46.854  30.023  35.205  1.00  0.00     0.135 A 
ATOM     69  F   UNL A   1      44.286  27.870  36.626  1.00  0.00    -0.206 F 
ATOM     70  C   UNL A   1      46.606  27.891  36.981  1.00  0.00     0.059 A 
ATOM     71  C   UNL A   1      47.993  29.507  35.815  1.00  0.00     0.059 A 
ATOM     72  F   UNL A   1      47.001  31.059  34.365  1.00  0.00    -0.206 F 
ATOM     73  C   UNL A   1      47.857  28.454  36.717  1.00  0.00     0.060 A 
BRANCH  73  74
ATOM     74  S   UNL A   1      49.303  27.791  37.571  1.00  0.00     0.124 S 
ATOM     75  O   UNL A   1      50.391  28.442  36.848  1.00  0.00    -0.237 OA
ATOM     76  O   UNL A   1      49.094  28.245  38.942  1.00  0.00    -0.237 OA
ATOM     77  O   UNL A   1      49.188  26.350  37.368  1.00  0.00    -0.744 OA
ENDBRANCH  73  74
ENDBRANCH  52  66
BRANCH  53  78
ATOM     78  C   UNL A   1      37.502  32.851  30.720  1.00  0.00     0.058 A 
ATOM     79  C   UNL A   1      37.517  33.874  29.762  1.00  0.00     0.135 A 
ATOM     80  C   UNL A   1      36.269  32.241  31.007  1.00  0.00     0.135 A 
ATOM     81  F   UNL A   1      38.666  34.501  29.469  1.00  0.00    -0.206 F 
ATOM     82  C   UNL A   1      36.356  34.275  29.107  1.00  0.00     0.059 A 
ATOM     83  C   UNL A   1      35.100  32.610  30.351  1.00  0.00     0.059 A 
ATOM     84  F   UNL A   1      36.203  31.255  31.915  1.00  0.00    -0.206 F 
ATOM     85  C   UNL A   1      35.153  33.631  29.405  1.00  0.00     0.060 A 
BRANCH  85  86
ATOM     86  S   UNL A   1      33.664  34.108  28.500  1.00  0.00     0.124 S 
ATOM     87  O   UNL A   1      34.189  35.106  27.574  1.00  0.00    -0.237 OA
ATOM     88  O   UNL A   1      33.246  32.843  27.905  1.00  0.00    -0.237 OA
ATOM     89  O   UNL A   1      32.784  34.619  29.548  1.00  0.00    -0.744 OA
ENDBRANCH  85  86
ENDBRANCH  53  78
BRANCH  65  90
ATOM     90  C   UNL A   1      40.402  34.309  36.902  1.00  0.00     0.058 A 
ATOM     91  C   UNL A   1      40.878  35.627  36.979  1.00  0.00     0.135 A 
ATOM     92  C   UNL A   1      39.500  33.881  37.891  1.00  0.00     0.135 A 
ATOM     93  F   UNL A   1      41.750  36.084  36.066  1.00  0.00    -0.206 F 
ATOM     94  C   UNL A   1      40.487  36.485  38.003  1.00  0.00     0.059 A 
ATOM     95  C   UNL A   1      39.076  34.730  38.911  1.00  0.00     0.059 A 
ATOM     96  F   UNL A   1      39.007  32.634  37.862  1.00  0.00    -0.206 F 
ATOM     97  C   UNL A   1      39.583  36.028  38.963  1.00  0.00     0.060 A 
BRANCH  97  98
ATOM     98  S   UNL A   1      39.052  37.163  40.265  1.00  0.00     0.124 S 
ATOM     99  O   UNL A   1      40.326  37.531  40.874  1.00  0.00    -0.237 OA
ATOM    100  O   UNL A   1      38.382  38.216  39.509  1.00  0.00    -0.237 OA
ATOM    101  O   UNL A   1      38.175  36.341  41.094  1.00  0.00    -0.744 OA
ENDBRANCH  97  98
ENDBRANCH  65  90
ENDBRANCH  39  40
ENDBRANCH  32  34
ENDBRANCH  31  32
ENDBRANCH  30  31
ENDBRANCH  29  30
ENDBRANCH  28  29
ENDBRANCH   1  28
TORSDOF 25
ENDMDL
MODEL 3
REMARK VINA RESULT:      -8.8      5.957      8.104
REMARK SMILES CCC1(CC)CCN(C(=O)NC(CC)(CC)C(=O)OCCOCCOCCOC(=O)c2ccc(-c3c4nc(c(-c5c(F)cc(S(=O)(=O)[O-])cc5F)c5ccc([nH]5)c(-c5c(F)cc(S(=O)(=O)[O-])cc5F)c5nc(c(-c6c(F)cc(S(=O)(=O)[O-])cc6F)c6ccc3[nH]6)C=C5)C=C4)cc2)CC1
REMARK SMILES IDX 24 1 23 2 22 3 21 4 20 5 19 6 17 7 18 8 12 9 11 10 3 11 6 12
REMARK SMILES IDX 98 13 7 14 97 15 8 16 9 17 10 18 2 20 1 21 4 22 5 23 13 24
REMARK SMILES IDX 14 25 15 26 16 27 25 28 26 29 27 30 28 31 29 32 30 33 31 34
REMARK SMILES IDX 32 35 96 36 33 37 95 38 34 39 35 40 36 41 89 42 37 43 94 44
REMARK SMILES IDX 88 45 90 46 38 47 93 48 87 49 86 50 39 52 73 53 52 54 72 55
REMARK SMILES IDX 53 56 56 57 71 58 91 59 54 60 55 61 70 63 92 64 57 65 40 66
REMARK SMILES IDX 41 67 50 68 42 69 43 70 49 71 51 72 44 73 45 74 46 75 47 76
REMARK SMILES IDX 48 77 74 78 75 79 84 80 76 81 77 82 83 83 85 84 78 85 79 86
REMARK SMILES IDX 80 87 81 88 82 89 58 90 59 91 68 92 60 93 61 94 67 95 69 96
REMARK SMILES IDX 62 97 63 98 64 99 65 100 66 101
REMARK H PARENT 11 19 90 51 56 62
REMARK Flexibility Score: inf
ROOT
ATOM      1  C   UNL A   1      36.228  22.416  25.489  1.00  0.00     0.188 C 
ENDROOT
BRANCH   1   2
ATOM      2  C   UNL A   1      35.479  22.170  24.182  1.00  0.00     0.188 C 
BRANCH   2   3
ATOM      3  O   UNL A   1      34.295  21.379  24.251  1.00  0.00    -0.376 OA
BRANCH   3   4
ATOM      4  C   UNL A   1      33.617  21.298  25.499  1.00  0.00     0.202 C 
BRANCH   4   5
ATOM      5  C   UNL A   1      32.162  21.764  25.425  1.00  0.00     0.261 C 
BRANCH   5   6
ATOM      6  O   UNL A   1      31.931  22.718  26.472  1.00  0.00    -0.461 OA
BRANCH   6   7
ATOM      7  C   UNL A   1      32.552  23.927  26.353  1.00  0.00     0.331 C 
ATOM      8  O   UNL A   1      33.673  24.146  26.800  1.00  0.00    -0.249 OA
BRANCH   7   9
ATOM      9  C   UNL A   1      31.735  24.927  25.454  1.00  0.00     0.139 C 
BRANCH   9  10
ATOM     10  N   UNL A   1      31.602  26.365  25.940  1.00  0.00    -0.322 N 
ATOM     11  C   UNL A   1      29.009  29.645  23.045  1.00  0.00    -0.027 C 
ATOM     12  C   UNL A   1      30.120  30.360  23.874  1.00  0.00     0.028 C 
ATOM     13  C   UNL A   1      29.036  28.157  23.391  1.00  0.00     0.028 C 
ATOM     14  C   UNL A   1      31.453  29.591  24.057  1.00  0.00     0.122 C 
ATOM     15  C   UNL A   1      30.393  27.497  23.492  1.00  0.00     0.122 C 
ATOM     16  N   UNL A   1      31.262  28.173  24.403  1.00  0.00    -0.325 N 
ATOM     17  C   UNL A   1      31.803  27.641  25.537  1.00  0.00     0.318 C 
ATOM     18  O   UNL A   1      32.380  28.344  26.373  1.00  0.00    -0.249 OA
ATOM     19  H   UNL A   1      31.250  26.365  26.860  1.00  0.00     0.166 HD
BRANCH  11  20
ATOM     20  C   UNL A   1      29.111  29.883  21.510  1.00  0.00     0.004 C 
ATOM     21  C   UNL A   1      28.032  30.702  20.821  1.00  0.00     0.004 C 
ENDBRANCH  11  20
BRANCH  11  22
ATOM     22  C   UNL A   1      27.583  30.123  23.525  1.00  0.00     0.004 C 
ATOM     23  C   UNL A   1      27.418  31.592  23.876  1.00  0.00     0.004 C 
ENDBRANCH  11  22
ENDBRANCH   9  10
BRANCH   9  24
ATOM     24  C   UNL A   1      30.320  24.267  25.381  1.00  0.00     0.037 C 
ATOM     25  C   UNL A   1      29.184  24.968  26.115  1.00  0.00     0.007 C 
ENDBRANCH   9  24
BRANCH   9  26
ATOM     26  C   UNL A   1      32.394  24.950  24.005  1.00  0.00     0.037 C 
ATOM     27  C   UNL A   1      33.807  25.525  23.887  1.00  0.00     0.007 C 
ENDBRANCH   9  26
ENDBRANCH   7   9
ENDBRANCH   6   7
ENDBRANCH   5   6
ENDBRANCH   4   5
ENDBRANCH   3   4
ENDBRANCH   2   3
ENDBRANCH   1   2
BRANCH   1  28
ATOM     28  O   UNL A   1      37.591  22.019  25.567  1.00  0.00    -0.376 OA
BRANCH  28  29
ATOM     29  C   UNL A   1      38.493  22.791  26.356  1.00  0.00     0.202 C 
BRANCH  29  30
ATOM     30  C   UNL A   1      39.948  22.316  26.416  1.00  0.00     0.261 C 
BRANCH  30  31
ATOM     31  O   UNL A   1      40.769  23.028  27.365  1.00  0.00    -0.460 OA
BRANCH  31  32
ATOM     32  C   UNL A   1      41.465  24.070  26.870  1.00  0.00     0.338 C 
ATOM     33  O   UNL A   1      42.235  24.047  25.904  1.00  0.00    -0.246 OA
BRANCH  32  34
ATOM     34  C   UNL A   1      41.171  25.317  27.593  1.00  0.00     0.060 A 
ATOM     35  C   UNL A   1      42.130  26.338  27.593  1.00  0.00     0.016 A 
ATOM     36  C   UNL A   1      40.052  25.407  28.425  1.00  0.00     0.016 A 
ATOM     37  C   UNL A   1      42.001  27.425  28.463  1.00  0.00     0.010 A 
ATOM     38  C   UNL A   1      39.929  26.496  29.300  1.00  0.00     0.010 A 
ATOM     39  C   UNL A   1      40.922  27.492  29.357  1.00  0.00    -0.014 A 
BRANCH  39  40
ATOM     40  C   UNL A   1      40.871  28.526  30.429  1.00  0.00     0.031 A 
ATOM     41  C   UNL A   1      41.761  28.396  31.637  1.00  0.00     0.074 A 
ATOM     42  C   UNL A   1      40.019  29.565  30.355  1.00  0.00     0.049 A 
ATOM     43  N   UNL A   1      41.769  29.096  32.743  1.00  0.00    -0.248 NA
ATOM     44  C   UNL A   1      42.782  27.338  31.587  1.00  0.00     0.031 C 
ATOM     45  C   UNL A   1      39.152  29.861  29.220  1.00  0.00     0.029 A 
ATOM     46  N   UNL A   1      39.728  30.551  31.268  1.00  0.00    -0.354 N 
ATOM     47  C   UNL A   1      42.780  28.556  33.530  1.00  0.00     0.074 A 
ATOM     48  C   UNL A   1      43.354  27.459  32.778  1.00  0.00     0.031 C 
ATOM     49  C   UNL A   1      38.391  30.927  29.517  1.00  0.00     0.029 A 
ATOM     50  C   UNL A   1      38.693  31.369  30.878  1.00  0.00     0.049 A 
ATOM     51  H   UNL A   1      40.213  30.661  32.118  1.00  0.00     0.167 HD
ATOM     52  C   UNL A   1      43.194  28.940  34.763  1.00  0.00     0.037 A 
ATOM     53  C   UNL A   1      38.035  32.335  31.548  1.00  0.00     0.037 A 
ATOM     54  C   UNL A   1      42.632  30.036  35.510  1.00  0.00     0.049 A 
ATOM     55  C   UNL A   1      38.445  32.685  32.954  1.00  0.00     0.074 A 
ATOM     56  C   UNL A   1      43.018  30.520  36.749  1.00  0.00     0.029 A 
ATOM     57  N   UNL A   1      41.557  30.809  35.099  1.00  0.00    -0.354 N 
ATOM     58  N   UNL A   1      39.408  32.175  33.683  1.00  0.00    -0.248 NA
ATOM     59  C   UNL A   1      37.672  33.736  33.633  1.00  0.00     0.031 C 
ATOM     60  C   UNL A   1      42.143  31.551  37.110  1.00  0.00     0.029 A 
ATOM     61  C   UNL A   1      41.239  31.740  36.078  1.00  0.00     0.049 A 
ATOM     62  H   UNL A   1      41.087  30.711  34.240  1.00  0.00     0.167 HD
ATOM     63  C   UNL A   1      39.369  32.853  34.897  1.00  0.00     0.074 A 
ATOM     64  C   UNL A   1      38.292  33.818  34.803  1.00  0.00     0.031 C 
ATOM     65  C   UNL A   1      40.156  32.689  35.989  1.00  0.00     0.037 A 
BRANCH  52  66
ATOM     66  C   UNL A   1      44.291  28.135  35.402  1.00  0.00     0.058 A 
ATOM     67  C   UNL A   1      45.646  28.460  35.234  1.00  0.00     0.135 A 
ATOM     68  C   UNL A   1      43.977  27.029  36.210  1.00  0.00     0.135 A 
ATOM     69  F   UNL A   1      46.001  29.500  34.463  1.00  0.00    -0.206 F 
ATOM     70  C   UNL A   1      46.653  27.695  35.815  1.00  0.00     0.059 A 
ATOM     71  C   UNL A   1      44.968  26.265  36.819  1.00  0.00     0.059 A 
ATOM     72  F   UNL A   1      42.697  26.677  36.406  1.00  0.00    -0.206 F 
ATOM     73  C   UNL A   1      46.304  26.595  36.600  1.00  0.00     0.060 A 
BRANCH  73  74
ATOM     74  S   UNL A   1      47.621  25.596  37.327  1.00  0.00     0.124 S 
ATOM     75  O   UNL A   1      48.565  25.508  36.218  1.00  0.00    -0.237 OA
ATOM     76  O   UNL A   1      48.048  26.414  38.458  1.00  0.00    -0.237 OA
ATOM     77  O   UNL A   1      46.948  24.350  37.679  1.00  0.00    -0.744 OA
ENDBRANCH  73  74
ENDBRANCH  52  66
BRANCH  53  78
ATOM     78  C   UNL A   1      36.880  33.012  30.904  1.00  0.00     0.058 A 
ATOM     79  C   UNL A   1      37.064  34.039  29.968  1.00  0.00     0.135 A 
ATOM     80  C   UNL A   1      35.562  32.623  31.198  1.00  0.00     0.135 A 
ATOM     81  F   UNL A   1      38.303  34.459  29.670  1.00  0.00    -0.206 F 
ATOM     82  C   UNL A   1      35.985  34.656  29.343  1.00  0.00     0.059 A 
ATOM     83  C   UNL A   1      34.469  33.211  30.571  1.00  0.00     0.059 A 
ATOM     84  F   UNL A   1      35.332  31.643  32.085  1.00  0.00    -0.206 F 
ATOM     85  C   UNL A   1      34.691  34.230  29.647  1.00  0.00     0.060 A 
BRANCH  85  86
ATOM     86  S   UNL A   1      33.300  34.986  28.778  1.00  0.00     0.124 S 
ATOM     87  O   UNL A   1      32.792  33.862  27.999  1.00  0.00    -0.237 OA
ATOM     88  O   UNL A   1      32.453  35.433  29.880  1.00  0.00    -0.237 OA
ATOM     89  O   UNL A   1      33.927  36.057  28.007  1.00  0.00    -0.744 OA
ENDBRANCH  85  86
ENDBRANCH  53  78
BRANCH  65  90
ATOM     90  C   UNL A   1      39.892  33.572  37.178  1.00  0.00     0.058 A 
ATOM     91  C   UNL A   1      40.656  34.724  37.421  1.00  0.00     0.135 A 
ATOM     92  C   UNL A   1      38.832  33.294  38.058  1.00  0.00     0.135 A 
ATOM     93  F   UNL A   1      41.686  35.033  36.619  1.00  0.00    -0.206 F 
ATOM     94  C   UNL A   1      40.390  35.561  38.502  1.00  0.00     0.059 A 
ATOM     95  C   UNL A   1      38.533  34.129  39.132  1.00  0.00     0.059 A 
ATOM     96  F   UNL A   1      38.063  32.210  37.868  1.00  0.00    -0.206 F 
ATOM     97  C   UNL A   1      39.324  35.256  39.351  1.00  0.00     0.060 A 
BRANCH  97  98
ATOM     98  S   UNL A   1      38.964  36.370  40.727  1.00  0.00     0.124 S 
ATOM     99  O   UNL A   1      38.113  35.535  41.567  1.00  0.00    -0.237 OA
ATOM    100  O   UNL A   1      40.294  36.655  41.256  1.00  0.00    -0.237 OA
ATOM    101  O   UNL A   1      38.297  37.498  40.084  1.00  0.00    -0.744 OA
ENDBRANCH  97  98
ENDBRANCH  65  90
ENDBRANCH  39  40
ENDBRANCH  32  34
ENDBRANCH  31  32
ENDBRANCH  30  31
ENDBRANCH  29  30
ENDBRANCH  28  29
ENDBRANCH   1  28
TORSDOF 25
ENDMDL
