MODEL 1
REMARK VINA RESULT:     -13.1      0.000      0.000
REMARK SMILES Cc1ccccc1-c1c(Cl)ccc2c1C=C(C(=O)OCCOCCOCCOC(=O)c1ccc(-c3c4nc(c(-c5c(F)cc(S(=O)(=O)[O-])cc5F)c5ccc([nH]5)c(-c5c(F)cc(S(=O)(=O)[O-])cc5F)c5nc(c(-c6c(F)cc(S(=O)(=O)[O-])cc6F)c6ccc3[nH]6)C=C5)C=C4)cc1)[C@@H](C(F)(F)F)O2
REMARK SMILES IDX 24 1 23 2 22 3 21 4 20 5 19 6 17 7 18 8 16 9 8 10 9 11 14 12
REMARK SMILES IDX 10 13 11 14 13 15 15 16 12 17 102 18 97 19 7 20 1 21 2 22
REMARK SMILES IDX 3 23 4 24 6 25 5 26 98 27 99 28 100 29 101 30 25 31 26 32
REMARK SMILES IDX 27 33 28 34 29 35 30 36 31 37 32 38 96 39 33 40 95 41 34 42
REMARK SMILES IDX 35 43 36 44 89 45 37 46 94 47 88 48 90 49 38 50 93 51 87 52
REMARK SMILES IDX 86 53 39 55 73 56 52 57 72 58 53 59 56 60 71 61 91 62 54 63
REMARK SMILES IDX 55 64 70 66 92 67 57 68 40 69 41 70 50 71 42 72 43 73 49 74
REMARK SMILES IDX 51 75 44 76 45 77 46 78 47 79 48 80 74 81 75 82 84 83 76 84
REMARK SMILES IDX 77 85 83 86 85 87 78 88 79 89 80 90 81 91 82 92 58 93 59 94
REMARK SMILES IDX 68 95 60 96 61 97 67 98 69 99 62 100 63 101 64 102 65 103
REMARK SMILES IDX 66 104
REMARK H PARENT 90 54 56 65
REMARK Flexibility Score: inf
ROOT
ATOM      1  C   UNL A   1      38.666  19.694  25.037  1.00  0.00     0.188 C 
ENDROOT
BRANCH   1   2
ATOM      2  C   UNL A   1      37.327  20.364  24.871  1.00  0.00     0.188 C 
BRANCH   2   3
ATOM      3  O   UNL A   1      36.094  19.748  25.235  1.00  0.00    -0.376 OA
BRANCH   3   4
ATOM      4  C   UNL A   1      34.797  19.755  24.615  1.00  0.00     0.202 C 
BRANCH   4   5
ATOM      5  C   UNL A   1      33.784  20.888  23.762  1.00  0.00     0.261 C 
BRANCH   5   6
ATOM      6  O   UNL A   1      33.559  22.666  23.719  1.00  0.00    -0.460 OA
BRANCH   6   7
ATOM      7  C   UNL A   1      33.547  23.897  24.450  1.00  0.00     0.338 C 
ATOM      8  O   UNL A   1      34.256  24.876  24.233  1.00  0.00    -0.246 OA
BRANCH   7   9
ATOM      9  C   UNL A   1      32.618  24.060  25.638  1.00  0.00     0.087 C 
ATOM     10  C   UNL A   1      31.274  27.495  24.908  1.00  0.00     0.012 A 
ATOM     11  C   UNL A   1      30.330  28.047  24.007  1.00  0.00     0.049 A 
ATOM     12  C   UNL A   1      31.335  26.079  25.047  1.00  0.00     0.027 A 
ATOM     13  Cl  UNL A   1      30.263  29.747  23.666  1.00  0.00    -0.084 Cl
ATOM     14  C   UNL A   1      29.430  27.237  23.312  1.00  0.00     0.025 A 
ATOM     15  C   UNL A   1      30.420  25.286  24.331  1.00  0.00     0.128 A 
ATOM     16  C   UNL A   1      32.410  25.388  25.854  1.00  0.00     0.028 C 
ATOM     17  C   UNL A   1      29.474  25.858  23.477  1.00  0.00     0.049 A 
ATOM     18  O   UNL A   1      30.435  23.917  24.370  1.00  0.00    -0.475 OA
ATOM     19  C   UNL A   1      31.272  23.318  25.391  1.00  0.00     0.316 C 
BRANCH  10  20
ATOM     20  C   UNL A   1      32.200  28.365  25.662  1.00  0.00    -0.013 A 
ATOM     21  C   UNL A   1      33.966  28.271  23.829  1.00  0.00     0.045 C 
ATOM     22  C   UNL A   1      33.484  28.686  25.187  1.00  0.00    -0.043 A 
ATOM     23  C   UNL A   1      34.358  29.439  25.988  1.00  0.00     0.004 A 
ATOM     24  C   UNL A   1      33.949  29.922  27.227  1.00  0.00     0.000 A 
ATOM     25  C   UNL A   1      31.797  28.884  26.907  1.00  0.00     0.009 A 
ATOM     26  C   UNL A   1      32.658  29.664  27.677  1.00  0.00     0.001 A 
ENDBRANCH  10  20
BRANCH  19  27
ATOM     27  C   UNL A   1      30.430  23.146  26.672  1.00  0.00     0.430 C 
ATOM     28  F   UNL A   1      29.581  22.094  26.586  1.00  0.00    -0.167 F 
ATOM     29  F   UNL A   1      31.221  22.925  27.752  1.00  0.00    -0.167 F 
ATOM     30  F   UNL A   1      29.672  24.234  26.962  1.00  0.00    -0.167 F 
ENDBRANCH  19  27
ENDBRANCH   7   9
ENDBRANCH   6   7
ENDBRANCH   5   6
ENDBRANCH   4   5
ENDBRANCH   3   4
ENDBRANCH   2   3
ENDBRANCH   1   2
BRANCH   1  31
ATOM     31  O   UNL A   1      39.372  20.317  26.088  1.00  0.00    -0.376 OA
BRANCH  31  32
ATOM     32  C   UNL A   1      40.701  19.861  26.216  1.00  0.00     0.202 C 
BRANCH  32  33
ATOM     33  C   UNL A   1      41.726  21.000  26.212  1.00  0.00     0.261 C 
BRANCH  33  34
ATOM     34  O   UNL A   1      41.099  22.295  26.322  1.00  0.00    -0.460 OA
BRANCH  34  35
ATOM     35  C   UNL A   1      41.849  23.399  25.942  1.00  0.00     0.338 C 
ATOM     36  O   UNL A   1      42.740  23.334  25.147  1.00  0.00    -0.246 OA
BRANCH  35  37
ATOM     37  C   UNL A   1      41.171  24.653  26.409  1.00  0.00     0.060 A 
ATOM     38  C   UNL A   1      41.291  25.969  25.975  1.00  0.00     0.016 A 
ATOM     39  C   UNL A   1      40.270  24.489  27.387  1.00  0.00     0.016 A 
ATOM     40  C   UNL A   1      40.812  27.124  26.757  1.00  0.00     0.010 A 
ATOM     41  C   UNL A   1      39.816  25.621  28.072  1.00  0.00     0.010 A 
ATOM     42  C   UNL A   1      40.190  27.018  28.013  1.00  0.00    -0.014 A 
BRANCH  42  43
ATOM     43  C   UNL A   1      40.109  28.353  29.209  1.00  0.00     0.031 A 
ATOM     44  C   UNL A   1      38.810  29.432  29.806  1.00  0.00     0.074 A 
ATOM     45  C   UNL A   1      41.201  28.528  30.024  1.00  0.00     0.049 A 
ATOM     46  N   UNL A   1      38.846  30.139  30.923  1.00  0.00    -0.248 NA
ATOM     47  C   UNL A   1      37.410  29.753  29.273  1.00  0.00     0.031 C 
ATOM     48  C   UNL A   1      41.385  29.402  31.199  1.00  0.00     0.029 A 
ATOM     49  N   UNL A   1      42.460  27.917  29.938  1.00  0.00    -0.354 N 
ATOM     50  C   UNL A   1      37.683  30.896  31.010  1.00  0.00     0.074 A 
ATOM     51  C   UNL A   1      36.700  30.166  30.315  1.00  0.00     0.031 C 
ATOM     52  C   UNL A   1      42.682  29.507  31.513  1.00  0.00     0.029 A 
ATOM     53  C   UNL A   1      43.407  28.775  30.512  1.00  0.00     0.049 A 
ATOM     54  H   UNL A   1      42.647  27.035  29.541  1.00  0.00     0.167 HD
ATOM     55  C   UNL A   1      37.604  32.256  31.124  1.00  0.00     0.037 A 
ATOM     56  C   UNL A   1      44.408  29.273  29.746  1.00  0.00     0.037 A 
ATOM     57  C   UNL A   1      38.913  32.835  31.268  1.00  0.00     0.049 A 
ATOM     58  C   UNL A   1      44.160  30.742  29.522  1.00  0.00     0.074 A 
ATOM     59  C   UNL A   1      39.701  33.012  32.386  1.00  0.00     0.029 A 
ATOM     60  N   UNL A   1      39.751  32.954  30.153  1.00  0.00    -0.354 N 
ATOM     61  N   UNL A   1      42.979  31.312  29.519  1.00  0.00    -0.248 NA
ATOM     62  C   UNL A   1      45.256  31.699  29.463  1.00  0.00     0.031 C 
ATOM     63  C   UNL A   1      41.036  33.186  31.947  1.00  0.00     0.029 A 
ATOM     64  C   UNL A   1      41.054  33.198  30.558  1.00  0.00     0.049 A 
ATOM     65  H   UNL A   1      39.458  32.876  29.216  1.00  0.00     0.167 HD
ATOM     66  C   UNL A   1      43.141  32.672  29.505  1.00  0.00     0.074 A 
ATOM     67  C   UNL A   1      44.584  32.861  29.461  1.00  0.00     0.031 C 
ATOM     68  C   UNL A   1      42.128  33.582  29.644  1.00  0.00     0.037 A 
BRANCH  55  69
ATOM     69  C   UNL A   1      36.249  32.972  31.145  1.00  0.00     0.058 A 
ATOM     70  C   UNL A   1      35.841  33.733  30.038  1.00  0.00     0.135 A 
ATOM     71  C   UNL A   1      35.410  33.102  32.284  1.00  0.00     0.135 A 
ATOM     72  F   UNL A   1      36.521  33.665  28.885  1.00  0.00    -0.206 F 
ATOM     73  C   UNL A   1      34.773  34.648  30.102  1.00  0.00     0.059 A 
ATOM     74  C   UNL A   1      34.367  34.030  32.386  1.00  0.00     0.059 A 
ATOM     75  F   UNL A   1      35.634  32.394  33.399  1.00  0.00    -0.206 F 
ATOM     76  C   UNL A   1      34.074  34.828  31.295  1.00  0.00     0.060 A 
BRANCH  76  77
ATOM     77  S   UNL A   1      32.894  36.193  31.458  1.00  0.00     0.124 S 
ATOM     78  O   UNL A   1      33.699  37.221  32.108  1.00  0.00    -0.237 OA
ATOM     79  O   UNL A   1      32.529  36.452  30.070  1.00  0.00    -0.237 OA
ATOM     80  O   UNL A   1      31.833  35.630  32.291  1.00  0.00    -0.744 OA
ENDBRANCH  76  77
ENDBRANCH  55  69
BRANCH  56  81
ATOM     81  C   UNL A   1      44.977  28.227  28.848  1.00  0.00     0.058 A 
ATOM     82  C   UNL A   1      44.531  28.260  27.500  1.00  0.00     0.135 A 
ATOM     83  C   UNL A   1      46.149  27.509  29.107  1.00  0.00     0.135 A 
ATOM     84  F   UNL A   1      43.415  28.937  27.178  1.00  0.00    -0.206 F 
ATOM     85  C   UNL A   1      45.282  27.747  26.450  1.00  0.00     0.059 A 
ATOM     86  C   UNL A   1      46.911  26.954  28.060  1.00  0.00     0.059 A 
ATOM     87  F   UNL A   1      46.643  27.452  30.352  1.00  0.00    -0.206 F 
ATOM     88  C   UNL A   1      46.490  27.124  26.734  1.00  0.00     0.060 A 
BRANCH  88  89
ATOM     89  S   UNL A   1      47.549  26.716  25.318  1.00  0.00     0.124 S 
ATOM     90  O   UNL A   1      46.736  27.146  24.189  1.00  0.00    -0.237 OA
ATOM     91  O   UNL A   1      48.729  27.541  25.589  1.00  0.00    -0.237 OA
ATOM     92  O   UNL A   1      47.744  25.279  25.458  1.00  0.00    -0.744 OA
ENDBRANCH  88  89
ENDBRANCH  56  81
BRANCH  68  93
ATOM     93  C   UNL A   1      42.238  35.037  29.217  1.00  0.00     0.058 A 
ATOM     94  C   UNL A   1      41.403  35.633  28.253  1.00  0.00     0.135 A 
ATOM     95  C   UNL A   1      43.137  35.928  29.854  1.00  0.00     0.135 A 
ATOM     96  F   UNL A   1      40.370  34.975  27.710  1.00  0.00    -0.206 F 
ATOM     97  C   UNL A   1      41.554  36.953  27.836  1.00  0.00     0.059 A 
ATOM     98  C   UNL A   1      43.269  37.267  29.490  1.00  0.00     0.059 A 
ATOM     99  F   UNL A   1      43.908  35.543  30.881  1.00  0.00    -0.206 F 
ATOM    100  C   UNL A   1      42.504  37.759  28.446  1.00  0.00     0.060 A 
BRANCH 100 101
ATOM    101  S   UNL A   1      42.682  39.464  27.905  1.00  0.00     0.124 S 
ATOM    102  O   UNL A   1      42.058  39.415  26.586  1.00  0.00    -0.237 OA
ATOM    103  O   UNL A   1      41.939  40.201  28.923  1.00  0.00    -0.237 OA
ATOM    104  O   UNL A   1      44.125  39.676  27.913  1.00  0.00    -0.744 OA
ENDBRANCH 100 101
ENDBRANCH  68  93
ENDBRANCH  42  43
ENDBRANCH  35  37
ENDBRANCH  34  35
ENDBRANCH  33  34
ENDBRANCH  32  33
ENDBRANCH  31  32
ENDBRANCH   1  31
TORSDOF 22
ENDMDL
MODEL 2
REMARK VINA RESULT:     -12.8      4.253     10.761
REMARK SMILES Cc1ccccc1-c1c(Cl)ccc2c1C=C(C(=O)OCCOCCOCCOC(=O)c1ccc(-c3c4nc(c(-c5c(F)cc(S(=O)(=O)[O-])cc5F)c5ccc([nH]5)c(-c5c(F)cc(S(=O)(=O)[O-])cc5F)c5nc(c(-c6c(F)cc(S(=O)(=O)[O-])cc6F)c6ccc3[nH]6)C=C5)C=C4)cc1)[C@@H](C(F)(F)F)O2
REMARK SMILES IDX 24 1 23 2 22 3 21 4 20 5 19 6 17 7 18 8 16 9 8 10 9 11 14 12
REMARK SMILES IDX 10 13 11 14 13 15 15 16 12 17 102 18 97 19 7 20 1 21 2 22
REMARK SMILES IDX 3 23 4 24 6 25 5 26 98 27 99 28 100 29 101 30 25 31 26 32
REMARK SMILES IDX 27 33 28 34 29 35 30 36 31 37 32 38 96 39 33 40 95 41 34 42
REMARK SMILES IDX 35 43 36 44 89 45 37 46 94 47 88 48 90 49 38 50 93 51 87 52
REMARK SMILES IDX 86 53 39 55 73 56 52 57 72 58 53 59 56 60 71 61 91 62 54 63
REMARK SMILES IDX 55 64 70 66 92 67 57 68 40 69 41 70 50 71 42 72 43 73 49 74
REMARK SMILES IDX 51 75 44 76 45 77 46 78 47 79 48 80 74 81 75 82 84 83 76 84
REMARK SMILES IDX 77 85 83 86 85 87 78 88 79 89 80 90 81 91 82 92 58 93 59 94
REMARK SMILES IDX 68 95 60 96 61 97 67 98 69 99 62 100 63 101 64 102 65 103
REMARK SMILES IDX 66 104
REMARK H PARENT 90 54 56 65
REMARK Flexibility Score: inf
ROOT
ATOM      1  C   UNL A   1      31.445  29.163  23.301  1.00  0.00     0.188 C 
ENDROOT
BRANCH   1   2
ATOM      2  C   UNL A   1      30.346  29.532  22.341  1.00  0.00     0.188 C 
BRANCH   2   3
ATOM      3  O   UNL A   1      28.991  29.119  22.506  1.00  0.00    -0.376 OA
BRANCH   3   4
ATOM      4  C   UNL A   1      28.406  27.984  23.167  1.00  0.00     0.202 C 
BRANCH   4   5
ATOM      5  C   UNL A   1      28.942  26.652  24.153  1.00  0.00     0.261 C 
BRANCH   5   6
ATOM      6  O   UNL A   1      30.379  26.258  25.150  1.00  0.00    -0.460 OA
BRANCH   6   7
ATOM      7  C   UNL A   1      31.740  25.814  25.179  1.00  0.00     0.338 C 
ATOM      8  O   UNL A   1      32.365  25.454  26.173  1.00  0.00    -0.246 OA
BRANCH   7   9
ATOM      9  C   UNL A   1      32.554  25.794  23.899  1.00  0.00     0.087 C 
ATOM     10  C   UNL A   1      34.208  22.438  24.268  1.00  0.00     0.012 A 
ATOM     11  C   UNL A   1      33.810  21.085  24.117  1.00  0.00     0.049 A 
ATOM     12  C   UNL A   1      33.338  23.460  23.793  1.00  0.00     0.027 A 
ATOM     13  Cl  UNL A   1      34.733  19.772  24.775  1.00  0.00    -0.084 Cl
ATOM     14  C   UNL A   1      32.625  20.747  23.463  1.00  0.00     0.025 A 
ATOM     15  C   UNL A   1      32.146  23.090  23.144  1.00  0.00     0.128 A 
ATOM     16  C   UNL A   1      33.593  24.927  24.052  1.00  0.00     0.028 C 
ATOM     17  C   UNL A   1      31.795  21.749  22.974  1.00  0.00     0.049 A 
ATOM     18  O   UNL A   1      31.230  24.006  22.696  1.00  0.00    -0.475 OA
ATOM     19  C   UNL A   1      31.665  25.389  22.686  1.00  0.00     0.316 C 
BRANCH  10  20
ATOM     20  C   UNL A   1      35.481  22.782  24.933  1.00  0.00    -0.013 A 
ATOM     21  C   UNL A   1      34.390  22.868  27.233  1.00  0.00     0.045 C 
ATOM     22  C   UNL A   1      35.562  23.040  26.313  1.00  0.00    -0.043 A 
ATOM     23  C   UNL A   1      36.779  23.457  26.876  1.00  0.00     0.004 A 
ATOM     24  C   UNL A   1      37.925  23.563  26.095  1.00  0.00     0.000 A 
ATOM     25  C   UNL A   1      36.657  22.871  24.165  1.00  0.00     0.009 A 
ATOM     26  C   UNL A   1      37.870  23.247  24.742  1.00  0.00     0.001 A 
ENDBRANCH  10  20
BRANCH  19  27
ATOM     27  C   UNL A   1      32.326  25.683  21.324  1.00  0.00     0.430 C 
ATOM     28  F   UNL A   1      31.427  26.096  20.399  1.00  0.00    -0.167 F 
ATOM     29  F   UNL A   1      33.257  26.663  21.433  1.00  0.00    -0.167 F 
ATOM     30  F   UNL A   1      32.959  24.605  20.795  1.00  0.00    -0.167 F 
ENDBRANCH  19  27
ENDBRANCH   7   9
ENDBRANCH   6   7
ENDBRANCH   5   6
ENDBRANCH   4   5
ENDBRANCH   3   4
ENDBRANCH   2   3
ENDBRANCH   1   2
BRANCH   1  31
ATOM     31  O   UNL A   1      31.131  29.663  24.583  1.00  0.00    -0.376 OA
BRANCH  31  32
ATOM     32  C   UNL A   1      32.080  29.313  25.567  1.00  0.00     0.202 C 
BRANCH  32  33
ATOM     33  C   UNL A   1      32.736  30.532  26.224  1.00  0.00     0.261 C 
BRANCH  33  34
ATOM     34  O   UNL A   1      33.988  30.199  26.860  1.00  0.00    -0.460 OA
BRANCH  34  35
ATOM     35  C   UNL A   1      34.673  31.227  27.492  1.00  0.00     0.338 C 
ATOM     36  O   UNL A   1      34.182  32.295  27.709  1.00  0.00    -0.246 OA
BRANCH  35  37
ATOM     37  C   UNL A   1      35.926  30.687  28.116  1.00  0.00     0.060 A 
ATOM     38  C   UNL A   1      36.959  31.332  28.789  1.00  0.00     0.016 A 
ATOM     39  C   UNL A   1      36.073  29.357  28.051  1.00  0.00     0.016 A 
ATOM     40  C   UNL A   1      38.272  30.707  29.040  1.00  0.00     0.010 A 
ATOM     41  C   UNL A   1      37.329  28.810  28.339  1.00  0.00     0.010 A 
ATOM     42  C   UNL A   1      38.614  29.408  28.630  1.00  0.00    -0.014 A 
BRANCH  42  43
ATOM     43  C   UNL A   1      40.301  28.835  28.414  1.00  0.00     0.031 A 
ATOM     44  C   UNL A   1      41.069  27.496  27.506  1.00  0.00     0.074 A 
ATOM     45  C   UNL A   1      41.303  29.659  28.865  1.00  0.00     0.049 A 
ATOM     46  N   UNL A   1      42.351  27.413  27.189  1.00  0.00    -0.248 NA
ATOM     47  C   UNL A   1      40.499  26.233  26.852  1.00  0.00     0.031 C 
ATOM     48  C   UNL A   1      42.766  29.567  28.691  1.00  0.00     0.029 A 
ATOM     49  N   UNL A   1      41.193  30.823  29.639  1.00  0.00    -0.354 N 
ATOM     50  C   UNL A   1      42.574  26.203  26.541  1.00  0.00     0.074 A 
ATOM     51  C   UNL A   1      41.360  25.883  25.904  1.00  0.00     0.031 C 
ATOM     52  C   UNL A   1      43.397  30.385  29.541  1.00  0.00     0.029 A 
ATOM     53  C   UNL A   1      42.382  30.986  30.362  1.00  0.00     0.049 A 
ATOM     54  H   UNL A   1      40.412  31.422  29.670  1.00  0.00     0.167 HD
ATOM     55  C   UNL A   1      43.450  25.226  26.921  1.00  0.00     0.037 A 
ATOM     56  C   UNL A   1      42.349  30.960  31.716  1.00  0.00     0.037 A 
ATOM     57  C   UNL A   1      44.238  25.653  28.046  1.00  0.00     0.049 A 
ATOM     58  C   UNL A   1      42.991  29.682  32.189  1.00  0.00     0.074 A 
ATOM     59  C   UNL A   1      45.395  26.402  28.104  1.00  0.00     0.029 A 
ATOM     60  N   UNL A   1      43.672  25.674  29.327  1.00  0.00    -0.354 N 
ATOM     61  N   UNL A   1      43.029  28.563  31.507  1.00  0.00    -0.248 NA
ATOM     62  C   UNL A   1      43.795  29.638  33.403  1.00  0.00     0.031 C 
ATOM     63  C   UNL A   1      45.503  26.924  29.415  1.00  0.00     0.029 A 
ATOM     64  C   UNL A   1      44.457  26.430  30.183  1.00  0.00     0.049 A 
ATOM     65  H   UNL A   1      42.837  25.218  29.582  1.00  0.00     0.167 HD
ATOM     66  C   UNL A   1      43.871  27.685  32.138  1.00  0.00     0.074 A 
ATOM     67  C   UNL A   1      44.316  28.404  33.323  1.00  0.00     0.031 C 
ATOM     68  C   UNL A   1      44.262  26.476  31.632  1.00  0.00     0.037 A 
BRANCH  55  69
ATOM     69  C   UNL A   1      43.551  23.906  26.147  1.00  0.00     0.058 A 
ATOM     70  C   UNL A   1      42.847  22.776  26.594  1.00  0.00     0.135 A 
ATOM     71  C   UNL A   1      44.459  23.646  25.087  1.00  0.00     0.135 A 
ATOM     72  F   UNL A   1      41.926  22.895  27.561  1.00  0.00    -0.206 F 
ATOM     73  C   UNL A   1      43.124  21.478  26.125  1.00  0.00     0.059 A 
ATOM     74  C   UNL A   1      44.779  22.363  24.628  1.00  0.00     0.059 A 
ATOM     75  F   UNL A   1      45.160  24.632  24.512  1.00  0.00    -0.206 F 
ATOM     76  C   UNL A   1      44.127  21.275  25.179  1.00  0.00     0.060 A 
BRANCH  76  77
ATOM     77  S   UNL A   1      44.671  19.593  24.782  1.00  0.00     0.124 S 
ATOM     78  O   UNL A   1      46.072  19.617  25.189  1.00  0.00    -0.237 OA
ATOM     79  O   UNL A   1      43.783  18.779  25.605  1.00  0.00    -0.237 OA
ATOM     80  O   UNL A   1      44.455  19.494  23.340  1.00  0.00    -0.744 OA
ENDBRANCH  76  77
ENDBRANCH  55  69
BRANCH  56  81
ATOM     81  C   UNL A   1      41.186  31.728  32.247  1.00  0.00     0.058 A 
ATOM     82  C   UNL A   1      40.114  30.950  32.761  1.00  0.00     0.135 A 
ATOM     83  C   UNL A   1      41.229  33.073  32.628  1.00  0.00     0.135 A 
ATOM     84  F   UNL A   1      40.015  29.648  32.440  1.00  0.00    -0.206 F 
ATOM     85  C   UNL A   1      39.230  31.433  33.717  1.00  0.00     0.059 A 
ATOM     86  C   UNL A   1      40.323  33.591  33.573  1.00  0.00     0.059 A 
ATOM     87  F   UNL A   1      42.223  33.863  32.200  1.00  0.00    -0.206 F 
ATOM     88  C   UNL A   1      39.361  32.747  34.146  1.00  0.00     0.060 A 
BRANCH  88  89
ATOM     89  S   UNL A   1      38.363  33.241  35.578  1.00  0.00     0.124 S 
ATOM     90  O   UNL A   1      37.934  34.582  35.208  1.00  0.00    -0.237 OA
ATOM     91  O   UNL A   1      37.312  32.222  35.567  1.00  0.00    -0.237 OA
ATOM     92  O   UNL A   1      39.309  33.153  36.683  1.00  0.00    -0.744 OA
ENDBRANCH  88  89
ENDBRANCH  56  81
BRANCH  68  93
ATOM     93  C   UNL A   1      44.832  25.350  32.481  1.00  0.00     0.058 A 
ATOM     94  C   UNL A   1      44.259  24.068  32.565  1.00  0.00     0.135 A 
ATOM     95  C   UNL A   1      46.061  25.496  33.171  1.00  0.00     0.135 A 
ATOM     96  F   UNL A   1      43.211  23.713  31.809  1.00  0.00    -0.206 F 
ATOM     97  C   UNL A   1      44.765  23.067  33.390  1.00  0.00     0.059 A 
ATOM     98  C   UNL A   1      46.615  24.491  33.961  1.00  0.00     0.059 A 
ATOM     99  F   UNL A   1      46.795  26.615  33.085  1.00  0.00    -0.206 F 
ATOM    100  C   UNL A   1      45.935  23.293  34.101  1.00  0.00     0.060 A 
BRANCH 100 101
ATOM    101  S   UNL A   1      46.583  21.990  35.156  1.00  0.00     0.124 S 
ATOM    102  O   UNL A   1      45.935  20.811  34.589  1.00  0.00    -0.237 OA
ATOM    103  O   UNL A   1      48.022  22.084  34.931  1.00  0.00    -0.237 OA
ATOM    104  O   UNL A   1      46.135  22.375  36.490  1.00  0.00    -0.744 OA
ENDBRANCH 100 101
ENDBRANCH  68  93
ENDBRANCH  42  43
ENDBRANCH  35  37
ENDBRANCH  34  35
ENDBRANCH  33  34
ENDBRANCH  32  33
ENDBRANCH  31  32
ENDBRANCH   1  31
TORSDOF 22
ENDMDL
MODEL 3
REMARK VINA RESULT:     -12.7      1.576      2.430
REMARK SMILES Cc1ccccc1-c1c(Cl)ccc2c1C=C(C(=O)OCCOCCOCCOC(=O)c1ccc(-c3c4nc(c(-c5c(F)cc(S(=O)(=O)[O-])cc5F)c5ccc([nH]5)c(-c5c(F)cc(S(=O)(=O)[O-])cc5F)c5nc(c(-c6c(F)cc(S(=O)(=O)[O-])cc6F)c6ccc3[nH]6)C=C5)C=C4)cc1)[C@@H](C(F)(F)F)O2
REMARK SMILES IDX 24 1 23 2 22 3 21 4 20 5 19 6 17 7 18 8 16 9 8 10 9 11 14 12
REMARK SMILES IDX 10 13 11 14 13 15 15 16 12 17 102 18 97 19 7 20 1 21 2 22
REMARK SMILES IDX 3 23 4 24 6 25 5 26 98 27 99 28 100 29 101 30 25 31 26 32
REMARK SMILES IDX 27 33 28 34 29 35 30 36 31 37 32 38 96 39 33 40 95 41 34 42
REMARK SMILES IDX 35 43 36 44 89 45 37 46 94 47 88 48 90 49 38 50 93 51 87 52
REMARK SMILES IDX 86 53 39 55 73 56 52 57 72 58 53 59 56 60 71 61 91 62 54 63
REMARK SMILES IDX 55 64 70 66 92 67 57 68 40 69 41 70 50 71 42 72 43 73 49 74
REMARK SMILES IDX 51 75 44 76 45 77 46 78 47 79 48 80 74 81 75 82 84 83 76 84
REMARK SMILES IDX 77 85 83 86 85 87 78 88 79 89 80 90 81 91 82 92 58 93 59 94
REMARK SMILES IDX 68 95 60 96 61 97 67 98 69 99 62 100 63 101 64 102 65 103
REMARK SMILES IDX 66 104
REMARK H PARENT 90 54 56 65
REMARK Flexibility Score: inf
ROOT
ATOM      1  C   UNL A   1      38.667  20.628  25.437  1.00  0.00     0.188 C 
ENDROOT
BRANCH   1   2
ATOM      2  C   UNL A   1      37.412  21.334  24.998  1.00  0.00     0.188 C 
BRANCH   2   3
ATOM      3  O   UNL A   1      36.163  21.204  25.674  1.00  0.00    -0.376 OA
BRANCH   3   4
ATOM      4  C   UNL A   1      34.987  20.432  25.380  1.00  0.00     0.202 C 
BRANCH   4   5
ATOM      5  C   UNL A   1      33.303  20.431  25.828  1.00  0.00     0.261 C 
BRANCH   5   6
ATOM      6  O   UNL A   1      31.843  21.392  25.429  1.00  0.00    -0.460 OA
BRANCH   6   7
ATOM      7  C   UNL A   1      31.311  22.628  24.938  1.00  0.00     0.338 C 
ATOM      8  O   UNL A   1      30.344  23.233  25.394  1.00  0.00    -0.246 OA
BRANCH   7   9
ATOM      9  C   UNL A   1      31.933  23.287  23.722  1.00  0.00     0.087 C 
ATOM     10  C   UNL A   1      31.608  26.893  24.736  1.00  0.00     0.012 A 
ATOM     11  C   UNL A   1      32.277  27.761  25.634  1.00  0.00     0.049 A 
ATOM     12  C   UNL A   1      32.194  25.627  24.449  1.00  0.00     0.027 A 
ATOM     13  Cl  UNL A   1      31.587  29.266  26.150  1.00  0.00    -0.084 Cl
ATOM     14  C   UNL A   1      33.514  27.423  26.184  1.00  0.00     0.025 A 
ATOM     15  C   UNL A   1      33.438  25.309  25.022  1.00  0.00     0.128 A 
ATOM     16  C   UNL A   1      31.482  24.568  23.638  1.00  0.00     0.028 C 
ATOM     17  C   UNL A   1      34.096  26.198  25.875  1.00  0.00     0.049 A 
ATOM     18  O   UNL A   1      34.053  24.098  24.837  1.00  0.00    -0.475 OA
ATOM     19  C   UNL A   1      33.488  23.247  23.808  1.00  0.00     0.316 C 
BRANCH  10  20
ATOM     20  C   UNL A   1      30.314  27.276  24.135  1.00  0.00    -0.013 A 
ATOM     21  C   UNL A   1      31.392  29.059  22.668  1.00  0.00     0.045 C 
ATOM     22  C   UNL A   1      30.198  28.327  23.207  1.00  0.00    -0.043 A 
ATOM     23  C   UNL A   1      28.931  28.711  22.741  1.00  0.00     0.004 A 
ATOM     24  C   UNL A   1      27.788  28.026  23.140  1.00  0.00     0.000 A 
ATOM     25  C   UNL A   1      29.149  26.580  24.506  1.00  0.00     0.009 A 
ATOM     26  C   UNL A   1      27.899  26.943  24.006  1.00  0.00     0.001 A 
ENDBRANCH  10  20
BRANCH  19  27
ATOM     27  C   UNL A   1      34.179  23.577  22.469  1.00  0.00     0.430 C 
ATOM     28  F   UNL A   1      34.290  24.912  22.269  1.00  0.00    -0.167 F 
ATOM     29  F   UNL A   1      35.435  23.067  22.428  1.00  0.00    -0.167 F 
ATOM     30  F   UNL A   1      33.522  23.076  21.392  1.00  0.00    -0.167 F 
ENDBRANCH  19  27
ENDBRANCH   7   9
ENDBRANCH   6   7
ENDBRANCH   5   6
ENDBRANCH   4   5
ENDBRANCH   3   4
ENDBRANCH   2   3
ENDBRANCH   1   2
BRANCH   1  31
ATOM     31  O   UNL A   1      39.376  21.453  26.336  1.00  0.00    -0.376 OA
BRANCH  31  32
ATOM     32  C   UNL A   1      40.606  20.899  26.752  1.00  0.00     0.202 C 
BRANCH  32  33
ATOM     33  C   UNL A   1      41.817  21.692  26.250  1.00  0.00     0.261 C 
BRANCH  33  34
ATOM     34  O   UNL A   1      41.429  22.918  25.593  1.00  0.00    -0.460 OA
BRANCH  34  35
ATOM     35  C   UNL A   1      42.306  23.990  25.680  1.00  0.00     0.338 C 
ATOM     36  O   UNL A   1      43.376  23.997  25.147  1.00  0.00    -0.246 OA
BRANCH  35  37
ATOM     37  C   UNL A   1      41.587  25.185  26.232  1.00  0.00     0.060 A 
ATOM     38  C   UNL A   1      41.528  26.501  25.783  1.00  0.00     0.016 A 
ATOM     39  C   UNL A   1      40.843  24.955  27.323  1.00  0.00     0.016 A 
ATOM     40  C   UNL A   1      41.055  27.619  26.621  1.00  0.00     0.010 A 
ATOM     41  C   UNL A   1      40.384  26.052  28.061  1.00  0.00     0.010 A 
ATOM     42  C   UNL A   1      40.619  27.475  27.949  1.00  0.00    -0.014 A 
BRANCH  42  43
ATOM     43  C   UNL A   1      40.578  28.814  29.143  1.00  0.00     0.031 A 
ATOM     44  C   UNL A   1      39.286  29.836  29.846  1.00  0.00     0.074 A 
ATOM     45  C   UNL A   1      41.727  29.047  29.859  1.00  0.00     0.049 A 
ATOM     46  N   UNL A   1      39.385  30.552  30.953  1.00  0.00    -0.248 NA
ATOM     47  C   UNL A   1      37.832  30.086  29.435  1.00  0.00     0.031 C 
ATOM     48  C   UNL A   1      41.970  29.938  31.011  1.00  0.00     0.029 A 
ATOM     49  N   UNL A   1      43.002  28.494  29.667  1.00  0.00    -0.354 N 
ATOM     50  C   UNL A   1      38.199  31.255  31.138  1.00  0.00     0.074 A 
ATOM     51  C   UNL A   1      37.196  30.474  30.533  1.00  0.00     0.031 C 
ATOM     52  C   UNL A   1      43.283  30.105  31.211  1.00  0.00     0.029 A 
ATOM     53  C   UNL A   1      43.953  29.400  30.154  1.00  0.00     0.049 A 
ATOM     54  H   UNL A   1      43.195  27.619  29.259  1.00  0.00     0.167 HD
ATOM     55  C   UNL A   1      38.066  32.610  31.253  1.00  0.00     0.037 A 
ATOM     56  C   UNL A   1      44.859  29.938  29.302  1.00  0.00     0.037 A 
ATOM     57  C   UNL A   1      39.354  33.251  31.281  1.00  0.00     0.049 A 
ATOM     58  C   UNL A   1      44.523  31.392  29.095  1.00  0.00     0.074 A 
ATOM     59  C   UNL A   1      40.226  33.473  32.326  1.00  0.00     0.029 A 
ATOM     60  N   UNL A   1      40.086  33.401  30.097  1.00  0.00    -0.354 N 
ATOM     61  N   UNL A   1      43.321  31.906  29.192  1.00  0.00    -0.248 NA
ATOM     62  C   UNL A   1      45.564  32.400  28.938  1.00  0.00     0.031 C 
ATOM     63  C   UNL A   1      41.508  33.706  31.772  1.00  0.00     0.029 A 
ATOM     64  C   UNL A   1      41.406  33.708  30.387  1.00  0.00     0.049 A 
ATOM     65  H   UNL A   1      39.717  33.302  29.189  1.00  0.00     0.167 HD
ATOM     66  C   UNL A   1      43.417  33.273  29.159  1.00  0.00     0.074 A 
ATOM     67  C   UNL A   1      44.840  33.528  28.990  1.00  0.00     0.031 C 
ATOM     68  C   UNL A   1      42.378  34.135  29.382  1.00  0.00     0.037 A 
BRANCH  55  69
ATOM     69  C   UNL A   1      36.686  33.263  31.389  1.00  0.00     0.058 A 
ATOM     70  C   UNL A   1      36.047  33.794  30.257  1.00  0.00     0.135 A 
ATOM     71  C   UNL A   1      36.040  33.561  32.618  1.00  0.00     0.135 A 
ATOM     72  F   UNL A   1      36.530  33.547  29.031  1.00  0.00    -0.206 F 
ATOM     73  C   UNL A   1      34.941  34.661  30.350  1.00  0.00     0.059 A 
ATOM     74  C   UNL A   1      34.964  34.449  32.741  1.00  0.00     0.059 A 
ATOM     75  F   UNL A   1      36.495  33.076  33.781  1.00  0.00    -0.206 F 
ATOM     76  C   UNL A   1      34.439  35.024  31.598  1.00  0.00     0.060 A 
BRANCH  76  77
ATOM     77  S   UNL A   1      33.207  36.346  31.730  1.00  0.00     0.124 S 
ATOM     78  O   UNL A   1      32.035  35.629  32.222  1.00  0.00    -0.237 OA
ATOM     79  O   UNL A   1      33.837  37.261  32.675  1.00  0.00    -0.237 OA
ATOM     80  O   UNL A   1      33.089  36.842  30.360  1.00  0.00    -0.744 OA
ENDBRANCH  76  77
ENDBRANCH  55  69
BRANCH  56  81
ATOM     81  C   UNL A   1      45.398  28.913  28.362  1.00  0.00     0.058 A 
ATOM     82  C   UNL A   1      44.751  28.831  27.101  1.00  0.00     0.135 A 
ATOM     83  C   UNL A   1      46.668  28.336  28.458  1.00  0.00     0.135 A 
ATOM     84  F   UNL A   1      43.530  29.370  26.935  1.00  0.00    -0.206 F 
ATOM     85  C   UNL A   1      45.385  28.346  25.963  1.00  0.00     0.059 A 
ATOM     86  C   UNL A   1      47.318  27.811  27.325  1.00  0.00     0.059 A 
ATOM     87  F   UNL A   1      47.349  28.394  29.611  1.00  0.00    -0.206 F 
ATOM     88  C   UNL A   1      46.684  27.869  26.075  1.00  0.00     0.060 A 
BRANCH  88  89
ATOM     89  S   UNL A   1      47.554  27.502  24.526  1.00  0.00     0.124 S 
ATOM     90  O   UNL A   1      47.234  26.097  24.316  1.00  0.00    -0.237 OA
ATOM     91  O   UNL A   1      46.909  28.436  23.601  1.00  0.00    -0.237 OA
ATOM     92  O   UNL A   1      48.943  27.801  24.851  1.00  0.00    -0.744 OA
ENDBRANCH  88  89
ENDBRANCH  56  81
BRANCH  68  93
ATOM     93  C   UNL A   1      42.381  35.591  28.942  1.00  0.00     0.058 A 
ATOM     94  C   UNL A   1      41.565  36.098  27.914  1.00  0.00     0.135 A 
ATOM     95  C   UNL A   1      43.147  36.567  29.626  1.00  0.00     0.135 A 
ATOM     96  F   UNL A   1      40.638  35.340  27.311  1.00  0.00    -0.206 F 
ATOM     97  C   UNL A   1      41.621  37.422  27.488  1.00  0.00     0.059 A 
ATOM     98  C   UNL A   1      43.179  37.909  29.252  1.00  0.00     0.059 A 
ATOM     99  F   UNL A   1      43.877  36.265  30.710  1.00  0.00    -0.206 F 
ATOM    100  C   UNL A   1      42.446  38.319  28.151  1.00  0.00     0.060 A 
BRANCH 100 101
ATOM    101  S   UNL A   1      42.503  40.028  27.598  1.00  0.00     0.124 S 
ATOM    102  O   UNL A   1      43.139  39.888  26.291  1.00  0.00    -0.237 OA
ATOM    103  O   UNL A   1      41.091  40.402  27.570  1.00  0.00    -0.237 OA
ATOM    104  O   UNL A   1      43.302  40.692  28.620  1.00  0.00    -0.744 OA
ENDBRANCH 100 101
ENDBRANCH  68  93
ENDBRANCH  42  43
ENDBRANCH  35  37
ENDBRANCH  34  35
ENDBRANCH  33  34
ENDBRANCH  32  33
ENDBRANCH  31  32
ENDBRANCH   1  31
TORSDOF 22
ENDMDL
