MODEL 1
REMARK VINA RESULT:     -11.2      0.000      0.000
REMARK SMILES [NH3+][C@@H](Cc1cn(-c2nc(Cl)nc(N3CCOCC3)n2)c2ccccc12)C(=O)OCCOCCOCCOC(=O)c1ccc(-c2c3nc(c(-c4c(F)cc(S(=O)(=O)[O-])cc4F)c4ccc([nH]4)c(-c4c(F)cc(S(=O)(=O)[O-])cc4F)c4nc(c(-c5c(F)cc(S(=O)(=O)[O-])cc5F)c5ccc2[nH]5)C=C4)C=C3)cc1
REMARK SMILES IDX 32 1 31 2 30 3 29 4 28 5 26 6 27 7 2 8 1 9 3 13 4 14 5 15
REMARK SMILES IDX 25 16 6 17 20 18 24 19 21 20 23 21 22 22 7 23 8 24 19 25
REMARK SMILES IDX 9 26 12 27 10 28 11 29 13 30 14 31 18 32 15 33 17 34 16 35
REMARK SMILES IDX 33 36 34 37 35 38 36 39 37 40 38 41 39 42 40 43 41 44 105 45
REMARK SMILES IDX 42 46 104 47 43 48 44 49 45 50 98 51 46 52 103 53 97 54
REMARK SMILES IDX 99 55 47 56 102 57 96 58 95 59 48 61 82 62 61 63 81 64 62 65
REMARK SMILES IDX 65 66 80 67 100 68 63 69 64 70 79 72 101 73 66 74 49 75
REMARK SMILES IDX 50 76 59 77 51 78 52 79 58 80 60 81 53 82 54 83 55 84 56 85
REMARK SMILES IDX 57 86 83 87 84 88 93 89 85 90 86 91 92 92 94 93 87 94 88 95
REMARK SMILES IDX 89 96 90 97 91 98 67 99 68 100 77 101 69 102 70 103 76 104
REMARK SMILES IDX 78 105 71 106 72 107 73 108 74 109 75 110
REMARK H PARENT 1 10 1 11 1 12 99 60 65 71
REMARK Flexibility Score: inf
ROOT
ATOM      1  C   UNL A   1      33.948  22.625  27.566  1.00  0.00     0.188 C 
ENDROOT
BRANCH   1   2
ATOM      2  O   UNL A   1      32.595  22.337  27.878  1.00  0.00    -0.376 OA
BRANCH   2   3
ATOM      3  C   UNL A   1      31.570  23.064  27.211  1.00  0.00     0.202 C 
BRANCH   3   4
ATOM      4  C   UNL A   1      31.438  22.910  25.691  1.00  0.00     0.261 C 
BRANCH   4   5
ATOM      5  O   UNL A   1      31.646  24.158  25.000  1.00  0.00    -0.459 OA
BRANCH   5   6
ATOM      6  C   UNL A   1      30.675  24.497  24.112  1.00  0.00     0.365 C 
ATOM      7  O   UNL A   1      30.315  23.777  23.184  1.00  0.00    -0.245 OA
BRANCH   6   8
ATOM      8  C   UNL A   1      30.015  25.860  24.358  1.00  0.00     0.296 C 
BRANCH   8   9
ATOM      9  N   UNL A   1      28.566  26.040  24.079  1.00  0.00    -0.346 N 
ATOM     10  H   UNL A   1      28.303  25.476  23.271  1.00  0.00     0.345 HD
ATOM     11  H   UNL A   1      28.378  27.024  23.883  1.00  0.00     0.345 HD
ATOM     12  H   UNL A   1      28.024  25.746  24.890  1.00  0.00     0.345 HD
ENDBRANCH   8   9
BRANCH   8  13
ATOM     13  C   UNL A   1      30.458  26.350  25.742  1.00  0.00     0.115 C 
BRANCH  13  14
ATOM     14  C   UNL A   1      31.512  27.389  25.600  1.00  0.00    -0.015 A 
ATOM     15  C   UNL A   1      31.979  28.163  26.632  1.00  0.00     0.099 A 
ATOM     16  C   UNL A   1      32.300  27.700  24.457  1.00  0.00     0.004 A 
ATOM     17  N   UNL A   1      33.110  28.814  26.219  1.00  0.00    -0.285 N 
ATOM     18  C   UNL A   1      33.264  28.641  24.855  1.00  0.00     0.056 A 
ATOM     19  C   UNL A   1      32.294  27.234  23.128  1.00  0.00     0.010 A 
ATOM     20  C   UNL A   1      34.207  29.151  23.949  1.00  0.00     0.027 A 
ATOM     21  C   UNL A   1      33.221  27.746  22.219  1.00  0.00     0.001 A 
ATOM     22  C   UNL A   1      34.156  28.695  22.626  1.00  0.00     0.002 A 
BRANCH  17  23
ATOM     23  C   UNL A   1      33.945  29.478  27.149  1.00  0.00     0.240 A 
ATOM     24  N   UNL A   1      35.136  28.945  27.372  1.00  0.00    -0.181 NA
ATOM     25  N   UNL A   1      33.629  30.762  27.377  1.00  0.00    -0.176 NA
ATOM     26  C   UNL A   1      36.023  29.859  27.736  1.00  0.00     0.228 A 
ATOM     27  C   UNL A   1      34.596  31.568  27.792  1.00  0.00     0.231 A 
ATOM     28  Cl  UNL A   1      37.633  29.299  27.884  1.00  0.00    -0.041 Cl
ATOM     29  N   UNL A   1      35.845  31.165  27.937  1.00  0.00    -0.182 NA
BRANCH  27  30
ATOM     30  N   UNL A   1      34.259  32.882  27.991  1.00  0.00    -0.336 N 
ATOM     31  C   UNL A   1      35.300  33.885  27.764  1.00  0.00     0.148 C 
ATOM     32  C   UNL A   1      32.887  33.341  27.812  1.00  0.00     0.148 C 
ATOM     33  C   UNL A   1      34.981  35.162  28.556  1.00  0.00     0.181 C 
ATOM     34  C   UNL A   1      32.688  34.625  28.640  1.00  0.00     0.181 C 
ATOM     35  O   UNL A   1      33.649  35.634  28.282  1.00  0.00    -0.378 OA
ENDBRANCH  27  30
ENDBRANCH  17  23
ENDBRANCH  13  14
ENDBRANCH   8  13
ENDBRANCH   6   8
ENDBRANCH   5   6
ENDBRANCH   4   5
ENDBRANCH   3   4
ENDBRANCH   2   3
ENDBRANCH   1   2
BRANCH   1  36
ATOM     36  C   UNL A   1      34.728  21.621  26.708  1.00  0.00     0.188 C 
BRANCH  36  37
ATOM     37  O   UNL A   1      35.559  22.038  25.643  1.00  0.00    -0.376 OA
BRANCH  37  38
ATOM     38  C   UNL A   1      36.477  21.081  25.155  1.00  0.00     0.202 C 
BRANCH  38  39
ATOM     39  C   UNL A   1      37.960  21.492  25.138  1.00  0.00     0.261 C 
BRANCH  39  40
ATOM     40  O   UNL A   1      38.252  22.556  26.066  1.00  0.00    -0.460 OA
BRANCH  40  41
ATOM     41  C   UNL A   1      39.508  22.529  26.612  1.00  0.00     0.338 C 
ATOM     42  O   UNL A   1      40.362  21.704  26.403  1.00  0.00    -0.246 OA
BRANCH  41  43
ATOM     43  C   UNL A   1      39.761  23.855  27.259  1.00  0.00     0.060 A 
ATOM     44  C   UNL A   1      38.934  24.962  27.056  1.00  0.00     0.016 A 
ATOM     45  C   UNL A   1      40.993  24.020  27.912  1.00  0.00     0.016 A 
ATOM     46  C   UNL A   1      39.356  26.232  27.478  1.00  0.00     0.010 A 
ATOM     47  C   UNL A   1      41.419  25.294  28.313  1.00  0.00     0.010 A 
ATOM     48  C   UNL A   1      40.605  26.415  28.099  1.00  0.00    -0.014 A 
BRANCH  48  49
ATOM     49  C   UNL A   1      40.899  27.690  28.788  1.00  0.00     0.031 A 
ATOM     50  C   UNL A   1      41.993  28.470  28.191  1.00  0.00     0.074 A 
ATOM     51  C   UNL A   1      40.271  28.292  29.822  1.00  0.00     0.049 A 
ATOM     52  N   UNL A   1      43.122  28.700  28.775  1.00  0.00    -0.248 NA
ATOM     53  C   UNL A   1      41.887  28.969  26.822  1.00  0.00     0.031 C 
ATOM     54  C   UNL A   1      39.283  27.709  30.690  1.00  0.00     0.029 A 
ATOM     55  N   UNL A   1      40.355  29.568  30.323  1.00  0.00    -0.354 N 
ATOM     56  C   UNL A   1      43.779  29.592  27.957  1.00  0.00     0.074 A 
ATOM     57  C   UNL A   1      43.053  29.610  26.706  1.00  0.00     0.031 C 
ATOM     58  C   UNL A   1      38.594  28.651  31.363  1.00  0.00     0.029 A 
ATOM     59  C   UNL A   1      39.287  29.907  31.147  1.00  0.00     0.049 A 
ATOM     60  H   UNL A   1      41.097  30.182  30.119  1.00  0.00     0.167 HD
ATOM     61  C   UNL A   1      44.719  30.430  28.462  1.00  0.00     0.037 A 
ATOM     62  C   UNL A   1      39.074  30.965  31.962  1.00  0.00     0.037 A 
ATOM     63  C   UNL A   1      45.197  30.025  29.761  1.00  0.00     0.049 A 
ATOM     64  C   UNL A   1      40.398  31.444  32.392  1.00  0.00     0.074 A 
ATOM     65  C   UNL A   1      45.789  28.885  30.272  1.00  0.00     0.029 A 
ATOM     66  N   UNL A   1      44.797  30.755  30.853  1.00  0.00    -0.354 N 
ATOM     67  N   UNL A   1      41.181  30.777  33.199  1.00  0.00    -0.248 NA
ATOM     68  C   UNL A   1      41.042  32.476  31.602  1.00  0.00     0.031 C 
ATOM     69  C   UNL A   1      45.346  28.790  31.623  1.00  0.00     0.029 A 
ATOM     70  C   UNL A   1      44.516  29.882  31.877  1.00  0.00     0.049 A 
ATOM     71  H   UNL A   1      44.724  31.736  30.896  1.00  0.00     0.167 HD
ATOM     72  C   UNL A   1      42.455  30.997  32.701  1.00  0.00     0.074 A 
ATOM     73  C   UNL A   1      42.317  32.142  31.808  1.00  0.00     0.031 C 
ATOM     74  C   UNL A   1      43.449  30.072  32.843  1.00  0.00     0.037 A 
BRANCH  61  75
ATOM     75  C   UNL A   1      44.931  31.804  27.903  1.00  0.00     0.058 A 
ATOM     76  C   UNL A   1      46.137  32.125  27.263  1.00  0.00     0.135 A 
ATOM     77  C   UNL A   1      44.067  32.884  28.195  1.00  0.00     0.135 A 
ATOM     78  F   UNL A   1      47.041  31.170  26.995  1.00  0.00    -0.206 F 
ATOM     79  C   UNL A   1      46.470  33.439  26.939  1.00  0.00     0.059 A 
ATOM     80  C   UNL A   1      44.350  34.191  27.831  1.00  0.00     0.059 A 
ATOM     81  F   UNL A   1      42.955  32.717  28.926  1.00  0.00    -0.206 F 
ATOM     82  C   UNL A   1      45.570  34.464  27.232  1.00  0.00     0.060 A 
BRANCH  82  83
ATOM     83  S   UNL A   1      46.037  36.168  26.888  1.00  0.00     0.124 S 
ATOM     84  O   UNL A   1      44.732  36.790  26.699  1.00  0.00    -0.237 OA
ATOM     85  O   UNL A   1      46.753  36.538  28.105  1.00  0.00    -0.237 OA
ATOM     86  O   UNL A   1      46.865  36.054  25.692  1.00  0.00    -0.744 OA
ENDBRANCH  82  83
ENDBRANCH  61  75
BRANCH  62  87
ATOM     87  C   UNL A   1      37.776  31.673  32.121  1.00  0.00     0.058 A 
ATOM     88  C   UNL A   1      37.076  31.679  33.339  1.00  0.00     0.135 A 
ATOM     89  C   UNL A   1      37.298  32.554  31.126  1.00  0.00     0.135 A 
ATOM     90  F   UNL A   1      37.450  30.866  34.336  1.00  0.00    -0.206 F 
ATOM     91  C   UNL A   1      36.018  32.565  33.583  1.00  0.00     0.059 A 
ATOM     92  C   UNL A   1      36.246  33.440  31.344  1.00  0.00     0.059 A 
ATOM     93  F   UNL A   1      37.897  32.638  29.927  1.00  0.00    -0.206 F 
ATOM     94  C   UNL A   1      35.631  33.464  32.589  1.00  0.00     0.060 A 
BRANCH  94  95
ATOM     95  S   UNL A   1      34.424  34.755  32.974  1.00  0.00     0.124 S 
ATOM     96  O   UNL A   1      35.003  35.369  34.164  1.00  0.00    -0.237 OA
ATOM     97  O   UNL A   1      34.448  35.567  31.761  1.00  0.00    -0.237 OA
ATOM     98  O   UNL A   1      33.187  34.009  33.194  1.00  0.00    -0.744 OA
ENDBRANCH  94  95
ENDBRANCH  62  87
BRANCH  74  99
ATOM     99  C   UNL A   1      43.315  29.026  33.924  1.00  0.00     0.058 A 
ATOM    100  C   UNL A   1      43.702  29.202  35.264  1.00  0.00     0.135 A 
ATOM    101  C   UNL A   1      42.618  27.847  33.611  1.00  0.00     0.135 A 
ATOM    102  F   UNL A   1      44.305  30.332  35.663  1.00  0.00    -0.206 F 
ATOM    103  C   UNL A   1      43.418  28.243  36.244  1.00  0.00     0.059 A 
ATOM    104  C   UNL A   1      42.309  26.887  34.573  1.00  0.00     0.059 A 
ATOM    105  F   UNL A   1      42.179  27.640  32.358  1.00  0.00    -0.206 F 
ATOM    106  C   UNL A   1      42.715  27.089  35.890  1.00  0.00     0.060 A 
BRANCH 106 107
ATOM    107  S   UNL A   1      42.274  25.888  37.169  1.00  0.00     0.124 S 
ATOM    108  O   UNL A   1      42.908  26.450  38.356  1.00  0.00    -0.237 OA
ATOM    109  O   UNL A   1      40.814  25.924  37.153  1.00  0.00    -0.237 OA
ATOM    110  O   UNL A   1      42.859  24.639  36.684  1.00  0.00    -0.744 OA
ENDBRANCH 106 107
ENDBRANCH  74  99
ENDBRANCH  48  49
ENDBRANCH  41  43
ENDBRANCH  40  41
ENDBRANCH  39  40
ENDBRANCH  38  39
ENDBRANCH  37  38
ENDBRANCH  36  37
ENDBRANCH   1  36
TORSDOF 25
ENDMDL
MODEL 2
REMARK VINA RESULT:      -9.5      3.385      6.668
REMARK SMILES [NH3+][C@@H](Cc1cn(-c2nc(Cl)nc(N3CCOCC3)n2)c2ccccc12)C(=O)OCCOCCOCCOC(=O)c1ccc(-c2c3nc(c(-c4c(F)cc(S(=O)(=O)[O-])cc4F)c4ccc([nH]4)c(-c4c(F)cc(S(=O)(=O)[O-])cc4F)c4nc(c(-c5c(F)cc(S(=O)(=O)[O-])cc5F)c5ccc2[nH]5)C=C4)C=C3)cc1
REMARK SMILES IDX 32 1 31 2 30 3 29 4 28 5 26 6 27 7 2 8 1 9 3 13 4 14 5 15
REMARK SMILES IDX 25 16 6 17 20 18 24 19 21 20 23 21 22 22 7 23 8 24 19 25
REMARK SMILES IDX 9 26 12 27 10 28 11 29 13 30 14 31 18 32 15 33 17 34 16 35
REMARK SMILES IDX 33 36 34 37 35 38 36 39 37 40 38 41 39 42 40 43 41 44 105 45
REMARK SMILES IDX 42 46 104 47 43 48 44 49 45 50 98 51 46 52 103 53 97 54
REMARK SMILES IDX 99 55 47 56 102 57 96 58 95 59 48 61 82 62 61 63 81 64 62 65
REMARK SMILES IDX 65 66 80 67 100 68 63 69 64 70 79 72 101 73 66 74 49 75
REMARK SMILES IDX 50 76 59 77 51 78 52 79 58 80 60 81 53 82 54 83 55 84 56 85
REMARK SMILES IDX 57 86 83 87 84 88 93 89 85 90 86 91 92 92 94 93 87 94 88 95
REMARK SMILES IDX 89 96 90 97 91 98 67 99 68 100 77 101 69 102 70 103 76 104
REMARK SMILES IDX 78 105 71 106 72 107 73 108 74 109 75 110
REMARK H PARENT 1 10 1 11 1 12 99 60 65 71
REMARK Flexibility Score: inf
ROOT
ATOM      1  C   UNL A   1      43.163  23.000  25.009  1.00  0.00     0.188 C 
ENDROOT
BRANCH   1   2
ATOM      2  O   UNL A   1      42.121  22.090  25.319  1.00  0.00    -0.376 OA
BRANCH   2   3
ATOM      3  C   UNL A   1      41.548  22.126  26.621  1.00  0.00     0.202 C 
BRANCH   3   4
ATOM      4  C   UNL A   1      40.496  21.072  26.985  1.00  0.00     0.261 C 
BRANCH   4   5
ATOM      5  O   UNL A   1      39.405  21.048  26.044  1.00  0.00    -0.459 OA
BRANCH   5   6
ATOM      6  C   UNL A   1      38.633  22.167  26.024  1.00  0.00     0.365 C 
ATOM      7  O   UNL A   1      38.907  23.199  26.630  1.00  0.00    -0.245 OA
BRANCH   6   8
ATOM      8  C   UNL A   1      37.374  22.073  25.151  1.00  0.00     0.296 C 
BRANCH   8   9
ATOM      9  N   UNL A   1      37.265  22.900  23.921  1.00  0.00    -0.346 N 
ATOM     10  H   UNL A   1      37.237  23.887  24.177  1.00  0.00     0.345 HD
ATOM     11  H   UNL A   1      36.411  22.653  23.421  1.00  0.00     0.345 HD
ATOM     12  H   UNL A   1      38.072  22.727  23.322  1.00  0.00     0.345 HD
ENDBRANCH   8   9
BRANCH   8  13
ATOM     13  C   UNL A   1      37.061  20.586  24.942  1.00  0.00     0.115 C 
BRANCH  13  14
ATOM     14  C   UNL A   1      35.591  20.366  24.985  1.00  0.00    -0.015 A 
ATOM     15  C   UNL A   1      34.668  21.358  25.198  1.00  0.00     0.099 A 
ATOM     16  C   UNL A   1      34.866  19.173  24.711  1.00  0.00     0.004 A 
ATOM     17  N   UNL A   1      33.421  20.868  24.914  1.00  0.00    -0.285 N 
ATOM     18  C   UNL A   1      33.499  19.500  24.726  1.00  0.00     0.056 A 
ATOM     19  C   UNL A   1      35.260  17.853  24.417  1.00  0.00     0.010 A 
ATOM     20  C   UNL A   1      32.514  18.531  24.484  1.00  0.00     0.027 A 
ATOM     21  C   UNL A   1      34.283  16.883  24.187  1.00  0.00     0.001 A 
ATOM     22  C   UNL A   1      32.933  17.219  24.228  1.00  0.00     0.002 A 
BRANCH  17  23
ATOM     23  C   UNL A   1      32.309  21.737  24.799  1.00  0.00     0.240 A 
ATOM     24  N   UNL A   1      31.348  21.602  25.699  1.00  0.00    -0.181 NA
ATOM     25  N   UNL A   1      32.532  22.849  24.083  1.00  0.00    -0.176 NA
ATOM     26  C   UNL A   1      30.700  22.739  25.900  1.00  0.00     0.228 A 
ATOM     27  C   UNL A   1      31.778  23.908  24.341  1.00  0.00     0.231 A 
ATOM     28  Cl  UNL A   1      29.550  22.712  27.166  1.00  0.00    -0.041 Cl
ATOM     29  N   UNL A   1      30.867  23.916  25.297  1.00  0.00    -0.182 NA
BRANCH  27  30
ATOM     30  N   UNL A   1      32.041  25.042  23.617  1.00  0.00    -0.336 N 
ATOM     31  C   UNL A   1      31.170  26.198  23.840  1.00  0.00     0.148 C 
ATOM     32  C   UNL A   1      33.391  25.345  23.159  1.00  0.00     0.148 C 
ATOM     33  C   UNL A   1      31.200  27.121  22.612  1.00  0.00     0.181 C 
ATOM     34  C   UNL A   1      33.296  26.279  21.938  1.00  0.00     0.181 C 
ATOM     35  O   UNL A   1      32.548  27.470  22.246  1.00  0.00    -0.378 OA
ENDBRANCH  27  30
ENDBRANCH  17  23
ENDBRANCH  13  14
ENDBRANCH   8  13
ENDBRANCH   6   8
ENDBRANCH   5   6
ENDBRANCH   4   5
ENDBRANCH   3   4
ENDBRANCH   2   3
ENDBRANCH   1   2
BRANCH   1  36
ATOM     36  C   UNL A   1      44.592  22.648  25.441  1.00  0.00     0.188 C 
BRANCH  36  37
ATOM     37  O   UNL A   1      45.080  22.967  26.730  1.00  0.00    -0.376 OA
BRANCH  37  38
ATOM     38  C   UNL A   1      44.816  24.276  27.190  1.00  0.00     0.202 C 
BRANCH  38  39
ATOM     39  C   UNL A   1      46.019  25.233  27.273  1.00  0.00     0.261 C 
BRANCH  39  40
ATOM     40  O   UNL A   1      46.817  25.228  26.073  1.00  0.00    -0.460 OA
BRANCH  40  41
ATOM     41  C   UNL A   1      46.835  26.407  25.375  1.00  0.00     0.338 C 
ATOM     42  O   UNL A   1      47.182  26.555  24.230  1.00  0.00    -0.246 OA
BRANCH  41  43
ATOM     43  C   UNL A   1      46.059  27.420  26.156  1.00  0.00     0.060 A 
ATOM     44  C   UNL A   1      46.493  27.915  27.388  1.00  0.00     0.016 A 
ATOM     45  C   UNL A   1      44.755  27.701  25.717  1.00  0.00     0.016 A 
ATOM     46  C   UNL A   1      45.614  28.662  28.187  1.00  0.00     0.010 A 
ATOM     47  C   UNL A   1      43.874  28.430  26.528  1.00  0.00     0.010 A 
ATOM     48  C   UNL A   1      44.294  28.917  27.774  1.00  0.00    -0.014 A 
BRANCH  48  49
ATOM     49  C   UNL A   1      43.490  29.936  28.483  1.00  0.00     0.031 A 
ATOM     50  C   UNL A   1      44.080  31.282  28.495  1.00  0.00     0.074 A 
ATOM     51  C   UNL A   1      42.264  29.849  29.045  1.00  0.00     0.049 A 
ATOM     52  N   UNL A   1      44.500  31.880  29.561  1.00  0.00    -0.248 NA
ATOM     53  C   UNL A   1      44.312  32.002  27.246  1.00  0.00     0.031 C 
ATOM     54  C   UNL A   1      41.520  28.647  29.314  1.00  0.00     0.029 A 
ATOM     55  N   UNL A   1      41.391  30.813  29.485  1.00  0.00    -0.354 N 
ATOM     56  C   UNL A   1      44.814  33.160  29.159  1.00  0.00     0.074 A 
ATOM     57  C   UNL A   1      44.826  33.143  27.713  1.00  0.00     0.031 C 
ATOM     58  C   UNL A   1      40.215  28.905  29.525  1.00  0.00     0.029 A 
ATOM     59  C   UNL A   1      40.092  30.346  29.652  1.00  0.00     0.049 A 
ATOM     60  H   UNL A   1      41.658  31.744  29.665  1.00  0.00     0.167 HD
ATOM     61  C   UNL A   1      44.790  34.187  30.045  1.00  0.00     0.037 A 
ATOM     62  C   UNL A   1      38.997  30.900  30.220  1.00  0.00     0.037 A 
ATOM     63  C   UNL A   1      44.799  33.748  31.419  1.00  0.00     0.049 A 
ATOM     64  C   UNL A   1      39.480  31.841  31.244  1.00  0.00     0.074 A 
ATOM     65  C   UNL A   1      45.640  32.966  32.189  1.00  0.00     0.029 A 
ATOM     66  N   UNL A   1      43.639  33.865  32.142  1.00  0.00    -0.354 N 
ATOM     67  N   UNL A   1      40.062  31.467  32.353  1.00  0.00    -0.248 NA
ATOM     68  C   UNL A   1      39.694  33.223  30.857  1.00  0.00     0.031 C 
ATOM     69  C   UNL A   1      44.801  32.311  33.137  1.00  0.00     0.029 A 
ATOM     70  C   UNL A   1      43.492  32.735  32.910  1.00  0.00     0.049 A 
ATOM     71  H   UNL A   1      43.017  34.629  32.116  1.00  0.00     0.167 HD
ATOM     72  C   UNL A   1      41.053  32.414  32.557  1.00  0.00     0.074 A 
ATOM     73  C   UNL A   1      40.696  33.526  31.685  1.00  0.00     0.031 C 
ATOM     74  C   UNL A   1      42.216  32.106  33.204  1.00  0.00     0.037 A 
BRANCH  61  75
ATOM     75  C   UNL A   1      44.407  35.575  29.632  1.00  0.00     0.058 A 
ATOM     76  C   UNL A   1      43.101  35.846  29.198  1.00  0.00     0.135 A 
ATOM     77  C   UNL A   1      45.362  36.597  29.427  1.00  0.00     0.135 A 
ATOM     78  F   UNL A   1      42.141  34.914  29.304  1.00  0.00    -0.206 F 
ATOM     79  C   UNL A   1      42.764  37.053  28.589  1.00  0.00     0.059 A 
ATOM     80  C   UNL A   1      45.038  37.827  28.876  1.00  0.00     0.059 A 
ATOM     81  F   UNL A   1      46.666  36.401  29.672  1.00  0.00    -0.206 F 
ATOM     82  C   UNL A   1      43.743  38.035  28.430  1.00  0.00     0.060 A 
BRANCH  82  83
ATOM     83  S   UNL A   1      43.326  39.560  27.569  1.00  0.00     0.124 S 
ATOM     84  O   UNL A   1      42.617  39.046  26.403  1.00  0.00    -0.237 OA
ATOM     85  O   UNL A   1      42.511  40.255  28.561  1.00  0.00    -0.237 OA
ATOM     86  O   UNL A   1      44.629  40.162  27.305  1.00  0.00    -0.744 OA
ENDBRANCH  82  83
ENDBRANCH  61  75
BRANCH  62  87
ATOM     87  C   UNL A   1      37.613  30.797  29.687  1.00  0.00     0.058 A 
ATOM     88  C   UNL A   1      37.120  31.687  28.718  1.00  0.00     0.135 A 
ATOM     89  C   UNL A   1      36.805  29.672  29.964  1.00  0.00     0.135 A 
ATOM     90  F   UNL A   1      37.813  32.790  28.401  1.00  0.00    -0.206 F 
ATOM     91  C   UNL A   1      35.940  31.433  28.007  1.00  0.00     0.059 A 
ATOM     92  C   UNL A   1      35.626  29.401  29.273  1.00  0.00     0.059 A 
ATOM     93  F   UNL A   1      37.183  28.751  30.866  1.00  0.00    -0.206 F 
ATOM     94  C   UNL A   1      35.217  30.270  28.271  1.00  0.00     0.060 A 
BRANCH  94  95
ATOM     95  S   UNL A   1      33.823  29.825  27.206  1.00  0.00     0.124 S 
ATOM     96  O   UNL A   1      34.497  29.395  25.986  1.00  0.00    -0.237 OA
ATOM     97  O   UNL A   1      33.171  28.773  27.980  1.00  0.00    -0.237 OA
ATOM     98  O   UNL A   1      33.068  31.071  27.098  1.00  0.00    -0.744 OA
ENDBRANCH  94  95
ENDBRANCH  62  87
BRANCH  74  99
ATOM     99  C   UNL A   1      42.246  30.890  34.099  1.00  0.00     0.058 A 
ATOM    100  C   UNL A   1      41.894  30.886  35.460  1.00  0.00     0.135 A 
ATOM    101  C   UNL A   1      42.497  29.644  33.501  1.00  0.00     0.135 A 
ATOM    102  F   UNL A   1      41.566  32.025  36.088  1.00  0.00    -0.206 F 
ATOM    103  C   UNL A   1      41.807  29.697  36.195  1.00  0.00     0.059 A 
ATOM    104  C   UNL A   1      42.399  28.446  34.208  1.00  0.00     0.059 A 
ATOM    105  F   UNL A   1      42.792  29.575  32.193  1.00  0.00    -0.206 F 
ATOM    106  C   UNL A   1      42.057  28.479  35.558  1.00  0.00     0.060 A 
BRANCH 106 107
ATOM    107  S   UNL A   1      41.864  26.936  36.482  1.00  0.00     0.124 S 
ATOM    108  O   UNL A   1      41.740  25.948  35.415  1.00  0.00    -0.237 OA
ATOM    109  O   UNL A   1      43.095  26.874  37.265  1.00  0.00    -0.237 OA
ATOM    110  O   UNL A   1      40.651  27.156  37.267  1.00  0.00    -0.744 OA
ENDBRANCH 106 107
ENDBRANCH  74  99
ENDBRANCH  48  49
ENDBRANCH  41  43
ENDBRANCH  40  41
ENDBRANCH  39  40
ENDBRANCH  38  39
ENDBRANCH  37  38
ENDBRANCH  36  37
ENDBRANCH   1  36
TORSDOF 25
ENDMDL
MODEL 3
REMARK VINA RESULT:      -9.1      3.192      7.295
REMARK SMILES [NH3+][C@@H](Cc1cn(-c2nc(Cl)nc(N3CCOCC3)n2)c2ccccc12)C(=O)OCCOCCOCCOC(=O)c1ccc(-c2c3nc(c(-c4c(F)cc(S(=O)(=O)[O-])cc4F)c4ccc([nH]4)c(-c4c(F)cc(S(=O)(=O)[O-])cc4F)c4nc(c(-c5c(F)cc(S(=O)(=O)[O-])cc5F)c5ccc2[nH]5)C=C4)C=C3)cc1
REMARK SMILES IDX 32 1 31 2 30 3 29 4 28 5 26 6 27 7 2 8 1 9 3 13 4 14 5 15
REMARK SMILES IDX 25 16 6 17 20 18 24 19 21 20 23 21 22 22 7 23 8 24 19 25
REMARK SMILES IDX 9 26 12 27 10 28 11 29 13 30 14 31 18 32 15 33 17 34 16 35
REMARK SMILES IDX 33 36 34 37 35 38 36 39 37 40 38 41 39 42 40 43 41 44 105 45
REMARK SMILES IDX 42 46 104 47 43 48 44 49 45 50 98 51 46 52 103 53 97 54
REMARK SMILES IDX 99 55 47 56 102 57 96 58 95 59 48 61 82 62 61 63 81 64 62 65
REMARK SMILES IDX 65 66 80 67 100 68 63 69 64 70 79 72 101 73 66 74 49 75
REMARK SMILES IDX 50 76 59 77 51 78 52 79 58 80 60 81 53 82 54 83 55 84 56 85
REMARK SMILES IDX 57 86 83 87 84 88 93 89 85 90 86 91 92 92 94 93 87 94 88 95
REMARK SMILES IDX 89 96 90 97 91 98 67 99 68 100 77 101 69 102 70 103 76 104
REMARK SMILES IDX 78 105 71 106 72 107 73 108 74 109 75 110
REMARK H PARENT 1 10 1 11 1 12 99 60 65 71
REMARK Flexibility Score: inf
ROOT
ATOM      1  C   UNL A   1      34.052  22.281  27.587  1.00  0.00     0.188 C 
ENDROOT
BRANCH   1   2
ATOM      2  O   UNL A   1      32.656  22.152  27.794  1.00  0.00    -0.376 OA
BRANCH   2   3
ATOM      3  C   UNL A   1      31.788  23.123  27.220  1.00  0.00     0.202 C 
BRANCH   3   4
ATOM      4  C   UNL A   1      31.381  22.960  25.751  1.00  0.00     0.261 C 
BRANCH   4   5
ATOM      5  O   UNL A   1      31.587  24.170  24.995  1.00  0.00    -0.459 OA
BRANCH   5   6
ATOM      6  C   UNL A   1      30.598  24.479  24.115  1.00  0.00     0.365 C 
ATOM      7  O   UNL A   1      30.214  23.725  23.225  1.00  0.00    -0.245 OA
BRANCH   6   8
ATOM      8  C   UNL A   1      29.950  25.854  24.322  1.00  0.00     0.296 C 
BRANCH   8   9
ATOM      9  N   UNL A   1      28.512  26.048  23.997  1.00  0.00    -0.346 N 
ATOM     10  H   UNL A   1      27.948  25.855  24.825  1.00  0.00     0.345 HD
ATOM     11  H   UNL A   1      28.244  25.411  23.246  1.00  0.00     0.345 HD
ATOM     12  H   UNL A   1      28.358  27.010  23.697  1.00  0.00     0.345 HD
ENDBRANCH   8   9
BRANCH   8  13
ATOM     13  C   UNL A   1      30.358  26.359  25.711  1.00  0.00     0.115 C 
BRANCH  13  14
ATOM     14  C   UNL A   1      31.434  27.376  25.586  1.00  0.00    -0.015 A 
ATOM     15  C   UNL A   1      31.932  28.108  26.634  1.00  0.00     0.099 A 
ATOM     16  C   UNL A   1      32.216  27.702  24.443  1.00  0.00     0.004 A 
ATOM     17  N   UNL A   1      33.073  28.744  26.225  1.00  0.00    -0.285 N 
ATOM     18  C   UNL A   1      33.208  28.607  24.856  1.00  0.00     0.056 A 
ATOM     19  C   UNL A   1      32.184  27.274  23.101  1.00  0.00     0.010 A 
ATOM     20  C   UNL A   1      34.151  29.120  23.953  1.00  0.00     0.027 A 
ATOM     21  C   UNL A   1      33.112  27.790  22.196  1.00  0.00     0.001 A 
ATOM     22  C   UNL A   1      34.074  28.704  22.618  1.00  0.00     0.002 A 
BRANCH  17  23
ATOM     23  C   UNL A   1      33.935  29.361  27.164  1.00  0.00     0.240 A 
ATOM     24  N   UNL A   1      35.108  28.783  27.370  1.00  0.00    -0.181 NA
ATOM     25  N   UNL A   1      33.665  30.650  27.418  1.00  0.00    -0.176 NA
ATOM     26  C   UNL A   1      36.027  29.659  27.748  1.00  0.00     0.228 A 
ATOM     27  C   UNL A   1      34.660  31.415  27.844  1.00  0.00     0.231 A 
ATOM     28  Cl  UNL A   1      37.618  29.042  27.876  1.00  0.00    -0.041 Cl
ATOM     29  N   UNL A   1      35.896  30.966  27.974  1.00  0.00    -0.182 NA
BRANCH  27  30
ATOM     30  N   UNL A   1      34.369  32.735  28.070  1.00  0.00    -0.336 N 
ATOM     31  C   UNL A   1      35.486  33.681  28.055  1.00  0.00     0.148 C 
ATOM     32  C   UNL A   1      33.066  33.288  27.722  1.00  0.00     0.148 C 
ATOM     33  C   UNL A   1      35.124  34.934  28.868  1.00  0.00     0.181 C 
ATOM     34  C   UNL A   1      32.817  34.537  28.588  1.00  0.00     0.181 C 
ATOM     35  O   UNL A   1      33.874  35.502  28.433  1.00  0.00    -0.378 OA
ENDBRANCH  27  30
ENDBRANCH  17  23
ENDBRANCH  13  14
ENDBRANCH   8  13
ENDBRANCH   6   8
ENDBRANCH   5   6
ENDBRANCH   4   5
ENDBRANCH   3   4
ENDBRANCH   2   3
ENDBRANCH   1   2
BRANCH   1  36
ATOM     36  C   UNL A   1      34.681  21.558  26.389  1.00  0.00     0.188 C 
BRANCH  36  37
ATOM     37  O   UNL A   1      34.676  22.121  25.092  1.00  0.00    -0.376 OA
BRANCH  37  38
ATOM     38  C   UNL A   1      35.814  21.862  24.295  1.00  0.00     0.202 C 
BRANCH  38  39
ATOM     39  C   UNL A   1      36.875  22.974  24.224  1.00  0.00     0.261 C 
BRANCH  39  40
ATOM     40  O   UNL A   1      37.379  23.345  25.522  1.00  0.00    -0.460 OA
BRANCH  40  41
ATOM     41  C   UNL A   1      38.481  22.650  25.944  1.00  0.00     0.338 C 
ATOM     42  O   UNL A   1      38.876  21.599  25.504  1.00  0.00    -0.246 OA
BRANCH  41  43
ATOM     43  C   UNL A   1      39.294  23.553  26.817  1.00  0.00     0.060 A 
ATOM     44  C   UNL A   1      39.199  24.946  26.756  1.00  0.00     0.016 A 
ATOM     45  C   UNL A   1      40.331  22.962  27.557  1.00  0.00     0.016 A 
ATOM     46  C   UNL A   1      40.155  25.738  27.408  1.00  0.00     0.010 A 
ATOM     47  C   UNL A   1      41.296  23.758  28.189  1.00  0.00     0.010 A 
ATOM     48  C   UNL A   1      41.219  25.155  28.120  1.00  0.00    -0.014 A 
BRANCH  48  49
ATOM     49  C   UNL A   1      42.035  25.990  29.029  1.00  0.00     0.031 A 
ATOM     50  C   UNL A   1      41.499  27.338  29.268  1.00  0.00     0.074 A 
ATOM     51  C   UNL A   1      43.143  25.686  29.741  1.00  0.00     0.049 A 
ATOM     52  N   UNL A   1      42.076  28.427  28.881  1.00  0.00    -0.248 NA
ATOM     53  C   UNL A   1      40.195  27.516  29.901  1.00  0.00     0.031 C 
ATOM     54  C   UNL A   1      43.967  24.515  29.597  1.00  0.00     0.029 A 
ATOM     55  N   UNL A   1      43.776  26.340  30.768  1.00  0.00    -0.354 N 
ATOM     56  C   UNL A   1      41.343  29.447  29.445  1.00  0.00     0.074 A 
ATOM     57  C   UNL A   1      40.120  28.849  29.934  1.00  0.00     0.031 C 
ATOM     58  C   UNL A   1      44.755  24.325  30.673  1.00  0.00     0.029 A 
ATOM     59  C   UNL A   1      44.658  25.530  31.477  1.00  0.00     0.049 A 
ATOM     60  H   UNL A   1      43.621  27.288  30.984  1.00  0.00     0.167 HD
ATOM     61  C   UNL A   1      41.912  30.654  29.690  1.00  0.00     0.037 A 
ATOM     62  C   UNL A   1      45.587  25.811  32.418  1.00  0.00     0.037 A 
ATOM     63  C   UNL A   1      43.148  30.851  28.973  1.00  0.00     0.049 A 
ATOM     64  C   UNL A   1      46.033  27.193  32.175  1.00  0.00     0.074 A 
ATOM     65  C   UNL A   1      43.518  30.829  27.641  1.00  0.00     0.029 A 
ATOM     66  N   UNL A   1      44.322  30.807  29.683  1.00  0.00    -0.354 N 
ATOM     67  N   UNL A   1      46.745  27.552  31.139  1.00  0.00    -0.248 NA
ATOM     68  C   UNL A   1      45.344  28.267  32.866  1.00  0.00     0.031 C 
ATOM     69  C   UNL A   1      44.862  30.353  27.619  1.00  0.00     0.029 A 
ATOM     70  C   UNL A   1      45.252  30.122  28.938  1.00  0.00     0.049 A 
ATOM     71  H   UNL A   1      44.472  31.198  30.574  1.00  0.00     0.167 HD
ATOM     72  C   UNL A   1      46.242  28.795  30.791  1.00  0.00     0.074 A 
ATOM     73  C   UNL A   1      45.481  29.233  31.955  1.00  0.00     0.031 C 
ATOM     74  C   UNL A   1      46.259  29.239  29.499  1.00  0.00     0.037 A 
BRANCH  61  75
ATOM     75  C   UNL A   1      41.500  31.498  30.857  1.00  0.00     0.058 A 
ATOM     76  C   UNL A   1      41.715  31.042  32.167  1.00  0.00     0.135 A 
ATOM     77  C   UNL A   1      40.682  32.641  30.716  1.00  0.00     0.135 A 
ATOM     78  F   UNL A   1      42.435  29.933  32.392  1.00  0.00    -0.206 F 
ATOM     79  C   UNL A   1      41.145  31.677  33.268  1.00  0.00     0.059 A 
ATOM     80  C   UNL A   1      40.150  33.323  31.800  1.00  0.00     0.059 A 
ATOM     81  F   UNL A   1      40.294  33.084  29.510  1.00  0.00    -0.206 F 
ATOM     82  C   UNL A   1      40.361  32.814  33.072  1.00  0.00     0.060 A 
BRANCH  82  83
ATOM     83  S   UNL A   1      39.558  33.584  34.487  1.00  0.00     0.124 S 
ATOM     84  O   UNL A   1      38.156  33.284  34.219  1.00  0.00    -0.237 OA
ATOM     85  O   UNL A   1      40.165  32.869  35.606  1.00  0.00    -0.237 OA
ATOM     86  O   UNL A   1      39.939  34.987  34.367  1.00  0.00    -0.744 OA
ENDBRANCH  82  83
ENDBRANCH  61  75
BRANCH  62  87
ATOM     87  C   UNL A   1      45.854  24.989  33.628  1.00  0.00     0.058 A 
ATOM     88  C   UNL A   1      44.816  24.458  34.411  1.00  0.00     0.135 A 
ATOM     89  C   UNL A   1      47.154  24.519  33.919  1.00  0.00     0.135 A 
ATOM     90  F   UNL A   1      43.551  24.856  34.214  1.00  0.00    -0.206 F 
ATOM     91  C   UNL A   1      45.042  23.460  35.368  1.00  0.00     0.059 A 
ATOM     92  C   UNL A   1      47.404  23.531  34.869  1.00  0.00     0.059 A 
ATOM     93  F   UNL A   1      48.220  24.952  33.227  1.00  0.00    -0.206 F 
ATOM     94  C   UNL A   1      46.337  22.981  35.567  1.00  0.00     0.060 A 
BRANCH  94  95
ATOM     95  S   UNL A   1      46.603  21.544  36.633  1.00  0.00     0.124 S 
ATOM     96  O   UNL A   1      46.321  22.089  37.956  1.00  0.00    -0.237 OA
ATOM     97  O   UNL A   1      45.626  20.593  36.113  1.00  0.00    -0.237 OA
ATOM     98  O   UNL A   1      48.000  21.192  36.386  1.00  0.00    -0.744 OA
ENDBRANCH  94  95
ENDBRANCH  62  87
BRANCH  74  99
ATOM     99  C   UNL A   1      47.224  28.602  28.528  1.00  0.00     0.058 A 
ATOM    100  C   UNL A   1      46.937  27.483  27.728  1.00  0.00     0.135 A 
ATOM    101  C   UNL A   1      48.443  29.260  28.291  1.00  0.00     0.135 A 
ATOM    102  F   UNL A   1      45.764  26.842  27.838  1.00  0.00    -0.206 F 
ATOM    103  C   UNL A   1      47.828  27.031  26.746  1.00  0.00     0.059 A 
ATOM    104  C   UNL A   1      49.336  28.840  27.306  1.00  0.00     0.059 A 
ATOM    105  F   UNL A   1      48.756  30.365  28.988  1.00  0.00    -0.206 F 
ATOM    106  C   UNL A   1      49.025  27.721  26.538  1.00  0.00     0.060 A 
BRANCH 106 107
ATOM    107  S   UNL A   1      50.138  27.192  25.214  1.00  0.00     0.124 S 
ATOM    108  O   UNL A   1      50.411  28.445  24.518  1.00  0.00    -0.237 OA
ATOM    109  O   UNL A   1      51.261  26.617  25.949  1.00  0.00    -0.237 OA
ATOM    110  O   UNL A   1      49.341  26.224  24.461  1.00  0.00    -0.744 OA
ENDBRANCH 106 107
ENDBRANCH  74  99
ENDBRANCH  48  49
ENDBRANCH  41  43
ENDBRANCH  40  41
ENDBRANCH  39  40
ENDBRANCH  38  39
ENDBRANCH  37  38
ENDBRANCH  36  37
ENDBRANCH   1  36
TORSDOF 25
ENDMDL
