MODEL 1
REMARK VINA RESULT:      -9.1      0.000      0.000
REMARK SMILES Cc1c(CC(=O)OCCOCCOCCOC(=O)c2ccc(-c3c4nc(c(-c5c(F)cc(S(=O)(=O)[O-])cc5F)c5ccc([nH]5)c(-c5c(F)cc(S(=O)(=O)[O-])cc5F)c5nc(c(-c6c(F)cc(S(=O)(=O)[O-])cc6F)c6ccc3[nH]6)C=C5)C=C4)cc2)c(O)oc2cc(=O)cc(O)c1-2
REMARK SMILES IDX 12 1 11 2 10 3 9 4 8 5 7 6 5 7 6 8 4 9 3 10 1 11 2 12 95 13
REMARK SMILES IDX 85 14 88 15 93 16 87 17 89 18 92 19 90 20 91 21 86 22 94 24
REMARK SMILES IDX 13 26 14 27 15 28 16 29 17 30 18 31 19 32 20 33 84 34 21 35
REMARK SMILES IDX 83 36 22 37 23 38 24 39 77 40 25 41 82 42 76 43 78 44 26 45
REMARK SMILES IDX 81 46 75 47 74 48 27 50 61 51 40 52 60 53 41 54 44 55 59 56
REMARK SMILES IDX 79 57 42 58 43 59 58 61 80 62 45 63 28 64 29 65 38 66 30 67
REMARK SMILES IDX 31 68 37 69 39 70 32 71 33 72 34 73 35 74 36 75 62 76 63 77
REMARK SMILES IDX 72 78 64 79 65 80 71 81 73 82 66 83 67 84 68 85 69 86 70 87
REMARK SMILES IDX 46 88 47 89 56 90 48 91 49 92 55 93 57 94 50 95 51 96 52 97
REMARK SMILES IDX 53 98 54 99
REMARK H PARENT 86 23 94 25 78 49 44 60
REMARK Flexibility Score: inf
ROOT
ATOM      1  C   UNL A   1      33.256  35.612  31.990  1.00  0.00     0.188 C 
ENDROOT
BRANCH   1   2
ATOM      2  C   UNL A   1      34.394  36.149  32.882  1.00  0.00     0.188 C 
BRANCH   2   3
ATOM      3  O   UNL A   1      35.588  35.390  33.028  1.00  0.00    -0.376 OA
BRANCH   3   4
ATOM      4  C   UNL A   1      35.499  34.094  33.600  1.00  0.00     0.202 C 
BRANCH   4   5
ATOM      5  C   UNL A   1      36.006  33.962  35.037  1.00  0.00     0.261 C 
BRANCH   5   6
ATOM      6  O   UNL A   1      36.942  32.874  35.199  1.00  0.00    -0.463 OA
BRANCH   6   7
ATOM      7  C   UNL A   1      38.244  33.230  35.299  1.00  0.00     0.310 C 
ATOM      8  O   UNL A   1      38.665  34.363  35.077  1.00  0.00    -0.252 OA
BRANCH   7   9
ATOM      9  C   UNL A   1      39.202  32.129  35.765  1.00  0.00     0.166 C 
BRANCH   9  10
ATOM     10  C   UNL A   1      39.773  31.095  34.803  1.00  0.00     0.048 A 
ATOM     11  C   UNL A   1      41.991  32.384  34.744  1.00  0.00     0.046 C 
ATOM     12  C   UNL A   1      41.217  31.124  34.452  1.00  0.00    -0.026 A 
ATOM     13  C   UNL A   1      41.786  30.060  33.820  1.00  0.00     0.063 A 
ATOM     14  C   UNL A   1      39.004  30.146  34.223  1.00  0.00     0.286 A 
ATOM     15  C   UNL A   1      40.898  29.072  33.197  1.00  0.00     0.146 A 
ATOM     16  C   UNL A   1      43.241  29.837  33.698  1.00  0.00     0.130 A 
ATOM     17  O   UNL A   1      39.532  29.173  33.393  1.00  0.00    -0.425 OA
ATOM     18  C   UNL A   1      41.376  28.144  32.358  1.00  0.00     0.100 A 
ATOM     19  C   UNL A   1      43.736  28.896  32.881  1.00  0.00     0.099 A 
ATOM     20  C   UNL A   1      42.827  28.032  32.099  1.00  0.00     0.186 A 
ATOM     21  O   UNL A   1      43.263  27.213  31.298  1.00  0.00    -0.290 OA
BRANCH  14  22
ATOM     22  O   UNL A   1      37.640  30.069  34.407  1.00  0.00    -0.480 OA
ATOM     23  H   UNL A   1      37.066  30.068  33.666  1.00  0.00     0.297 HD
ENDBRANCH  14  22
BRANCH  16  24
ATOM     24  O   UNL A   1      44.057  30.536  34.566  1.00  0.00    -0.507 OA
ATOM     25  H   UNL A   1      43.864  31.429  34.772  1.00  0.00     0.293 HD
ENDBRANCH  16  24
ENDBRANCH   9  10
ENDBRANCH   7   9
ENDBRANCH   6   7
ENDBRANCH   5   6
ENDBRANCH   4   5
ENDBRANCH   3   4
ENDBRANCH   2   3
ENDBRANCH   1   2
BRANCH   1  26
ATOM     26  O   UNL A   1      33.448  34.391  31.291  1.00  0.00    -0.376 OA
BRANCH  26  27
ATOM     27  C   UNL A   1      34.009  34.468  29.988  1.00  0.00     0.202 C 
BRANCH  27  28
ATOM     28  C   UNL A   1      35.170  33.509  29.733  1.00  0.00     0.261 C 
BRANCH  28  29
ATOM     29  O   UNL A   1      34.796  32.143  30.001  1.00  0.00    -0.460 OA
BRANCH  29  30
ATOM     30  C   UNL A   1      34.725  31.344  28.912  1.00  0.00     0.338 C 
ATOM     31  O   UNL A   1      33.885  31.366  28.026  1.00  0.00    -0.246 OA
BRANCH  30  32
ATOM     32  C   UNL A   1      35.893  30.451  28.839  1.00  0.00     0.060 A 
ATOM     33  C   UNL A   1      36.386  29.917  30.028  1.00  0.00     0.016 A 
ATOM     34  C   UNL A   1      36.645  30.372  27.673  1.00  0.00     0.016 A 
ATOM     35  C   UNL A   1      37.682  29.410  30.092  1.00  0.00     0.010 A 
ATOM     36  C   UNL A   1      37.921  29.799  27.720  1.00  0.00     0.010 A 
ATOM     37  C   UNL A   1      38.478  29.372  28.942  1.00  0.00    -0.014 A 
BRANCH  37  38
ATOM     38  C   UNL A   1      39.926  29.035  29.026  1.00  0.00     0.031 A 
ATOM     39  C   UNL A   1      40.896  30.100  29.473  1.00  0.00     0.074 A 
ATOM     40  C   UNL A   1      40.385  27.797  28.755  1.00  0.00     0.049 A 
ATOM     41  N   UNL A   1      42.196  30.144  29.355  1.00  0.00    -0.248 NA
ATOM     42  C   UNL A   1      40.315  31.280  30.138  1.00  0.00     0.031 C 
ATOM     43  C   UNL A   1      39.560  26.631  28.440  1.00  0.00     0.029 A 
ATOM     44  N   UNL A   1      41.671  27.317  28.696  1.00  0.00    -0.354 N 
ATOM     45  C   UNL A   1      42.583  31.378  29.868  1.00  0.00     0.074 A 
ATOM     46  C   UNL A   1      41.381  32.049  30.308  1.00  0.00     0.031 C 
ATOM     47  C   UNL A   1      40.356  25.571  28.235  1.00  0.00     0.029 A 
ATOM     48  C   UNL A   1      41.748  26.003  28.301  1.00  0.00     0.049 A 
ATOM     49  H   UNL A   1      42.461  27.862  28.917  1.00  0.00     0.167 HD
ATOM     50  C   UNL A   1      43.830  31.901  29.953  1.00  0.00     0.037 A 
ATOM     51  C   UNL A   1      42.814  25.249  27.962  1.00  0.00     0.037 A 
ATOM     52  C   UNL A   1      45.021  31.196  29.556  1.00  0.00     0.049 A 
ATOM     53  C   UNL A   1      44.183  25.877  27.973  1.00  0.00     0.074 A 
ATOM     54  C   UNL A   1      46.332  31.640  29.568  1.00  0.00     0.029 A 
ATOM     55  N   UNL A   1      45.048  29.887  29.097  1.00  0.00    -0.354 N 
ATOM     56  N   UNL A   1      44.532  27.089  28.332  1.00  0.00    -0.248 NA
ATOM     57  C   UNL A   1      45.297  25.044  27.499  1.00  0.00     0.031 C 
ATOM     58  C   UNL A   1      47.147  30.611  29.082  1.00  0.00     0.029 A 
ATOM     59  C   UNL A   1      46.349  29.511  28.810  1.00  0.00     0.049 A 
ATOM     60  H   UNL A   1      44.258  29.310  28.992  1.00  0.00     0.167 HD
ATOM     61  C   UNL A   1      45.907  27.164  28.131  1.00  0.00     0.074 A 
ATOM     62  C   UNL A   1      46.327  25.866  27.644  1.00  0.00     0.031 C 
ATOM     63  C   UNL A   1      46.744  28.215  28.320  1.00  0.00     0.037 A 
BRANCH  50  64
ATOM     64  C   UNL A   1      43.967  33.316  30.443  1.00  0.00     0.058 A 
ATOM     65  C   UNL A   1      43.732  34.422  29.612  1.00  0.00     0.135 A 
ATOM     66  C   UNL A   1      44.304  33.566  31.784  1.00  0.00     0.135 A 
ATOM     67  F   UNL A   1      43.430  34.241  28.316  1.00  0.00    -0.206 F 
ATOM     68  C   UNL A   1      43.843  35.726  30.087  1.00  0.00     0.059 A 
ATOM     69  C   UNL A   1      44.397  34.860  32.287  1.00  0.00     0.059 A 
ATOM     70  F   UNL A   1      44.547  32.546  32.621  1.00  0.00    -0.206 F 
ATOM     71  C   UNL A   1      44.175  35.934  31.428  1.00  0.00     0.060 A 
BRANCH  71  72
ATOM     72  S   UNL A   1      44.306  37.631  32.032  1.00  0.00     0.124 S 
ATOM     73  O   UNL A   1      43.845  38.389  30.873  1.00  0.00    -0.237 OA
ATOM     74  O   UNL A   1      43.407  37.622  33.182  1.00  0.00    -0.237 OA
ATOM     75  O   UNL A   1      45.724  37.773  32.348  1.00  0.00    -0.744 OA
ENDBRANCH  71  72
ENDBRANCH  50  64
BRANCH  51  76
ATOM     76  C   UNL A   1      42.621  23.844  27.511  1.00  0.00     0.058 A 
ATOM     77  C   UNL A   1      42.536  22.793  28.435  1.00  0.00     0.135 A 
ATOM     78  C   UNL A   1      42.507  23.524  26.148  1.00  0.00     0.135 A 
ATOM     79  F   UNL A   1      42.659  23.043  29.748  1.00  0.00    -0.206 F 
ATOM     80  C   UNL A   1      42.344  21.476  28.026  1.00  0.00     0.059 A 
ATOM     81  C   UNL A   1      42.284  22.220  25.716  1.00  0.00     0.059 A 
ATOM     82  F   UNL A   1      42.579  24.491  25.220  1.00  0.00    -0.206 F 
ATOM     83  C   UNL A   1      42.211  21.201  26.664  1.00  0.00     0.060 A 
BRANCH  83  84
ATOM     84  S   UNL A   1      41.896  19.499  26.150  1.00  0.00     0.124 S 
ATOM     85  O   UNL A   1      42.744  19.385  24.970  1.00  0.00    -0.237 OA
ATOM     86  O   UNL A   1      42.326  18.742  27.322  1.00  0.00    -0.237 OA
ATOM     87  O   UNL A   1      40.458  19.485  25.898  1.00  0.00    -0.744 OA
ENDBRANCH  83  84
ENDBRANCH  51  76
BRANCH  63  88
ATOM     88  C   UNL A   1      48.198  27.996  28.010  1.00  0.00     0.058 A 
ATOM     89  C   UNL A   1      49.093  27.533  28.987  1.00  0.00     0.135 A 
ATOM     90  C   UNL A   1      48.694  28.216  26.715  1.00  0.00     0.135 A 
ATOM     91  F   UNL A   1      48.670  27.314  30.243  1.00  0.00    -0.206 F 
ATOM     92  C   UNL A   1      50.438  27.322  28.698  1.00  0.00     0.059 A 
ATOM     93  C   UNL A   1      50.028  27.985  26.397  1.00  0.00     0.059 A 
ATOM     94  F   UNL A   1      47.876  28.647  25.742  1.00  0.00    -0.206 F 
ATOM     95  C   UNL A   1      50.895  27.552  27.399  1.00  0.00     0.060 A 
BRANCH  95  96
ATOM     96  S   UNL A   1      52.639  27.259  27.034  1.00  0.00     0.124 S 
ATOM     97  O   UNL A   1      52.727  27.712  25.649  1.00  0.00    -0.237 OA
ATOM     98  O   UNL A   1      53.309  28.102  28.020  1.00  0.00    -0.237 OA
ATOM     99  O   UNL A   1      52.792  25.822  27.236  1.00  0.00    -0.744 OA
ENDBRANCH  95  96
ENDBRANCH  63  88
ENDBRANCH  37  38
ENDBRANCH  30  32
ENDBRANCH  29  30
ENDBRANCH  28  29
ENDBRANCH  27  28
ENDBRANCH  26  27
ENDBRANCH   1  26
TORSDOF 23
ENDMDL
MODEL 2
REMARK VINA RESULT:      -8.9      3.456      6.739
REMARK SMILES Cc1c(CC(=O)OCCOCCOCCOC(=O)c2ccc(-c3c4nc(c(-c5c(F)cc(S(=O)(=O)[O-])cc5F)c5ccc([nH]5)c(-c5c(F)cc(S(=O)(=O)[O-])cc5F)c5nc(c(-c6c(F)cc(S(=O)(=O)[O-])cc6F)c6ccc3[nH]6)C=C5)C=C4)cc2)c(O)oc2cc(=O)cc(O)c1-2
REMARK SMILES IDX 12 1 11 2 10 3 9 4 8 5 7 6 5 7 6 8 4 9 3 10 1 11 2 12 95 13
REMARK SMILES IDX 85 14 88 15 93 16 87 17 89 18 92 19 90 20 91 21 86 22 94 24
REMARK SMILES IDX 13 26 14 27 15 28 16 29 17 30 18 31 19 32 20 33 84 34 21 35
REMARK SMILES IDX 83 36 22 37 23 38 24 39 77 40 25 41 82 42 76 43 78 44 26 45
REMARK SMILES IDX 81 46 75 47 74 48 27 50 61 51 40 52 60 53 41 54 44 55 59 56
REMARK SMILES IDX 79 57 42 58 43 59 58 61 80 62 45 63 28 64 29 65 38 66 30 67
REMARK SMILES IDX 31 68 37 69 39 70 32 71 33 72 34 73 35 74 36 75 62 76 63 77
REMARK SMILES IDX 72 78 64 79 65 80 71 81 73 82 66 83 67 84 68 85 69 86 70 87
REMARK SMILES IDX 46 88 47 89 56 90 48 91 49 92 55 93 57 94 50 95 51 96 52 97
REMARK SMILES IDX 53 98 54 99
REMARK H PARENT 86 23 94 25 78 49 44 60
REMARK Flexibility Score: inf
ROOT
ATOM      1  C   UNL A   1      31.889  29.438  25.255  1.00  0.00     0.188 C 
ENDROOT
BRANCH   1   2
ATOM      2  C   UNL A   1      31.218  28.701  24.078  1.00  0.00     0.188 C 
BRANCH   2   3
ATOM      3  O   UNL A   1      31.956  27.729  23.347  1.00  0.00    -0.376 OA
BRANCH   3   4
ATOM      4  C   UNL A   1      31.261  26.908  22.422  1.00  0.00     0.202 C 
BRANCH   4   5
ATOM      5  C   UNL A   1      31.404  25.399  22.630  1.00  0.00     0.261 C 
BRANCH   5   6
ATOM      6  O   UNL A   1      30.369  24.853  23.477  1.00  0.00    -0.463 OA
BRANCH   6   7
ATOM      7  C   UNL A   1      30.653  24.814  24.800  1.00  0.00     0.310 C 
ATOM      8  O   UNL A   1      30.296  25.672  25.604  1.00  0.00    -0.252 OA
BRANCH   7   9
ATOM      9  C   UNL A   1      31.430  23.584  25.279  1.00  0.00     0.166 C 
BRANCH   9  10
ATOM     10  C   UNL A   1      32.941  23.608  25.472  1.00  0.00     0.048 A 
ATOM     11  C   UNL A   1      32.915  21.084  25.937  1.00  0.00     0.046 C 
ATOM     12  C   UNL A   1      33.693  22.333  25.610  1.00  0.00    -0.026 A 
ATOM     13  C   UNL A   1      35.051  22.329  25.509  1.00  0.00     0.063 A 
ATOM     14  C   UNL A   1      33.641  24.762  25.551  1.00  0.00     0.286 A 
ATOM     15  C   UNL A   1      35.755  23.612  25.617  1.00  0.00     0.146 A 
ATOM     16  C   UNL A   1      35.875  21.118  25.319  1.00  0.00     0.130 A 
ATOM     17  O   UNL A   1      35.019  24.783  25.670  1.00  0.00    -0.425 OA
ATOM     18  C   UNL A   1      37.084  23.661  25.774  1.00  0.00     0.100 A 
ATOM     19  C   UNL A   1      37.209  21.154  25.449  1.00  0.00     0.099 A 
ATOM     20  C   UNL A   1      37.895  22.426  25.759  1.00  0.00     0.186 A 
ATOM     21  O   UNL A   1      39.106  22.464  25.947  1.00  0.00    -0.290 OA
BRANCH  14  22
ATOM     22  O   UNL A   1      33.045  26.005  25.519  1.00  0.00    -0.480 OA
ATOM     23  H   UNL A   1      32.780  26.377  24.701  1.00  0.00     0.297 HD
ENDBRANCH  14  22
BRANCH  16  24
ATOM     24  O   UNL A   1      35.229  19.987  24.861  1.00  0.00    -0.507 OA
ATOM     25  H   UNL A   1      35.715  19.202  24.701  1.00  0.00     0.293 HD
ENDBRANCH  16  24
ENDBRANCH   9  10
ENDBRANCH   7   9
ENDBRANCH   6   7
ENDBRANCH   5   6
ENDBRANCH   4   5
ENDBRANCH   3   4
ENDBRANCH   2   3
ENDBRANCH   1   2
BRANCH   1  26
ATOM     26  O   UNL A   1      31.365  30.691  25.670  1.00  0.00    -0.376 OA
BRANCH  26  27
ATOM     27  C   UNL A   1      32.005  31.334  26.764  1.00  0.00     0.202 C 
BRANCH  27  28
ATOM     28  C   UNL A   1      33.168  30.556  27.375  1.00  0.00     0.261 C 
BRANCH  28  29
ATOM     29  O   UNL A   1      34.345  31.378  27.500  1.00  0.00    -0.460 OA
BRANCH  29  30
ATOM     30  C   UNL A   1      34.956  31.324  28.706  1.00  0.00     0.338 C 
ATOM     31  O   UNL A   1      34.605  31.862  29.743  1.00  0.00    -0.246 OA
BRANCH  30  32
ATOM     32  C   UNL A   1      36.109  30.409  28.669  1.00  0.00     0.060 A 
ATOM     33  C   UNL A   1      36.544  29.852  29.870  1.00  0.00     0.016 A 
ATOM     34  C   UNL A   1      36.906  30.330  27.533  1.00  0.00     0.016 A 
ATOM     35  C   UNL A   1      37.826  29.319  29.980  1.00  0.00     0.010 A 
ATOM     36  C   UNL A   1      38.169  29.731  27.624  1.00  0.00     0.010 A 
ATOM     37  C   UNL A   1      38.667  29.279  28.862  1.00  0.00    -0.014 A 
BRANCH  37  38
ATOM     38  C   UNL A   1      40.104  28.913  29.000  1.00  0.00     0.031 A 
ATOM     39  C   UNL A   1      41.075  29.954  29.500  1.00  0.00     0.074 A 
ATOM     40  C   UNL A   1      40.551  27.670  28.732  1.00  0.00     0.049 A 
ATOM     41  N   UNL A   1      42.380  29.974  29.435  1.00  0.00    -0.248 NA
ATOM     42  C   UNL A   1      40.490  31.136  30.156  1.00  0.00     0.031 C 
ATOM     43  C   UNL A   1      39.717  26.525  28.369  1.00  0.00     0.029 A 
ATOM     44  N   UNL A   1      41.829  27.166  28.719  1.00  0.00    -0.354 N 
ATOM     45  C   UNL A   1      42.769  31.194  29.980  1.00  0.00     0.074 A 
ATOM     46  C   UNL A   1      41.562  31.883  30.380  1.00  0.00     0.031 C 
ATOM     47  C   UNL A   1      40.501  25.451  28.182  1.00  0.00     0.029 A 
ATOM     48  C   UNL A   1      41.897  25.856  28.310  1.00  0.00     0.049 A 
ATOM     49  H   UNL A   1      42.619  27.693  28.979  1.00  0.00     0.167 HD
ATOM     50  C   UNL A   1      44.020  31.691  30.122  1.00  0.00     0.037 A 
ATOM     51  C   UNL A   1      42.961  25.086  28.005  1.00  0.00     0.037 A 
ATOM     52  C   UNL A   1      45.213  30.969  29.764  1.00  0.00     0.049 A 
ATOM     53  C   UNL A   1      44.340  25.686  28.079  1.00  0.00     0.074 A 
ATOM     54  C   UNL A   1      46.531  31.387  29.835  1.00  0.00     0.029 A 
ATOM     55  N   UNL A   1      45.234  29.665  29.290  1.00  0.00    -0.354 N 
ATOM     56  N   UNL A   1      44.697  26.887  28.468  1.00  0.00    -0.248 NA
ATOM     57  C   UNL A   1      45.457  24.838  27.640  1.00  0.00     0.031 C 
ATOM     58  C   UNL A   1      47.345  30.349  29.369  1.00  0.00     0.029 A 
ATOM     59  C   UNL A   1      46.538  29.268  29.051  1.00  0.00     0.049 A 
ATOM     60  H   UNL A   1      44.438  29.104  29.145  1.00  0.00     0.167 HD
ATOM     61  C   UNL A   1      46.080  26.939  28.323  1.00  0.00     0.074 A 
ATOM     62  C   UNL A   1      46.495  25.639  27.836  1.00  0.00     0.031 C 
ATOM     63  C   UNL A   1      46.929  27.970  28.560  1.00  0.00     0.037 A 
BRANCH  50  64
ATOM     64  C   UNL A   1      44.164  33.098  30.635  1.00  0.00     0.058 A 
ATOM     65  C   UNL A   1      44.344  33.382  31.997  1.00  0.00     0.135 A 
ATOM     66  C   UNL A   1      44.157  34.178  29.736  1.00  0.00     0.135 A 
ATOM     67  F   UNL A   1      44.335  32.391  32.902  1.00  0.00    -0.206 F 
ATOM     68  C   UNL A   1      44.496  34.689  32.453  1.00  0.00     0.059 A 
ATOM     69  C   UNL A   1      44.331  35.490  30.166  1.00  0.00     0.059 A 
ATOM     70  F   UNL A   1      43.981  33.964  28.423  1.00  0.00    -0.206 F 
ATOM     71  C   UNL A   1      44.490  35.737  31.529  1.00  0.00     0.060 A 
BRANCH  71  72
ATOM     72  S   UNL A   1      44.697  37.425  32.135  1.00  0.00     0.124 S 
ATOM     73  O   UNL A   1      45.965  37.323  32.851  1.00  0.00    -0.237 OA
ATOM     74  O   UNL A   1      44.728  38.198  30.897  1.00  0.00    -0.237 OA
ATOM     75  O   UNL A   1      43.521  37.634  32.973  1.00  0.00    -0.744 OA
ENDBRANCH  71  72
ENDBRANCH  50  64
BRANCH  51  76
ATOM     76  C   UNL A   1      42.760  23.690  27.528  1.00  0.00     0.058 A 
ATOM     77  C   UNL A   1      42.614  22.630  28.434  1.00  0.00     0.135 A 
ATOM     78  C   UNL A   1      42.699  23.389  26.158  1.00  0.00     0.135 A 
ATOM     79  F   UNL A   1      42.685  22.862  29.754  1.00  0.00    -0.206 F 
ATOM     80  C   UNL A   1      42.414  21.322  28.001  1.00  0.00     0.059 A 
ATOM     81  C   UNL A   1      42.470  22.095  25.699  1.00  0.00     0.059 A 
ATOM     82  F   UNL A   1      42.831  24.365  25.246  1.00  0.00    -0.206 F 
ATOM     83  C   UNL A   1      42.335  21.066  26.630  1.00  0.00     0.060 A 
BRANCH  83  84
ATOM     84  S   UNL A   1      42.010  19.377  26.082  1.00  0.00     0.124 S 
ATOM     85  O   UNL A   1      42.488  18.600  27.219  1.00  0.00    -0.237 OA
ATOM     86  O   UNL A   1      40.564  19.394  25.882  1.00  0.00    -0.237 OA
ATOM     87  O   UNL A   1      42.802  19.262  24.861  1.00  0.00    -0.744 OA
ENDBRANCH  83  84
ENDBRANCH  51  76
BRANCH  63  88
ATOM     88  C   UNL A   1      48.390  27.728  28.306  1.00  0.00     0.058 A 
ATOM     89  C   UNL A   1      48.973  28.008  27.060  1.00  0.00     0.135 A 
ATOM     90  C   UNL A   1      49.223  27.248  29.329  1.00  0.00     0.135 A 
ATOM     91  F   UNL A   1      48.217  28.463  26.047  1.00  0.00    -0.206 F 
ATOM     92  C   UNL A   1      50.327  27.792  26.828  1.00  0.00     0.059 A 
ATOM     93  C   UNL A   1      50.585  27.051  29.127  1.00  0.00     0.059 A 
ATOM     94  F   UNL A   1      48.716  26.976  30.542  1.00  0.00    -0.206 F 
ATOM     95  C   UNL A   1      51.125  27.312  27.868  1.00  0.00     0.060 A 
BRANCH  95  96
ATOM     96  S   UNL A   1      52.884  27.052  27.557  1.00  0.00     0.124 S 
ATOM     97  O   UNL A   1      52.903  25.654  27.138  1.00  0.00    -0.237 OA
ATOM     98  O   UNL A   1      53.164  28.031  26.511  1.00  0.00    -0.237 OA
ATOM     99  O   UNL A   1      53.502  27.328  28.850  1.00  0.00    -0.744 OA
ENDBRANCH  95  96
ENDBRANCH  63  88
ENDBRANCH  37  38
ENDBRANCH  30  32
ENDBRANCH  29  30
ENDBRANCH  28  29
ENDBRANCH  27  28
ENDBRANCH  26  27
ENDBRANCH   1  26
TORSDOF 23
ENDMDL
MODEL 3
REMARK VINA RESULT:      -8.8      5.576     12.557
REMARK SMILES Cc1c(CC(=O)OCCOCCOCCOC(=O)c2ccc(-c3c4nc(c(-c5c(F)cc(S(=O)(=O)[O-])cc5F)c5ccc([nH]5)c(-c5c(F)cc(S(=O)(=O)[O-])cc5F)c5nc(c(-c6c(F)cc(S(=O)(=O)[O-])cc6F)c6ccc3[nH]6)C=C5)C=C4)cc2)c(O)oc2cc(=O)cc(O)c1-2
REMARK SMILES IDX 12 1 11 2 10 3 9 4 8 5 7 6 5 7 6 8 4 9 3 10 1 11 2 12 95 13
REMARK SMILES IDX 85 14 88 15 93 16 87 17 89 18 92 19 90 20 91 21 86 22 94 24
REMARK SMILES IDX 13 26 14 27 15 28 16 29 17 30 18 31 19 32 20 33 84 34 21 35
REMARK SMILES IDX 83 36 22 37 23 38 24 39 77 40 25 41 82 42 76 43 78 44 26 45
REMARK SMILES IDX 81 46 75 47 74 48 27 50 61 51 40 52 60 53 41 54 44 55 59 56
REMARK SMILES IDX 79 57 42 58 43 59 58 61 80 62 45 63 28 64 29 65 38 66 30 67
REMARK SMILES IDX 31 68 37 69 39 70 32 71 33 72 34 73 35 74 36 75 62 76 63 77
REMARK SMILES IDX 72 78 64 79 65 80 71 81 73 82 66 83 67 84 68 85 69 86 70 87
REMARK SMILES IDX 46 88 47 89 56 90 48 91 49 92 55 93 57 94 50 95 51 96 52 97
REMARK SMILES IDX 53 98 54 99
REMARK H PARENT 86 23 94 25 78 49 44 60
REMARK Flexibility Score: inf
ROOT
ATOM      1  C   UNL A   1      35.417  21.878  26.157  1.00  0.00     0.188 C 
ENDROOT
BRANCH   1   2
ATOM      2  C   UNL A   1      34.128  21.214  25.630  1.00  0.00     0.188 C 
BRANCH   2   3
ATOM      3  O   UNL A   1      33.791  21.333  24.254  1.00  0.00    -0.376 OA
BRANCH   3   4
ATOM      4  C   UNL A   1      34.286  22.449  23.530  1.00  0.00     0.202 C 
BRANCH   4   5
ATOM      5  C   UNL A   1      33.254  23.224  22.710  1.00  0.00     0.261 C 
BRANCH   5   6
ATOM      6  O   UNL A   1      33.854  24.248  21.886  1.00  0.00    -0.463 OA
BRANCH   6   7
ATOM      7  C   UNL A   1      33.288  25.475  21.970  1.00  0.00     0.310 C 
ATOM      8  O   UNL A   1      33.361  26.327  21.086  1.00  0.00    -0.252 OA
BRANCH   7   9
ATOM      9  C   UNL A   1      32.482  25.752  23.242  1.00  0.00     0.166 C 
BRANCH   9  10
ATOM     10  C   UNL A   1      32.944  26.757  24.289  1.00  0.00     0.048 A 
ATOM     11  C   UNL A   1      31.767  28.636  22.996  1.00  0.00     0.046 C 
ATOM     12  C   UNL A   1      32.426  28.150  24.262  1.00  0.00    -0.026 A 
ATOM     13  C   UNL A   1      32.616  28.969  25.334  1.00  0.00     0.063 A 
ATOM     14  C   UNL A   1      33.844  26.440  25.247  1.00  0.00     0.286 A 
ATOM     15  C   UNL A   1      33.617  28.576  26.332  1.00  0.00     0.146 A 
ATOM     16  C   UNL A   1      31.899  30.240  25.557  1.00  0.00     0.130 A 
ATOM     17  O   UNL A   1      34.222  27.336  26.231  1.00  0.00    -0.425 OA
ATOM     18  C   UNL A   1      34.032  29.436  27.272  1.00  0.00     0.100 A 
ATOM     19  C   UNL A   1      32.285  31.102  26.508  1.00  0.00     0.099 A 
ATOM     20  C   UNL A   1      33.431  30.782  27.385  1.00  0.00     0.186 A 
ATOM     21  O   UNL A   1      33.840  31.587  28.214  1.00  0.00    -0.290 OA
BRANCH  14  22
ATOM     22  O   UNL A   1      34.456  25.206  25.324  1.00  0.00    -0.480 OA
ATOM     23  H   UNL A   1      33.937  24.426  25.337  1.00  0.00     0.297 HD
ENDBRANCH  14  22
BRANCH  16  24
ATOM     24  O   UNL A   1      30.732  30.434  24.844  1.00  0.00    -0.507 OA
ATOM     25  H   UNL A   1      30.693  31.091  24.179  1.00  0.00     0.293 HD
ENDBRANCH  16  24
ENDBRANCH   9  10
ENDBRANCH   7   9
ENDBRANCH   6   7
ENDBRANCH   5   6
ENDBRANCH   4   5
ENDBRANCH   3   4
ENDBRANCH   2   3
ENDBRANCH   1   2
BRANCH   1  26
ATOM     26  O   UNL A   1      36.669  21.275  25.867  1.00  0.00    -0.376 OA
BRANCH  26  27
ATOM     27  C   UNL A   1      37.746  22.140  25.531  1.00  0.00     0.202 C 
BRANCH  27  28
ATOM     28  C   UNL A   1      37.487  23.621  25.801  1.00  0.00     0.261 C 
BRANCH  28  29
ATOM     29  O   UNL A   1      38.235  24.088  26.942  1.00  0.00    -0.460 OA
BRANCH  29  30
ATOM     30  C   UNL A   1      39.359  24.780  26.646  1.00  0.00     0.338 C 
ATOM     31  O   UNL A   1      39.910  24.877  25.561  1.00  0.00    -0.246 OA
BRANCH  30  32
ATOM     32  C   UNL A   1      39.830  25.539  27.815  1.00  0.00     0.060 A 
ATOM     33  C   UNL A   1      39.034  25.546  28.959  1.00  0.00     0.016 A 
ATOM     34  C   UNL A   1      40.878  26.444  27.689  1.00  0.00     0.016 A 
ATOM     35  C   UNL A   1      39.198  26.530  29.931  1.00  0.00     0.010 A 
ATOM     36  C   UNL A   1      41.089  27.390  28.699  1.00  0.00     0.010 A 
ATOM     37  C   UNL A   1      40.212  27.485  29.798  1.00  0.00    -0.014 A 
BRANCH  37  38
ATOM     38  C   UNL A   1      40.274  28.665  30.704  1.00  0.00     0.031 A 
ATOM     39  C   UNL A   1      41.336  28.704  31.775  1.00  0.00     0.074 A 
ATOM     40  C   UNL A   1      39.438  29.713  30.566  1.00  0.00     0.049 A 
ATOM     41  N   UNL A   1      41.417  29.457  32.839  1.00  0.00    -0.248 NA
ATOM     42  C   UNL A   1      42.455  27.757  31.625  1.00  0.00     0.031 C 
ATOM     43  C   UNL A   1      38.451  29.881  29.500  1.00  0.00     0.029 A 
ATOM     44  N   UNL A   1      39.286  30.839  31.338  1.00  0.00    -0.354 N 
ATOM     45  C   UNL A   1      42.554  29.034  33.519  1.00  0.00     0.074 A 
ATOM     46  C   UNL A   1      43.138  27.963  32.742  1.00  0.00     0.031 C 
ATOM     47  C   UNL A   1      37.806  31.045  29.678  1.00  0.00     0.029 A 
ATOM     48  C   UNL A   1      38.260  31.653  30.924  1.00  0.00     0.049 A 
ATOM     49  H   UNL A   1      39.858  31.043  32.114  1.00  0.00     0.167 HD
ATOM     50  C   UNL A   1      43.055  29.494  34.690  1.00  0.00     0.037 A 
ATOM     51  C   UNL A   1      37.700  32.729  31.514  1.00  0.00     0.037 A 
ATOM     52  C   UNL A   1      42.489  30.596  35.424  1.00  0.00     0.049 A 
ATOM     53  C   UNL A   1      38.210  33.170  32.860  1.00  0.00     0.074 A 
ATOM     54  C   UNL A   1      42.894  31.126  36.636  1.00  0.00     0.029 A 
ATOM     55  N   UNL A   1      41.406  31.353  35.000  1.00  0.00    -0.354 N 
ATOM     56  N   UNL A   1      39.203  32.683  33.565  1.00  0.00    -0.248 NA
ATOM     57  C   UNL A   1      37.501  34.284  33.505  1.00  0.00     0.031 C 
ATOM     58  C   UNL A   1      42.034  32.180  36.962  1.00  0.00     0.029 A 
ATOM     59  C   UNL A   1      41.121  32.336  35.932  1.00  0.00     0.049 A 
ATOM     60  H   UNL A   1      40.913  31.212  34.160  1.00  0.00     0.167 HD
ATOM     61  C   UNL A   1      39.240  33.432  34.737  1.00  0.00     0.074 A 
ATOM     62  C   UNL A   1      38.187  34.421  34.632  1.00  0.00     0.031 C 
ATOM     63  C   UNL A   1      40.062  33.307  35.809  1.00  0.00     0.037 A 
BRANCH  50  64
ATOM     64  C   UNL A   1      44.241  28.779  35.278  1.00  0.00     0.058 A 
ATOM     65  C   UNL A   1      45.560  29.186  35.028  1.00  0.00     0.135 A 
ATOM     66  C   UNL A   1      44.046  27.685  36.139  1.00  0.00     0.135 A 
ATOM     67  F   UNL A   1      45.805  30.210  34.195  1.00  0.00    -0.206 F 
ATOM     68  C   UNL A   1      46.645  28.525  35.597  1.00  0.00     0.059 A 
ATOM     69  C   UNL A   1      45.114  27.024  36.737  1.00  0.00     0.059 A 
ATOM     70  F   UNL A   1      42.806  27.249  36.407  1.00  0.00    -0.206 F 
ATOM     71  C   UNL A   1      46.412  27.445  36.452  1.00  0.00     0.060 A 
BRANCH  71  72
ATOM     72  S   UNL A   1      47.830  26.604  37.189  1.00  0.00     0.124 S 
ATOM     73  O   UNL A   1      47.825  27.157  38.540  1.00  0.00    -0.237 OA
ATOM     74  O   UNL A   1      47.450  25.200  37.077  1.00  0.00    -0.237 OA
ATOM     75  O   UNL A   1      48.948  27.019  36.347  1.00  0.00    -0.744 OA
ENDBRANCH  71  72
ENDBRANCH  50  64
BRANCH  51  76
ATOM     76  C   UNL A   1      36.546  33.416  30.871  1.00  0.00     0.058 A 
ATOM     77  C   UNL A   1      35.251  33.300  31.398  1.00  0.00     0.135 A 
ATOM     78  C   UNL A   1      36.714  34.210  29.725  1.00  0.00     0.135 A 
ATOM     79  F   UNL A   1      35.033  32.537  32.480  1.00  0.00    -0.206 F 
ATOM     80  C   UNL A   1      34.165  33.946  30.813  1.00  0.00     0.059 A 
ATOM     81  C   UNL A   1      35.651  34.890  29.140  1.00  0.00     0.059 A 
ATOM     82  F   UNL A   1      37.932  34.357  29.180  1.00  0.00    -0.206 F 
ATOM     83  C   UNL A   1      34.378  34.746  29.688  1.00  0.00     0.060 A 
BRANCH  83  84
ATOM     84  S   UNL A   1      32.973  35.632  28.978  1.00  0.00     0.124 S 
ATOM     85  O   UNL A   1      32.218  35.992  30.171  1.00  0.00    -0.237 OA
ATOM     86  O   UNL A   1      33.629  36.733  28.278  1.00  0.00    -0.237 OA
ATOM     87  O   UNL A   1      32.350  34.633  28.114  1.00  0.00    -0.744 OA
ENDBRANCH  83  84
ENDBRANCH  51  76
BRANCH  63  88
ATOM     88  C   UNL A   1      39.861  34.271  36.944  1.00  0.00     0.058 A 
ATOM     89  C   UNL A   1      40.397  35.568  36.907  1.00  0.00     0.135 A 
ATOM     90  C   UNL A   1      39.093  33.908  38.062  1.00  0.00     0.135 A 
ATOM     91  F   UNL A   1      41.144  35.961  35.863  1.00  0.00    -0.206 F 
ATOM     92  C   UNL A   1      40.202  36.463  37.954  1.00  0.00     0.059 A 
ATOM     93  C   UNL A   1      38.863  34.797  39.107  1.00  0.00     0.059 A 
ATOM     94  F   UNL A   1      38.549  32.683  38.140  1.00  0.00    -0.206 F 
ATOM     95  C   UNL A   1      39.435  36.067  39.050  1.00  0.00     0.060 A 
BRANCH  95  96
ATOM     96  S   UNL A   1      39.177  37.245  40.394  1.00  0.00     0.124 S 
ATOM     97  O   UNL A   1      38.302  38.225  39.760  1.00  0.00    -0.237 OA
ATOM     98  O   UNL A   1      38.558  36.413  41.422  1.00  0.00    -0.237 OA
ATOM     99  O   UNL A   1      40.525  37.712  40.701  1.00  0.00    -0.744 OA
ENDBRANCH  95  96
ENDBRANCH  63  88
ENDBRANCH  37  38
ENDBRANCH  30  32
ENDBRANCH  29  30
ENDBRANCH  28  29
ENDBRANCH  27  28
ENDBRANCH  26  27
ENDBRANCH   1  26
TORSDOF 23
ENDMDL
