MODEL 1
REMARK VINA RESULT:     -10.4      0.000      0.000
REMARK SMILES CC(C)CN(C)c1cc2c(cc1Cl)C=C(C(=O)OCCOCCOCCOC(=O)c1ccc(-c3c4nc(c(-c5c(F)cc(S(=O)(=O)[O-])cc5F)c5ccc([nH]5)c(-c5c(F)cc(S(=O)(=O)[O-])cc5F)c5nc(c(-c6c(F)cc(S(=O)(=O)[O-])cc6F)c6ccc3[nH]6)C=C5)C=C4)cc1)[C@H](C(F)(F)F)O2
REMARK SMILES IDX 22 1 21 2 20 3 19 4 18 5 16 6 17 7 15 8 7 9 8 10 12 11 9 12
REMARK SMILES IDX 11 13 13 14 10 15 101 16 14 17 96 18 5 19 6 20 4 21 2 22
REMARK SMILES IDX 1 23 3 24 97 25 98 26 99 27 100 28 23 29 24 30 25 31 26 32
REMARK SMILES IDX 27 33 28 34 29 35 30 36 31 37 95 38 32 39 94 40 33 41 34 42
REMARK SMILES IDX 35 43 88 44 36 45 93 46 87 47 89 48 37 49 92 50 86 51 85 52
REMARK SMILES IDX 38 54 72 55 51 56 71 57 52 58 55 59 70 60 90 61 53 62 54 63
REMARK SMILES IDX 69 65 91 66 56 67 39 68 40 69 49 70 41 71 42 72 48 73 50 74
REMARK SMILES IDX 43 75 44 76 45 77 46 78 47 79 73 80 74 81 83 82 75 83 76 84
REMARK SMILES IDX 82 85 84 86 77 87 78 88 79 89 80 90 81 91 57 92 58 93 67 94
REMARK SMILES IDX 59 95 60 96 66 97 68 98 61 99 62 100 63 101 64 102 65 103
REMARK H PARENT 89 53 55 64
REMARK Flexibility Score: inf
ROOT
ATOM      1  C   UNL A   1      40.928  19.708  25.766  1.00  0.00     0.188 C 
ENDROOT
BRANCH   1   2
ATOM      2  O   UNL A   1      39.785  18.985  25.370  1.00  0.00    -0.376 OA
BRANCH   2   3
ATOM      3  C   UNL A   1      38.488  19.529  25.565  1.00  0.00     0.202 C 
BRANCH   3   4
ATOM      4  C   UNL A   1      37.833  20.588  24.660  1.00  0.00     0.261 C 
BRANCH   4   5
ATOM      5  O   UNL A   1      36.885  21.462  25.286  1.00  0.00    -0.460 OA
BRANCH   5   6
ATOM      6  C   UNL A   1      35.591  21.208  24.997  1.00  0.00     0.338 C 
ATOM      7  O   UNL A   1      35.117  20.116  24.724  1.00  0.00    -0.246 OA
BRANCH   6   8
ATOM      8  C   UNL A   1      34.744  22.400  25.196  1.00  0.00     0.087 C 
ATOM      9  C   UNL A   1      32.994  27.074  24.407  1.00  0.00     0.059 A 
ATOM     10  C   UNL A   1      33.048  26.209  25.517  1.00  0.00     0.074 A 
ATOM     11  C   UNL A   1      33.558  26.603  23.203  1.00  0.00     0.065 A 
ATOM     12  C   UNL A   1      33.598  24.924  25.418  1.00  0.00     0.130 A 
ATOM     13  C   UNL A   1      33.996  25.283  23.075  1.00  0.00     0.034 A 
ATOM     14  Cl  UNL A   1      33.836  27.640  21.844  1.00  0.00    -0.082 Cl
ATOM     15  C   UNL A   1      34.009  24.439  24.182  1.00  0.00     0.019 A 
ATOM     16  O   UNL A   1      33.721  24.219  26.580  1.00  0.00    -0.475 OA
ATOM     17  C   UNL A   1      34.539  23.094  24.067  1.00  0.00     0.027 C 
ATOM     18  C   UNL A   1      34.400  22.920  26.570  1.00  0.00     0.316 C 
BRANCH   9  19
ATOM     19  N   UNL A   1      32.413  28.344  24.516  1.00  0.00    -0.373 N 
ATOM     20  C   UNL A   1      33.176  29.335  25.267  1.00  0.00     0.143 C 
BRANCH  19  21
ATOM     21  C   UNL A   1      30.937  28.429  24.579  1.00  0.00     0.119 C 
BRANCH  21  22
ATOM     22  C   UNL A   1      30.236  27.790  23.361  1.00  0.00     0.002 C 
ATOM     23  C   UNL A   1      29.481  26.508  23.731  1.00  0.00     0.009 C 
ATOM     24  C   UNL A   1      29.247  28.757  22.702  1.00  0.00     0.009 C 
ENDBRANCH  21  22
ENDBRANCH  19  21
ENDBRANCH   9  19
BRANCH  18  25
ATOM     25  C   UNL A   1      33.558  22.011  27.483  1.00  0.00     0.430 C 
ATOM     26  F   UNL A   1      34.289  21.059  28.098  1.00  0.00    -0.167 F 
ATOM     27  F   UNL A   1      32.999  22.749  28.481  1.00  0.00    -0.167 F 
ATOM     28  F   UNL A   1      32.538  21.423  26.823  1.00  0.00    -0.167 F 
ENDBRANCH  18  25
ENDBRANCH   6   8
ENDBRANCH   5   6
ENDBRANCH   4   5
ENDBRANCH   3   4
ENDBRANCH   2   3
ENDBRANCH   1   2
BRANCH   1  29
ATOM     29  C   UNL A   1      41.176  19.858  27.279  1.00  0.00     0.188 C 
BRANCH  29  30
ATOM     30  O   UNL A   1      40.707  20.992  27.981  1.00  0.00    -0.376 OA
BRANCH  30  31
ATOM     31  C   UNL A   1      40.242  22.121  27.260  1.00  0.00     0.202 C 
BRANCH  31  32
ATOM     32  C   UNL A   1      41.188  23.121  26.575  1.00  0.00     0.261 C 
BRANCH  32  33
ATOM     33  O   UNL A   1      40.640  24.407  26.271  1.00  0.00    -0.460 OA
BRANCH  33  34
ATOM     34  C   UNL A   1      41.550  25.407  26.112  1.00  0.00     0.338 C 
ATOM     35  O   UNL A   1      42.200  25.662  25.122  1.00  0.00    -0.246 OA
BRANCH  34  36
ATOM     36  C   UNL A   1      41.468  26.284  27.299  1.00  0.00     0.060 A 
ATOM     37  C   UNL A   1      42.290  27.404  27.400  1.00  0.00     0.016 A 
ATOM     38  C   UNL A   1      40.567  25.963  28.325  1.00  0.00     0.016 A 
ATOM     39  C   UNL A   1      42.201  28.214  28.533  1.00  0.00     0.010 A 
ATOM     40  C   UNL A   1      40.495  26.762  29.467  1.00  0.00     0.010 A 
ATOM     41  C   UNL A   1      41.299  27.906  29.568  1.00  0.00    -0.014 A 
BRANCH  41  42
ATOM     42  C   UNL A   1      41.088  28.881  30.665  1.00  0.00     0.031 A 
ATOM     43  C   UNL A   1      40.017  29.927  30.603  1.00  0.00     0.074 A 
ATOM     44  C   UNL A   1      41.885  28.782  31.747  1.00  0.00     0.049 A 
ATOM     45  N   UNL A   1      39.647  30.772  31.531  1.00  0.00    -0.248 NA
ATOM     46  C   UNL A   1      39.265  30.046  29.346  1.00  0.00     0.031 C 
ATOM     47  C   UNL A   1      42.979  27.818  31.895  1.00  0.00     0.029 A 
ATOM     48  N   UNL A   1      41.890  29.476  32.928  1.00  0.00    -0.354 N 
ATOM     49  C   UNL A   1      38.599  31.503  30.989  1.00  0.00     0.074 A 
ATOM     50  C   UNL A   1      38.426  31.038  29.627  1.00  0.00     0.031 C 
ATOM     51  C   UNL A   1      43.524  27.957  33.112  1.00  0.00     0.029 A 
ATOM     52  C   UNL A   1      42.840  29.035  33.820  1.00  0.00     0.049 A 
ATOM     53  H   UNL A   1      41.274  30.219  33.120  1.00  0.00     0.167 HD
ATOM     54  C   UNL A   1      37.841  32.455  31.586  1.00  0.00     0.037 A 
ATOM     55  C   UNL A   1      43.122  29.446  35.071  1.00  0.00     0.037 A 
ATOM     56  C   UNL A   1      38.034  32.917  32.940  1.00  0.00     0.049 A 
ATOM     57  C   UNL A   1      42.296  30.543  35.684  1.00  0.00     0.074 A 
ATOM     58  C   UNL A   1      37.295  33.858  33.639  1.00  0.00     0.029 A 
ATOM     59  N   UNL A   1      39.034  32.483  33.798  1.00  0.00    -0.354 N 
ATOM     60  N   UNL A   1      41.260  31.173  35.183  1.00  0.00    -0.248 NA
ATOM     61  C   UNL A   1      42.671  30.982  37.035  1.00  0.00     0.031 C 
ATOM     62  C   UNL A   1      37.880  34.030  34.897  1.00  0.00     0.029 A 
ATOM     63  C   UNL A   1      38.949  33.157  35.006  1.00  0.00     0.049 A 
ATOM     64  H   UNL A   1      39.707  31.798  33.580  1.00  0.00     0.167 HD
ATOM     65  C   UNL A   1      40.846  32.064  36.167  1.00  0.00     0.074 A 
ATOM     66  C   UNL A   1      41.729  31.876  37.298  1.00  0.00     0.031 C 
ATOM     67  C   UNL A   1      39.830  32.960  36.132  1.00  0.00     0.037 A 
BRANCH  54  68
ATOM     68  C   UNL A   1      36.703  33.056  30.806  1.00  0.00     0.058 A 
ATOM     69  C   UNL A   1      35.368  32.782  31.143  1.00  0.00     0.135 A 
ATOM     70  C   UNL A   1      36.941  34.013  29.805  1.00  0.00     0.135 A 
ATOM     71  F   UNL A   1      35.082  31.870  32.084  1.00  0.00    -0.206 F 
ATOM     72  C   UNL A   1      34.311  33.436  30.517  1.00  0.00     0.059 A 
ATOM     73  C   UNL A   1      35.900  34.695  29.181  1.00  0.00     0.059 A 
ATOM     74  F   UNL A   1      38.199  34.315  29.446  1.00  0.00    -0.206 F 
ATOM     75  C   UNL A   1      34.587  34.400  29.546  1.00  0.00     0.060 A 
BRANCH  75  76
ATOM     76  S   UNL A   1      33.200  35.273  28.788  1.00  0.00     0.124 S 
ATOM     77  O   UNL A   1      33.884  36.336  28.060  1.00  0.00    -0.237 OA
ATOM     78  O   UNL A   1      32.593  34.232  27.965  1.00  0.00    -0.237 OA
ATOM     79  O   UNL A   1      32.404  35.710  29.931  1.00  0.00    -0.744 OA
ENDBRANCH  75  76
ENDBRANCH  54  68
BRANCH  55  80
ATOM     80  C   UNL A   1      44.223  28.803  35.834  1.00  0.00     0.058 A 
ATOM     81  C   UNL A   1      45.547  29.248  35.706  1.00  0.00     0.135 A 
ATOM     82  C   UNL A   1      43.976  27.727  36.702  1.00  0.00     0.135 A 
ATOM     83  F   UNL A   1      45.835  30.272  34.888  1.00  0.00    -0.206 F 
ATOM     84  C   UNL A   1      46.592  28.631  36.386  1.00  0.00     0.059 A 
ATOM     85  C   UNL A   1      45.000  27.114  37.417  1.00  0.00     0.059 A 
ATOM     86  F   UNL A   1      42.725  27.276  36.876  1.00  0.00    -0.206 F 
ATOM     87  C   UNL A   1      46.306  27.563  37.238  1.00  0.00     0.060 A 
BRANCH  87  88
ATOM     88  S   UNL A   1      47.670  26.778  38.123  1.00  0.00     0.124 S 
ATOM     89  O   UNL A   1      46.955  25.959  39.095  1.00  0.00    -0.237 OA
ATOM     90  O   UNL A   1      48.351  26.053  37.054  1.00  0.00    -0.237 OA
ATOM     91  O   UNL A   1      48.409  27.909  38.674  1.00  0.00    -0.744 OA
ENDBRANCH  87  88
ENDBRANCH  55  80
BRANCH  67  92
ATOM     92  C   UNL A   1      39.599  33.801  37.359  1.00  0.00     0.058 A 
ATOM     93  C   UNL A   1      38.704  33.404  38.365  1.00  0.00     0.135 A 
ATOM     94  C   UNL A   1      40.327  34.985  37.563  1.00  0.00     0.135 A 
ATOM     95  F   UNL A   1      37.976  32.285  38.218  1.00  0.00    -0.206 F 
ATOM     96  C   UNL A   1      38.521  34.161  39.518  1.00  0.00     0.059 A 
ATOM     97  C   UNL A   1      40.184  35.742  38.722  1.00  0.00     0.059 A 
ATOM     98  F   UNL A   1      41.204  35.408  36.638  1.00  0.00    -0.206 F 
ATOM     99  C   UNL A   1      39.271  35.325  39.691  1.00  0.00     0.060 A 
BRANCH  99 100
ATOM    100  S   UNL A   1      39.052  36.272  41.212  1.00  0.00     0.124 S 
ATOM    101  O   UNL A   1      38.743  37.599  40.692  1.00  0.00    -0.237 OA
ATOM    102  O   UNL A   1      37.947  35.571  41.857  1.00  0.00    -0.237 OA
ATOM    103  O   UNL A   1      40.344  36.147  41.882  1.00  0.00    -0.744 OA
ENDBRANCH  99 100
ENDBRANCH  67  92
ENDBRANCH  41  42
ENDBRANCH  34  36
ENDBRANCH  33  34
ENDBRANCH  32  33
ENDBRANCH  31  32
ENDBRANCH  30  31
ENDBRANCH  29  30
ENDBRANCH   1  29
TORSDOF 24
ENDMDL
MODEL 2
REMARK VINA RESULT:     -10.1      1.540      8.012
REMARK SMILES CC(C)CN(C)c1cc2c(cc1Cl)C=C(C(=O)OCCOCCOCCOC(=O)c1ccc(-c3c4nc(c(-c5c(F)cc(S(=O)(=O)[O-])cc5F)c5ccc([nH]5)c(-c5c(F)cc(S(=O)(=O)[O-])cc5F)c5nc(c(-c6c(F)cc(S(=O)(=O)[O-])cc6F)c6ccc3[nH]6)C=C5)C=C4)cc1)[C@H](C(F)(F)F)O2
REMARK SMILES IDX 22 1 21 2 20 3 19 4 18 5 16 6 17 7 15 8 7 9 8 10 12 11 9 12
REMARK SMILES IDX 11 13 13 14 10 15 101 16 14 17 96 18 5 19 6 20 4 21 2 22
REMARK SMILES IDX 1 23 3 24 97 25 98 26 99 27 100 28 23 29 24 30 25 31 26 32
REMARK SMILES IDX 27 33 28 34 29 35 30 36 31 37 95 38 32 39 94 40 33 41 34 42
REMARK SMILES IDX 35 43 88 44 36 45 93 46 87 47 89 48 37 49 92 50 86 51 85 52
REMARK SMILES IDX 38 54 72 55 51 56 71 57 52 58 55 59 70 60 90 61 53 62 54 63
REMARK SMILES IDX 69 65 91 66 56 67 39 68 40 69 49 70 41 71 42 72 48 73 50 74
REMARK SMILES IDX 43 75 44 76 45 77 46 78 47 79 73 80 74 81 83 82 75 83 76 84
REMARK SMILES IDX 82 85 84 86 77 87 78 88 79 89 80 90 81 91 57 92 58 93 67 94
REMARK SMILES IDX 59 95 60 96 66 97 68 98 61 99 62 100 63 101 64 102 65 103
REMARK H PARENT 89 53 55 64
REMARK Flexibility Score: inf
ROOT
ATOM      1  C   UNL A   1      40.020  20.699  26.358  1.00  0.00     0.188 C 
ENDROOT
BRANCH   1   2
ATOM      2  O   UNL A   1      39.079  20.552  25.319  1.00  0.00    -0.376 OA
BRANCH   2   3
ATOM      3  C   UNL A   1      38.181  19.453  25.314  1.00  0.00     0.202 C 
BRANCH   3   4
ATOM      4  C   UNL A   1      36.709  19.521  24.866  1.00  0.00     0.261 C 
BRANCH   4   5
ATOM      5  O   UNL A   1      35.916  20.566  25.442  1.00  0.00    -0.460 OA
BRANCH   5   6
ATOM      6  C   UNL A   1      34.720  20.772  24.852  1.00  0.00     0.338 C 
ATOM      7  O   UNL A   1      33.846  19.933  24.690  1.00  0.00    -0.246 OA
BRANCH   6   8
ATOM      8  C   UNL A   1      34.501  22.198  24.544  1.00  0.00     0.087 C 
ATOM      9  C   UNL A   1      31.923  26.491  23.868  1.00  0.00     0.059 A 
ATOM     10  C   UNL A   1      33.126  25.966  23.360  1.00  0.00     0.074 A 
ATOM     11  C   UNL A   1      31.201  25.678  24.768  1.00  0.00     0.065 A 
ATOM     12  C   UNL A   1      33.605  24.712  23.762  1.00  0.00     0.130 A 
ATOM     13  C   UNL A   1      31.739  24.485  25.258  1.00  0.00     0.034 A 
ATOM     14  Cl  UNL A   1      29.579  26.044  25.249  1.00  0.00    -0.082 Cl
ATOM     15  C   UNL A   1      32.947  24.005  24.760  1.00  0.00     0.019 A 
ATOM     16  O   UNL A   1      34.709  24.241  23.111  1.00  0.00    -0.475 OA
ATOM     17  C   UNL A   1      33.463  22.727  25.209  1.00  0.00     0.027 C 
ATOM     18  C   UNL A   1      35.192  22.886  23.393  1.00  0.00     0.316 C 
BRANCH   9  19
ATOM     19  N   UNL A   1      31.472  27.759  23.479  1.00  0.00    -0.373 N 
ATOM     20  C   UNL A   1      31.628  28.824  24.463  1.00  0.00     0.143 C 
BRANCH  19  21
ATOM     21  C   UNL A   1      30.301  27.832  22.576  1.00  0.00     0.119 C 
BRANCH  21  22
ATOM     22  C   UNL A   1      29.398  29.054  22.847  1.00  0.00     0.002 C 
ATOM     23  C   UNL A   1      29.524  30.122  21.754  1.00  0.00     0.009 C 
ATOM     24  C   UNL A   1      27.923  28.656  22.962  1.00  0.00     0.009 C 
ENDBRANCH  21  22
ENDBRANCH  19  21
ENDBRANCH   9  19
BRANCH  18  25
ATOM     25  C   UNL A   1      36.726  23.002  23.453  1.00  0.00     0.430 C 
ATOM     26  F   UNL A   1      37.356  21.906  22.984  1.00  0.00    -0.167 F 
ATOM     27  F   UNL A   1      37.142  24.033  22.666  1.00  0.00    -0.167 F 
ATOM     28  F   UNL A   1      37.172  23.266  24.699  1.00  0.00    -0.167 F 
ENDBRANCH  18  25
ENDBRANCH   6   8
ENDBRANCH   5   6
ENDBRANCH   4   5
ENDBRANCH   3   4
ENDBRANCH   2   3
ENDBRANCH   1   2
BRANCH   1  29
ATOM     29  C   UNL A   1      40.892  21.969  26.342  1.00  0.00     0.188 C 
BRANCH  29  30
ATOM     30  O   UNL A   1      42.303  21.879  26.367  1.00  0.00    -0.376 OA
BRANCH  30  31
ATOM     31  C   UNL A   1      43.060  22.412  25.292  1.00  0.00     0.202 C 
BRANCH  31  32
ATOM     32  C   UNL A   1      43.322  23.918  25.123  1.00  0.00     0.261 C 
BRANCH  32  33
ATOM     33  O   UNL A   1      43.035  24.742  26.257  1.00  0.00    -0.460 OA
BRANCH  33  34
ATOM     34  C   UNL A   1      42.181  25.777  26.025  1.00  0.00     0.338 C 
ATOM     35  O   UNL A   1      41.539  25.994  25.021  1.00  0.00    -0.246 OA
BRANCH  34  36
ATOM     36  C   UNL A   1      41.997  26.503  27.299  1.00  0.00     0.060 A 
ATOM     37  C   UNL A   1      42.861  27.540  27.645  1.00  0.00     0.016 A 
ATOM     38  C   UNL A   1      40.956  26.123  28.159  1.00  0.00     0.016 A 
ATOM     39  C   UNL A   1      42.674  28.207  28.857  1.00  0.00     0.010 A 
ATOM     40  C   UNL A   1      40.784  26.777  29.380  1.00  0.00     0.010 A 
ATOM     41  C   UNL A   1      41.631  27.838  29.727  1.00  0.00    -0.014 A 
BRANCH  41  42
ATOM     42  C   UNL A   1      41.337  28.682  30.910  1.00  0.00     0.031 A 
ATOM     43  C   UNL A   1      42.163  28.615  32.159  1.00  0.00     0.074 A 
ATOM     44  C   UNL A   1      40.304  29.543  30.820  1.00  0.00     0.049 A 
ATOM     45  N   UNL A   1      42.091  29.368  33.226  1.00  0.00    -0.248 NA
ATOM     46  C   UNL A   1      43.199  27.574  32.225  1.00  0.00     0.031 C 
ATOM     47  C   UNL A   1      39.417  29.666  29.659  1.00  0.00     0.029 A 
ATOM     48  N   UNL A   1      39.838  30.484  31.698  1.00  0.00    -0.354 N 
ATOM     49  C   UNL A   1      43.089  28.920  34.081  1.00  0.00     0.074 A 
ATOM     50  C   UNL A   1      43.721  27.789  33.429  1.00  0.00     0.031 C 
ATOM     51  C   UNL A   1      38.539  30.653  29.883  1.00  0.00     0.029 A 
ATOM     52  C   UNL A   1      38.779  31.215  31.209  1.00  0.00     0.049 A 
ATOM     53  H   UNL A   1      40.223  30.626  32.593  1.00  0.00     0.167 HD
ATOM     54  C   UNL A   1      43.455  29.424  35.285  1.00  0.00     0.037 A 
ATOM     55  C   UNL A   1      38.086  32.228  31.762  1.00  0.00     0.037 A 
ATOM     56  C   UNL A   1      42.807  30.543  35.927  1.00  0.00     0.049 A 
ATOM     57  C   UNL A   1      38.484  32.728  33.124  1.00  0.00     0.074 A 
ATOM     58  C   UNL A   1      43.128  31.142  37.135  1.00  0.00     0.029 A 
ATOM     59  N   UNL A   1      41.709  31.227  35.426  1.00  0.00    -0.354 N 
ATOM     60  N   UNL A   1      39.478  32.340  33.886  1.00  0.00    -0.248 NA
ATOM     61  C   UNL A   1      37.670  33.808  33.698  1.00  0.00     0.031 C 
ATOM     62  C   UNL A   1      42.194  32.151  37.388  1.00  0.00     0.029 A 
ATOM     63  C   UNL A   1      41.324  32.221  36.313  1.00  0.00     0.049 A 
ATOM     64  H   UNL A   1      41.267  31.035  34.567  1.00  0.00     0.167 HD
ATOM     65  C   UNL A   1      39.423  33.145  35.019  1.00  0.00     0.074 A 
ATOM     66  C   UNL A   1      38.313  34.054  34.831  1.00  0.00     0.031 C 
ATOM     67  C   UNL A   1      40.218  33.127  36.116  1.00  0.00     0.037 A 
BRANCH  54  68
ATOM     68  C   UNL A   1      44.628  28.804  35.994  1.00  0.00     0.058 A 
ATOM     69  C   UNL A   1      44.460  27.703  36.848  1.00  0.00     0.135 A 
ATOM     70  C   UNL A   1      45.941  29.222  35.718  1.00  0.00     0.135 A 
ATOM     71  F   UNL A   1      43.229  27.267  37.154  1.00  0.00    -0.206 F 
ATOM     72  C   UNL A   1      45.550  27.038  37.401  1.00  0.00     0.059 A 
ATOM     73  C   UNL A   1      47.047  28.558  36.242  1.00  0.00     0.059 A 
ATOM     74  F   UNL A   1      46.159  30.269  34.905  1.00  0.00    -0.206 F 
ATOM     75  C   UNL A   1      46.840  27.465  37.083  1.00  0.00     0.060 A 
BRANCH  75  76
ATOM     76  S   UNL A   1      48.238  26.552  37.770  1.00  0.00     0.124 S 
ATOM     77  O   UNL A   1      48.431  25.511  36.766  1.00  0.00    -0.237 OA
ATOM     78  O   UNL A   1      49.277  27.575  37.828  1.00  0.00    -0.237 OA
ATOM     79  O   UNL A   1      47.743  26.089  39.063  1.00  0.00    -0.744 OA
ENDBRANCH  75  76
ENDBRANCH  54  68
BRANCH  55  80
ATOM     80  C   UNL A   1      36.960  32.851  31.019  1.00  0.00     0.058 A 
ATOM     81  C   UNL A   1      37.187  33.869  30.082  1.00  0.00     0.135 A 
ATOM     82  C   UNL A   1      35.633  32.448  31.237  1.00  0.00     0.135 A 
ATOM     83  F   UNL A   1      38.438  34.290  29.840  1.00  0.00    -0.206 F 
ATOM     84  C   UNL A   1      36.139  34.486  29.408  1.00  0.00     0.059 A 
ATOM     85  C   UNL A   1      34.570  33.028  30.552  1.00  0.00     0.059 A 
ATOM     86  F   UNL A   1      35.361  31.465  32.109  1.00  0.00    -0.206 F 
ATOM     87  C   UNL A   1      34.833  34.058  29.652  1.00  0.00     0.060 A 
BRANCH  87  88
ATOM     88  S   UNL A   1      33.483  34.861  28.763  1.00  0.00     0.124 S 
ATOM     89  O   UNL A   1      33.069  33.805  27.845  1.00  0.00    -0.237 OA
ATOM     90  O   UNL A   1      32.550  35.172  29.841  1.00  0.00    -0.237 OA
ATOM     91  O   UNL A   1      34.126  36.016  28.146  1.00  0.00    -0.744 OA
ENDBRANCH  87  88
ENDBRANCH  55  80
BRANCH  67  92
ATOM     92  C   UNL A   1      39.932  34.131  37.200  1.00  0.00     0.058 A 
ATOM     93  C   UNL A   1      39.056  33.842  38.259  1.00  0.00     0.135 A 
ATOM     94  C   UNL A   1      40.588  35.374  37.217  1.00  0.00     0.135 A 
ATOM     95  F   UNL A   1      38.396  32.674  38.289  1.00  0.00    -0.206 F 
ATOM     96  C   UNL A   1      38.824  34.756  39.282  1.00  0.00     0.059 A 
ATOM     97  C   UNL A   1      40.396  36.290  38.246  1.00  0.00     0.059 A 
ATOM     98  F   UNL A   1      41.444  35.699  36.234  1.00  0.00    -0.206 F 
ATOM     99  C   UNL A   1      39.504  35.975  39.271  1.00  0.00     0.060 A 
BRANCH  99 100
ATOM    100  S   UNL A   1      39.222  37.130  40.629  1.00  0.00     0.124 S 
ATOM    101  O   UNL A   1      38.693  36.246  41.663  1.00  0.00    -0.237 OA
ATOM    102  O   UNL A   1      40.562  37.656  40.871  1.00  0.00    -0.237 OA
ATOM    103  O   UNL A   1      38.269  38.086  40.074  1.00  0.00    -0.744 OA
ENDBRANCH  99 100
ENDBRANCH  67  92
ENDBRANCH  41  42
ENDBRANCH  34  36
ENDBRANCH  33  34
ENDBRANCH  32  33
ENDBRANCH  31  32
ENDBRANCH  30  31
ENDBRANCH  29  30
ENDBRANCH   1  29
TORSDOF 24
ENDMDL
MODEL 3
REMARK VINA RESULT:      -9.3      1.722      2.625
REMARK SMILES CC(C)CN(C)c1cc2c(cc1Cl)C=C(C(=O)OCCOCCOCCOC(=O)c1ccc(-c3c4nc(c(-c5c(F)cc(S(=O)(=O)[O-])cc5F)c5ccc([nH]5)c(-c5c(F)cc(S(=O)(=O)[O-])cc5F)c5nc(c(-c6c(F)cc(S(=O)(=O)[O-])cc6F)c6ccc3[nH]6)C=C5)C=C4)cc1)[C@H](C(F)(F)F)O2
REMARK SMILES IDX 22 1 21 2 20 3 19 4 18 5 16 6 17 7 15 8 7 9 8 10 12 11 9 12
REMARK SMILES IDX 11 13 13 14 10 15 101 16 14 17 96 18 5 19 6 20 4 21 2 22
REMARK SMILES IDX 1 23 3 24 97 25 98 26 99 27 100 28 23 29 24 30 25 31 26 32
REMARK SMILES IDX 27 33 28 34 29 35 30 36 31 37 95 38 32 39 94 40 33 41 34 42
REMARK SMILES IDX 35 43 88 44 36 45 93 46 87 47 89 48 37 49 92 50 86 51 85 52
REMARK SMILES IDX 38 54 72 55 51 56 71 57 52 58 55 59 70 60 90 61 53 62 54 63
REMARK SMILES IDX 69 65 91 66 56 67 39 68 40 69 49 70 41 71 42 72 48 73 50 74
REMARK SMILES IDX 43 75 44 76 45 77 46 78 47 79 73 80 74 81 83 82 75 83 76 84
REMARK SMILES IDX 82 85 84 86 77 87 78 88 79 89 80 90 81 91 57 92 58 93 67 94
REMARK SMILES IDX 59 95 60 96 66 97 68 98 61 99 62 100 63 101 64 102 65 103
REMARK H PARENT 89 53 55 64
REMARK Flexibility Score: inf
ROOT
ATOM      1  C   UNL A   1      39.552  22.184  26.763  1.00  0.00     0.188 C 
ENDROOT
BRANCH   1   2
ATOM      2  O   UNL A   1      39.068  21.642  25.555  1.00  0.00    -0.376 OA
BRANCH   2   3
ATOM      3  C   UNL A   1      38.563  20.315  25.515  1.00  0.00     0.202 C 
BRANCH   3   4
ATOM      4  C   UNL A   1      37.155  19.924  25.031  1.00  0.00     0.261 C 
BRANCH   4   5
ATOM      5  O   UNL A   1      36.058  20.627  25.628  1.00  0.00    -0.460 OA
BRANCH   5   6
ATOM      6  C   UNL A   1      34.959  20.744  24.853  1.00  0.00     0.338 C 
ATOM      7  O   UNL A   1      34.235  19.828  24.492  1.00  0.00    -0.246 OA
BRANCH   6   8
ATOM      8  C   UNL A   1      34.620  22.157  24.596  1.00  0.00     0.087 C 
ATOM      9  C   UNL A   1      31.713  26.274  24.240  1.00  0.00     0.059 A 
ATOM     10  C   UNL A   1      32.900  25.841  23.618  1.00  0.00     0.074 A 
ATOM     11  C   UNL A   1      31.129  25.400  25.180  1.00  0.00     0.065 A 
ATOM     12  C   UNL A   1      33.495  24.616  23.950  1.00  0.00     0.130 A 
ATOM     13  C   UNL A   1      31.785  24.238  25.595  1.00  0.00     0.034 A 
ATOM     14  Cl  UNL A   1      29.534  25.646  25.806  1.00  0.00    -0.082 Cl
ATOM     15  C   UNL A   1      32.974  23.849  24.985  1.00  0.00     0.019 A 
ATOM     16  O   UNL A   1      34.567  24.232  23.196  1.00  0.00    -0.475 OA
ATOM     17  C   UNL A   1      33.612  22.602  25.360  1.00  0.00     0.027 C 
ATOM     18  C   UNL A   1      35.161  22.908  23.406  1.00  0.00     0.316 C 
BRANCH   9  19
ATOM     19  N   UNL A   1      31.147  27.515  23.919  1.00  0.00    -0.373 N 
ATOM     20  C   UNL A   1      31.310  27.955  22.538  1.00  0.00     0.143 C 
BRANCH  19  21
ATOM     21  C   UNL A   1      31.123  28.558  24.968  1.00  0.00     0.119 C 
BRANCH  21  22
ATOM     22  C   UNL A   1      32.288  28.438  25.975  1.00  0.00     0.002 C 
ATOM     23  C   UNL A   1      33.508  29.264  25.551  1.00  0.00     0.009 C 
ATOM     24  C   UNL A   1      31.872  28.882  27.381  1.00  0.00     0.009 C 
ENDBRANCH  21  22
ENDBRANCH  19  21
ENDBRANCH   9  19
BRANCH  18  25
ATOM     25  C   UNL A   1      36.683  23.128  23.336  1.00  0.00     0.430 C 
ATOM     26  F   UNL A   1      37.224  23.445  24.530  1.00  0.00    -0.167 F 
ATOM     27  F   UNL A   1      37.299  21.978  22.946  1.00  0.00    -0.167 F 
ATOM     28  F   UNL A   1      37.025  24.072  22.434  1.00  0.00    -0.167 F 
ENDBRANCH  18  25
ENDBRANCH   6   8
ENDBRANCH   5   6
ENDBRANCH   4   5
ENDBRANCH   3   4
ENDBRANCH   2   3
ENDBRANCH   1   2
BRANCH   1  29
ATOM     29  C   UNL A   1      40.856  23.002  26.693  1.00  0.00     0.188 C 
BRANCH  29  30
ATOM     30  O   UNL A   1      41.970  22.659  27.494  1.00  0.00    -0.376 OA
BRANCH  30  31
ATOM     31  C   UNL A   1      43.167  22.212  26.877  1.00  0.00     0.202 C 
BRANCH  31  32
ATOM     32  C   UNL A   1      44.350  23.147  26.577  1.00  0.00     0.261 C 
BRANCH  32  33
ATOM     33  O   UNL A   1      44.341  24.413  27.245  1.00  0.00    -0.460 OA
BRANCH  33  34
ATOM     34  C   UNL A   1      43.666  25.406  26.603  1.00  0.00     0.338 C 
ATOM     35  O   UNL A   1      43.336  25.442  25.438  1.00  0.00    -0.246 OA
BRANCH  34  36
ATOM     36  C   UNL A   1      43.205  26.370  27.625  1.00  0.00     0.060 A 
ATOM     37  C   UNL A   1      42.161  26.034  28.483  1.00  0.00     0.016 A 
ATOM     38  C   UNL A   1      43.821  27.628  27.706  1.00  0.00     0.016 A 
ATOM     39  C   UNL A   1      41.736  26.961  29.436  1.00  0.00     0.010 A 
ATOM     40  C   UNL A   1      43.381  28.562  28.646  1.00  0.00     0.010 A 
ATOM     41  C   UNL A   1      42.347  28.225  29.530  1.00  0.00    -0.014 A 
BRANCH  41  42
ATOM     42  C   UNL A   1      42.010  29.114  30.668  1.00  0.00     0.031 A 
ATOM     43  C   UNL A   1      40.817  30.021  30.642  1.00  0.00     0.074 A 
ATOM     44  C   UNL A   1      42.805  29.063  31.755  1.00  0.00     0.049 A 
ATOM     45  N   UNL A   1      40.339  30.768  31.604  1.00  0.00    -0.248 NA
ATOM     46  C   UNL A   1      40.065  30.106  29.382  1.00  0.00     0.031 C 
ATOM     47  C   UNL A   1      44.010  28.236  31.872  1.00  0.00     0.029 A 
ATOM     48  N   UNL A   1      42.716  29.695  32.966  1.00  0.00    -0.354 N 
ATOM     49  C   UNL A   1      39.212  31.390  31.083  1.00  0.00     0.074 A 
ATOM     50  C   UNL A   1      39.107  30.972  29.698  1.00  0.00     0.031 C 
ATOM     51  C   UNL A   1      44.525  28.383  33.101  1.00  0.00     0.029 A 
ATOM     52  C   UNL A   1      43.707  29.334  33.850  1.00  0.00     0.049 A 
ATOM     53  H   UNL A   1      42.011  30.347  33.185  1.00  0.00     0.167 HD
ATOM     54  C   UNL A   1      38.337  32.210  31.714  1.00  0.00     0.037 A 
ATOM     55  C   UNL A   1      43.928  29.716  35.121  1.00  0.00     0.037 A 
ATOM     56  C   UNL A   1      38.462  32.628  33.090  1.00  0.00     0.049 A 
ATOM     57  C   UNL A   1      42.968  30.672  35.774  1.00  0.00     0.074 A 
ATOM     58  C   UNL A   1      37.608  33.435  33.822  1.00  0.00     0.029 A 
ATOM     59  N   UNL A   1      39.503  32.281  33.939  1.00  0.00    -0.354 N 
ATOM     60  N   UNL A   1      41.865  31.192  35.289  1.00  0.00    -0.248 NA
ATOM     61  C   UNL A   1      43.276  31.089  37.149  1.00  0.00     0.031 C 
ATOM     62  C   UNL A   1      38.158  33.619  35.094  1.00  0.00     0.029 A 
ATOM     63  C   UNL A   1      39.326  32.881  35.176  1.00  0.00     0.049 A 
ATOM     64  H   UNL A   1      40.258  31.695  33.698  1.00  0.00     0.167 HD
ATOM     65  C   UNL A   1      41.337  31.978  36.308  1.00  0.00     0.074 A 
ATOM     66  C   UNL A   1      42.228  31.846  37.441  1.00  0.00     0.031 C 
ATOM     67  C   UNL A   1      40.218  32.741  36.302  1.00  0.00     0.037 A 
BRANCH  54  68
ATOM     68  C   UNL A   1      37.139  32.703  30.948  1.00  0.00     0.058 A 
ATOM     69  C   UNL A   1      37.237  33.796  30.072  1.00  0.00     0.135 A 
ATOM     70  C   UNL A   1      35.922  32.002  30.984  1.00  0.00     0.135 A 
ATOM     71  F   UNL A   1      38.372  34.508  30.004  1.00  0.00    -0.206 F 
ATOM     72  C   UNL A   1      36.173  34.174  29.260  1.00  0.00     0.059 A 
ATOM     73  C   UNL A   1      34.851  32.349  30.164  1.00  0.00     0.059 A 
ATOM     74  F   UNL A   1      35.775  30.947  31.802  1.00  0.00    -0.206 F 
ATOM     75  C   UNL A   1      34.988  33.437  29.303  1.00  0.00     0.060 A 
BRANCH  75  76
ATOM     76  S   UNL A   1      33.642  33.915  28.199  1.00  0.00     0.124 S 
ATOM     77  O   UNL A   1      34.326  34.813  27.273  1.00  0.00    -0.237 OA
ATOM     78  O   UNL A   1      33.226  32.631  27.644  1.00  0.00    -0.237 OA
ATOM     79  O   UNL A   1      32.677  34.553  29.090  1.00  0.00    -0.744 OA
ENDBRANCH  75  76
ENDBRANCH  54  68
BRANCH  55  80
ATOM     80  C   UNL A   1      45.095  29.179  35.868  1.00  0.00     0.058 A 
ATOM     81  C   UNL A   1      44.979  28.028  36.660  1.00  0.00     0.135 A 
ATOM     82  C   UNL A   1      46.349  29.809  35.811  1.00  0.00     0.135 A 
ATOM     83  F   UNL A   1      43.801  27.391  36.749  1.00  0.00    -0.206 F 
ATOM     84  C   UNL A   1      46.053  27.536  37.393  1.00  0.00     0.059 A 
ATOM     85  C   UNL A   1      47.447  29.318  36.510  1.00  0.00     0.059 A 
ATOM     86  F   UNL A   1      46.520  30.902  35.052  1.00  0.00    -0.206 F 
ATOM     87  C   UNL A   1      47.283  28.191  37.312  1.00  0.00     0.060 A 
BRANCH  87  88
ATOM     88  S   UNL A   1      48.672  27.536  38.260  1.00  0.00     0.124 S 
ATOM     89  O   UNL A   1      48.123  26.280  38.756  1.00  0.00    -0.237 OA
ATOM     90  O   UNL A   1      49.711  27.422  37.241  1.00  0.00    -0.237 OA
ATOM     91  O   UNL A   1      48.905  28.564  39.270  1.00  0.00    -0.744 OA
ENDBRANCH  87  88
ENDBRANCH  55  80
BRANCH  67  92
ATOM     92  C   UNL A   1      39.876  33.487  37.565  1.00  0.00     0.058 A 
ATOM     93  C   UNL A   1      40.482  34.714  37.881  1.00  0.00     0.135 A 
ATOM     94  C   UNL A   1      38.888  33.003  38.438  1.00  0.00     0.135 A 
ATOM     95  F   UNL A   1      41.439  35.219  37.087  1.00  0.00    -0.206 F 
ATOM     96  C   UNL A   1      40.136  35.423  39.027  1.00  0.00     0.059 A 
ATOM     97  C   UNL A   1      38.503  33.710  39.573  1.00  0.00     0.059 A 
ATOM     98  F   UNL A   1      38.270  31.839  38.180  1.00  0.00    -0.206 F 
ATOM     99  C   UNL A   1      39.140  34.916  39.864  1.00  0.00     0.060 A 
BRANCH  99 100
ATOM    100  S   UNL A   1      38.675  35.870  41.324  1.00  0.00     0.124 S 
ATOM    101  O   UNL A   1      38.459  37.196  40.753  1.00  0.00    -0.237 OA
ATOM    102  O   UNL A   1      37.476  35.174  41.780  1.00  0.00    -0.237 OA
ATOM    103  O   UNL A   1      39.837  35.747  42.198  1.00  0.00    -0.744 OA
ENDBRANCH  99 100
ENDBRANCH  67  92
ENDBRANCH  41  42
ENDBRANCH  34  36
ENDBRANCH  33  34
ENDBRANCH  32  33
ENDBRANCH  31  32
ENDBRANCH  30  31
ENDBRANCH  29  30
ENDBRANCH   1  29
TORSDOF 24
ENDMDL
