MODEL 1
REMARK VINA RESULT:      -9.8      0.000      0.000
REMARK SMILES Cc1ccc(S(=O)(=O)n2cc(C(=O)C(=O)N[C@@H](Cc3cnc[nH]3)C(=O)OCCOCCOCCOC(=O)c3ccc(-c4c5nc(c(-c6c(F)cc(S(=O)(=O)[O-])cc6F)c6ccc([nH]6)c(-c6c(F)cc(S(=O)(=O)[O-])cc6F)c6nc(c(-c7c(F)cc(S(=O)(=O)[O-])cc7F)c7ccc4[nH]7)C=C6)C=C5)cc3)c3ccccc32)cc1
REMARK SMILES IDX 30 1 29 2 28 3 27 4 26 5 24 6 25 7 17 8 16 9 14 10 15 11
REMARK SMILES IDX 12 13 13 14 11 15 9 16 10 17 109 18 104 19 108 20 105 21
REMARK SMILES IDX 107 22 106 23 6 24 7 25 8 26 5 27 1 28 2 29 3 30 111 31 4 32
REMARK SMILES IDX 110 33 18 34 19 35 20 36 23 37 21 38 22 39 31 41 32 42 33 43
REMARK SMILES IDX 34 44 35 45 36 46 37 47 38 48 39 49 103 50 40 51 102 52
REMARK SMILES IDX 41 53 42 54 43 55 96 56 44 57 101 58 95 59 97 60 45 61
REMARK SMILES IDX 100 62 94 63 93 64 46 66 80 67 59 68 79 69 60 70 63 71 78 72
REMARK SMILES IDX 98 73 61 74 62 75 77 77 99 78 64 79 47 80 48 81 57 82 49 83
REMARK SMILES IDX 50 84 56 85 58 86 51 87 52 88 53 89 54 90 55 91 81 92 82 93
REMARK SMILES IDX 91 94 83 95 84 96 90 97 92 98 85 99 86 100 87 101 88 102
REMARK SMILES IDX 89 103 65 104 66 105 75 106 67 107 68 108 74 109 76 110
REMARK SMILES IDX 69 111 70 112 71 113 72 114 73 115
REMARK H PARENT 16 12 23 40 97 65 63 76
REMARK Flexibility Score: inf
ROOT
ATOM      1  C   UNL A   1      38.975  28.877  28.714  1.00  0.00     0.188 C 
ENDROOT
BRANCH   1   2
ATOM      2  O   UNL A   1      38.151  29.837  28.064  1.00  0.00    -0.376 OA
BRANCH   2   3
ATOM      3  C   UNL A   1      36.824  29.761  28.556  1.00  0.00     0.202 C 
BRANCH   3   4
ATOM      4  C   UNL A   1      35.769  29.295  27.532  1.00  0.00     0.261 C 
BRANCH   4   5
ATOM      5  O   UNL A   1      34.431  30.220  27.276  1.00  0.00    -0.462 OA
BRANCH   5   6
ATOM      6  C   UNL A   1      33.035  30.360  26.983  1.00  0.00     0.329 C 
ATOM      7  O   UNL A   1      32.640  31.525  27.075  1.00  0.00    -0.250 OA
BRANCH   6   8
ATOM      8  C   UNL A   1      31.768  29.117  26.518  1.00  0.00     0.198 C 
BRANCH   8   9
ATOM      9  N   UNL A   1      31.616  29.324  24.972  1.00  0.00    -0.335 N 
ATOM     10  C   UNL A   1      32.232  28.790  23.795  1.00  0.00     0.293 C 
ATOM     11  O   UNL A   1      31.659  29.001  22.720  1.00  0.00    -0.265 OA
ATOM     12  H   UNL A   1      30.922  29.988  24.755  1.00  0.00     0.164 HD
BRANCH  10  13
ATOM     13  C   UNL A   1      33.590  28.027  23.710  1.00  0.00     0.252 C 
ATOM     14  O   UNL A   1      34.428  28.630  23.027  1.00  0.00    -0.283 OA
BRANCH  13  15
ATOM     15  C   UNL A   1      33.857  26.566  24.130  1.00  0.00     0.054 A 
ATOM     16  N   UNL A   1      34.372  24.565  25.125  1.00  0.00    -0.240 N 
ATOM     17  C   UNL A   1      34.293  25.954  25.320  1.00  0.00     0.117 A 
ATOM     18  C   UNL A   1      33.838  24.222  23.903  1.00  0.00     0.065 A 
ATOM     19  C   UNL A   1      33.633  25.434  23.228  1.00  0.00     0.012 A 
ATOM     20  C   UNL A   1      33.545  22.971  23.316  1.00  0.00     0.028 A 
ATOM     21  C   UNL A   1      33.215  25.356  21.880  1.00  0.00     0.011 A 
ATOM     22  C   UNL A   1      33.110  22.943  21.992  1.00  0.00     0.002 A 
ATOM     23  C   UNL A   1      32.968  24.121  21.275  1.00  0.00     0.001 A 
BRANCH  16  24
ATOM     24  S   UNL A   1      34.780  23.357  26.306  1.00  0.00     0.268 S 
ATOM     25  O   UNL A   1      33.838  23.543  27.382  1.00  0.00    -0.201 OA
ATOM     26  O   UNL A   1      36.221  23.490  26.536  1.00  0.00    -0.201 OA
BRANCH  24  27
ATOM     27  C   UNL A   1      34.503  21.689  25.676  1.00  0.00     0.088 A 
ATOM     28  C   UNL A   1      33.626  17.750  24.067  1.00  0.00     0.044 C 
ATOM     29  C   UNL A   1      33.922  19.119  24.618  1.00  0.00    -0.051 A 
ATOM     30  C   UNL A   1      32.907  19.893  25.191  1.00  0.00     0.005 A 
ATOM     31  C   UNL A   1      35.223  19.642  24.590  1.00  0.00     0.005 A 
ATOM     32  C   UNL A   1      33.191  21.171  25.708  1.00  0.00     0.022 A 
ATOM     33  C   UNL A   1      35.518  20.912  25.123  1.00  0.00     0.022 A 
ENDBRANCH  24  27
ENDBRANCH  16  24
ENDBRANCH  13  15
ENDBRANCH  10  13
ENDBRANCH   8   9
BRANCH   8  34
ATOM     34  C   UNL A   1      31.373  27.339  27.134  1.00  0.00     0.092 C 
BRANCH  34  35
ATOM     35  C   UNL A   1      30.854  25.734  26.246  1.00  0.00     0.037 A 
ATOM     36  C   UNL A   1      30.500  25.271  24.905  1.00  0.00     0.134 A 
ATOM     37  N   UNL A   1      30.940  24.458  26.822  1.00  0.00    -0.348 N 
ATOM     38  N   UNL A   1      30.433  23.926  24.719  1.00  0.00    -0.245 NA
ATOM     39  C   UNL A   1      30.668  23.460  25.906  1.00  0.00     0.196 A 
ATOM     40  H   UNL A   1      31.167  24.292  27.765  1.00  0.00     0.167 HD
ENDBRANCH  34  35
ENDBRANCH   8  34
ENDBRANCH   6   8
ENDBRANCH   5   6
ENDBRANCH   4   5
ENDBRANCH   3   4
ENDBRANCH   2   3
ENDBRANCH   1   2
BRANCH   1  41
ATOM     41  C   UNL A   1      39.321  29.261  30.154  1.00  0.00     0.188 C 
BRANCH  41  42
ATOM     42  O   UNL A   1      39.412  30.648  30.411  1.00  0.00    -0.376 OA
BRANCH  42  43
ATOM     43  C   UNL A   1      40.315  31.448  29.657  1.00  0.00     0.202 C 
BRANCH  43  44
ATOM     44  C   UNL A   1      41.650  31.292  30.346  1.00  0.00     0.261 C 
BRANCH  44  45
ATOM     45  O   UNL A   1      42.543  32.356  29.912  1.00  0.00    -0.460 OA
BRANCH  45  46
ATOM     46  C   UNL A   1      43.369  32.869  30.873  1.00  0.00     0.338 C 
ATOM     47  O   UNL A   1      44.589  32.854  30.813  1.00  0.00    -0.246 OA
BRANCH  46  48
ATOM     48  C   UNL A   1      42.562  33.331  32.057  1.00  0.00     0.060 A 
ATOM     49  C   UNL A   1      41.901  34.547  31.985  1.00  0.00     0.016 A 
ATOM     50  C   UNL A   1      42.648  32.705  33.312  1.00  0.00     0.016 A 
ATOM     51  C   UNL A   1      41.521  35.184  33.175  1.00  0.00     0.010 A 
ATOM     52  C   UNL A   1      42.381  33.420  34.498  1.00  0.00     0.010 A 
ATOM     53  C   UNL A   1      41.984  34.752  34.432  1.00  0.00    -0.014 A 
BRANCH  53  54
ATOM     54  C   UNL A   1      42.169  35.702  35.649  1.00  0.00     0.031 A 
ATOM     55  C   UNL A   1      40.525  35.732  36.458  1.00  0.00     0.074 A 
ATOM     56  C   UNL A   1      43.485  36.529  35.954  1.00  0.00     0.049 A 
ATOM     57  N   UNL A   1      40.044  36.568  37.382  1.00  0.00    -0.248 NA
ATOM     58  C   UNL A   1      39.556  34.617  36.373  1.00  0.00     0.031 C 
ATOM     59  C   UNL A   1      44.662  36.407  36.953  1.00  0.00     0.029 A 
ATOM     60  N   UNL A   1      43.983  37.870  35.481  1.00  0.00    -0.354 N 
ATOM     61  C   UNL A   1      39.437  35.802  38.373  1.00  0.00     0.074 A 
ATOM     62  C   UNL A   1      38.868  34.757  37.532  1.00  0.00     0.031 C 
ATOM     63  C   UNL A   1      45.259  37.608  37.234  1.00  0.00     0.029 A 
ATOM     64  C   UNL A   1      44.834  38.600  36.286  1.00  0.00     0.049 A 
ATOM     65  H   UNL A   1      43.703  38.222  34.606  1.00  0.00     0.167 HD
ATOM     66  C   UNL A   1      39.760  35.858  39.744  1.00  0.00     0.037 A 
ATOM     67  C   UNL A   1      45.029  39.947  36.202  1.00  0.00     0.037 A 
ATOM     68  C   UNL A   1      40.655  36.989  40.305  1.00  0.00     0.049 A 
ATOM     69  C   UNL A   1      44.336  40.617  37.382  1.00  0.00     0.074 A 
ATOM     70  C   UNL A   1      41.655  36.973  41.299  1.00  0.00     0.029 A 
ATOM     71  N   UNL A   1      40.738  38.306  39.820  1.00  0.00    -0.354 N 
ATOM     72  N   UNL A   1      43.781  39.954  38.372  1.00  0.00    -0.248 NA
ATOM     73  C   UNL A   1      44.136  42.064  37.498  1.00  0.00     0.031 C 
ATOM     74  C   UNL A   1      42.405  38.179  41.298  1.00  0.00     0.029 A 
ATOM     75  C   UNL A   1      41.866  38.999  40.331  1.00  0.00     0.049 A 
ATOM     76  H   UNL A   1      40.087  38.703  39.196  1.00  0.00     0.167 HD
ATOM     77  C   UNL A   1      43.005  40.818  39.115  1.00  0.00     0.074 A 
ATOM     78  C   UNL A   1      43.322  42.134  38.566  1.00  0.00     0.031 C 
ATOM     79  C   UNL A   1      42.131  40.420  40.096  1.00  0.00     0.037 A 
BRANCH  66  80
ATOM     80  C   UNL A   1      39.583  34.595  40.701  1.00  0.00     0.058 A 
ATOM     81  C   UNL A   1      40.548  33.548  40.719  1.00  0.00     0.135 A 
ATOM     82  C   UNL A   1      38.440  34.282  41.476  1.00  0.00     0.135 A 
ATOM     83  F   UNL A   1      41.749  33.694  40.140  1.00  0.00    -0.206 F 
ATOM     84  C   UNL A   1      40.358  32.297  41.335  1.00  0.00     0.059 A 
ATOM     85  C   UNL A   1      38.288  33.090  42.212  1.00  0.00     0.059 A 
ATOM     86  F   UNL A   1      37.379  35.089  41.558  1.00  0.00    -0.206 F 
ATOM     87  C   UNL A   1      39.233  32.085  42.110  1.00  0.00     0.060 A 
BRANCH  87  88
ATOM     88  S   UNL A   1      39.087  30.571  43.086  1.00  0.00     0.124 S 
ATOM     89  O   UNL A   1      38.294  31.010  44.229  1.00  0.00    -0.237 OA
ATOM     90  O   UNL A   1      38.415  29.660  42.164  1.00  0.00    -0.237 OA
ATOM     91  O   UNL A   1      40.477  30.230  43.380  1.00  0.00    -0.744 OA
ENDBRANCH  87  88
ENDBRANCH  66  80
BRANCH  67  92
ATOM     92  C   UNL A   1      45.113  40.478  34.777  1.00  0.00     0.058 A 
ATOM     93  C   UNL A   1      46.252  40.106  34.025  1.00  0.00     0.135 A 
ATOM     94  C   UNL A   1      44.034  40.977  34.031  1.00  0.00     0.135 A 
ATOM     95  F   UNL A   1      47.348  39.663  34.661  1.00  0.00    -0.206 F 
ATOM     96  C   UNL A   1      46.257  40.051  32.625  1.00  0.00     0.059 A 
ATOM     97  C   UNL A   1      43.997  40.888  32.622  1.00  0.00     0.059 A 
ATOM     98  F   UNL A   1      42.955  41.457  34.663  1.00  0.00    -0.206 F 
ATOM     99  C   UNL A   1      45.089  40.353  31.932  1.00  0.00     0.060 A 
BRANCH  99 100
ATOM    100  S   UNL A   1      44.909  39.807  30.192  1.00  0.00     0.124 S 
ATOM    101  O   UNL A   1      44.558  38.402  30.338  1.00  0.00    -0.237 OA
ATOM    102  O   UNL A   1      43.839  40.667  29.689  1.00  0.00    -0.237 OA
ATOM    103  O   UNL A   1      46.217  40.085  29.616  1.00  0.00    -0.744 OA
ENDBRANCH  99 100
ENDBRANCH  67  92
BRANCH  79 104
ATOM    104  C   UNL A   1      41.512  41.352  41.112  1.00  0.00     0.058 A 
ATOM    105  C   UNL A   1      42.159  41.815  42.267  1.00  0.00     0.135 A 
ATOM    106  C   UNL A   1      40.129  41.652  41.027  1.00  0.00     0.135 A 
ATOM    107  F   UNL A   1      43.403  41.419  42.580  1.00  0.00    -0.206 F 
ATOM    108  C   UNL A   1      41.530  42.671  43.169  1.00  0.00     0.059 A 
ATOM    109  C   UNL A   1      39.463  42.427  41.955  1.00  0.00     0.059 A 
ATOM    110  F   UNL A   1      39.355  41.203  40.031  1.00  0.00    -0.206 F 
ATOM    111  C   UNL A   1      40.189  42.995  42.981  1.00  0.00     0.060 A 
BRANCH 111 112
ATOM    112  S   UNL A   1      39.400  44.205  44.040  1.00  0.00     0.124 S 
ATOM    113  O   UNL A   1      39.526  45.433  43.262  1.00  0.00    -0.237 OA
ATOM    114  O   UNL A   1      38.054  43.650  44.143  1.00  0.00    -0.237 OA
ATOM    115  O   UNL A   1      40.195  44.159  45.264  1.00  0.00    -0.744 OA
ENDBRANCH 111 112
ENDBRANCH  79 104
ENDBRANCH  53  54
ENDBRANCH  46  48
ENDBRANCH  45  46
ENDBRANCH  44  45
ENDBRANCH  43  44
ENDBRANCH  42  43
ENDBRANCH  41  42
ENDBRANCH   1  41
TORSDOF 27
ENDMDL
MODEL 2
REMARK VINA RESULT:      -9.7      7.689     12.601
REMARK SMILES Cc1ccc(S(=O)(=O)n2cc(C(=O)C(=O)N[C@@H](Cc3cnc[nH]3)C(=O)OCCOCCOCCOC(=O)c3ccc(-c4c5nc(c(-c6c(F)cc(S(=O)(=O)[O-])cc6F)c6ccc([nH]6)c(-c6c(F)cc(S(=O)(=O)[O-])cc6F)c6nc(c(-c7c(F)cc(S(=O)(=O)[O-])cc7F)c7ccc4[nH]7)C=C6)C=C5)cc3)c3ccccc32)cc1
REMARK SMILES IDX 30 1 29 2 28 3 27 4 26 5 24 6 25 7 17 8 16 9 14 10 15 11
REMARK SMILES IDX 12 13 13 14 11 15 9 16 10 17 109 18 104 19 108 20 105 21
REMARK SMILES IDX 107 22 106 23 6 24 7 25 8 26 5 27 1 28 2 29 3 30 111 31 4 32
REMARK SMILES IDX 110 33 18 34 19 35 20 36 23 37 21 38 22 39 31 41 32 42 33 43
REMARK SMILES IDX 34 44 35 45 36 46 37 47 38 48 39 49 103 50 40 51 102 52
REMARK SMILES IDX 41 53 42 54 43 55 96 56 44 57 101 58 95 59 97 60 45 61
REMARK SMILES IDX 100 62 94 63 93 64 46 66 80 67 59 68 79 69 60 70 63 71 78 72
REMARK SMILES IDX 98 73 61 74 62 75 77 77 99 78 64 79 47 80 48 81 57 82 49 83
REMARK SMILES IDX 50 84 56 85 58 86 51 87 52 88 53 89 54 90 55 91 81 92 82 93
REMARK SMILES IDX 91 94 83 95 84 96 90 97 92 98 85 99 86 100 87 101 88 102
REMARK SMILES IDX 89 103 65 104 66 105 75 106 67 107 68 108 74 109 76 110
REMARK SMILES IDX 69 111 70 112 71 113 72 114 73 115
REMARK H PARENT 16 12 23 40 97 65 63 76
REMARK Flexibility Score: inf
ROOT
ATOM      1  C   UNL A   1      35.091  32.058  27.844  1.00  0.00     0.188 C 
ENDROOT
BRANCH   1   2
ATOM      2  O   UNL A   1      35.351  30.779  27.281  1.00  0.00    -0.376 OA
BRANCH   2   3
ATOM      3  C   UNL A   1      34.158  30.017  27.214  1.00  0.00     0.202 C 
BRANCH   3   4
ATOM      4  C   UNL A   1      34.300  28.631  26.552  1.00  0.00     0.261 C 
BRANCH   4   5
ATOM      5  O   UNL A   1      33.116  27.509  26.773  1.00  0.00    -0.462 OA
BRANCH   5   6
ATOM      6  C   UNL A   1      31.734  27.138  26.861  1.00  0.00     0.329 C 
ATOM      7  O   UNL A   1      31.181  27.586  27.869  1.00  0.00    -0.250 OA
BRANCH   6   8
ATOM      8  C   UNL A   1      30.682  26.121  25.754  1.00  0.00     0.198 C 
BRANCH   8   9
ATOM      9  N   UNL A   1      30.169  24.981  26.699  1.00  0.00    -0.335 N 
ATOM     10  C   UNL A   1      30.409  23.577  26.843  1.00  0.00     0.293 C 
ATOM     11  O   UNL A   1      30.016  23.048  27.889  1.00  0.00    -0.265 OA
ATOM     12  H   UNL A   1      29.518  25.313  27.358  1.00  0.00     0.164 HD
BRANCH  10  13
ATOM     13  C   UNL A   1      31.053  22.621  25.792  1.00  0.00     0.252 C 
ATOM     14  O   UNL A   1      30.370  21.608  25.594  1.00  0.00    -0.283 OA
BRANCH  13  15
ATOM     15  C   UNL A   1      32.494  22.689  25.242  1.00  0.00     0.054 A 
ATOM     16  N   UNL A   1      34.703  22.449  24.673  1.00  0.00    -0.240 N 
ATOM     17  C   UNL A   1      33.649  21.904  25.426  1.00  0.00     0.117 A 
ATOM     18  C   UNL A   1      34.240  23.463  23.864  1.00  0.00     0.065 A 
ATOM     19  C   UNL A   1      32.925  23.710  24.285  1.00  0.00     0.012 A 
ATOM     20  C   UNL A   1      34.855  24.203  22.830  1.00  0.00     0.028 A 
ATOM     21  C   UNL A   1      32.260  24.811  23.701  1.00  0.00     0.011 A 
ATOM     22  C   UNL A   1      34.152  25.266  22.265  1.00  0.00     0.002 A 
ATOM     23  C   UNL A   1      32.877  25.581  22.711  1.00  0.00     0.001 A 
BRANCH  16  24
ATOM     24  S   UNL A   1      36.309  21.810  24.495  1.00  0.00     0.268 S 
ATOM     25  O   UNL A   1      36.687  22.105  23.135  1.00  0.00    -0.201 OA
ATOM     26  O   UNL A   1      36.248  20.427  24.977  1.00  0.00    -0.201 OA
BRANCH  24  27
ATOM     27  C   UNL A   1      37.491  22.677  25.547  1.00  0.00     0.088 A 
ATOM     28  C   UNL A   1      40.150  24.852  28.208  1.00  0.00     0.044 C 
ATOM     29  C   UNL A   1      39.220  24.100  27.293  1.00  0.00    -0.051 A 
ATOM     30  C   UNL A   1      38.016  24.673  26.871  1.00  0.00     0.005 A 
ATOM     31  C   UNL A   1      39.548  22.819  26.825  1.00  0.00     0.005 A 
ATOM     32  C   UNL A   1      37.153  23.966  26.012  1.00  0.00     0.022 A 
ATOM     33  C   UNL A   1      38.699  22.114  25.951  1.00  0.00     0.022 A 
ENDBRANCH  24  27
ENDBRANCH  16  24
ENDBRANCH  13  15
ENDBRANCH  10  13
ENDBRANCH   8   9
BRANCH   8  34
ATOM     34  C   UNL A   1      29.508  26.544  24.291  1.00  0.00     0.092 C 
BRANCH  34  35
ATOM     35  C   UNL A   1      29.258  28.107  23.228  1.00  0.00     0.037 A 
ATOM     36  C   UNL A   1      30.025  28.984  22.344  1.00  0.00     0.134 A 
ATOM     37  N   UNL A   1      28.002  28.647  22.914  1.00  0.00    -0.348 N 
ATOM     38  N   UNL A   1      29.316  29.871  21.597  1.00  0.00    -0.245 NA
ATOM     39  C   UNL A   1      28.097  29.669  21.990  1.00  0.00     0.196 A 
ATOM     40  H   UNL A   1      27.154  28.335  23.305  1.00  0.00     0.167 HD
ENDBRANCH  34  35
ENDBRANCH   8  34
ENDBRANCH   6   8
ENDBRANCH   5   6
ENDBRANCH   4   5
ENDBRANCH   3   4
ENDBRANCH   2   3
ENDBRANCH   1   2
BRANCH   1  41
ATOM     41  C   UNL A   1      34.425  31.984  29.219  1.00  0.00     0.188 C 
BRANCH  41  42
ATOM     42  O   UNL A   1      35.297  31.763  30.309  1.00  0.00    -0.376 OA
BRANCH  42  43
ATOM     43  C   UNL A   1      35.965  30.513  30.435  1.00  0.00     0.202 C 
BRANCH  43  44
ATOM     44  C   UNL A   1      36.599  30.542  31.807  1.00  0.00     0.261 C 
BRANCH  44  45
ATOM     45  O   UNL A   1      37.293  29.285  32.043  1.00  0.00    -0.460 OA
BRANCH  45  46
ATOM     46  C   UNL A   1      38.584  29.390  32.480  1.00  0.00     0.338 C 
ATOM     47  O   UNL A   1      38.967  29.050  33.588  1.00  0.00    -0.246 OA
BRANCH  46  48
ATOM     48  C   UNL A   1      39.422  30.099  31.449  1.00  0.00     0.060 A 
ATOM     49  C   UNL A   1      39.483  29.586  30.163  1.00  0.00     0.016 A 
ATOM     50  C   UNL A   1      40.335  31.111  31.794  1.00  0.00     0.016 A 
ATOM     51  C   UNL A   1      40.554  29.950  29.336  1.00  0.00     0.010 A 
ATOM     52  C   UNL A   1      41.473  31.361  31.000  1.00  0.00     0.010 A 
ATOM     53  C   UNL A   1      41.682  30.631  29.834  1.00  0.00    -0.014 A 
BRANCH  53  54
ATOM     54  C   UNL A   1      43.103  30.495  29.219  1.00  0.00     0.031 A 
ATOM     55  C   UNL A   1      43.764  28.944  29.937  1.00  0.00     0.074 A 
ATOM     56  C   UNL A   1      43.793  31.584  28.300  1.00  0.00     0.049 A 
ATOM     57  N   UNL A   1      45.016  28.481  29.959  1.00  0.00    -0.248 NA
ATOM     58  C   UNL A   1      42.907  27.824  30.384  1.00  0.00     0.031 C 
ATOM     59  C   UNL A   1      44.079  31.733  26.785  1.00  0.00     0.029 A 
ATOM     60  N   UNL A   1      44.600  32.819  28.606  1.00  0.00    -0.354 N 
ATOM     61  C   UNL A   1      44.982  27.143  29.577  1.00  0.00     0.074 A 
ATOM     62  C   UNL A   1      43.730  26.761  30.215  1.00  0.00     0.031 C 
ATOM     63  C   UNL A   1      45.160  32.533  26.515  1.00  0.00     0.029 A 
ATOM     64  C   UNL A   1      45.534  33.264  27.693  1.00  0.00     0.049 A 
ATOM     65  H   UNL A   1      44.462  33.305  29.451  1.00  0.00     0.167 HD
ATOM     66  C   UNL A   1      45.721  26.591  28.511  1.00  0.00     0.037 A 
ATOM     67  C   UNL A   1      46.592  34.074  27.985  1.00  0.00     0.037 A 
ATOM     68  C   UNL A   1      46.855  27.394  27.830  1.00  0.00     0.049 A 
ATOM     69  C   UNL A   1      47.869  33.243  27.958  1.00  0.00     0.074 A 
ATOM     70  C   UNL A   1      47.249  27.478  26.479  1.00  0.00     0.029 A 
ATOM     71  N   UNL A   1      47.687  28.349  28.443  1.00  0.00    -0.354 N 
ATOM     72  N   UNL A   1      47.913  31.989  27.568  1.00  0.00    -0.248 NA
ATOM     73  C   UNL A   1      49.165  33.721  28.446  1.00  0.00     0.031 C 
ATOM     74  C   UNL A   1      48.163  28.545  26.271  1.00  0.00     0.029 A 
ATOM     75  C   UNL A   1      48.399  29.130  27.496  1.00  0.00     0.049 A 
ATOM     76  H   UNL A   1      47.766  28.462  29.418  1.00  0.00     0.167 HD
ATOM     77  C   UNL A   1      49.128  31.447  27.926  1.00  0.00     0.074 A 
ATOM     78  C   UNL A   1      49.896  32.593  28.406  1.00  0.00     0.031 C 
ATOM     79  C   UNL A   1      49.429  30.109  27.851  1.00  0.00     0.037 A 
BRANCH  66  80
ATOM     80  C   UNL A   1      45.199  25.326  27.693  1.00  0.00     0.058 A 
ATOM     81  C   UNL A   1      46.052  24.213  27.443  1.00  0.00     0.135 A 
ATOM     82  C   UNL A   1      43.967  25.221  27.005  1.00  0.00     0.135 A 
ATOM     83  F   UNL A   1      47.219  24.067  28.089  1.00  0.00    -0.206 F 
ATOM     84  C   UNL A   1      45.767  23.177  26.535  1.00  0.00     0.059 A 
ATOM     85  C   UNL A   1      43.607  24.125  26.196  1.00  0.00     0.059 A 
ATOM     86  F   UNL A   1      43.035  26.176  27.041  1.00  0.00    -0.206 F 
ATOM     87  C   UNL A   1      44.523  23.122  25.934  1.00  0.00     0.060 A 
BRANCH  87  88
ATOM     88  S   UNL A   1      44.065  21.681  24.945  1.00  0.00     0.124 S 
ATOM     89  O   UNL A   1      45.129  20.734  25.259  1.00  0.00    -0.237 OA
ATOM     90  O   UNL A   1      42.744  21.343  25.466  1.00  0.00    -0.237 OA
ATOM     91  O   UNL A   1      44.071  22.201  23.579  1.00  0.00    -0.744 OA
ENDBRANCH  87  88
ENDBRANCH  66  80
BRANCH  67  92
ATOM     92  C   UNL A   1      46.264  35.204  28.952  1.00  0.00     0.058 A 
ATOM     93  C   UNL A   1      46.580  34.988  30.314  1.00  0.00     0.135 A 
ATOM     94  C   UNL A   1      46.029  36.540  28.592  1.00  0.00     0.135 A 
ATOM     95  F   UNL A   1      46.774  33.735  30.757  1.00  0.00    -0.206 F 
ATOM     96  C   UNL A   1      46.834  36.032  31.213  1.00  0.00     0.059 A 
ATOM     97  C   UNL A   1      46.322  37.611  29.465  1.00  0.00     0.059 A 
ATOM     98  F   UNL A   1      45.616  36.830  27.351  1.00  0.00    -0.206 F 
ATOM     99  C   UNL A   1      46.796  37.345  30.754  1.00  0.00     0.060 A 
BRANCH  99 100
ATOM    100  S   UNL A   1      47.604  38.664  31.735  1.00  0.00     0.124 S 
ATOM    101  O   UNL A   1      46.990  39.873  31.204  1.00  0.00    -0.237 OA
ATOM    102  O   UNL A   1      47.228  38.326  33.107  1.00  0.00    -0.237 OA
ATOM    103  O   UNL A   1      49.019  38.481  31.443  1.00  0.00    -0.744 OA
ENDBRANCH  99 100
ENDBRANCH  67  92
BRANCH  79 104
ATOM    104  C   UNL A   1      50.828  29.545  27.945  1.00  0.00     0.058 A 
ATOM    105  C   UNL A   1      51.365  28.935  29.088  1.00  0.00     0.135 A 
ATOM    106  C   UNL A   1      51.749  29.794  26.897  1.00  0.00     0.135 A 
ATOM    107  F   UNL A   1      50.663  28.840  30.228  1.00  0.00    -0.206 F 
ATOM    108  C   UNL A   1      52.666  28.437  29.113  1.00  0.00     0.059 A 
ATOM    109  C   UNL A   1      53.068  29.386  26.934  1.00  0.00     0.059 A 
ATOM    110  F   UNL A   1      51.409  30.448  25.780  1.00  0.00    -0.206 F 
ATOM    111  C   UNL A   1      53.497  28.642  28.014  1.00  0.00     0.060 A 
BRANCH 111 112
ATOM    112  S   UNL A   1      55.121  27.888  27.962  1.00  0.00     0.124 S 
ATOM    113  O   UNL A   1      54.856  26.618  27.295  1.00  0.00    -0.237 OA
ATOM    114  O   UNL A   1      55.861  28.876  27.183  1.00  0.00    -0.237 OA
ATOM    115  O   UNL A   1      55.497  27.787  29.369  1.00  0.00    -0.744 OA
ENDBRANCH 111 112
ENDBRANCH  79 104
ENDBRANCH  53  54
ENDBRANCH  46  48
ENDBRANCH  45  46
ENDBRANCH  44  45
ENDBRANCH  43  44
ENDBRANCH  42  43
ENDBRANCH  41  42
ENDBRANCH   1  41
TORSDOF 27
ENDMDL
MODEL 3
REMARK VINA RESULT:      -9.5      9.588     17.235
REMARK SMILES Cc1ccc(S(=O)(=O)n2cc(C(=O)C(=O)N[C@@H](Cc3cnc[nH]3)C(=O)OCCOCCOCCOC(=O)c3ccc(-c4c5nc(c(-c6c(F)cc(S(=O)(=O)[O-])cc6F)c6ccc([nH]6)c(-c6c(F)cc(S(=O)(=O)[O-])cc6F)c6nc(c(-c7c(F)cc(S(=O)(=O)[O-])cc7F)c7ccc4[nH]7)C=C6)C=C5)cc3)c3ccccc32)cc1
REMARK SMILES IDX 30 1 29 2 28 3 27 4 26 5 24 6 25 7 17 8 16 9 14 10 15 11
REMARK SMILES IDX 12 13 13 14 11 15 9 16 10 17 109 18 104 19 108 20 105 21
REMARK SMILES IDX 107 22 106 23 6 24 7 25 8 26 5 27 1 28 2 29 3 30 111 31 4 32
REMARK SMILES IDX 110 33 18 34 19 35 20 36 23 37 21 38 22 39 31 41 32 42 33 43
REMARK SMILES IDX 34 44 35 45 36 46 37 47 38 48 39 49 103 50 40 51 102 52
REMARK SMILES IDX 41 53 42 54 43 55 96 56 44 57 101 58 95 59 97 60 45 61
REMARK SMILES IDX 100 62 94 63 93 64 46 66 80 67 59 68 79 69 60 70 63 71 78 72
REMARK SMILES IDX 98 73 61 74 62 75 77 77 99 78 64 79 47 80 48 81 57 82 49 83
REMARK SMILES IDX 50 84 56 85 58 86 51 87 52 88 53 89 54 90 55 91 81 92 82 93
REMARK SMILES IDX 91 94 83 95 84 96 90 97 92 98 85 99 86 100 87 101 88 102
REMARK SMILES IDX 89 103 65 104 66 105 75 106 67 107 68 108 74 109 76 110
REMARK SMILES IDX 69 111 70 112 71 113 72 114 73 115
REMARK H PARENT 16 12 23 40 97 65 63 76
REMARK Flexibility Score: inf
ROOT
ATOM      1  C   UNL A   1      56.543  26.182  30.333  1.00  0.00     0.188 C 
ENDROOT
BRANCH   1   2
ATOM      2  O   UNL A   1      55.777  25.071  30.781  1.00  0.00    -0.376 OA
BRANCH   2   3
ATOM      3  C   UNL A   1      56.530  24.286  31.689  1.00  0.00     0.202 C 
BRANCH   3   4
ATOM      4  C   UNL A   1      55.710  23.289  32.533  1.00  0.00     0.261 C 
BRANCH   4   5
ATOM      5  O   UNL A   1      54.128  23.615  32.852  1.00  0.00    -0.462 OA
BRANCH   5   6
ATOM      6  C   UNL A   1      52.980  23.561  33.709  1.00  0.00     0.329 C 
ATOM      7  O   UNL A   1      53.219  23.947  34.856  1.00  0.00    -0.250 OA
BRANCH   6   8
ATOM      8  C   UNL A   1      51.259  23.011  33.390  1.00  0.00     0.198 C 
BRANCH   8   9
ATOM      9  N   UNL A   1      50.924  23.671  32.008  1.00  0.00    -0.335 N 
ATOM     10  C   UNL A   1      50.293  24.879  31.570  1.00  0.00     0.293 C 
ATOM     11  O   UNL A   1      50.447  25.190  30.383  1.00  0.00    -0.265 OA
ATOM     12  H   UNL A   1      51.222  23.116  31.252  1.00  0.00     0.164 HD
BRANCH  10  13
ATOM     13  C   UNL A   1      49.370  25.815  32.410  1.00  0.00     0.252 C 
ATOM     14  O   UNL A   1      49.994  26.744  32.937  1.00  0.00    -0.283 OA
BRANCH  13  15
ATOM     15  C   UNL A   1      47.915  25.531  32.842  1.00  0.00     0.054 A 
ATOM     16  N   UNL A   1      45.918  25.081  33.875  1.00  0.00    -0.240 N 
ATOM     17  C   UNL A   1      47.291  25.297  34.082  1.00  0.00     0.117 A 
ATOM     18  C   UNL A   1      45.585  25.336  32.564  1.00  0.00     0.065 A 
ATOM     19  C   UNL A   1      46.804  25.490  31.889  1.00  0.00     0.012 A 
ATOM     20  C   UNL A   1      44.339  25.416  31.903  1.00  0.00     0.028 A 
ATOM     21  C   UNL A   1      46.748  25.626  30.484  1.00  0.00     0.011 A 
ATOM     22  C   UNL A   1      44.330  25.576  30.518  1.00  0.00     0.002 A 
ATOM     23  C   UNL A   1      45.521  25.658  29.814  1.00  0.00     0.001 A 
BRANCH  16  24
ATOM     24  S   UNL A   1      44.698  24.829  35.088  1.00  0.00     0.268 S 
ATOM     25  O   UNL A   1      45.422  24.545  36.302  1.00  0.00    -0.201 OA
ATOM     26  O   UNL A   1      43.764  23.853  34.522  1.00  0.00    -0.201 OA
BRANCH  24  27
ATOM     27  C   UNL A   1      43.753  26.334  35.403  1.00  0.00     0.088 A 
ATOM     28  C   UNL A   1      41.540  30.034  35.943  1.00  0.00     0.044 C 
ATOM     29  C   UNL A   1      42.308  28.754  35.745  1.00  0.00    -0.051 A 
ATOM     30  C   UNL A   1      43.548  28.758  35.099  1.00  0.00     0.005 A 
ATOM     31  C   UNL A   1      41.809  27.533  36.221  1.00  0.00     0.005 A 
ATOM     32  C   UNL A   1      44.263  27.558  34.921  1.00  0.00     0.022 A 
ATOM     33  C   UNL A   1      42.527  26.331  36.064  1.00  0.00     0.022 A 
ENDBRANCH  24  27
ENDBRANCH  16  24
ENDBRANCH  13  15
ENDBRANCH  10  13
ENDBRANCH   8   9
BRANCH   8  34
ATOM     34  C   UNL A   1      50.302  21.384  33.759  1.00  0.00     0.092 C 
BRANCH  34  35
ATOM     35  C   UNL A   1      49.231  20.803  35.225  1.00  0.00     0.037 A 
ATOM     36  C   UNL A   1      49.176  20.931  36.680  1.00  0.00     0.134 A 
ATOM     37  N   UNL A   1      47.968  20.209  35.083  1.00  0.00    -0.348 N 
ATOM     38  N   UNL A   1      48.034  20.513  37.288  1.00  0.00    -0.245 NA
ATOM     39  C   UNL A   1      47.336  20.047  36.301  1.00  0.00     0.196 A 
ATOM     40  H   UNL A   1      47.577  19.941  34.220  1.00  0.00     0.167 HD
ENDBRANCH  34  35
ENDBRANCH   8  34
ENDBRANCH   6   8
ENDBRANCH   5   6
ENDBRANCH   4   5
ENDBRANCH   3   4
ENDBRANCH   2   3
ENDBRANCH   1   2
BRANCH   1  41
ATOM     41  C   UNL A   1      56.947  26.077  28.861  1.00  0.00     0.188 C 
BRANCH  41  42
ATOM     42  O   UNL A   1      56.181  25.182  28.080  1.00  0.00    -0.376 OA
BRANCH  42  43
ATOM     43  C   UNL A   1      56.392  25.114  26.674  1.00  0.00     0.202 C 
BRANCH  43  44
ATOM     44  C   UNL A   1      55.013  24.961  26.076  1.00  0.00     0.261 C 
BRANCH  44  45
ATOM     45  O   UNL A   1      54.023  25.469  27.013  1.00  0.00    -0.460 OA
BRANCH  45  46
ATOM     46  C   UNL A   1      53.431  26.652  26.672  1.00  0.00     0.338 C 
ATOM     47  O   UNL A   1      53.949  27.750  26.812  1.00  0.00    -0.246 OA
BRANCH  46  48
ATOM     48  C   UNL A   1      52.014  26.411  26.223  1.00  0.00     0.060 A 
ATOM     49  C   UNL A   1      51.416  27.320  25.365  1.00  0.00     0.016 A 
ATOM     50  C   UNL A   1      51.193  25.442  26.826  1.00  0.00     0.016 A 
ATOM     51  C   UNL A   1      50.017  27.359  25.284  1.00  0.00     0.010 A 
ATOM     52  C   UNL A   1      49.790  25.585  26.834  1.00  0.00     0.010 A 
ATOM     53  C   UNL A   1      49.198  26.674  26.202  1.00  0.00    -0.014 A 
BRANCH  53  54
ATOM     54  C   UNL A   1      47.771  27.149  26.596  1.00  0.00     0.031 A 
ATOM     55  C   UNL A   1      48.032  28.186  28.085  1.00  0.00     0.074 A 
ATOM     56  C   UNL A   1      46.436  26.670  25.893  1.00  0.00     0.049 A 
ATOM     57  N   UNL A   1      47.147  28.632  28.979  1.00  0.00    -0.248 NA
ATOM     58  C   UNL A   1      49.292  28.913  28.360  1.00  0.00     0.031 C 
ATOM     59  C   UNL A   1      45.437  27.284  24.881  1.00  0.00     0.029 A 
ATOM     60  N   UNL A   1      45.542  25.476  26.101  1.00  0.00    -0.354 N 
ATOM     61  C   UNL A   1      47.397  29.985  29.187  1.00  0.00     0.074 A 
ATOM     62  C   UNL A   1      48.852  29.958  29.101  1.00  0.00     0.031 C 
ATOM     63  C   UNL A   1      44.175  26.760  24.984  1.00  0.00     0.029 A 
ATOM     64  C   UNL A   1      44.202  25.567  25.783  1.00  0.00     0.049 A 
ATOM     65  H   UNL A   1      45.910  24.637  26.460  1.00  0.00     0.167 HD
ATOM     66  C   UNL A   1      46.448  31.014  29.026  1.00  0.00     0.037 A 
ATOM     67  C   UNL A   1      43.221  24.762  26.282  1.00  0.00     0.037 A 
ATOM     68  C   UNL A   1      44.944  30.688  28.855  1.00  0.00     0.049 A 
ATOM     69  C   UNL A   1      42.403  25.555  27.293  1.00  0.00     0.074 A 
ATOM     70  C   UNL A   1      43.953  31.285  28.049  1.00  0.00     0.029 A 
ATOM     71  N   UNL A   1      44.259  29.593  29.409  1.00  0.00    -0.354 N 
ATOM     72  N   UNL A   1      42.559  26.843  27.507  1.00  0.00    -0.248 NA
ATOM     73  C   UNL A   1      41.417  24.955  28.196  1.00  0.00     0.031 C 
ATOM     74  C   UNL A   1      42.776  30.490  28.003  1.00  0.00     0.029 A 
ATOM     75  C   UNL A   1      42.985  29.397  28.814  1.00  0.00     0.049 A 
ATOM     76  H   UNL A   1      44.621  29.026  30.128  1.00  0.00     0.167 HD
ATOM     77  C   UNL A   1      41.887  27.194  28.658  1.00  0.00     0.074 A 
ATOM     78  C   UNL A   1      41.133  25.992  29.005  1.00  0.00     0.031 C 
ATOM     79  C   UNL A   1      42.006  28.412  29.279  1.00  0.00     0.037 A 
BRANCH  66  80
ATOM     80  C   UNL A   1      46.873  32.494  28.612  1.00  0.00     0.058 A 
ATOM     81  C   UNL A   1      46.692  33.586  29.509  1.00  0.00     0.135 A 
ATOM     82  C   UNL A   1      47.294  32.920  27.330  1.00  0.00     0.135 A 
ATOM     83  F   UNL A   1      46.404  33.386  30.804  1.00  0.00    -0.206 F 
ATOM     84  C   UNL A   1      46.804  34.941  29.149  1.00  0.00     0.059 A 
ATOM     85  C   UNL A   1      47.543  34.263  26.987  1.00  0.00     0.059 A 
ATOM     86  F   UNL A   1      47.470  32.075  26.310  1.00  0.00    -0.206 F 
ATOM     87  C   UNL A   1      47.262  35.274  27.889  1.00  0.00     0.060 A 
BRANCH  87  88
ATOM     88  S   UNL A   1      47.624  36.999  27.491  1.00  0.00     0.124 S 
ATOM     89  O   UNL A   1      46.664  37.285  26.430  1.00  0.00    -0.237 OA
ATOM     90  O   UNL A   1      47.383  37.678  28.761  1.00  0.00    -0.237 OA
ATOM     91  O   UNL A   1      49.025  36.957  27.075  1.00  0.00    -0.744 OA
ENDBRANCH  87  88
ENDBRANCH  66  80
BRANCH  67  92
ATOM     92  C   UNL A   1      43.610  23.293  26.380  1.00  0.00     0.058 A 
ATOM     93  C   UNL A   1      42.731  22.360  25.780  1.00  0.00     0.135 A 
ATOM     94  C   UNL A   1      44.895  22.810  26.671  1.00  0.00     0.135 A 
ATOM     95  F   UNL A   1      41.467  22.722  25.510  1.00  0.00    -0.206 F 
ATOM     96  C   UNL A   1      43.149  21.102  25.326  1.00  0.00     0.059 A 
ATOM     97  C   UNL A   1      45.353  21.566  26.185  1.00  0.00     0.059 A 
ATOM     98  F   UNL A   1      45.760  23.585  27.339  1.00  0.00    -0.206 F 
ATOM     99  C   UNL A   1      44.490  20.750  25.447  1.00  0.00     0.060 A 
BRANCH  99 100
ATOM    100  S   UNL A   1      45.154  19.378  24.431  1.00  0.00     0.124 S 
ATOM    101  O   UNL A   1      44.808  18.204  25.221  1.00  0.00    -0.237 OA
ATOM    102  O   UNL A   1      44.421  19.519  23.174  1.00  0.00    -0.237 OA
ATOM    103  O   UNL A   1      46.573  19.689  24.331  1.00  0.00    -0.744 OA
ENDBRANCH  99 100
ENDBRANCH  67  92
BRANCH  79 104
ATOM    104  C   UNL A   1      41.064  28.918  30.347  1.00  0.00     0.058 A 
ATOM    105  C   UNL A   1      41.164  28.606  31.710  1.00  0.00     0.135 A 
ATOM    106  C   UNL A   1      39.883  29.603  29.963  1.00  0.00     0.135 A 
ATOM    107  F   UNL A   1      42.113  27.777  32.172  1.00  0.00    -0.206 F 
ATOM    108  C   UNL A   1      40.258  29.102  32.647  1.00  0.00     0.059 A 
ATOM    109  C   UNL A   1      38.928  30.031  30.864  1.00  0.00     0.059 A 
ATOM    110  F   UNL A   1      39.601  29.892  28.687  1.00  0.00    -0.206 F 
ATOM    111  C   UNL A   1      39.162  29.843  32.210  1.00  0.00     0.060 A 
BRANCH 111 112
ATOM    112  S   UNL A   1      38.067  30.613  33.400  1.00  0.00     0.124 S 
ATOM    113  O   UNL A   1      36.755  30.417  32.792  1.00  0.00    -0.237 OA
ATOM    114  O   UNL A   1      38.343  29.815  34.591  1.00  0.00    -0.237 OA
ATOM    115  O   UNL A   1      38.532  31.996  33.448  1.00  0.00    -0.744 OA
ENDBRANCH 111 112
ENDBRANCH  79 104
ENDBRANCH  53  54
ENDBRANCH  46  48
ENDBRANCH  45  46
ENDBRANCH  44  45
ENDBRANCH  43  44
ENDBRANCH  42  43
ENDBRANCH  41  42
ENDBRANCH   1  41
TORSDOF 27
ENDMDL
