MODEL 1
REMARK VINA RESULT:     -11.0      0.000      0.000
REMARK SMILES Cc1ccc(C(=O)N2CCCC[C@@H]2C(=O)OCCOCCOCCOC(=O)c2ccc(-c3c4nc(c(-c5c(F)cc(S(=O)(=O)[O-])cc5F)c5ccc([nH]5)c(-c5c(F)cc(S(=O)(=O)[O-])cc5F)c5nc(c(-c6c(F)cc(S(=O)(=O)[O-])cc6F)c6ccc3[nH]6)C=C5)C=C4)cc2)cc1S(=O)(=O)N1CCCCC1
REMARK SMILES IDX 20 1 19 2 18 3 17 4 16 5 14 6 15 7 13 8 8 9 9 10 10 11 12 12
REMARK SMILES IDX 11 13 6 14 7 15 5 16 1 17 2 18 3 19 95 20 4 21 94 22 96 23
REMARK SMILES IDX 97 24 98 25 99 26 100 27 104 28 101 29 103 30 102 31 21 32
REMARK SMILES IDX 22 33 23 34 24 35 25 36 26 37 27 38 28 39 29 40 93 41 30 42
REMARK SMILES IDX 92 43 31 44 32 45 33 46 86 47 34 48 91 49 85 50 87 51 35 52
REMARK SMILES IDX 90 53 84 54 83 55 36 57 70 58 49 59 69 60 50 61 53 62 68 63
REMARK SMILES IDX 88 64 51 65 52 66 67 68 89 69 54 70 37 71 38 72 47 73 39 74
REMARK SMILES IDX 40 75 46 76 48 77 41 78 42 79 43 80 44 81 45 82 71 83 72 84
REMARK SMILES IDX 81 85 73 86 74 87 80 88 82 89 75 90 76 91 77 92 78 93 79 94
REMARK SMILES IDX 55 95 56 96 65 97 57 98 58 99 64 100 66 101 59 102 60 103
REMARK SMILES IDX 61 104 62 105 63 106
REMARK H PARENT 87 56 53 67
REMARK Flexibility Score: inf
ROOT
ATOM      1  C   UNL A   1      36.620  31.649  29.156  1.00  0.00     0.188 C 
ENDROOT
BRANCH   1   2
ATOM      2  O   UNL A   1      35.499  30.845  28.664  1.00  0.00    -0.376 OA
BRANCH   2   3
ATOM      3  C   UNL A   1      35.350  29.976  27.461  1.00  0.00     0.202 C 
BRANCH   3   4
ATOM      4  C   UNL A   1      34.338  28.531  26.875  1.00  0.00     0.261 C 
BRANCH   4   5
ATOM      5  O   UNL A   1      32.540  28.165  26.980  1.00  0.00    -0.462 OA
BRANCH   5   6
ATOM      6  C   UNL A   1      31.471  27.332  26.223  1.00  0.00     0.328 C 
ATOM      7  O   UNL A   1      30.957  26.270  26.599  1.00  0.00    -0.250 OA
BRANCH   6   8
ATOM      8  C   UNL A   1      30.978  27.580  24.815  1.00  0.00     0.195 C 
ATOM      9  N   UNL A   1      31.663  26.787  23.690  1.00  0.00    -0.325 N 
ATOM     10  C   UNL A   1      31.782  27.446  22.392  1.00  0.00     0.121 C 
ATOM     11  C   UNL A   1      31.601  28.953  22.371  1.00  0.00     0.022 C 
ATOM     12  C   UNL A   1      30.680  29.051  24.625  1.00  0.00     0.037 C 
ATOM     13  C   UNL A   1      30.381  29.352  23.177  1.00  0.00     0.005 C 
BRANCH   9  14
ATOM     14  C   UNL A   1      31.725  25.334  23.500  1.00  0.00     0.254 C 
ATOM     15  O   UNL A   1      30.905  24.777  22.754  1.00  0.00    -0.269 OA
BRANCH  14  16
ATOM     16  C   UNL A   1      32.804  24.404  23.955  1.00  0.00     0.041 A 
ATOM     17  C   UNL A   1      37.240  21.455  24.388  1.00  0.00     0.046 C 
ATOM     18  C   UNL A   1      35.309  22.529  24.381  1.00  0.00    -0.031 A 
ATOM     19  C   UNL A   1      35.158  24.020  23.866  1.00  0.00     0.005 A 
ATOM     20  C   UNL A   1      33.820  22.154  24.777  1.00  0.00     0.086 A 
ATOM     21  C   UNL A   1      34.041  24.780  23.540  1.00  0.00     0.014 A 
ATOM     22  C   UNL A   1      32.683  23.103  24.512  1.00  0.00     0.035 A 
BRANCH  20  23
ATOM     23  S   UNL A   1      32.998  20.625  25.744  1.00  0.00     0.243 S 
ATOM     24  O   UNL A   1      33.378  20.803  27.132  1.00  0.00    -0.207 OA
ATOM     25  O   UNL A   1      31.594  20.702  25.376  1.00  0.00    -0.207 OA
BRANCH  23  26
ATOM     26  N   UNL A   1      33.480  18.987  25.357  1.00  0.00    -0.198 NA
ATOM     27  C   UNL A   1      32.563  17.901  25.748  1.00  0.00     0.102 C 
ATOM     28  C   UNL A   1      34.747  18.700  24.629  1.00  0.00     0.102 C 
ATOM     29  C   UNL A   1      32.726  16.570  25.004  1.00  0.00     0.017 C 
ATOM     30  C   UNL A   1      34.774  17.390  23.801  1.00  0.00     0.017 C 
ATOM     31  C   UNL A   1      33.485  16.581  23.692  1.00  0.00     0.003 C 
ENDBRANCH  23  26
ENDBRANCH  20  23
ENDBRANCH  14  16
ENDBRANCH   9  14
ENDBRANCH   6   8
ENDBRANCH   5   6
ENDBRANCH   4   5
ENDBRANCH   3   4
ENDBRANCH   2   3
ENDBRANCH   1   2
BRANCH   1  32
ATOM     32  C   UNL A   1      36.967  31.629  30.611  1.00  0.00     0.188 C 
BRANCH  32  33
ATOM     33  O   UNL A   1      36.818  32.964  30.995  1.00  0.00    -0.376 OA
BRANCH  33  34
ATOM     34  C   UNL A   1      35.545  33.514  30.971  1.00  0.00     0.202 C 
BRANCH  34  35
ATOM     35  C   UNL A   1      34.650  32.855  32.006  1.00  0.00     0.261 C 
BRANCH  35  36
ATOM     36  O   UNL A   1      35.086  33.028  33.394  1.00  0.00    -0.460 OA
BRANCH  36  37
ATOM     37  C   UNL A   1      35.936  34.038  33.828  1.00  0.00     0.338 C 
ATOM     38  O   UNL A   1      35.518  35.156  34.086  1.00  0.00    -0.246 OA
BRANCH  37  39
ATOM     39  C   UNL A   1      37.262  33.541  34.309  1.00  0.00     0.060 A 
ATOM     40  C   UNL A   1      38.414  34.224  34.717  1.00  0.00     0.016 A 
ATOM     41  C   UNL A   1      37.387  32.209  34.303  1.00  0.00     0.016 A 
ATOM     42  C   UNL A   1      39.772  33.626  34.685  1.00  0.00     0.010 A 
ATOM     43  C   UNL A   1      38.685  31.723  34.144  1.00  0.00     0.010 A 
ATOM     44  C   UNL A   1      40.036  32.343  34.191  1.00  0.00    -0.014 A 
BRANCH  44  45
ATOM     45  C   UNL A   1      41.686  31.538  33.876  1.00  0.00     0.031 A 
ATOM     46  C   UNL A   1      42.087  29.947  33.043  1.00  0.00     0.074 A 
ATOM     47  C   UNL A   1      42.859  32.128  34.221  1.00  0.00     0.049 A 
ATOM     48  N   UNL A   1      43.157  29.697  32.298  1.00  0.00    -0.248 NA
ATOM     49  C   UNL A   1      41.194  28.718  32.806  1.00  0.00     0.031 C 
ATOM     50  C   UNL A   1      44.209  31.886  33.685  1.00  0.00     0.029 A 
ATOM     51  N   UNL A   1      43.094  33.180  35.103  1.00  0.00    -0.354 N 
ATOM     52  C   UNL A   1      42.970  28.519  31.539  1.00  0.00     0.074 A 
ATOM     53  C   UNL A   1      41.648  28.073  31.748  1.00  0.00     0.031 C 
ATOM     54  C   UNL A   1      45.114  32.499  34.468  1.00  0.00     0.029 A 
ATOM     55  C   UNL A   1      44.382  32.983  35.610  1.00  0.00     0.049 A 
ATOM     56  H   UNL A   1      42.478  33.915  35.327  1.00  0.00     0.167 HD
ATOM     57  C   UNL A   1      43.912  27.641  31.105  1.00  0.00     0.037 A 
ATOM     58  C   UNL A   1      44.476  32.512  36.874  1.00  0.00     0.037 A 
ATOM     59  C   UNL A   1      45.079  27.744  31.925  1.00  0.00     0.049 A 
ATOM     60  C   UNL A   1      45.063  31.097  36.856  1.00  0.00     0.074 A 
ATOM     61  C   UNL A   1      46.168  28.580  31.901  1.00  0.00     0.029 A 
ATOM     62  N   UNL A   1      45.102  27.047  33.121  1.00  0.00    -0.354 N 
ATOM     63  N   UNL A   1      45.434  30.110  35.552  1.00  0.00    -0.248 NA
ATOM     64  C   UNL A   1      45.605  30.072  38.504  1.00  0.00     0.031 C 
ATOM     65  C   UNL A   1      46.783  28.488  33.172  1.00  0.00     0.029 A 
ATOM     66  C   UNL A   1      46.073  27.581  33.945  1.00  0.00     0.049 A 
ATOM     67  H   UNL A   1      44.518  26.287  33.349  1.00  0.00     0.167 HD
ATOM     68  C   UNL A   1      45.990  28.407  36.138  1.00  0.00     0.074 A 
ATOM     69  C   UNL A   1      46.033  28.525  38.070  1.00  0.00     0.031 C 
ATOM     70  C   UNL A   1      46.070  27.278  35.359  1.00  0.00     0.037 A 
BRANCH  57  71
ATOM     71  C   UNL A   1      43.773  26.652  29.945  1.00  0.00     0.058 A 
ATOM     72  C   UNL A   1      43.389  27.177  28.691  1.00  0.00     0.135 A 
ATOM     73  C   UNL A   1      43.775  25.234  30.004  1.00  0.00     0.135 A 
ATOM     74  F   UNL A   1      43.397  28.497  28.458  1.00  0.00    -0.206 F 
ATOM     75  C   UNL A   1      42.904  26.388  27.648  1.00  0.00     0.059 A 
ATOM     76  C   UNL A   1      43.340  24.420  28.949  1.00  0.00     0.059 A 
ATOM     77  F   UNL A   1      44.135  24.552  31.099  1.00  0.00    -0.206 F 
ATOM     78  C   UNL A   1      42.840  25.012  27.802  1.00  0.00     0.060 A 
BRANCH  78  79
ATOM     79  S   UNL A   1      41.993  24.041  26.543  1.00  0.00     0.124 S 
ATOM     80  O   UNL A   1      42.812  24.310  25.364  1.00  0.00    -0.237 OA
ATOM     81  O   UNL A   1      42.080  22.687  27.080  1.00  0.00    -0.237 OA
ATOM     82  O   UNL A   1      40.651  24.616  26.511  1.00  0.00    -0.744 OA
ENDBRANCH  78  79
ENDBRANCH  57  71
BRANCH  58  83
ATOM     83  C   UNL A   1      43.354  33.078  37.736  1.00  0.00     0.058 A 
ATOM     84  C   UNL A   1      43.374  34.444  38.102  1.00  0.00     0.135 A 
ATOM     85  C   UNL A   1      42.098  32.469  37.846  1.00  0.00     0.135 A 
ATOM     86  F   UNL A   1      44.517  35.143  37.998  1.00  0.00    -0.206 F 
ATOM     87  C   UNL A   1      42.213  35.161  38.444  1.00  0.00     0.059 A 
ATOM     88  C   UNL A   1      40.949  33.125  38.313  1.00  0.00     0.059 A 
ATOM     89  F   UNL A   1      41.904  31.262  37.319  1.00  0.00    -0.206 F 
ATOM     90  C   UNL A   1      40.995  34.496  38.515  1.00  0.00     0.060 A 
BRANCH  90  91
ATOM     91  S   UNL A   1      39.466  35.468  38.618  1.00  0.00     0.124 S 
ATOM     92  O   UNL A   1      38.443  34.492  38.269  1.00  0.00    -0.237 OA
ATOM     93  O   UNL A   1      39.482  35.892  40.018  1.00  0.00    -0.237 OA
ATOM     94  O   UNL A   1      39.669  36.536  37.643  1.00  0.00    -0.744 OA
ENDBRANCH  90  91
ENDBRANCH  58  83
BRANCH  70  95
ATOM     95  C   UNL A   1      46.084  25.882  35.955  1.00  0.00     0.058 A 
ATOM     96  C   UNL A   1      47.226  25.240  36.481  1.00  0.00     0.135 A 
ATOM     97  C   UNL A   1      44.910  25.114  36.046  1.00  0.00     0.135 A 
ATOM     98  F   UNL A   1      48.318  25.921  36.840  1.00  0.00    -0.206 F 
ATOM     99  C   UNL A   1      47.287  23.871  36.728  1.00  0.00     0.059 A 
ATOM    100  C   UNL A   1      44.917  23.759  36.391  1.00  0.00     0.059 A 
ATOM    101  F   UNL A   1      43.709  25.661  35.810  1.00  0.00    -0.206 F 
ATOM    102  C   UNL A   1      46.130  23.123  36.621  1.00  0.00     0.060 A 
BRANCH 102 103
ATOM    103  S   UNL A   1      46.232  21.333  36.773  1.00  0.00     0.124 S 
ATOM    104  O   UNL A   1      45.285  20.906  35.747  1.00  0.00    -0.237 OA
ATOM    105  O   UNL A   1      47.636  21.059  36.484  1.00  0.00    -0.237 OA
ATOM    106  O   UNL A   1      45.820  21.088  38.151  1.00  0.00    -0.744 OA
ENDBRANCH 102 103
ENDBRANCH  70  95
ENDBRANCH  44  45
ENDBRANCH  37  39
ENDBRANCH  36  37
ENDBRANCH  35  36
ENDBRANCH  34  35
ENDBRANCH  33  34
ENDBRANCH  32  33
ENDBRANCH   1  32
TORSDOF 24
ENDMDL
MODEL 2
REMARK VINA RESULT:     -10.5      5.337     10.569
REMARK SMILES Cc1ccc(C(=O)N2CCCC[C@@H]2C(=O)OCCOCCOCCOC(=O)c2ccc(-c3c4nc(c(-c5c(F)cc(S(=O)(=O)[O-])cc5F)c5ccc([nH]5)c(-c5c(F)cc(S(=O)(=O)[O-])cc5F)c5nc(c(-c6c(F)cc(S(=O)(=O)[O-])cc6F)c6ccc3[nH]6)C=C5)C=C4)cc2)cc1S(=O)(=O)N1CCCCC1
REMARK SMILES IDX 20 1 19 2 18 3 17 4 16 5 14 6 15 7 13 8 8 9 9 10 10 11 12 12
REMARK SMILES IDX 11 13 6 14 7 15 5 16 1 17 2 18 3 19 95 20 4 21 94 22 96 23
REMARK SMILES IDX 97 24 98 25 99 26 100 27 104 28 101 29 103 30 102 31 21 32
REMARK SMILES IDX 22 33 23 34 24 35 25 36 26 37 27 38 28 39 29 40 93 41 30 42
REMARK SMILES IDX 92 43 31 44 32 45 33 46 86 47 34 48 91 49 85 50 87 51 35 52
REMARK SMILES IDX 90 53 84 54 83 55 36 57 70 58 49 59 69 60 50 61 53 62 68 63
REMARK SMILES IDX 88 64 51 65 52 66 67 68 89 69 54 70 37 71 38 72 47 73 39 74
REMARK SMILES IDX 40 75 46 76 48 77 41 78 42 79 43 80 44 81 45 82 71 83 72 84
REMARK SMILES IDX 81 85 73 86 74 87 80 88 82 89 75 90 76 91 77 92 78 93 79 94
REMARK SMILES IDX 55 95 56 96 65 97 57 98 58 99 64 100 66 101 59 102 60 103
REMARK SMILES IDX 61 104 62 105 63 106
REMARK H PARENT 87 56 53 67
REMARK Flexibility Score: inf
ROOT
ATOM      1  C   UNL A   1      43.100  36.087  26.842  1.00  0.00     0.188 C 
ENDROOT
BRANCH   1   2
ATOM      2  O   UNL A   1      42.399  35.195  27.769  1.00  0.00    -0.376 OA
BRANCH   2   3
ATOM      3  C   UNL A   1      42.641  34.861  29.203  1.00  0.00     0.202 C 
BRANCH   3   4
ATOM      4  C   UNL A   1      41.776  34.048  30.632  1.00  0.00     0.261 C 
BRANCH   4   5
ATOM      5  O   UNL A   1      40.683  32.573  30.731  1.00  0.00    -0.462 OA
BRANCH   5   6
ATOM      6  C   UNL A   1      39.482  31.956  29.963  1.00  0.00     0.328 C 
ATOM      7  O   UNL A   1      38.559  32.573  29.414  1.00  0.00    -0.250 OA
BRANCH   6   8
ATOM      8  C   UNL A   1      39.135  30.487  29.882  1.00  0.00     0.195 C 
ATOM      9  N   UNL A   1      38.415  29.875  31.094  1.00  0.00    -0.325 N 
ATOM     10  C   UNL A   1      38.701  28.475  31.398  1.00  0.00     0.121 C 
ATOM     11  C   UNL A   1      39.948  27.880  30.770  1.00  0.00     0.022 C 
ATOM     12  C   UNL A   1      40.259  29.728  29.212  1.00  0.00     0.037 C 
ATOM     13  C   UNL A   1      40.025  28.240  29.300  1.00  0.00     0.005 C 
BRANCH   9  14
ATOM     14  C   UNL A   1      37.113  30.236  31.665  1.00  0.00     0.254 C 
ATOM     15  O   UNL A   1      36.641  29.561  32.593  1.00  0.00    -0.269 OA
BRANCH  14  16
ATOM     16  C   UNL A   1      36.317  31.474  31.400  1.00  0.00     0.041 A 
ATOM     17  C   UNL A   1      33.034  35.678  31.740  1.00  0.00     0.046 C 
ATOM     18  C   UNL A   1      34.382  33.969  31.355  1.00  0.00    -0.031 A 
ATOM     19  C   UNL A   1      35.390  33.410  32.443  1.00  0.00     0.005 A 
ATOM     20  C   UNL A   1      34.629  32.994  30.130  1.00  0.00     0.086 A 
ATOM     21  C   UNL A   1      36.120  32.229  32.510  1.00  0.00     0.014 A 
ATOM     22  C   UNL A   1      35.552  31.811  30.251  1.00  0.00     0.035 A 
BRANCH  20  23
ATOM     23  S   UNL A   1      34.052  33.002  28.229  1.00  0.00     0.243 S 
ATOM     24  O   UNL A   1      32.834  33.787  28.203  1.00  0.00    -0.207 OA
ATOM     25  O   UNL A   1      35.224  33.484  27.517  1.00  0.00    -0.207 OA
BRANCH  23  26
ATOM     26  N   UNL A   1      33.628  31.498  27.439  1.00  0.00    -0.198 NA
ATOM     27  C   UNL A   1      34.698  30.498  27.267  1.00  0.00     0.102 C 
ATOM     28  C   UNL A   1      32.237  31.220  26.991  1.00  0.00     0.102 C 
ATOM     29  C   UNL A   1      34.249  29.049  27.043  1.00  0.00     0.017 C 
ATOM     30  C   UNL A   1      31.832  29.725  26.916  1.00  0.00     0.017 C 
ATOM     31  C   UNL A   1      32.827  28.683  27.419  1.00  0.00     0.003 C 
ENDBRANCH  23  26
ENDBRANCH  20  23
ENDBRANCH  14  16
ENDBRANCH   9  14
ENDBRANCH   6   8
ENDBRANCH   5   6
ENDBRANCH   4   5
ENDBRANCH   3   4
ENDBRANCH   2   3
ENDBRANCH   1   2
BRANCH   1  32
ATOM     32  C   UNL A   1      43.597  37.415  27.321  1.00  0.00     0.188 C 
BRANCH  32  33
ATOM     33  O   UNL A   1      44.904  37.140  27.730  1.00  0.00    -0.376 OA
BRANCH  33  34
ATOM     34  C   UNL A   1      45.947  37.697  27.005  1.00  0.00     0.202 C 
BRANCH  34  35
ATOM     35  C   UNL A   1      47.111  36.728  26.898  1.00  0.00     0.261 C 
BRANCH  35  36
ATOM     36  O   UNL A   1      46.763  35.322  27.121  1.00  0.00    -0.460 OA
BRANCH  36  37
ATOM     37  C   UNL A   1      46.591  34.388  26.107  1.00  0.00     0.338 C 
ATOM     38  O   UNL A   1      47.194  34.479  25.048  1.00  0.00    -0.246 OA
BRANCH  37  39
ATOM     39  C   UNL A   1      45.949  33.117  26.563  1.00  0.00     0.060 A 
ATOM     40  C   UNL A   1      44.608  32.715  26.590  1.00  0.00     0.016 A 
ATOM     41  C   UNL A   1      46.800  32.224  27.082  1.00  0.00     0.016 A 
ATOM     42  C   UNL A   1      44.089  31.668  27.505  1.00  0.00     0.010 A 
ATOM     43  C   UNL A   1      46.262  31.352  28.028  1.00  0.00     0.010 A 
ATOM     44  C   UNL A   1      44.879  31.023  28.464  1.00  0.00    -0.014 A 
BRANCH  44  45
ATOM     45  C   UNL A   1      44.342  29.864  29.821  1.00  0.00     0.031 A 
ATOM     46  C   UNL A   1      43.730  30.230  31.517  1.00  0.00     0.074 A 
ATOM     47  C   UNL A   1      44.303  28.518  29.651  1.00  0.00     0.049 A 
ATOM     48  N   UNL A   1      42.816  29.540  32.189  1.00  0.00    -0.248 NA
ATOM     49  C   UNL A   1      43.920  31.495  32.371  1.00  0.00     0.031 C 
ATOM     50  C   UNL A   1      43.524  27.514  30.397  1.00  0.00     0.029 A 
ATOM     51  N   UNL A   1      44.912  27.731  28.677  1.00  0.00    -0.354 N 
ATOM     52  C   UNL A   1      42.337  30.290  33.288  1.00  0.00     0.074 A 
ATOM     53  C   UNL A   1      42.915  31.575  33.223  1.00  0.00     0.031 C 
ATOM     54  C   UNL A   1      43.962  26.285  30.074  1.00  0.00     0.029 A 
ATOM     55  C   UNL A   1      45.139  26.485  29.267  1.00  0.00     0.049 A 
ATOM     56  H   UNL A   1      45.138  27.998  27.756  1.00  0.00     0.167 HD
ATOM     57  C   UNL A   1      41.859  29.831  34.474  1.00  0.00     0.037 A 
ATOM     58  C   UNL A   1      46.410  26.203  29.630  1.00  0.00     0.037 A 
ATOM     59  C   UNL A   1      42.362  28.513  34.716  1.00  0.00     0.049 A 
ATOM     60  C   UNL A   1      46.506  26.121  31.158  1.00  0.00     0.074 A 
ATOM     61  C   UNL A   1      41.946  27.266  34.321  1.00  0.00     0.029 A 
ATOM     62  N   UNL A   1      43.624  28.387  35.271  1.00  0.00    -0.354 N 
ATOM     63  N   UNL A   1      45.344  26.453  32.321  1.00  0.00    -0.248 NA
ATOM     64  C   UNL A   1      48.140  25.503  32.161  1.00  0.00     0.031 C 
ATOM     65  C   UNL A   1      43.039  26.390  34.512  1.00  0.00     0.029 A 
ATOM     66  C   UNL A   1      44.100  27.111  35.042  1.00  0.00     0.049 A 
ATOM     67  H   UNL A   1      44.108  29.095  35.755  1.00  0.00     0.167 HD
ATOM     68  C   UNL A   1      46.075  26.326  34.053  1.00  0.00     0.074 A 
ATOM     69  C   UNL A   1      47.896  25.721  33.792  1.00  0.00     0.031 C 
ATOM     70  C   UNL A   1      45.508  26.823  35.202  1.00  0.00     0.037 A 
BRANCH  57  71
ATOM     71  C   UNL A   1      40.952  30.587  35.448  1.00  0.00     0.058 A 
ATOM     72  C   UNL A   1      39.561  30.540  35.204  1.00  0.00     0.135 A 
ATOM     73  C   UNL A   1      41.333  31.512  36.455  1.00  0.00     0.135 A 
ATOM     74  F   UNL A   1      39.039  29.672  34.326  1.00  0.00    -0.206 F 
ATOM     75  C   UNL A   1      38.654  31.426  35.784  1.00  0.00     0.059 A 
ATOM     76  C   UNL A   1      40.429  32.376  37.087  1.00  0.00     0.059 A 
ATOM     77  F   UNL A   1      42.604  31.680  36.845  1.00  0.00    -0.206 F 
ATOM     78  C   UNL A   1      39.103  32.373  36.690  1.00  0.00     0.060 A 
BRANCH  78  79
ATOM     79  S   UNL A   1      37.961  33.653  37.240  1.00  0.00     0.124 S 
ATOM     80  O   UNL A   1      36.805  33.404  36.383  1.00  0.00    -0.237 OA
ATOM     81  O   UNL A   1      37.785  33.332  38.652  1.00  0.00    -0.237 OA
ATOM     82  O   UNL A   1      38.680  34.895  36.966  1.00  0.00    -0.744 OA
ENDBRANCH  78  79
ENDBRANCH  57  71
BRANCH  58  83
ATOM     83  C   UNL A   1      47.392  26.808  28.636  1.00  0.00     0.058 A 
ATOM     84  C   UNL A   1      48.075  28.002  28.964  1.00  0.00     0.135 A 
ATOM     85  C   UNL A   1      47.988  26.066  27.607  1.00  0.00     0.135 A 
ATOM     86  F   UNL A   1      47.618  28.774  29.964  1.00  0.00    -0.206 F 
ATOM     87  C   UNL A   1      49.305  28.364  28.386  1.00  0.00     0.059 A 
ATOM     88  C   UNL A   1      49.142  26.471  26.920  1.00  0.00     0.059 A 
ATOM     89  F   UNL A   1      47.573  24.825  27.366  1.00  0.00    -0.206 F 
ATOM     90  C   UNL A   1      49.849  27.570  27.382  1.00  0.00     0.060 A 
BRANCH  90  91
ATOM     91  S   UNL A   1      51.571  27.841  26.882  1.00  0.00     0.124 S 
ATOM     92  O   UNL A   1      51.801  29.229  27.263  1.00  0.00    -0.237 OA
ATOM     93  O   UNL A   1      52.272  26.842  27.689  1.00  0.00    -0.237 OA
ATOM     94  O   UNL A   1      51.559  27.582  25.445  1.00  0.00    -0.744 OA
ENDBRANCH  90  91
ENDBRANCH  58  83
BRANCH  70  95
ATOM     95  C   UNL A   1      46.319  27.088  36.456  1.00  0.00     0.058 A 
ATOM     96  C   UNL A   1      47.223  28.160  36.623  1.00  0.00     0.135 A 
ATOM     97  C   UNL A   1      46.206  26.261  37.588  1.00  0.00     0.135 A 
ATOM     98  F   UNL A   1      47.182  29.246  35.845  1.00  0.00    -0.206 F 
ATOM     99  C   UNL A   1      48.175  28.206  37.638  1.00  0.00     0.059 A 
ATOM    100  C   UNL A   1      47.081  26.344  38.676  1.00  0.00     0.059 A 
ATOM    101  F   UNL A   1      45.229  25.347  37.679  1.00  0.00    -0.206 F 
ATOM    102  C   UNL A   1      48.132  27.250  38.635  1.00  0.00     0.060 A 
BRANCH 102 103
ATOM    103  S   UNL A   1      49.454  27.203  39.854  1.00  0.00     0.124 S 
ATOM    104  O   UNL A   1      49.544  28.610  40.231  1.00  0.00    -0.237 OA
ATOM    105  O   UNL A   1      48.922  26.311  40.880  1.00  0.00    -0.237 OA
ATOM    106  O   UNL A   1      50.589  26.679  39.101  1.00  0.00    -0.744 OA
ENDBRANCH 102 103
ENDBRANCH  70  95
ENDBRANCH  44  45
ENDBRANCH  37  39
ENDBRANCH  36  37
ENDBRANCH  35  36
ENDBRANCH  34  35
ENDBRANCH  33  34
ENDBRANCH  32  33
ENDBRANCH   1  32
TORSDOF 24
ENDMDL
MODEL 3
REMARK VINA RESULT:     -10.3      7.328     12.756
REMARK SMILES Cc1ccc(C(=O)N2CCCC[C@@H]2C(=O)OCCOCCOCCOC(=O)c2ccc(-c3c4nc(c(-c5c(F)cc(S(=O)(=O)[O-])cc5F)c5ccc([nH]5)c(-c5c(F)cc(S(=O)(=O)[O-])cc5F)c5nc(c(-c6c(F)cc(S(=O)(=O)[O-])cc6F)c6ccc3[nH]6)C=C5)C=C4)cc2)cc1S(=O)(=O)N1CCCCC1
REMARK SMILES IDX 20 1 19 2 18 3 17 4 16 5 14 6 15 7 13 8 8 9 9 10 10 11 12 12
REMARK SMILES IDX 11 13 6 14 7 15 5 16 1 17 2 18 3 19 95 20 4 21 94 22 96 23
REMARK SMILES IDX 97 24 98 25 99 26 100 27 104 28 101 29 103 30 102 31 21 32
REMARK SMILES IDX 22 33 23 34 24 35 25 36 26 37 27 38 28 39 29 40 93 41 30 42
REMARK SMILES IDX 92 43 31 44 32 45 33 46 86 47 34 48 91 49 85 50 87 51 35 52
REMARK SMILES IDX 90 53 84 54 83 55 36 57 70 58 49 59 69 60 50 61 53 62 68 63
REMARK SMILES IDX 88 64 51 65 52 66 67 68 89 69 54 70 37 71 38 72 47 73 39 74
REMARK SMILES IDX 40 75 46 76 48 77 41 78 42 79 43 80 44 81 45 82 71 83 72 84
REMARK SMILES IDX 81 85 73 86 74 87 80 88 82 89 75 90 76 91 77 92 78 93 79 94
REMARK SMILES IDX 55 95 56 96 65 97 57 98 58 99 64 100 66 101 59 102 60 103
REMARK SMILES IDX 61 104 62 105 63 106
REMARK H PARENT 87 56 53 67
REMARK Flexibility Score: inf
ROOT
ATOM      1  C   UNL A   1      43.134  26.561  28.840  1.00  0.00     0.188 C 
ENDROOT
BRANCH   1   2
ATOM      2  O   UNL A   1      42.626  27.924  29.008  1.00  0.00    -0.376 OA
BRANCH   2   3
ATOM      3  C   UNL A   1      41.276  28.445  29.373  1.00  0.00     0.202 C 
BRANCH   3   4
ATOM      4  C   UNL A   1      40.072  28.389  30.788  1.00  0.00     0.261 C 
BRANCH   4   5
ATOM      5  O   UNL A   1      38.752  29.549  31.325  1.00  0.00    -0.462 OA
BRANCH   5   6
ATOM      6  C   UNL A   1      37.284  29.898  30.960  1.00  0.00     0.328 C 
ATOM      7  O   UNL A   1      36.269  29.597  31.605  1.00  0.00    -0.250 OA
BRANCH   6   8
ATOM      8  C   UNL A   1      36.810  30.530  29.671  1.00  0.00     0.195 C 
ATOM      9  N   UNL A   1      35.658  31.542  29.776  1.00  0.00    -0.325 N 
ATOM     10  C   UNL A   1      34.728  31.607  28.650  1.00  0.00     0.121 C 
ATOM     11  C   UNL A   1      34.733  30.431  27.691  1.00  0.00     0.022 C 
ATOM     12  C   UNL A   1      36.809  29.501  28.563  1.00  0.00     0.037 C 
ATOM     13  C   UNL A   1      36.153  30.053  27.321  1.00  0.00     0.005 C 
BRANCH   9  14
ATOM     14  C   UNL A   1      35.617  32.812  30.509  1.00  0.00     0.254 C 
ATOM     15  O   UNL A   1      34.571  33.480  30.521  1.00  0.00    -0.269 OA
BRANCH  14  16
ATOM     16  C   UNL A   1      36.650  33.353  31.445  1.00  0.00     0.041 A 
ATOM     17  C   UNL A   1      41.191  34.975  33.749  1.00  0.00     0.046 C 
ATOM     18  C   UNL A   1      39.216  34.302  33.022  1.00  0.00    -0.031 A 
ATOM     19  C   UNL A   1      38.737  34.508  31.526  1.00  0.00     0.005 A 
ATOM     20  C   UNL A   1      37.988  33.536  33.669  1.00  0.00     0.086 A 
ATOM     21  C   UNL A   1      37.683  33.959  30.805  1.00  0.00     0.014 A 
ATOM     22  C   UNL A   1      36.816  33.098  32.832  1.00  0.00     0.035 A 
BRANCH  20  23
ATOM     23  S   UNL A   1      37.497  33.051  35.532  1.00  0.00     0.243 S 
ATOM     24  O   UNL A   1      36.227  33.705  35.775  1.00  0.00    -0.207 OA
ATOM     25  O   UNL A   1      37.561  31.599  35.536  1.00  0.00    -0.207 OA
BRANCH  23  26
ATOM     26  N   UNL A   1      38.518  33.554  36.862  1.00  0.00    -0.198 NA
ATOM     27  C   UNL A   1      39.027  34.938  36.840  1.00  0.00     0.102 C 
ATOM     28  C   UNL A   1      38.831  32.639  37.993  1.00  0.00     0.102 C 
ATOM     29  C   UNL A   1      39.484  35.520  38.182  1.00  0.00     0.017 C 
ATOM     30  C   UNL A   1      39.159  33.317  39.348  1.00  0.00     0.017 C 
ATOM     31  C   UNL A   1      39.012  34.832  39.448  1.00  0.00     0.003 C 
ENDBRANCH  23  26
ENDBRANCH  20  23
ENDBRANCH  14  16
ENDBRANCH   9  14
ENDBRANCH   6   8
ENDBRANCH   5   6
ENDBRANCH   4   5
ENDBRANCH   3   4
ENDBRANCH   2   3
ENDBRANCH   1   2
BRANCH   1  32
ATOM     32  C   UNL A   1      42.396  25.412  29.451  1.00  0.00     0.188 C 
BRANCH  32  33
ATOM     33  O   UNL A   1      42.930  24.301  28.795  1.00  0.00    -0.376 OA
BRANCH  33  34
ATOM     34  C   UNL A   1      42.081  23.246  28.497  1.00  0.00     0.202 C 
BRANCH  34  35
ATOM     35  C   UNL A   1      41.856  23.138  26.999  1.00  0.00     0.261 C 
BRANCH  35  36
ATOM     36  O   UNL A   1      40.813  24.019  26.468  1.00  0.00    -0.460 OA
BRANCH  36  37
ATOM     37  C   UNL A   1      40.995  25.367  26.188  1.00  0.00     0.338 C 
ATOM     38  O   UNL A   1      40.277  26.224  26.680  1.00  0.00    -0.246 OA
BRANCH  37  39
ATOM     39  C   UNL A   1      42.328  25.681  25.586  1.00  0.00     0.060 A 
ATOM     40  C   UNL A   1      43.431  24.865  25.301  1.00  0.00     0.016 A 
ATOM     41  C   UNL A   1      42.521  26.977  25.317  1.00  0.00     0.016 A 
ATOM     42  C   UNL A   1      44.817  25.380  25.181  1.00  0.00     0.010 A 
ATOM     43  C   UNL A   1      43.847  27.412  25.345  1.00  0.00     0.010 A 
ATOM     44  C   UNL A   1      45.162  26.719  25.396  1.00  0.00    -0.014 A 
BRANCH  44  45
ATOM     45  C   UNL A   1      46.861  27.478  25.503  1.00  0.00     0.031 A 
ATOM     46  C   UNL A   1      48.315  27.285  24.391  1.00  0.00     0.074 A 
ATOM     47  C   UNL A   1      47.200  28.362  26.475  1.00  0.00     0.049 A 
ATOM     48  N   UNL A   1      49.212  28.221  24.102  1.00  0.00    -0.248 NA
ATOM     49  C   UNL A   1      48.638  26.161  23.393  1.00  0.00     0.031 C 
ATOM     50  C   UNL A   1      48.278  29.366  26.477  1.00  0.00     0.029 A 
ATOM     51  N   UNL A   1      46.573  28.626  27.690  1.00  0.00    -0.354 N 
ATOM     52  C   UNL A   1      49.966  27.850  22.965  1.00  0.00     0.074 A 
ATOM     53  C   UNL A   1      49.420  26.654  22.452  1.00  0.00     0.031 C 
ATOM     54  C   UNL A   1      48.423  29.859  27.719  1.00  0.00     0.029 A 
ATOM     55  C   UNL A   1      47.576  29.055  28.563  1.00  0.00     0.049 A 
ATOM     56  H   UNL A   1      45.614  28.530  27.894  1.00  0.00     0.167 HD
ATOM     57  C   UNL A   1      51.247  28.185  22.661  1.00  0.00     0.037 A 
ATOM     58  C   UNL A   1      47.992  28.172  29.498  1.00  0.00     0.037 A 
ATOM     59  C   UNL A   1      51.948  28.538  23.858  1.00  0.00     0.049 A 
ATOM     60  C   UNL A   1      49.440  27.759  29.211  1.00  0.00     0.074 A 
ATOM     61  C   UNL A   1      52.048  29.705  24.572  1.00  0.00     0.029 A 
ATOM     62  N   UNL A   1      52.485  27.519  24.626  1.00  0.00    -0.354 N 
ATOM     63  N   UNL A   1      50.421  28.139  27.906  1.00  0.00    -0.248 NA
ATOM     64  C   UNL A   1      50.567  26.641  30.451  1.00  0.00     0.031 C 
ATOM     65  C   UNL A   1      52.527  29.359  25.857  1.00  0.00     0.029 A 
ATOM     66  C   UNL A   1      52.733  27.988  25.901  1.00  0.00     0.049 A 
ATOM     67  H   UNL A   1      52.664  26.602  24.312  1.00  0.00     0.167 HD
ATOM     68  C   UNL A   1      52.064  27.221  28.013  1.00  0.00     0.074 A 
ATOM     69  C   UNL A   1      52.007  26.276  29.702  1.00  0.00     0.031 C 
ATOM     70  C   UNL A   1      52.959  27.057  26.983  1.00  0.00     0.037 A 
BRANCH  57  71
ATOM     71  C   UNL A   1      51.892  28.166  21.273  1.00  0.00     0.058 A 
ATOM     72  C   UNL A   1      51.321  28.997  20.284  1.00  0.00     0.135 A 
ATOM     73  C   UNL A   1      52.867  27.261  20.778  1.00  0.00     0.135 A 
ATOM     74  F   UNL A   1      50.430  29.945  20.604  1.00  0.00    -0.206 F 
ATOM     75  C   UNL A   1      51.572  28.846  18.921  1.00  0.00     0.059 A 
ATOM     76  C   UNL A   1      53.172  27.129  19.416  1.00  0.00     0.059 A 
ATOM     77  F   UNL A   1      53.539  26.411  21.566  1.00  0.00    -0.206 F 
ATOM     78  C   UNL A   1      52.465  27.878  18.490  1.00  0.00     0.060 A 
BRANCH  78  79
ATOM     79  S   UNL A   1      52.592  27.542  16.725  1.00  0.00     0.124 S 
ATOM     80  O   UNL A   1      51.687  28.544  16.169  1.00  0.00    -0.237 OA
ATOM     81  O   UNL A   1      54.012  27.756  16.467  1.00  0.00    -0.237 OA
ATOM     82  O   UNL A   1      52.137  26.160  16.605  1.00  0.00    -0.744 OA
ENDBRANCH  78  79
ENDBRANCH  57  71
BRANCH  58  83
ATOM     83  C   UNL A   1      46.825  27.319  29.978  1.00  0.00     0.058 A 
ATOM     84  C   UNL A   1      46.824  25.927  29.725  1.00  0.00     0.135 A 
ATOM     85  C   UNL A   1      45.962  27.720  31.006  1.00  0.00     0.135 A 
ATOM     86  F   UNL A   1      47.644  25.423  28.787  1.00  0.00    -0.206 F 
ATOM     87  C   UNL A   1      46.102  25.009  30.507  1.00  0.00     0.059 A 
ATOM     88  C   UNL A   1      45.129  26.840  31.714  1.00  0.00     0.059 A 
ATOM     89  F   UNL A   1      46.042  28.958  31.487  1.00  0.00    -0.206 F 
ATOM     90  C   UNL A   1      45.279  25.475  31.526  1.00  0.00     0.060 A 
BRANCH  90  91
ATOM     91  S   UNL A   1      44.624  24.296  32.738  1.00  0.00     0.124 S 
ATOM     92  O   UNL A   1      43.688  25.110  33.503  1.00  0.00    -0.237 OA
ATOM     93  O   UNL A   1      44.017  23.287  31.869  1.00  0.00    -0.237 OA
ATOM     94  O   UNL A   1      45.809  23.855  33.468  1.00  0.00    -0.744 OA
ENDBRANCH  90  91
ENDBRANCH  58  83
BRANCH  70  95
ATOM     95  C   UNL A   1      54.012  25.963  26.993  1.00  0.00     0.058 A 
ATOM     96  C   UNL A   1      55.202  25.993  27.752  1.00  0.00     0.135 A 
ATOM     97  C   UNL A   1      53.855  24.792  26.231  1.00  0.00     0.135 A 
ATOM     98  F   UNL A   1      55.348  26.802  28.806  1.00  0.00    -0.206 F 
ATOM     99  C   UNL A   1      56.283  25.150  27.512  1.00  0.00     0.059 A 
ATOM    100  C   UNL A   1      54.886  23.865  26.048  1.00  0.00     0.059 A 
ATOM    101  F   UNL A   1      52.686  24.504  25.643  1.00  0.00    -0.206 F 
ATOM    102  C   UNL A   1      56.133  24.116  26.607  1.00  0.00     0.060 A 
BRANCH 102 103
ATOM    103  S   UNL A   1      57.570  23.127  26.167  1.00  0.00     0.124 S 
ATOM    104  O   UNL A   1      57.143  21.799  26.599  1.00  0.00    -0.237 OA
ATOM    105  O   UNL A   1      57.668  23.315  24.723  1.00  0.00    -0.237 OA
ATOM    106  O   UNL A   1      58.645  23.727  26.949  1.00  0.00    -0.744 OA
ENDBRANCH 102 103
ENDBRANCH  70  95
ENDBRANCH  44  45
ENDBRANCH  37  39
ENDBRANCH  36  37
ENDBRANCH  35  36
ENDBRANCH  34  35
ENDBRANCH  33  34
ENDBRANCH  32  33
ENDBRANCH   1  32
TORSDOF 24
ENDMDL
