MODEL 1
REMARK VINA RESULT:     -11.0      0.000      0.000
REMARK SMILES NS(=O)(=O)c1ccc(-n2nc(C(F)F)cc2-c2ccc(C(=O)OCCOCCOCCOC(=O)c3ccc(-c4c5nc(c(-c6c(F)cc(S(=O)(=O)[O-])cc6F)c6ccc([nH]6)c(-c6c(F)cc(S(=O)(=O)[O-])cc6F)c6nc(c(-c7c(F)cc(S(=O)(=O)[O-])cc7F)c7ccc4[nH]7)C=C6)C=C5)cc3)cc2)cc1
REMARK SMILES IDX 27 1 26 2 25 3 24 4 23 5 21 6 22 7 20 8 17 9 18 10 102 11
REMARK SMILES IDX 19 12 101 13 16 14 9 15 10 16 11 17 15 18 8 19 5 20 6 21
REMARK SMILES IDX 104 22 7 23 103 24 2 25 3 26 4 27 1 28 12 31 13 32 14 33
REMARK SMILES IDX 28 34 29 35 30 36 31 37 32 38 33 39 34 40 35 41 36 42 100 43
REMARK SMILES IDX 37 44 99 45 38 46 39 47 40 48 93 49 41 50 98 51 92 52 94 53
REMARK SMILES IDX 42 54 97 55 91 56 90 57 43 59 77 60 56 61 76 62 57 63 60 64
REMARK SMILES IDX 75 65 95 66 58 67 59 68 74 70 96 71 61 72 44 73 45 74 54 75
REMARK SMILES IDX 46 76 47 77 53 78 55 79 48 80 49 81 50 82 51 83 52 84 78 85
REMARK SMILES IDX 79 86 88 87 80 88 81 89 87 90 89 91 82 92 83 93 84 94 85 95
REMARK SMILES IDX 86 96 62 97 63 98 72 99 64 100 65 101 71 102 73 103 66 104
REMARK SMILES IDX 67 105 68 106 69 107 70 108
REMARK H PARENT 1 29 1 30 94 58 60 69
REMARK Flexibility Score: inf
ROOT
ATOM      1  C   UNL A   1      33.203  26.932  25.896  1.00  0.00     0.188 C 
ENDROOT
BRANCH   1   2
ATOM      2  O   UNL A   1      34.142  27.478  24.995  1.00  0.00    -0.376 OA
BRANCH   2   3
ATOM      3  C   UNL A   1      33.762  28.420  24.009  1.00  0.00     0.202 C 
BRANCH   3   4
ATOM      4  C   UNL A   1      33.784  28.162  22.488  1.00  0.00     0.261 C 
BRANCH   4   5
ATOM      5  O   UNL A   1      33.581  26.817  22.048  1.00  0.00    -0.460 OA
BRANCH   5   6
ATOM      6  C   UNL A   1      32.375  26.280  22.338  1.00  0.00     0.338 C 
ATOM      7  O   UNL A   1      31.287  26.822  22.230  1.00  0.00    -0.246 OA
BRANCH   6   8
ATOM      8  C   UNL A   1      32.521  24.840  22.654  1.00  0.00     0.060 A 
ATOM      9  C   UNL A   1      32.805  22.165  23.453  1.00  0.00     0.000 A 
ATOM     10  C   UNL A   1      31.867  22.998  24.081  1.00  0.00     0.011 A 
ATOM     11  C   UNL A   1      33.552  22.669  22.378  1.00  0.00     0.011 A 
ATOM     12  C   UNL A   1      31.731  24.328  23.688  1.00  0.00     0.016 A 
ATOM     13  C   UNL A   1      33.405  24.002  21.969  1.00  0.00     0.016 A 
BRANCH   9  14
ATOM     14  C   UNL A   1      33.104  20.848  24.021  1.00  0.00     0.075 A 
ATOM     15  N   UNL A   1      34.313  20.438  24.572  1.00  0.00    -0.233 N 
ATOM     16  N   UNL A   1      34.414  19.084  24.613  1.00  0.00    -0.166 NA
ATOM     17  C   UNL A   1      33.189  18.633  24.298  1.00  0.00     0.129 A 
ATOM     18  C   UNL A   1      32.347  19.696  23.904  1.00  0.00     0.060 A 
BRANCH  15  19
ATOM     19  C   UNL A   1      35.381  21.249  25.029  1.00  0.00     0.065 A 
ATOM     20  C   UNL A   1      37.460  22.794  26.043  1.00  0.00     0.082 A 
ATOM     21  C   UNL A   1      37.746  21.586  25.396  1.00  0.00     0.024 A 
ATOM     22  C   UNL A   1      36.143  23.246  26.168  1.00  0.00     0.024 A 
ATOM     23  C   UNL A   1      36.703  20.804  24.900  1.00  0.00     0.030 A 
ATOM     24  C   UNL A   1      35.102  22.485  25.631  1.00  0.00     0.030 A 
BRANCH  20  25
ATOM     25  S   UNL A   1      38.822  23.703  26.713  1.00  0.00     0.238 S 
ATOM     26  O   UNL A   1      39.896  22.777  26.956  1.00  0.00    -0.207 OA
ATOM     27  O   UNL A   1      38.293  24.599  27.719  1.00  0.00    -0.207 OA
BRANCH  25  28
ATOM     28  N   UNL A   1      39.338  24.701  25.459  1.00  0.00    -0.225 NA
ATOM     29  H   UNL A   1      38.795  25.564  25.467  1.00  0.00     0.137 HD
ATOM     30  H   UNL A   1      39.205  24.223  24.568  1.00  0.00     0.137 HD
ENDBRANCH  25  28
ENDBRANCH  20  25
ENDBRANCH  15  19
BRANCH  17  31
ATOM     31  C   UNL A   1      32.825  17.178  24.319  1.00  0.00     0.393 C 
ATOM     32  F   UNL A   1      33.827  16.372  23.877  1.00  0.00    -0.203 F 
ATOM     33  F   UNL A   1      32.509  16.758  25.575  1.00  0.00    -0.203 F 
ENDBRANCH  17  31
ENDBRANCH   9  14
ENDBRANCH   6   8
ENDBRANCH   5   6
ENDBRANCH   4   5
ENDBRANCH   3   4
ENDBRANCH   2   3
ENDBRANCH   1   2
BRANCH   1  34
ATOM     34  C   UNL A   1      31.842  27.617  26.135  1.00  0.00     0.188 C 
BRANCH  34  35
ATOM     35  O   UNL A   1      31.719  28.542  27.192  1.00  0.00    -0.376 OA
BRANCH  35  36
ATOM     36  C   UNL A   1      31.972  29.931  27.064  1.00  0.00     0.202 C 
BRANCH  36  37
ATOM     37  C   UNL A   1      33.310  30.587  26.726  1.00  0.00     0.261 C 
BRANCH  37  38
ATOM     38  O   UNL A   1      34.411  30.210  27.514  1.00  0.00    -0.460 OA
BRANCH  38  39
ATOM     39  C   UNL A   1      35.144  31.269  27.911  1.00  0.00     0.338 C 
ATOM     40  O   UNL A   1      35.052  32.419  27.515  1.00  0.00    -0.246 OA
BRANCH  39  41
ATOM     41  C   UNL A   1      36.162  30.808  28.844  1.00  0.00     0.060 A 
ATOM     42  C   UNL A   1      37.046  31.777  29.317  1.00  0.00     0.016 A 
ATOM     43  C   UNL A   1      36.450  29.437  28.851  1.00  0.00     0.016 A 
ATOM     44  C   UNL A   1      38.342  31.393  29.549  1.00  0.00     0.010 A 
ATOM     45  C   UNL A   1      37.749  29.063  29.050  1.00  0.00     0.010 A 
ATOM     46  C   UNL A   1      38.689  30.063  29.301  1.00  0.00    -0.014 A 
BRANCH  46  47
ATOM     47  C   UNL A   1      40.076  29.689  29.446  1.00  0.00     0.031 A 
ATOM     48  C   UNL A   1      40.473  29.704  30.868  1.00  0.00     0.074 A 
ATOM     49  C   UNL A   1      40.799  29.263  28.392  1.00  0.00     0.049 A 
ATOM     50  N   UNL A   1      41.269  30.533  31.455  1.00  0.00    -0.248 NA
ATOM     51  C   UNL A   1      39.690  28.870  31.802  1.00  0.00     0.031 C 
ATOM     52  C   UNL A   1      40.321  29.015  27.028  1.00  0.00     0.029 A 
ATOM     53  N   UNL A   1      42.090  28.840  28.337  1.00  0.00    -0.354 N 
ATOM     54  C   UNL A   1      41.318  30.094  32.773  1.00  0.00     0.074 A 
ATOM     55  C   UNL A   1      40.135  29.309  32.978  1.00  0.00     0.031 C 
ATOM     56  C   UNL A   1      41.233  28.268  26.365  1.00  0.00     0.029 A 
ATOM     57  C   UNL A   1      42.392  28.070  27.215  1.00  0.00     0.049 A 
ATOM     58  H   UNL A   1      42.755  29.060  29.030  1.00  0.00     0.167 HD
ATOM     59  C   UNL A   1      42.512  30.058  33.422  1.00  0.00     0.037 A 
ATOM     60  C   UNL A   1      43.471  27.252  27.071  1.00  0.00     0.037 A 
ATOM     61  C   UNL A   1      43.452  30.969  32.807  1.00  0.00     0.049 A 
ATOM     62  C   UNL A   1      44.473  27.678  28.089  1.00  0.00     0.074 A 
ATOM     63  C   UNL A   1      43.437  32.314  32.486  1.00  0.00     0.029 A 
ATOM     64  N   UNL A   1      44.470  30.418  32.066  1.00  0.00    -0.354 N 
ATOM     65  N   UNL A   1      45.096  28.826  28.058  1.00  0.00    -0.248 NA
ATOM     66  C   UNL A   1      44.422  27.037  29.394  1.00  0.00     0.031 C 
ATOM     67  C   UNL A   1      44.144  32.415  31.252  1.00  0.00     0.029 A 
ATOM     68  C   UNL A   1      44.619  31.147  30.918  1.00  0.00     0.049 A 
ATOM     69  H   UNL A   1      45.002  29.629  32.320  1.00  0.00     0.167 HD
ATOM     70  C   UNL A   1      45.113  29.254  29.378  1.00  0.00     0.074 A 
ATOM     71  C   UNL A   1      44.763  28.073  30.164  1.00  0.00     0.031 C 
ATOM     72  C   UNL A   1      45.112  30.587  29.679  1.00  0.00     0.037 A 
BRANCH  59  73
ATOM     73  C   UNL A   1      42.961  28.861  34.246  1.00  0.00     0.058 A 
ATOM     74  C   UNL A   1      42.927  27.589  33.639  1.00  0.00     0.135 A 
ATOM     75  C   UNL A   1      43.118  28.848  35.653  1.00  0.00     0.135 A 
ATOM     76  F   UNL A   1      42.799  27.473  32.306  1.00  0.00    -0.206 F 
ATOM     77  C   UNL A   1      42.924  26.407  34.378  1.00  0.00     0.059 A 
ATOM     78  C   UNL A   1      43.167  27.682  36.403  1.00  0.00     0.059 A 
ATOM     79  F   UNL A   1      43.153  29.953  36.404  1.00  0.00    -0.206 F 
ATOM     80  C   UNL A   1      43.025  26.468  35.763  1.00  0.00     0.060 A 
BRANCH  80  81
ATOM     81  S   UNL A   1      42.936  24.957  36.730  1.00  0.00     0.124 S 
ATOM     82  O   UNL A   1      41.512  24.892  37.033  1.00  0.00    -0.237 OA
ATOM     83  O   UNL A   1      43.440  23.969  35.783  1.00  0.00    -0.237 OA
ATOM     84  O   UNL A   1      43.814  25.233  37.864  1.00  0.00    -0.744 OA
ENDBRANCH  80  81
ENDBRANCH  59  73
BRANCH  60  85
ATOM     85  C   UNL A   1      43.539  25.924  26.393  1.00  0.00     0.058 A 
ATOM     86  C   UNL A   1      44.486  25.673  25.378  1.00  0.00     0.135 A 
ATOM     87  C   UNL A   1      42.878  24.789  26.904  1.00  0.00     0.135 A 
ATOM     88  F   UNL A   1      45.181  26.685  24.839  1.00  0.00    -0.206 F 
ATOM     89  C   UNL A   1      44.793  24.376  24.941  1.00  0.00     0.059 A 
ATOM     90  C   UNL A   1      43.155  23.492  26.473  1.00  0.00     0.059 A 
ATOM     91  F   UNL A   1      41.998  24.888  27.910  1.00  0.00    -0.206 F 
ATOM     92  C   UNL A   1      44.135  23.289  25.511  1.00  0.00     0.060 A 
BRANCH  92  93
ATOM     93  S   UNL A   1      44.645  21.604  25.088  1.00  0.00     0.124 S 
ATOM     94  O   UNL A   1      45.967  21.527  25.700  1.00  0.00    -0.237 OA
ATOM     95  O   UNL A   1      43.603  20.797  25.714  1.00  0.00    -0.237 OA
ATOM     96  O   UNL A   1      44.635  21.604  23.627  1.00  0.00    -0.744 OA
ENDBRANCH  92  93
ENDBRANCH  60  85
BRANCH  72  97
ATOM     97  C   UNL A   1      45.475  31.564  28.592  1.00  0.00     0.058 A 
ATOM     98  C   UNL A   1      44.590  32.062  27.619  1.00  0.00     0.135 A 
ATOM     99  C   UNL A   1      46.767  32.108  28.619  1.00  0.00     0.135 A 
ATOM    100  F   UNL A   1      43.304  31.675  27.592  1.00  0.00    -0.206 F 
ATOM    101  C   UNL A   1      44.992  33.017  26.682  1.00  0.00     0.059 A 
ATOM    102  C   UNL A   1      47.179  33.084  27.720  1.00  0.00     0.059 A 
ATOM    103  F   UNL A   1      47.641  31.720  29.564  1.00  0.00    -0.206 F 
ATOM    104  C   UNL A   1      46.293  33.518  26.738  1.00  0.00     0.060 A 
BRANCH 104 105
ATOM    105  S   UNL A   1      46.813  34.776  25.552  1.00  0.00     0.124 S 
ATOM    106  O   UNL A   1      46.544  36.013  26.276  1.00  0.00    -0.237 OA
ATOM    107  O   UNL A   1      48.222  34.454  25.345  1.00  0.00    -0.237 OA
ATOM    108  O   UNL A   1      45.953  34.533  24.395  1.00  0.00    -0.744 OA
ENDBRANCH 104 105
ENDBRANCH  72  97
ENDBRANCH  46  47
ENDBRANCH  39  41
ENDBRANCH  38  39
ENDBRANCH  37  38
ENDBRANCH  36  37
ENDBRANCH  35  36
ENDBRANCH  34  35
ENDBRANCH   1  34
TORSDOF 25
ENDMDL
MODEL 2
REMARK VINA RESULT:     -10.8      0.698      1.446
REMARK SMILES NS(=O)(=O)c1ccc(-n2nc(C(F)F)cc2-c2ccc(C(=O)OCCOCCOCCOC(=O)c3ccc(-c4c5nc(c(-c6c(F)cc(S(=O)(=O)[O-])cc6F)c6ccc([nH]6)c(-c6c(F)cc(S(=O)(=O)[O-])cc6F)c6nc(c(-c7c(F)cc(S(=O)(=O)[O-])cc7F)c7ccc4[nH]7)C=C6)C=C5)cc3)cc2)cc1
REMARK SMILES IDX 27 1 26 2 25 3 24 4 23 5 21 6 22 7 20 8 17 9 18 10 102 11
REMARK SMILES IDX 19 12 101 13 16 14 9 15 10 16 11 17 15 18 8 19 5 20 6 21
REMARK SMILES IDX 104 22 7 23 103 24 2 25 3 26 4 27 1 28 12 31 13 32 14 33
REMARK SMILES IDX 28 34 29 35 30 36 31 37 32 38 33 39 34 40 35 41 36 42 100 43
REMARK SMILES IDX 37 44 99 45 38 46 39 47 40 48 93 49 41 50 98 51 92 52 94 53
REMARK SMILES IDX 42 54 97 55 91 56 90 57 43 59 77 60 56 61 76 62 57 63 60 64
REMARK SMILES IDX 75 65 95 66 58 67 59 68 74 70 96 71 61 72 44 73 45 74 54 75
REMARK SMILES IDX 46 76 47 77 53 78 55 79 48 80 49 81 50 82 51 83 52 84 78 85
REMARK SMILES IDX 79 86 88 87 80 88 81 89 87 90 89 91 82 92 83 93 84 94 85 95
REMARK SMILES IDX 86 96 62 97 63 98 72 99 64 100 65 101 71 102 73 103 66 104
REMARK SMILES IDX 67 105 68 106 69 107 70 108
REMARK H PARENT 1 29 1 30 94 58 60 69
REMARK Flexibility Score: inf
ROOT
ATOM      1  C   UNL A   1      33.403  27.179  25.891  1.00  0.00     0.188 C 
ENDROOT
BRANCH   1   2
ATOM      2  O   UNL A   1      34.277  27.841  25.002  1.00  0.00    -0.376 OA
BRANCH   2   3
ATOM      3  C   UNL A   1      33.790  28.641  23.941  1.00  0.00     0.202 C 
BRANCH   3   4
ATOM      4  C   UNL A   1      33.845  28.255  22.448  1.00  0.00     0.261 C 
BRANCH   4   5
ATOM      5  O   UNL A   1      33.686  26.872  22.122  1.00  0.00    -0.460 OA
BRANCH   5   6
ATOM      6  C   UNL A   1      32.458  26.352  22.348  1.00  0.00     0.338 C 
ATOM      7  O   UNL A   1      31.386  26.902  22.165  1.00  0.00    -0.246 OA
BRANCH   6   8
ATOM      8  C   UNL A   1      32.570  24.917  22.701  1.00  0.00     0.060 A 
ATOM      9  C   UNL A   1      32.805  22.258  23.565  1.00  0.00     0.000 A 
ATOM     10  C   UNL A   1      31.955  23.150  24.235  1.00  0.00     0.011 A 
ATOM     11  C   UNL A   1      33.486  22.696  22.419  1.00  0.00     0.011 A 
ATOM     12  C   UNL A   1      31.843  24.472  23.810  1.00  0.00     0.016 A 
ATOM     13  C   UNL A   1      33.362  24.021  21.978  1.00  0.00     0.016 A 
BRANCH   9  14
ATOM     14  C   UNL A   1      33.094  20.947  24.152  1.00  0.00     0.075 A 
ATOM     15  N   UNL A   1      34.311  20.521  24.673  1.00  0.00    -0.233 N 
ATOM     16  N   UNL A   1      34.383  19.166  24.741  1.00  0.00    -0.166 NA
ATOM     17  C   UNL A   1      33.140  18.737  24.476  1.00  0.00     0.129 A 
ATOM     18  C   UNL A   1      32.308  19.810  24.085  1.00  0.00     0.060 A 
BRANCH  15  19
ATOM     19  C   UNL A   1      35.411  21.318  25.078  1.00  0.00     0.065 A 
ATOM     20  C   UNL A   1      37.576  22.814  25.980  1.00  0.00     0.082 A 
ATOM     21  C   UNL A   1      37.789  21.752  25.095  1.00  0.00     0.024 A 
ATOM     22  C   UNL A   1      36.285  23.148  26.401  1.00  0.00     0.024 A 
ATOM     23  C   UNL A   1      36.706  20.992  24.652  1.00  0.00     0.030 A 
ATOM     24  C   UNL A   1      35.195  22.416  25.923  1.00  0.00     0.030 A 
BRANCH  20  25
ATOM     25  S   UNL A   1      38.999  23.692  26.559  1.00  0.00     0.238 S 
ATOM     26  O   UNL A   1      39.254  24.773  25.644  1.00  0.00    -0.207 OA
ATOM     27  O   UNL A   1      39.991  22.709  26.936  1.00  0.00    -0.207 OA
BRANCH  25  28
ATOM     28  N   UNL A   1      38.510  24.405  28.004  1.00  0.00    -0.225 NA
ATOM     29  H   UNL A   1      37.796  25.107  27.812  1.00  0.00     0.137 HD
ATOM     30  H   UNL A   1      39.312  24.848  28.452  1.00  0.00     0.137 HD
ENDBRANCH  25  28
ENDBRANCH  20  25
ENDBRANCH  15  19
BRANCH  17  31
ATOM     31  C   UNL A   1      32.744  17.292  24.540  1.00  0.00     0.393 C 
ATOM     32  F   UNL A   1      33.014  16.614  23.392  1.00  0.00    -0.203 F 
ATOM     33  F   UNL A   1      33.393  16.638  25.543  1.00  0.00    -0.203 F 
ENDBRANCH  17  31
ENDBRANCH   9  14
ENDBRANCH   6   8
ENDBRANCH   5   6
ENDBRANCH   4   5
ENDBRANCH   3   4
ENDBRANCH   2   3
ENDBRANCH   1   2
BRANCH   1  34
ATOM     34  C   UNL A   1      31.976  27.708  26.140  1.00  0.00     0.188 C 
BRANCH  34  35
ATOM     35  O   UNL A   1      31.777  28.700  27.122  1.00  0.00    -0.376 OA
BRANCH  35  36
ATOM     36  C   UNL A   1      31.892  30.092  26.878  1.00  0.00     0.202 C 
BRANCH  36  37
ATOM     37  C   UNL A   1      33.188  30.895  26.770  1.00  0.00     0.261 C 
BRANCH  37  38
ATOM     38  O   UNL A   1      34.302  30.385  27.460  1.00  0.00    -0.460 OA
BRANCH  38  39
ATOM     39  C   UNL A   1      35.150  31.356  27.852  1.00  0.00     0.338 C 
ATOM     40  O   UNL A   1      35.196  32.505  27.444  1.00  0.00    -0.246 OA
BRANCH  39  41
ATOM     41  C   UNL A   1      36.100  30.790  28.800  1.00  0.00     0.060 A 
ATOM     42  C   UNL A   1      36.923  31.700  29.463  1.00  0.00     0.016 A 
ATOM     43  C   UNL A   1      36.416  29.433  28.656  1.00  0.00     0.016 A 
ATOM     44  C   UNL A   1      38.203  31.304  29.749  1.00  0.00     0.010 A 
ATOM     45  C   UNL A   1      37.703  29.051  28.911  1.00  0.00     0.010 A 
ATOM     46  C   UNL A   1      38.598  30.020  29.363  1.00  0.00    -0.014 A 
BRANCH  46  47
ATOM     47  C   UNL A   1      39.976  29.646  29.573  1.00  0.00     0.031 A 
ATOM     48  C   UNL A   1      40.269  29.523  31.014  1.00  0.00     0.074 A 
ATOM     49  C   UNL A   1      40.781  29.333  28.538  1.00  0.00     0.049 A 
ATOM     50  N   UNL A   1      41.007  30.297  31.738  1.00  0.00    -0.248 NA
ATOM     51  C   UNL A   1      39.434  28.594  31.802  1.00  0.00     0.031 C 
ATOM     52  C   UNL A   1      40.407  29.217  27.125  1.00  0.00     0.029 A 
ATOM     53  N   UNL A   1      42.079  28.929  28.537  1.00  0.00    -0.354 N 
ATOM     54  C   UNL A   1      40.967  29.730  33.006  1.00  0.00     0.074 A 
ATOM     55  C   UNL A   1      39.786  28.918  33.045  1.00  0.00     0.031 C 
ATOM     56  C   UNL A   1      41.376  28.547  26.460  1.00  0.00     0.029 A 
ATOM     57  C   UNL A   1      42.474  28.277  27.371  1.00  0.00     0.049 A 
ATOM     58  H   UNL A   1      42.688  29.084  29.295  1.00  0.00     0.167 HD
ATOM     59  C   UNL A   1      42.112  29.640  33.734  1.00  0.00     0.037 A 
ATOM     60  C   UNL A   1      43.574  27.486  27.227  1.00  0.00     0.037 A 
ATOM     61  C   UNL A   1      43.079  30.616  33.283  1.00  0.00     0.049 A 
ATOM     62  C   UNL A   1      44.492  27.818  28.352  1.00  0.00     0.074 A 
ATOM     63  C   UNL A   1      43.066  31.986  33.095  1.00  0.00     0.029 A 
ATOM     64  N   UNL A   1      44.157  30.150  32.568  1.00  0.00    -0.354 N 
ATOM     65  N   UNL A   1      45.097  28.968  28.480  1.00  0.00    -0.248 NA
ATOM     66  C   UNL A   1      44.356  27.050  29.581  1.00  0.00     0.031 C 
ATOM     67  C   UNL A   1      43.858  32.215  31.932  1.00  0.00     0.029 A 
ATOM     68  C   UNL A   1      44.377  30.990  31.512  1.00  0.00     0.049 A 
ATOM     69  H   UNL A   1      44.682  29.345  32.782  1.00  0.00     0.167 HD
ATOM     70  C   UNL A   1      45.011  29.264  29.834  1.00  0.00     0.074 A 
ATOM     71  C   UNL A   1      44.625  28.008  30.472  1.00  0.00     0.031 C 
ATOM     72  C   UNL A   1      44.968  30.561  30.264  1.00  0.00     0.037 A 
BRANCH  59  73
ATOM     73  C   UNL A   1      42.519  28.371  34.468  1.00  0.00     0.058 A 
ATOM     74  C   UNL A   1      42.832  28.470  35.839  1.00  0.00     0.135 A 
ATOM     75  C   UNL A   1      42.915  27.160  33.850  1.00  0.00     0.135 A 
ATOM     76  F   UNL A   1      42.491  29.566  36.537  1.00  0.00    -0.206 F 
ATOM     77  C   UNL A   1      43.580  27.503  36.507  1.00  0.00     0.059 A 
ATOM     78  C   UNL A   1      43.617  26.163  34.510  1.00  0.00     0.059 A 
ATOM     79  F   UNL A   1      42.722  26.892  32.556  1.00  0.00    -0.206 F 
ATOM     80  C   UNL A   1      43.985  26.361  35.826  1.00  0.00     0.060 A 
BRANCH  80  81
ATOM     81  S   UNL A   1      45.022  25.150  36.653  1.00  0.00     0.124 S 
ATOM     82  O   UNL A   1      44.185  24.779  37.786  1.00  0.00    -0.237 OA
ATOM     83  O   UNL A   1      45.184  24.140  35.613  1.00  0.00    -0.237 OA
ATOM     84  O   UNL A   1      46.229  25.908  36.975  1.00  0.00    -0.744 OA
ENDBRANCH  80  81
ENDBRANCH  59  73
BRANCH  60  85
ATOM     85  C   UNL A   1      43.712  26.232  26.428  1.00  0.00     0.058 A 
ATOM     86  C   UNL A   1      44.804  26.042  25.557  1.00  0.00     0.135 A 
ATOM     87  C   UNL A   1      42.942  25.083  26.701  1.00  0.00     0.135 A 
ATOM     88  F   UNL A   1      45.609  27.070  25.248  1.00  0.00    -0.206 F 
ATOM     89  C   UNL A   1      45.139  24.784  25.036  1.00  0.00     0.059 A 
ATOM     90  C   UNL A   1      43.247  23.826  26.182  1.00  0.00     0.059 A 
ATOM     91  F   UNL A   1      41.913  25.121  27.558  1.00  0.00    -0.206 F 
ATOM     92  C   UNL A   1      44.365  23.676  25.372  1.00  0.00     0.060 A 
BRANCH  92  93
ATOM     93  S   UNL A   1      44.886  22.021  24.857  1.00  0.00     0.124 S 
ATOM     94  O   UNL A   1      44.056  21.167  25.699  1.00  0.00    -0.237 OA
ATOM     95  O   UNL A   1      44.564  22.022  23.434  1.00  0.00    -0.237 OA
ATOM     96  O   UNL A   1      46.314  22.003  25.168  1.00  0.00    -0.744 OA
ENDBRANCH  92  93
ENDBRANCH  60  85
BRANCH  72  97
ATOM     97  C   UNL A   1      45.392  31.644  29.307  1.00  0.00     0.058 A 
ATOM     98  C   UNL A   1      46.705  32.122  29.153  1.00  0.00     0.135 A 
ATOM     99  C   UNL A   1      44.423  32.135  28.419  1.00  0.00     0.135 A 
ATOM    100  F   UNL A   1      47.713  31.624  29.887  1.00  0.00    -0.206 F 
ATOM    101  C   UNL A   1      47.026  33.087  28.194  1.00  0.00     0.059 A 
ATOM    102  C   UNL A   1      44.726  33.069  27.436  1.00  0.00     0.059 A 
ATOM    103  F   UNL A   1      43.163  31.671  28.475  1.00  0.00    -0.206 F 
ATOM    104  C   UNL A   1      46.026  33.558  27.343  1.00  0.00     0.060 A 
BRANCH 104 105
ATOM    105  S   UNL A   1      46.437  34.782  26.081  1.00  0.00     0.124 S 
ATOM    106  O   UNL A   1      46.763  35.955  26.884  1.00  0.00    -0.237 OA
ATOM    107  O   UNL A   1      47.558  34.156  25.386  1.00  0.00    -0.237 OA
ATOM    108  O   UNL A   1      45.210  34.888  25.294  1.00  0.00    -0.744 OA
ENDBRANCH 104 105
ENDBRANCH  72  97
ENDBRANCH  46  47
ENDBRANCH  39  41
ENDBRANCH  38  39
ENDBRANCH  37  38
ENDBRANCH  36  37
ENDBRANCH  35  36
ENDBRANCH  34  35
ENDBRANCH   1  34
TORSDOF 25
ENDMDL
MODEL 3
REMARK VINA RESULT:     -10.1      2.174      3.552
REMARK SMILES NS(=O)(=O)c1ccc(-n2nc(C(F)F)cc2-c2ccc(C(=O)OCCOCCOCCOC(=O)c3ccc(-c4c5nc(c(-c6c(F)cc(S(=O)(=O)[O-])cc6F)c6ccc([nH]6)c(-c6c(F)cc(S(=O)(=O)[O-])cc6F)c6nc(c(-c7c(F)cc(S(=O)(=O)[O-])cc7F)c7ccc4[nH]7)C=C6)C=C5)cc3)cc2)cc1
REMARK SMILES IDX 27 1 26 2 25 3 24 4 23 5 21 6 22 7 20 8 17 9 18 10 102 11
REMARK SMILES IDX 19 12 101 13 16 14 9 15 10 16 11 17 15 18 8 19 5 20 6 21
REMARK SMILES IDX 104 22 7 23 103 24 2 25 3 26 4 27 1 28 12 31 13 32 14 33
REMARK SMILES IDX 28 34 29 35 30 36 31 37 32 38 33 39 34 40 35 41 36 42 100 43
REMARK SMILES IDX 37 44 99 45 38 46 39 47 40 48 93 49 41 50 98 51 92 52 94 53
REMARK SMILES IDX 42 54 97 55 91 56 90 57 43 59 77 60 56 61 76 62 57 63 60 64
REMARK SMILES IDX 75 65 95 66 58 67 59 68 74 70 96 71 61 72 44 73 45 74 54 75
REMARK SMILES IDX 46 76 47 77 53 78 55 79 48 80 49 81 50 82 51 83 52 84 78 85
REMARK SMILES IDX 79 86 88 87 80 88 81 89 87 90 89 91 82 92 83 93 84 94 85 95
REMARK SMILES IDX 86 96 62 97 63 98 72 99 64 100 65 101 71 102 73 103 66 104
REMARK SMILES IDX 67 105 68 106 69 107 70 108
REMARK H PARENT 1 29 1 30 94 58 60 69
REMARK Flexibility Score: inf
ROOT
ATOM      1  C   UNL A   1      30.578  30.002  24.160  1.00  0.00     0.188 C 
ENDROOT
BRANCH   1   2
ATOM      2  O   UNL A   1      29.802  28.942  23.644  1.00  0.00    -0.376 OA
BRANCH   2   3
ATOM      3  C   UNL A   1      30.146  28.292  22.434  1.00  0.00     0.202 C 
BRANCH   3   4
ATOM      4  C   UNL A   1      30.724  26.865  22.333  1.00  0.00     0.261 C 
BRANCH   4   5
ATOM      5  O   UNL A   1      31.668  26.468  23.330  1.00  0.00    -0.460 OA
BRANCH   5   6
ATOM      6  C   UNL A   1      31.655  25.158  23.663  1.00  0.00     0.338 C 
ATOM      7  O   UNL A   1      30.729  24.376  23.524  1.00  0.00    -0.246 OA
BRANCH   6   8
ATOM      8  C   UNL A   1      33.010  24.724  24.078  1.00  0.00     0.060 A 
ATOM      9  C   UNL A   1      35.547  23.733  24.753  1.00  0.00     0.000 A 
ATOM     10  C   UNL A   1      35.110  23.719  23.420  1.00  0.00     0.011 A 
ATOM     11  C   UNL A   1      34.725  24.309  25.733  1.00  0.00     0.011 A 
ATOM     12  C   UNL A   1      33.848  24.205  23.086  1.00  0.00     0.016 A 
ATOM     13  C   UNL A   1      33.461  24.816  25.397  1.00  0.00     0.016 A 
BRANCH   9  14
ATOM     14  C   UNL A   1      36.768  23.015  25.127  1.00  0.00     0.075 A 
ATOM     15  N   UNL A   1      36.880  21.655  25.396  1.00  0.00    -0.233 N 
ATOM     16  N   UNL A   1      38.000  21.374  26.111  1.00  0.00    -0.166 NA
ATOM     17  C   UNL A   1      38.712  22.511  26.106  1.00  0.00     0.129 A 
ATOM     18  C   UNL A   1      37.974  23.565  25.520  1.00  0.00     0.060 A 
BRANCH  15  19
ATOM     19  C   UNL A   1      35.977  20.620  25.043  1.00  0.00     0.065 A 
ATOM     20  C   UNL A   1      34.206  18.553  24.472  1.00  0.00     0.082 A 
ATOM     21  C   UNL A   1      33.716  19.846  24.683  1.00  0.00     0.024 A 
ATOM     22  C   UNL A   1      35.578  18.288  24.525  1.00  0.00     0.024 A 
ATOM     23  C   UNL A   1      34.602  20.881  24.983  1.00  0.00     0.030 A 
ATOM     24  C   UNL A   1      36.470  19.334  24.780  1.00  0.00     0.030 A 
BRANCH  20  25
ATOM     25  S   UNL A   1      33.024  17.272  24.168  1.00  0.00     0.238 S 
ATOM     26  O   UNL A   1      31.961  17.413  25.127  1.00  0.00    -0.207 OA
ATOM     27  O   UNL A   1      33.760  16.043  23.960  1.00  0.00    -0.207 OA
BRANCH  25  28
ATOM     28  N   UNL A   1      32.356  17.645  22.668  1.00  0.00    -0.225 NA
ATOM     29  H   UNL A   1      32.475  16.854  22.036  1.00  0.00     0.137 HD
ATOM     30  H   UNL A   1      32.826  18.464  22.281  1.00  0.00     0.137 HD
ENDBRANCH  25  28
ENDBRANCH  20  25
ENDBRANCH  15  19
BRANCH  17  31
ATOM     31  C   UNL A   1      40.081  22.620  26.707  1.00  0.00     0.393 C 
ATOM     32  F   UNL A   1      40.089  23.273  27.900  1.00  0.00    -0.203 F 
ATOM     33  F   UNL A   1      40.632  21.394  26.927  1.00  0.00    -0.203 F 
ENDBRANCH  17  31
ENDBRANCH   9  14
ENDBRANCH   6   8
ENDBRANCH   5   6
ENDBRANCH   4   5
ENDBRANCH   3   4
ENDBRANCH   2   3
ENDBRANCH   1   2
BRANCH   1  34
ATOM     34  C   UNL A   1      31.571  29.768  25.315  1.00  0.00     0.188 C 
BRANCH  34  35
ATOM     35  O   UNL A   1      31.667  30.731  26.341  1.00  0.00    -0.376 OA
BRANCH  35  36
ATOM     36  C   UNL A   1      32.759  30.828  27.240  1.00  0.00     0.202 C 
BRANCH  36  37
ATOM     37  C   UNL A   1      33.781  29.736  27.553  1.00  0.00     0.261 C 
BRANCH  37  38
ATOM     38  O   UNL A   1      35.077  29.924  27.042  1.00  0.00    -0.460 OA
BRANCH  38  39
ATOM     39  C   UNL A   1      35.734  30.922  27.665  1.00  0.00     0.338 C 
ATOM     40  O   UNL A   1      35.656  32.116  27.430  1.00  0.00    -0.246 OA
BRANCH  39  41
ATOM     41  C   UNL A   1      36.655  30.340  28.632  1.00  0.00     0.060 A 
ATOM     42  C   UNL A   1      37.313  31.239  29.472  1.00  0.00     0.016 A 
ATOM     43  C   UNL A   1      37.129  29.049  28.368  1.00  0.00     0.016 A 
ATOM     44  C   UNL A   1      38.599  30.939  29.836  1.00  0.00     0.010 A 
ATOM     45  C   UNL A   1      38.424  28.768  28.703  1.00  0.00     0.010 A 
ATOM     46  C   UNL A   1      39.164  29.757  29.348  1.00  0.00    -0.014 A 
BRANCH  46  47
ATOM     47  C   UNL A   1      40.552  29.499  29.649  1.00  0.00     0.031 A 
ATOM     48  C   UNL A   1      40.800  29.607  31.101  1.00  0.00     0.074 A 
ATOM     49  C   UNL A   1      41.409  29.084  28.695  1.00  0.00     0.049 A 
ATOM     50  N   UNL A   1      41.469  30.520  31.721  1.00  0.00    -0.248 NA
ATOM     51  C   UNL A   1      39.987  28.757  31.995  1.00  0.00     0.031 C 
ATOM     52  C   UNL A   1      41.093  28.740  27.305  1.00  0.00     0.029 A 
ATOM     53  N   UNL A   1      42.726  28.760  28.791  1.00  0.00    -0.354 N 
ATOM     54  C   UNL A   1      41.413  30.144  33.058  1.00  0.00     0.074 A 
ATOM     55  C   UNL A   1      40.276  29.280  33.185  1.00  0.00     0.031 C 
ATOM     56  C   UNL A   1      42.120  28.037  26.775  1.00  0.00     0.029 A 
ATOM     57  C   UNL A   1      43.197  27.967  27.746  1.00  0.00     0.049 A 
ATOM     58  H   UNL A   1      43.298  29.061  29.534  1.00  0.00     0.167 HD
ATOM     59  C   UNL A   1      42.535  30.229  33.823  1.00  0.00     0.037 A 
ATOM     60  C   UNL A   1      44.341  27.229  27.752  1.00  0.00     0.037 A 
ATOM     61  C   UNL A   1      43.464  31.183  33.258  1.00  0.00     0.049 A 
ATOM     62  C   UNL A   1      45.200  27.776  28.840  1.00  0.00     0.074 A 
ATOM     63  C   UNL A   1      43.385  32.507  32.868  1.00  0.00     0.029 A 
ATOM     64  N   UNL A   1      44.590  30.679  32.651  1.00  0.00    -0.354 N 
ATOM     65  N   UNL A   1      45.738  28.966  28.812  1.00  0.00    -0.248 NA
ATOM     66  C   UNL A   1      45.061  27.191  30.166  1.00  0.00     0.031 C 
ATOM     67  C   UNL A   1      44.205  32.608  31.706  1.00  0.00     0.029 A 
ATOM     68  C   UNL A   1      44.802  31.367  31.488  1.00  0.00     0.049 A 
ATOM     69  H   UNL A   1      45.149  29.946  32.997  1.00  0.00     0.167 HD
ATOM     70  C   UNL A   1      45.588  29.452  30.104  1.00  0.00     0.074 A 
ATOM     71  C   UNL A   1      45.246  28.283  30.911  1.00  0.00     0.031 C 
ATOM     72  C   UNL A   1      45.460  30.793  30.334  1.00  0.00     0.037 A 
BRANCH  59  73
ATOM     73  C   UNL A   1      42.982  29.108  34.748  1.00  0.00     0.058 A 
ATOM     74  C   UNL A   1      43.418  29.453  36.044  1.00  0.00     0.135 A 
ATOM     75  C   UNL A   1      43.298  27.789  34.342  1.00  0.00     0.135 A 
ATOM     76  F   UNL A   1      43.162  30.672  36.546  1.00  0.00    -0.206 F 
ATOM     77  C   UNL A   1      44.205  28.603  36.819  1.00  0.00     0.059 A 
ATOM     78  C   UNL A   1      44.038  26.909  35.119  1.00  0.00     0.059 A 
ATOM     79  F   UNL A   1      42.986  27.288  33.143  1.00  0.00    -0.206 F 
ATOM     80  C   UNL A   1      44.525  27.339  36.337  1.00  0.00     0.060 A 
BRANCH  80  81
ATOM     81  S   UNL A   1      45.610  26.270  37.289  1.00  0.00     0.124 S 
ATOM     82  O   UNL A   1      44.682  25.712  38.263  1.00  0.00    -0.237 OA
ATOM     83  O   UNL A   1      46.097  25.354  36.263  1.00  0.00    -0.237 OA
ATOM     84  O   UNL A   1      46.609  27.194  37.820  1.00  0.00    -0.744 OA
ENDBRANCH  80  81
ENDBRANCH  59  73
BRANCH  60  85
ATOM     85  C   UNL A   1      44.575  25.882  27.153  1.00  0.00     0.058 A 
ATOM     86  C   UNL A   1      43.869  24.750  27.610  1.00  0.00     0.135 A 
ATOM     87  C   UNL A   1      45.280  25.713  25.944  1.00  0.00     0.135 A 
ATOM     88  F   UNL A   1      43.152  24.814  28.742  1.00  0.00    -0.206 F 
ATOM     89  C   UNL A   1      43.822  23.551  26.886  1.00  0.00     0.059 A 
ATOM     90  C   UNL A   1      45.260  24.524  25.215  1.00  0.00     0.059 A 
ATOM     91  F   UNL A   1      45.943  26.729  25.375  1.00  0.00    -0.206 F 
ATOM     92  C   UNL A   1      44.506  23.455  25.676  1.00  0.00     0.060 A 
BRANCH  92  93
ATOM     93  S   UNL A   1      44.311  21.981  24.644  1.00  0.00     0.124 S 
ATOM     94  O   UNL A   1      43.355  21.195  25.418  1.00  0.00    -0.237 OA
ATOM     95  O   UNL A   1      43.812  22.540  23.393  1.00  0.00    -0.237 OA
ATOM     96  O   UNL A   1      45.663  21.430  24.581  1.00  0.00    -0.744 OA
ENDBRANCH  92  93
ENDBRANCH  60  85
BRANCH  72  97
ATOM     97  C   UNL A   1      45.860  31.746  29.239  1.00  0.00     0.058 A 
ATOM     98  C   UNL A   1      45.018  32.199  28.209  1.00  0.00     0.135 A 
ATOM     99  C   UNL A   1      47.140  32.316  29.318  1.00  0.00     0.135 A 
ATOM    100  F   UNL A   1      43.743  31.787  28.126  1.00  0.00    -0.206 F 
ATOM    101  C   UNL A   1      45.451  33.135  27.266  1.00  0.00     0.059 A 
ATOM    102  C   UNL A   1      47.580  33.274  28.413  1.00  0.00     0.059 A 
ATOM    103  F   UNL A   1      47.970  31.972  30.316  1.00  0.00    -0.206 F 
ATOM    104  C   UNL A   1      46.738  33.664  27.375  1.00  0.00     0.060 A 
BRANCH 104 105
ATOM    105  S   UNL A   1      47.296  34.898  26.181  1.00  0.00     0.124 S 
ATOM    106  O   UNL A   1      47.655  36.019  27.042  1.00  0.00    -0.237 OA
ATOM    107  O   UNL A   1      48.409  34.221  25.522  1.00  0.00    -0.237 OA
ATOM    108  O   UNL A   1      46.122  35.113  25.336  1.00  0.00    -0.744 OA
ENDBRANCH 104 105
ENDBRANCH  72  97
ENDBRANCH  46  47
ENDBRANCH  39  41
ENDBRANCH  38  39
ENDBRANCH  37  38
ENDBRANCH  36  37
ENDBRANCH  35  36
ENDBRANCH  34  35
ENDBRANCH   1  34
TORSDOF 25
ENDMDL
