MODEL 1
REMARK VINA RESULT:      -9.7      0.000      0.000
REMARK SMILES CCOc1cccc(-c2ccc([C@@H](C)C(=O)OCCOCCOCCOC(=O)c3ccc(-c4c5nc(c(-c6c(F)cc(S(=O)(=O)[O-])cc6F)c6ccc([nH]6)c(-c6c(F)cc(S(=O)(=O)[O-])cc6F)c6nc(c(-c7c(F)cc(S(=O)(=O)[O-])cc7F)c7ccc4[nH]7)C=C6)C=C5)cc3)cc2F)c1
REMARK SMILES IDX 21 1 20 2 19 3 18 4 17 5 15 6 16 7 13 8 14 9 12 10 9 11
REMARK SMILES IDX 10 12 96 13 11 14 95 15 97 16 8 17 4 18 5 19 98 20 6 21 7 22
REMARK SMILES IDX 3 23 2 24 1 25 22 26 23 27 24 28 25 29 26 30 27 31 28 32
REMARK SMILES IDX 29 33 30 34 94 35 31 36 93 37 32 38 33 39 34 40 87 41 35 42
REMARK SMILES IDX 92 43 86 44 88 45 36 46 91 47 85 48 84 49 37 51 71 52 50 53
REMARK SMILES IDX 70 54 51 55 54 56 69 57 89 58 52 59 53 60 68 62 90 63 55 64
REMARK SMILES IDX 38 65 39 66 48 67 40 68 41 69 47 70 49 71 42 72 43 73 44 74
REMARK SMILES IDX 45 75 46 76 72 77 73 78 82 79 74 80 75 81 81 82 83 83 76 84
REMARK SMILES IDX 77 85 78 86 79 87 80 88 56 89 57 90 66 91 58 92 59 93 65 94
REMARK SMILES IDX 67 95 60 96 61 97 62 98 63 99 64 100
REMARK H PARENT 88 50 54 61
REMARK Flexibility Score: inf
ROOT
ATOM      1  C   UNL A   1      32.908  36.257  31.776  1.00  0.00     0.188 C 
ENDROOT
BRANCH   1   2
ATOM      2  O   UNL A   1      32.931  36.935  30.524  1.00  0.00    -0.376 OA
BRANCH   2   3
ATOM      3  C   UNL A   1      33.012  36.174  29.327  1.00  0.00     0.202 C 
BRANCH   3   4
ATOM      4  C   UNL A   1      33.263  34.658  29.427  1.00  0.00     0.261 C 
BRANCH   4   5
ATOM      5  O   UNL A   1      33.344  33.949  28.169  1.00  0.00    -0.463 OA
BRANCH   5   6
ATOM      6  C   UNL A   1      34.481  33.241  27.948  1.00  0.00     0.313 C 
ATOM      7  O   UNL A   1      35.508  33.749  27.497  1.00  0.00    -0.252 OA
BRANCH   6   8
ATOM      8  C   UNL A   1      34.448  31.753  28.320  1.00  0.00     0.126 C 
ATOM      9  C   UNL A   1      35.884  31.279  28.538  1.00  0.00     0.025 C 
BRANCH   8  10
ATOM     10  C   UNL A   1      33.685  30.727  27.483  1.00  0.00    -0.031 A 
ATOM     11  C   UNL A   1      32.363  28.706  25.916  1.00  0.00     0.018 A 
ATOM     12  C   UNL A   1      31.767  29.955  26.177  1.00  0.00     0.012 A 
ATOM     13  C   UNL A   1      33.639  28.501  26.455  1.00  0.00     0.131 A 
ATOM     14  C   UNL A   1      32.415  30.951  26.939  1.00  0.00     0.005 A 
ATOM     15  C   UNL A   1      34.292  29.485  27.210  1.00  0.00     0.044 A 
ATOM     16  F   UNL A   1      34.284  27.342  26.249  1.00  0.00    -0.206 F 
BRANCH  11  17
ATOM     17  C   UNL A   1      31.682  27.678  25.096  1.00  0.00    -0.012 A 
ATOM     18  C   UNL A   1      31.331  26.519  22.970  1.00  0.00     0.119 A 
ATOM     19  C   UNL A   1      30.317  25.750  23.533  1.00  0.00     0.046 A 
ATOM     20  C   UNL A   1      31.994  27.484  23.736  1.00  0.00     0.055 A 
ATOM     21  C   UNL A   1      29.984  25.928  24.873  1.00  0.00     0.004 A 
ATOM     22  C   UNL A   1      30.661  26.880  25.645  1.00  0.00     0.009 A 
BRANCH  18  23
ATOM     23  O   UNL A   1      31.523  26.411  21.620  1.00  0.00    -0.494 OA
BRANCH  23  24
ATOM     24  C   UNL A   1      32.700  25.683  21.252  1.00  0.00     0.226 C 
ATOM     25  C   UNL A   1      32.894  24.469  22.137  1.00  0.00     0.049 C 
ENDBRANCH  23  24
ENDBRANCH  18  23
ENDBRANCH  11  17
ENDBRANCH   8  10
ENDBRANCH   6   8
ENDBRANCH   5   6
ENDBRANCH   4   5
ENDBRANCH   3   4
ENDBRANCH   2   3
ENDBRANCH   1   2
BRANCH   1  26
ATOM     26  C   UNL A   1      34.039  36.512  32.784  1.00  0.00     0.188 C 
BRANCH  26  27
ATOM     27  O   UNL A   1      34.680  35.350  33.267  1.00  0.00    -0.376 OA
BRANCH  27  28
ATOM     28  C   UNL A   1      34.105  34.110  32.905  1.00  0.00     0.202 C 
BRANCH  28  29
ATOM     29  C   UNL A   1      34.924  33.231  31.944  1.00  0.00     0.261 C 
BRANCH  29  30
ATOM     30  O   UNL A   1      35.463  32.015  32.497  1.00  0.00    -0.460 OA
BRANCH  30  31
ATOM     31  C   UNL A   1      36.556  32.154  33.277  1.00  0.00     0.338 C 
ATOM     32  O   UNL A   1      36.556  32.255  34.497  1.00  0.00    -0.246 OA
BRANCH  31  33
ATOM     33  C   UNL A   1      37.775  31.942  32.471  1.00  0.00     0.060 A 
ATOM     34  C   UNL A   1      38.941  31.483  33.105  1.00  0.00     0.016 A 
ATOM     35  C   UNL A   1      37.784  32.244  31.109  1.00  0.00     0.016 A 
ATOM     36  C   UNL A   1      40.132  31.377  32.387  1.00  0.00     0.010 A 
ATOM     37  C   UNL A   1      38.983  32.158  30.397  1.00  0.00     0.010 A 
ATOM     38  C   UNL A   1      40.173  31.771  31.044  1.00  0.00    -0.014 A 
BRANCH  38  39
ATOM     39  C   UNL A   1      41.484  32.027  30.394  1.00  0.00     0.031 A 
ATOM     40  C   UNL A   1      42.068  33.412  30.507  1.00  0.00     0.074 A 
ATOM     41  C   UNL A   1      42.158  31.060  29.746  1.00  0.00     0.049 A 
ATOM     42  N   UNL A   1      43.160  33.902  29.982  1.00  0.00    -0.248 NA
ATOM     43  C   UNL A   1      41.308  34.378  31.320  1.00  0.00     0.031 C 
ATOM     44  C   UNL A   1      41.724  29.671  29.606  1.00  0.00     0.029 A 
ATOM     45  N   UNL A   1      43.354  31.108  29.072  1.00  0.00    -0.354 N 
ATOM     46  C   UNL A   1      43.213  35.231  30.390  1.00  0.00     0.074 A 
ATOM     47  C   UNL A   1      42.024  35.481  31.175  1.00  0.00     0.031 C 
ATOM     48  C   UNL A   1      42.637  29.001  28.880  1.00  0.00     0.029 A 
ATOM     49  C   UNL A   1      43.702  29.919  28.476  1.00  0.00     0.049 A 
ATOM     50  H   UNL A   1      43.911  31.919  29.023  1.00  0.00     0.167 HD
ATOM     51  C   UNL A   1      44.169  36.156  30.144  1.00  0.00     0.037 A 
ATOM     52  C   UNL A   1      44.748  29.617  27.680  1.00  0.00     0.037 A 
ATOM     53  C   UNL A   1      45.353  35.901  29.367  1.00  0.00     0.049 A 
ATOM     54  C   UNL A   1      45.772  30.682  27.368  1.00  0.00     0.074 A 
ATOM     55  C   UNL A   1      46.387  36.770  29.063  1.00  0.00     0.029 A 
ATOM     56  N   UNL A   1      45.661  34.689  28.768  1.00  0.00    -0.354 N 
ATOM     57  N   UNL A   1      45.813  31.933  27.764  1.00  0.00    -0.248 NA
ATOM     58  C   UNL A   1      46.897  30.290  26.507  1.00  0.00     0.031 C 
ATOM     59  C   UNL A   1      47.293  36.098  28.236  1.00  0.00     0.029 A 
ATOM     60  C   UNL A   1      46.860  34.791  28.082  1.00  0.00     0.049 A 
ATOM     61  H   UNL A   1      45.109  33.875  28.822  1.00  0.00     0.167 HD
ATOM     62  C   UNL A   1      46.990  32.462  27.241  1.00  0.00     0.074 A 
ATOM     63  C   UNL A   1      47.632  31.395  26.502  1.00  0.00     0.031 C 
ATOM     64  C   UNL A   1      47.500  33.713  27.367  1.00  0.00     0.037 A 
BRANCH  51  65
ATOM     65  C   UNL A   1      43.961  37.540  30.700  1.00  0.00     0.058 A 
ATOM     66  C   UNL A   1      44.293  37.866  32.025  1.00  0.00     0.135 A 
ATOM     67  C   UNL A   1      43.448  38.562  29.885  1.00  0.00     0.135 A 
ATOM     68  F   UNL A   1      44.765  36.925  32.856  1.00  0.00    -0.206 F 
ATOM     69  C   UNL A   1      44.099  39.150  32.529  1.00  0.00     0.059 A 
ATOM     70  C   UNL A   1      43.277  39.859  30.357  1.00  0.00     0.059 A 
ATOM     71  F   UNL A   1      43.109  38.305  28.611  1.00  0.00    -0.206 F 
ATOM     72  C   UNL A   1      43.593  40.140  31.685  1.00  0.00     0.060 A 
BRANCH  72  73
ATOM     73  S   UNL A   1      43.360  41.802  32.351  1.00  0.00     0.124 S 
ATOM     74  O   UNL A   1      43.241  42.591  31.128  1.00  0.00    -0.237 OA
ATOM     75  O   UNL A   1      42.136  41.656  33.133  1.00  0.00    -0.237 OA
ATOM     76  O   UNL A   1      44.574  42.030  33.128  1.00  0.00    -0.744 OA
ENDBRANCH  72  73
ENDBRANCH  51  65
BRANCH  52  77
ATOM     77  C   UNL A   1      44.888  28.246  27.116  1.00  0.00     0.058 A 
ATOM     78  C   UNL A   1      45.828  27.339  27.630  1.00  0.00     0.135 A 
ATOM     79  C   UNL A   1      44.099  27.820  26.034  1.00  0.00     0.135 A 
ATOM     80  F   UNL A   1      46.616  27.700  28.654  1.00  0.00    -0.206 F 
ATOM     81  C   UNL A   1      45.997  26.071  27.082  1.00  0.00     0.059 A 
ATOM     82  C   UNL A   1      44.229  26.546  25.488  1.00  0.00     0.059 A 
ATOM     83  F   UNL A   1      43.180  28.644  25.508  1.00  0.00    -0.206 F 
ATOM     84  C   UNL A   1      45.190  25.683  26.012  1.00  0.00     0.060 A 
BRANCH  84  85
ATOM     85  S   UNL A   1      45.393  24.022  25.333  1.00  0.00     0.124 S 
ATOM     86  O   UNL A   1      45.887  23.288  26.491  1.00  0.00    -0.237 OA
ATOM     87  O   UNL A   1      44.037  23.700  24.903  1.00  0.00    -0.237 OA
ATOM     88  O   UNL A   1      46.357  24.217  24.252  1.00  0.00    -0.744 OA
ENDBRANCH  84  85
ENDBRANCH  52  77
BRANCH  64  89
ATOM     89  C   UNL A   1      48.851  33.986  26.760  1.00  0.00     0.058 A 
ATOM     90  C   UNL A   1      49.002  34.601  25.507  1.00  0.00     0.135 A 
ATOM     91  C   UNL A   1      50.019  33.660  27.471  1.00  0.00     0.135 A 
ATOM     92  F   UNL A   1      47.921  34.934  24.783  1.00  0.00    -0.206 F 
ATOM     93  C   UNL A   1      50.260  34.850  24.966  1.00  0.00     0.059 A 
ATOM     94  C   UNL A   1      51.286  33.931  26.964  1.00  0.00     0.059 A 
ATOM     95  F   UNL A   1      49.937  33.085  28.682  1.00  0.00    -0.206 F 
ATOM     96  C   UNL A   1      51.397  34.509  25.701  1.00  0.00     0.060 A 
BRANCH  96  97
ATOM     97  S   UNL A   1      53.023  34.848  24.993  1.00  0.00     0.124 S 
ATOM     98  O   UNL A   1      52.666  35.466  23.720  1.00  0.00    -0.237 OA
ATOM     99  O   UNL A   1      53.616  35.739  25.987  1.00  0.00    -0.237 OA
ATOM    100  O   UNL A   1      53.635  33.526  24.900  1.00  0.00    -0.744 OA
ENDBRANCH  96  97
ENDBRANCH  64  89
ENDBRANCH  38  39
ENDBRANCH  31  33
ENDBRANCH  30  31
ENDBRANCH  29  30
ENDBRANCH  28  29
ENDBRANCH  27  28
ENDBRANCH  26  27
ENDBRANCH   1  26
TORSDOF 24
ENDMDL
MODEL 2
REMARK VINA RESULT:      -9.6      4.044      6.651
REMARK SMILES CCOc1cccc(-c2ccc([C@@H](C)C(=O)OCCOCCOCCOC(=O)c3ccc(-c4c5nc(c(-c6c(F)cc(S(=O)(=O)[O-])cc6F)c6ccc([nH]6)c(-c6c(F)cc(S(=O)(=O)[O-])cc6F)c6nc(c(-c7c(F)cc(S(=O)(=O)[O-])cc7F)c7ccc4[nH]7)C=C6)C=C5)cc3)cc2F)c1
REMARK SMILES IDX 21 1 20 2 19 3 18 4 17 5 15 6 16 7 13 8 14 9 12 10 9 11
REMARK SMILES IDX 10 12 96 13 11 14 95 15 97 16 8 17 4 18 5 19 98 20 6 21 7 22
REMARK SMILES IDX 3 23 2 24 1 25 22 26 23 27 24 28 25 29 26 30 27 31 28 32
REMARK SMILES IDX 29 33 30 34 94 35 31 36 93 37 32 38 33 39 34 40 87 41 35 42
REMARK SMILES IDX 92 43 86 44 88 45 36 46 91 47 85 48 84 49 37 51 71 52 50 53
REMARK SMILES IDX 70 54 51 55 54 56 69 57 89 58 52 59 53 60 68 62 90 63 55 64
REMARK SMILES IDX 38 65 39 66 48 67 40 68 41 69 47 70 49 71 42 72 43 73 44 74
REMARK SMILES IDX 45 75 46 76 72 77 73 78 82 79 74 80 75 81 81 82 83 83 76 84
REMARK SMILES IDX 77 85 78 86 79 87 80 88 56 89 57 90 66 91 58 92 59 93 65 94
REMARK SMILES IDX 67 95 60 96 61 97 62 98 63 99 64 100
REMARK H PARENT 88 50 54 61
REMARK Flexibility Score: inf
ROOT
ATOM      1  C   UNL A   1      31.835  30.450  26.004  1.00  0.00     0.188 C 
ENDROOT
BRANCH   1   2
ATOM      2  O   UNL A   1      31.383  29.768  24.840  1.00  0.00    -0.376 OA
BRANCH   2   3
ATOM      3  C   UNL A   1      32.338  29.316  23.888  1.00  0.00     0.202 C 
BRANCH   3   4
ATOM      4  C   UNL A   1      31.839  28.602  22.619  1.00  0.00     0.261 C 
BRANCH   4   5
ATOM      5  O   UNL A   1      31.434  27.224  22.791  1.00  0.00    -0.463 OA
BRANCH   5   6
ATOM      6  C   UNL A   1      30.258  27.017  23.437  1.00  0.00     0.313 C 
ATOM      7  O   UNL A   1      29.219  27.605  23.139  1.00  0.00    -0.252 OA
BRANCH   6   8
ATOM      8  C   UNL A   1      30.266  25.975  24.562  1.00  0.00     0.126 C 
ATOM      9  C   UNL A   1      30.764  26.648  25.840  1.00  0.00     0.025 C 
BRANCH   8  10
ATOM     10  C   UNL A   1      30.941  24.612  24.399  1.00  0.00    -0.031 A 
ATOM     11  C   UNL A   1      32.134  22.001  24.204  1.00  0.00     0.018 A 
ATOM     12  C   UNL A   1      32.511  23.057  23.352  1.00  0.00     0.012 A 
ATOM     13  C   UNL A   1      31.150  22.290  25.157  1.00  0.00     0.131 A 
ATOM     14  C   UNL A   1      31.934  24.341  23.450  1.00  0.00     0.005 A 
ATOM     15  C   UNL A   1      30.573  23.562  25.263  1.00  0.00     0.044 A 
ATOM     16  F   UNL A   1      30.737  21.344  26.014  1.00  0.00    -0.206 F 
BRANCH  11  17
ATOM     17  C   UNL A   1      32.764  20.664  24.107  1.00  0.00    -0.012 A 
ATOM     18  C   UNL A   1      34.614  19.127  24.565  1.00  0.00     0.119 A 
ATOM     19  C   UNL A   1      33.978  18.117  23.850  1.00  0.00     0.046 A 
ATOM     20  C   UNL A   1      34.023  20.392  24.679  1.00  0.00     0.055 A 
ATOM     21  C   UNL A   1      32.737  18.364  23.269  1.00  0.00     0.004 A 
ATOM     22  C   UNL A   1      32.137  19.622  23.399  1.00  0.00     0.009 A 
BRANCH  18  23
ATOM     23  O   UNL A   1      35.890  18.885  24.993  1.00  0.00    -0.494 OA
BRANCH  23  24
ATOM     24  C   UNL A   1      36.680  20.065  25.177  1.00  0.00     0.226 C 
ATOM     25  C   UNL A   1      37.980  19.982  24.404  1.00  0.00     0.049 C 
ENDBRANCH  23  24
ENDBRANCH  18  23
ENDBRANCH  11  17
ENDBRANCH   8  10
ENDBRANCH   6   8
ENDBRANCH   5   6
ENDBRANCH   4   5
ENDBRANCH   3   4
ENDBRANCH   2   3
ENDBRANCH   1   2
BRANCH   1  26
ATOM     26  C   UNL A   1      33.252  30.174  26.530  1.00  0.00     0.188 C 
BRANCH  26  27
ATOM     27  O   UNL A   1      33.596  30.868  27.710  1.00  0.00    -0.376 OA
BRANCH  27  28
ATOM     28  C   UNL A   1      34.869  31.484  27.736  1.00  0.00     0.202 C 
BRANCH  28  29
ATOM     29  C   UNL A   1      35.248  32.216  29.035  1.00  0.00     0.261 C 
BRANCH  29  30
ATOM     30  O   UNL A   1      35.809  31.403  30.084  1.00  0.00    -0.460 OA
BRANCH  30  31
ATOM     31  C   UNL A   1      36.976  31.836  30.607  1.00  0.00     0.338 C 
ATOM     32  O   UNL A   1      37.099  32.720  31.445  1.00  0.00    -0.246 OA
BRANCH  31  33
ATOM     33  C   UNL A   1      38.073  30.939  30.192  1.00  0.00     0.060 A 
ATOM     34  C   UNL A   1      38.996  30.500  31.154  1.00  0.00     0.016 A 
ATOM     35  C   UNL A   1      38.222  30.576  28.854  1.00  0.00     0.016 A 
ATOM     36  C   UNL A   1      40.100  29.740  30.769  1.00  0.00     0.010 A 
ATOM     37  C   UNL A   1      39.341  29.834  28.466  1.00  0.00     0.010 A 
ATOM     38  C   UNL A   1      40.310  29.455  29.415  1.00  0.00    -0.014 A 
BRANCH  38  39
ATOM     39  C   UNL A   1      41.648  28.996  28.961  1.00  0.00     0.031 A 
ATOM     40  C   UNL A   1      42.760  30.012  28.905  1.00  0.00     0.074 A 
ATOM     41  C   UNL A   1      41.887  27.713  28.633  1.00  0.00     0.049 A 
ATOM     42  N   UNL A   1      43.992  29.879  28.489  1.00  0.00    -0.248 NA
ATOM     43  C   UNL A   1      42.430  31.368  29.377  1.00  0.00     0.031 C 
ATOM     44  C   UNL A   1      40.912  26.626  28.689  1.00  0.00     0.029 A 
ATOM     45  N   UNL A   1      43.035  27.112  28.176  1.00  0.00    -0.354 N 
ATOM     46  C   UNL A   1      44.579  31.131  28.639  1.00  0.00     0.074 A 
ATOM     47  C   UNL A   1      43.558  32.020  29.147  1.00  0.00     0.031 C 
ATOM     48  C   UNL A   1      41.499  25.491  28.270  1.00  0.00     0.029 A 
ATOM     49  C   UNL A   1      42.881  25.777  27.886  1.00  0.00     0.049 A 
ATOM     50  H   UNL A   1      43.887  27.592  28.068  1.00  0.00     0.167 HD
ATOM     51  C   UNL A   1      45.855  31.504  28.387  1.00  0.00     0.037 A 
ATOM     52  C   UNL A   1      43.752  24.895  27.352  1.00  0.00     0.037 A 
ATOM     53  C   UNL A   1      46.869  30.614  27.885  1.00  0.00     0.049 A 
ATOM     54  C   UNL A   1      45.154  25.349  27.020  1.00  0.00     0.074 A 
ATOM     55  C   UNL A   1      48.195  30.893  27.601  1.00  0.00     0.029 A 
ATOM     56  N   UNL A   1      46.670  29.274  27.590  1.00  0.00    -0.354 N 
ATOM     57  N   UNL A   1      45.699  26.534  27.171  1.00  0.00    -0.248 NA
ATOM     58  C   UNL A   1      46.063  24.342  26.454  1.00  0.00     0.031 C 
ATOM     59  C   UNL A   1      48.783  29.735  27.084  1.00  0.00     0.029 A 
ATOM     60  C   UNL A   1      47.844  28.716  27.111  1.00  0.00     0.049 A 
ATOM     61  H   UNL A   1      45.820  28.789  27.704  1.00  0.00     0.167 HD
ATOM     62  C   UNL A   1      47.024  26.401  26.765  1.00  0.00     0.074 A 
ATOM     63  C   UNL A   1      47.198  25.021  26.363  1.00  0.00     0.031 C 
ATOM     64  C   UNL A   1      48.010  27.333  26.735  1.00  0.00     0.037 A 
BRANCH  51  65
ATOM     65  C   UNL A   1      46.220  32.946  28.624  1.00  0.00     0.058 A 
ATOM     66  C   UNL A   1      45.996  33.938  27.656  1.00  0.00     0.135 A 
ATOM     67  C   UNL A   1      46.775  33.344  29.851  1.00  0.00     0.135 A 
ATOM     68  F   UNL A   1      45.488  33.612  26.457  1.00  0.00    -0.206 F 
ATOM     69  C   UNL A   1      46.334  35.269  27.886  1.00  0.00     0.059 A 
ATOM     70  C   UNL A   1      47.090  34.673  30.115  1.00  0.00     0.059 A 
ATOM     71  F   UNL A   1      47.016  32.437  30.811  1.00  0.00    -0.206 F 
ATOM     72  C   UNL A   1      46.879  35.626  29.120  1.00  0.00     0.060 A 
BRANCH  72  73
ATOM     73  S   UNL A   1      47.300  37.359  29.406  1.00  0.00     0.124 S 
ATOM     74  O   UNL A   1      47.913  37.294  30.730  1.00  0.00    -0.237 OA
ATOM     75  O   UNL A   1      48.207  37.646  28.300  1.00  0.00    -0.237 OA
ATOM     76  O   UNL A   1      46.008  38.036  29.347  1.00  0.00    -0.744 OA
ENDBRANCH  72  73
ENDBRANCH  51  65
BRANCH  52  77
ATOM     77  C   UNL A   1      43.332  23.490  27.092  1.00  0.00     0.058 A 
ATOM     78  C   UNL A   1      43.253  22.550  28.130  1.00  0.00     0.135 A 
ATOM     79  C   UNL A   1      43.020  23.053  25.794  1.00  0.00     0.135 A 
ATOM     80  F   UNL A   1      43.554  22.913  29.387  1.00  0.00    -0.206 F 
ATOM     81  C   UNL A   1      42.904  21.224  27.891  1.00  0.00     0.059 A 
ATOM     82  C   UNL A   1      42.639  21.740  25.534  1.00  0.00     0.059 A 
ATOM     83  F   UNL A   1      43.072  23.913  24.764  1.00  0.00    -0.206 F 
ATOM     84  C   UNL A   1      42.595  20.829  26.588  1.00  0.00     0.060 A 
BRANCH  84  85
ATOM     85  S   UNL A   1      42.107  19.116  26.297  1.00  0.00     0.124 S 
ATOM     86  O   UNL A   1      43.019  18.727  25.228  1.00  0.00    -0.237 OA
ATOM     87  O   UNL A   1      42.351  18.504  27.598  1.00  0.00    -0.237 OA
ATOM     88  O   UNL A   1      40.701  19.226  25.917  1.00  0.00    -0.744 OA
ENDBRANCH  84  85
ENDBRANCH  52  77
BRANCH  64  89
ATOM     89  C   UNL A   1      49.389  26.883  26.325  1.00  0.00     0.058 A 
ATOM     90  C   UNL A   1      50.340  26.438  27.256  1.00  0.00     0.135 A 
ATOM     91  C   UNL A   1      49.745  26.860  24.966  1.00  0.00     0.135 A 
ATOM     92  F   UNL A   1      50.055  26.438  28.568  1.00  0.00    -0.206 F 
ATOM     93  C   UNL A   1      51.607  26.020  26.858  1.00  0.00     0.059 A 
ATOM     94  C   UNL A   1      50.993  26.414  24.542  1.00  0.00     0.059 A 
ATOM     95  F   UNL A   1      48.869  27.259  24.029  1.00  0.00    -0.206 F 
ATOM     96  C   UNL A   1      51.925  26.014  25.498  1.00  0.00     0.060 A 
BRANCH  96  97
ATOM     97  S   UNL A   1      53.567  25.460  24.992  1.00  0.00     0.124 S 
ATOM     98  O   UNL A   1      54.415  26.111  25.985  1.00  0.00    -0.237 OA
ATOM     99  O   UNL A   1      53.455  24.008  25.107  1.00  0.00    -0.237 OA
ATOM    100  O   UNL A   1      53.693  25.966  23.629  1.00  0.00    -0.744 OA
ENDBRANCH  96  97
ENDBRANCH  64  89
ENDBRANCH  38  39
ENDBRANCH  31  33
ENDBRANCH  30  31
ENDBRANCH  29  30
ENDBRANCH  28  29
ENDBRANCH  27  28
ENDBRANCH  26  27
ENDBRANCH   1  26
TORSDOF 24
ENDMDL
MODEL 3
REMARK VINA RESULT:      -9.5      3.647      8.519
REMARK SMILES CCOc1cccc(-c2ccc([C@@H](C)C(=O)OCCOCCOCCOC(=O)c3ccc(-c4c5nc(c(-c6c(F)cc(S(=O)(=O)[O-])cc6F)c6ccc([nH]6)c(-c6c(F)cc(S(=O)(=O)[O-])cc6F)c6nc(c(-c7c(F)cc(S(=O)(=O)[O-])cc7F)c7ccc4[nH]7)C=C6)C=C5)cc3)cc2F)c1
REMARK SMILES IDX 21 1 20 2 19 3 18 4 17 5 15 6 16 7 13 8 14 9 12 10 9 11
REMARK SMILES IDX 10 12 96 13 11 14 95 15 97 16 8 17 4 18 5 19 98 20 6 21 7 22
REMARK SMILES IDX 3 23 2 24 1 25 22 26 23 27 24 28 25 29 26 30 27 31 28 32
REMARK SMILES IDX 29 33 30 34 94 35 31 36 93 37 32 38 33 39 34 40 87 41 35 42
REMARK SMILES IDX 92 43 86 44 88 45 36 46 91 47 85 48 84 49 37 51 71 52 50 53
REMARK SMILES IDX 70 54 51 55 54 56 69 57 89 58 52 59 53 60 68 62 90 63 55 64
REMARK SMILES IDX 38 65 39 66 48 67 40 68 41 69 47 70 49 71 42 72 43 73 44 74
REMARK SMILES IDX 45 75 46 76 72 77 73 78 82 79 74 80 75 81 81 82 83 83 76 84
REMARK SMILES IDX 77 85 78 86 79 87 80 88 56 89 57 90 66 91 58 92 59 93 65 94
REMARK SMILES IDX 67 95 60 96 61 97 62 98 63 99 64 100
REMARK H PARENT 88 50 54 61
REMARK Flexibility Score: inf
ROOT
ATOM      1  C   UNL A   1      33.595  20.698  25.683  1.00  0.00     0.188 C 
ENDROOT
BRANCH   1   2
ATOM      2  O   UNL A   1      33.706  21.677  26.710  1.00  0.00    -0.376 OA
BRANCH   2   3
ATOM      3  C   UNL A   1      32.773  22.749  26.748  1.00  0.00     0.202 C 
BRANCH   3   4
ATOM      4  C   UNL A   1      31.840  22.963  25.542  1.00  0.00     0.261 C 
BRANCH   4   5
ATOM      5  O   UNL A   1      32.167  24.080  24.683  1.00  0.00    -0.463 OA
BRANCH   5   6
ATOM      6  C   UNL A   1      31.165  24.551  23.898  1.00  0.00     0.313 C 
ATOM      7  O   UNL A   1      30.278  23.830  23.443  1.00  0.00    -0.252 OA
BRANCH   6   8
ATOM      8  C   UNL A   1      31.160  26.059  23.619  1.00  0.00     0.126 C 
ATOM      9  C   UNL A   1      31.453  26.275  22.135  1.00  0.00     0.025 C 
BRANCH   8  10
ATOM     10  C   UNL A   1      31.981  27.040  24.457  1.00  0.00    -0.031 A 
ATOM     11  C   UNL A   1      33.427  28.874  26.139  1.00  0.00     0.018 A 
ATOM     12  C   UNL A   1      33.854  28.567  24.833  1.00  0.00     0.012 A 
ATOM     13  C   UNL A   1      32.255  28.244  26.575  1.00  0.00     0.131 A 
ATOM     14  C   UNL A   1      33.143  27.674  24.002  1.00  0.00     0.005 A 
ATOM     15  C   UNL A   1      31.542  27.357  25.758  1.00  0.00     0.044 A 
ATOM     16  F   UNL A   1      31.773  28.485  27.804  1.00  0.00    -0.206 F 
BRANCH  11  17
ATOM     17  C   UNL A   1      34.169  29.831  26.992  1.00  0.00    -0.012 A 
ATOM     18  C   UNL A   1      34.271  31.880  28.326  1.00  0.00     0.119 A 
ATOM     19  C   UNL A   1      35.627  31.680  28.566  1.00  0.00     0.046 A 
ATOM     20  C   UNL A   1      33.553  30.976  27.534  1.00  0.00     0.055 A 
ATOM     21  C   UNL A   1      36.260  30.560  28.035  1.00  0.00     0.004 A 
ATOM     22  C   UNL A   1      35.537  29.645  27.260  1.00  0.00     0.009 A 
BRANCH  18  23
ATOM     23  O   UNL A   1      33.728  33.064  28.744  1.00  0.00    -0.494 OA
BRANCH  23  24
ATOM     24  C   UNL A   1      33.576  34.038  27.706  1.00  0.00     0.226 C 
ATOM     25  C   UNL A   1      34.063  35.401  28.156  1.00  0.00     0.049 C 
ENDBRANCH  23  24
ENDBRANCH  18  23
ENDBRANCH  11  17
ENDBRANCH   8  10
ENDBRANCH   6   8
ENDBRANCH   5   6
ENDBRANCH   4   5
ENDBRANCH   3   4
ENDBRANCH   2   3
ENDBRANCH   1   2
BRANCH   1  26
ATOM     26  C   UNL A   1      34.797  20.440  24.763  1.00  0.00     0.188 C 
BRANCH  26  27
ATOM     27  O   UNL A   1      35.436  21.602  24.276  1.00  0.00    -0.376 OA
BRANCH  27  28
ATOM     28  C   UNL A   1      36.822  21.718  24.532  1.00  0.00     0.202 C 
BRANCH  28  29
ATOM     29  C   UNL A   1      37.218  22.412  25.847  1.00  0.00     0.261 C 
BRANCH  29  30
ATOM     30  O   UNL A   1      38.164  23.493  25.737  1.00  0.00    -0.460 OA
BRANCH  30  31
ATOM     31  C   UNL A   1      39.253  23.408  26.530  1.00  0.00     0.338 C 
ATOM     32  O   UNL A   1      39.966  22.421  26.663  1.00  0.00    -0.246 OA
BRANCH  31  33
ATOM     33  C   UNL A   1      39.601  24.747  27.047  1.00  0.00     0.060 A 
ATOM     34  C   UNL A   1      40.279  25.647  26.211  1.00  0.00     0.016 A 
ATOM     35  C   UNL A   1      39.306  25.092  28.366  1.00  0.00     0.016 A 
ATOM     36  C   UNL A   1      40.711  26.876  26.709  1.00  0.00     0.010 A 
ATOM     37  C   UNL A   1      39.760  26.314  28.871  1.00  0.00     0.010 A 
ATOM     38  C   UNL A   1      40.507  27.190  28.059  1.00  0.00    -0.014 A 
BRANCH  38  39
ATOM     39  C   UNL A   1      41.284  28.292  28.681  1.00  0.00     0.031 A 
ATOM     40  C   UNL A   1      40.519  29.382  29.388  1.00  0.00     0.074 A 
ATOM     41  C   UNL A   1      42.629  28.320  28.651  1.00  0.00     0.049 A 
ATOM     42  N   UNL A   1      40.957  30.475  29.954  1.00  0.00    -0.248 NA
ATOM     43  C   UNL A   1      39.057  29.215  29.456  1.00  0.00     0.031 C 
ATOM     44  C   UNL A   1      43.486  27.306  28.041  1.00  0.00     0.029 A 
ATOM     45  N   UNL A   1      43.509  29.253  29.142  1.00  0.00    -0.354 N 
ATOM     46  C   UNL A   1      39.827  31.130  30.435  1.00  0.00     0.074 A 
ATOM     47  C   UNL A   1      38.682  30.330  30.060  1.00  0.00     0.031 C 
ATOM     48  C   UNL A   1      44.771  27.677  28.185  1.00  0.00     0.029 A 
ATOM     49  C   UNL A   1      44.826  28.970  28.866  1.00  0.00     0.049 A 
ATOM     50  H   UNL A   1      43.224  30.049  29.646  1.00  0.00     0.167 HD
ATOM     51  C   UNL A   1      39.751  32.286  31.135  1.00  0.00     0.037 A 
ATOM     52  C   UNL A   1      45.943  29.684  29.118  1.00  0.00     0.037 A 
ATOM     53  C   UNL A   1      40.894  33.076  31.509  1.00  0.00     0.049 A 
ATOM     54  C   UNL A   1      45.828  31.002  29.846  1.00  0.00     0.074 A 
ATOM     55  C   UNL A   1      40.925  34.261  32.223  1.00  0.00     0.029 A 
ATOM     56  N   UNL A   1      42.209  32.763  31.198  1.00  0.00    -0.354 N 
ATOM     57  N   UNL A   1      44.756  31.608  30.300  1.00  0.00    -0.248 NA
ATOM     58  C   UNL A   1      47.080  31.730  30.105  1.00  0.00     0.031 C 
ATOM     59  C   UNL A   1      42.253  34.692  32.298  1.00  0.00     0.029 A 
ATOM     60  C   UNL A   1      43.057  33.741  31.691  1.00  0.00     0.049 A 
ATOM     61  H   UNL A   1      42.498  31.963  30.700  1.00  0.00     0.167 HD
ATOM     62  C   UNL A   1      45.207  32.760  30.938  1.00  0.00     0.074 A 
ATOM     63  C   UNL A   1      46.650  32.766  30.812  1.00  0.00     0.031 C 
ATOM     64  C   UNL A   1      44.496  33.722  31.578  1.00  0.00     0.037 A 
BRANCH  51  65
ATOM     65  C   UNL A   1      38.381  32.781  31.517  1.00  0.00     0.058 A 
ATOM     66  C   UNL A   1      37.649  33.651  30.694  1.00  0.00     0.135 A 
ATOM     67  C   UNL A   1      37.781  32.353  32.712  1.00  0.00     0.135 A 
ATOM     68  F   UNL A   1      38.182  34.110  29.551  1.00  0.00    -0.206 F 
ATOM     69  C   UNL A   1      36.382  34.101  31.055  1.00  0.00     0.059 A 
ATOM     70  C   UNL A   1      36.503  32.763  33.078  1.00  0.00     0.059 A 
ATOM     71  F   UNL A   1      38.438  31.525  33.541  1.00  0.00    -0.206 F 
ATOM     72  C   UNL A   1      35.816  33.649  32.248  1.00  0.00     0.060 A 
BRANCH  72  73
ATOM     73  S   UNL A   1      34.167  34.232  32.695  1.00  0.00     0.124 S 
ATOM     74  O   UNL A   1      34.482  35.284  33.657  1.00  0.00    -0.237 OA
ATOM     75  O   UNL A   1      33.638  34.682  31.412  1.00  0.00    -0.237 OA
ATOM     76  O   UNL A   1      33.527  33.045  33.254  1.00  0.00    -0.744 OA
ENDBRANCH  72  73
ENDBRANCH  51  65
BRANCH  52  77
ATOM     77  C   UNL A   1      47.272  29.177  28.679  1.00  0.00     0.058 A 
ATOM     78  C   UNL A   1      48.064  28.383  29.524  1.00  0.00     0.135 A 
ATOM     79  C   UNL A   1      47.789  29.492  27.412  1.00  0.00     0.135 A 
ATOM     80  F   UNL A   1      47.622  28.064  30.750  1.00  0.00    -0.206 F 
ATOM     81  C   UNL A   1      49.326  27.940  29.140  1.00  0.00     0.059 A 
ATOM     82  C   UNL A   1      49.035  29.035  26.993  1.00  0.00     0.059 A 
ATOM     83  F   UNL A   1      47.071  30.241  26.561  1.00  0.00    -0.206 F 
ATOM     84  C   UNL A   1      49.802  28.270  27.871  1.00  0.00     0.060 A 
BRANCH  84  85
ATOM     85  S   UNL A   1      51.426  27.658  27.370  1.00  0.00     0.124 S 
ATOM     86  O   UNL A   1      51.169  27.223  26.002  1.00  0.00    -0.237 OA
ATOM     87  O   UNL A   1      52.258  28.846  27.518  1.00  0.00    -0.237 OA
ATOM     88  O   UNL A   1      51.693  26.590  28.331  1.00  0.00    -0.744 OA
ENDBRANCH  84  85
ENDBRANCH  52  77
BRANCH  64  89
ATOM     89  C   UNL A   1      45.262  34.826  32.260  1.00  0.00     0.058 A 
ATOM     90  C   UNL A   1      45.702  34.724  33.589  1.00  0.00     0.135 A 
ATOM     91  C   UNL A   1      45.597  35.991  31.550  1.00  0.00     0.135 A 
ATOM     92  F   UNL A   1      45.410  33.633  34.317  1.00  0.00    -0.206 F 
ATOM     93  C   UNL A   1      46.414  35.752  34.201  1.00  0.00     0.059 A 
ATOM     94  C   UNL A   1      46.337  37.017  32.130  1.00  0.00     0.059 A 
ATOM     95  F   UNL A   1      45.217  36.137  30.270  1.00  0.00    -0.206 F 
ATOM     96  C   UNL A   1      46.725  36.896  33.463  1.00  0.00     0.060 A 
BRANCH  96  97
ATOM     97  S   UNL A   1      47.659  38.217  34.264  1.00  0.00     0.124 S 
ATOM     98  O   UNL A   1      47.093  38.204  35.609  1.00  0.00    -0.237 OA
ATOM     99  O   UNL A   1      49.035  37.740  34.149  1.00  0.00    -0.237 OA
ATOM    100  O   UNL A   1      47.342  39.394  33.460  1.00  0.00    -0.744 OA
ENDBRANCH  96  97
ENDBRANCH  64  89
ENDBRANCH  38  39
ENDBRANCH  31  33
ENDBRANCH  30  31
ENDBRANCH  29  30
ENDBRANCH  28  29
ENDBRANCH  27  28
ENDBRANCH  26  27
ENDBRANCH   1  26
TORSDOF 24
ENDMDL
