MODEL 1
REMARK VINA RESULT:     -11.2      0.000      0.000
REMARK SMILES CCc1ccc(-c2cc(Cl)cc3c2O[C@H](C(F)(F)F)C(C(=O)OCCOCCOCCOC(=O)c2ccc(-c4c5nc(c(-c6c(F)cc(S(=O)(=O)[O-])cc6F)c6ccc([nH]6)c(-c6c(F)cc(S(=O)(=O)[O-])cc6F)c6nc(c(-c7c(F)cc(S(=O)(=O)[O-])cc7F)c7ccc4[nH]7)C=C6)C=C5)cc2)=C3)cc1
REMARK SMILES IDX 28 1 27 2 26 3 25 4 24 5 23 6 21 7 22 8 20 9 7 10 8 11 13 12
REMARK SMILES IDX 9 13 12 14 14 15 10 16 11 17 101 18 15 19 6 20 3 21 4 22
REMARK SMILES IDX 103 23 5 24 102 25 2 26 1 27 16 28 17 29 18 30 19 31 29 32
REMARK SMILES IDX 30 33 31 34 32 35 33 36 34 37 35 38 36 39 100 40 37 41 99 42
REMARK SMILES IDX 38 43 39 44 40 45 93 46 41 47 98 48 92 49 94 50 42 51 97 52
REMARK SMILES IDX 91 53 90 54 43 56 77 57 56 58 76 59 57 60 60 61 75 62 95 63
REMARK SMILES IDX 58 64 59 65 74 67 96 68 61 69 44 70 45 71 54 72 46 73 47 74
REMARK SMILES IDX 53 75 55 76 48 77 49 78 50 79 51 80 52 81 78 82 79 83 88 84
REMARK SMILES IDX 80 85 81 86 87 87 89 88 82 89 83 90 84 91 85 92 86 93 62 94
REMARK SMILES IDX 63 95 72 96 64 97 65 98 71 99 73 100 66 101 67 102 68 103
REMARK SMILES IDX 69 104 70 105
REMARK H PARENT 94 55 60 66
REMARK Flexibility Score: inf
ROOT
ATOM      1  C   UNL A   1      39.863  21.716  26.607  1.00  0.00     0.188 C 
ENDROOT
BRANCH   1   2
ATOM      2  C   UNL A   1      39.185  23.102  26.551  1.00  0.00     0.188 C 
BRANCH   2   3
ATOM      3  O   UNL A   1      37.949  23.137  25.859  1.00  0.00    -0.376 OA
BRANCH   3   4
ATOM      4  C   UNL A   1      37.461  21.889  25.373  1.00  0.00     0.202 C 
BRANCH   4   5
ATOM      5  C   UNL A   1      35.942  21.690  25.481  1.00  0.00     0.261 C 
BRANCH   5   6
ATOM      6  O   UNL A   1      35.250  22.962  25.470  1.00  0.00    -0.460 OA
BRANCH   6   7
ATOM      7  C   UNL A   1      34.224  23.064  26.339  1.00  0.00     0.338 C 
ATOM      8  O   UNL A   1      34.333  22.963  27.562  1.00  0.00    -0.246 OA
BRANCH   7   9
ATOM      9  C   UNL A   1      32.963  23.474  25.674  1.00  0.00     0.087 C 
ATOM     10  C   UNL A   1      32.145  27.186  24.032  1.00  0.00     0.026 A 
ATOM     11  C   UNL A   1      32.980  28.117  24.683  1.00  0.00     0.033 A 
ATOM     12  C   UNL A   1      32.158  25.892  24.555  1.00  0.00     0.135 A 
ATOM     13  C   UNL A   1      33.613  27.835  25.893  1.00  0.00     0.042 A 
ATOM     14  C   UNL A   1      32.594  25.690  25.876  1.00  0.00     0.019 A 
ATOM     15  O   UNL A   1      31.869  24.751  23.817  1.00  0.00    -0.475 OA
ATOM     16  Cl  UNL A   1      34.649  28.999  26.614  1.00  0.00    -0.084 Cl
ATOM     17  C   UNL A   1      33.348  26.645  26.543  1.00  0.00     0.032 A 
ATOM     18  C   UNL A   1      32.333  24.360  26.466  1.00  0.00     0.027 C 
ATOM     19  C   UNL A   1      32.847  23.671  24.161  1.00  0.00     0.316 C 
BRANCH  10  20
ATOM     20  C   UNL A   1      31.062  27.781  23.209  1.00  0.00    -0.015 A 
ATOM     21  C   UNL A   1      28.935  29.498  22.358  1.00  0.00    -0.048 A 
ATOM     22  C   UNL A   1      30.238  29.679  21.887  1.00  0.00     0.004 A 
ATOM     23  C   UNL A   1      28.698  28.422  23.222  1.00  0.00     0.004 A 
ATOM     24  C   UNL A   1      31.283  28.833  22.305  1.00  0.00     0.009 A 
ATOM     25  C   UNL A   1      29.736  27.574  23.629  1.00  0.00     0.009 A 
BRANCH  21  26
ATOM     26  C   UNL A   1      27.773  30.409  22.028  1.00  0.00     0.032 C 
ATOM     27  C   UNL A   1      28.061  31.634  21.170  1.00  0.00     0.009 C 
ENDBRANCH  21  26
ENDBRANCH  10  20
BRANCH  19  28
ATOM     28  C   UNL A   1      32.501  22.344  23.481  1.00  0.00     0.430 C 
ATOM     29  F   UNL A   1      32.123  21.393  24.362  1.00  0.00    -0.167 F 
ATOM     30  F   UNL A   1      31.511  22.490  22.572  1.00  0.00    -0.167 F 
ATOM     31  F   UNL A   1      33.575  21.856  22.806  1.00  0.00    -0.167 F 
ENDBRANCH  19  28
ENDBRANCH   7   9
ENDBRANCH   6   7
ENDBRANCH   5   6
ENDBRANCH   4   5
ENDBRANCH   3   4
ENDBRANCH   2   3
ENDBRANCH   1   2
BRANCH   1  32
ATOM     32  O   UNL A   1      41.211  21.561  26.180  1.00  0.00    -0.376 OA
BRANCH  32  33
ATOM     33  C   UNL A   1      41.981  22.717  25.876  1.00  0.00     0.202 C 
BRANCH  33  34
ATOM     34  C   UNL A   1      43.446  22.780  26.328  1.00  0.00     0.261 C 
BRANCH  34  35
ATOM     35  O   UNL A   1      43.760  23.858  27.231  1.00  0.00    -0.460 OA
BRANCH  35  36
ATOM     36  C   UNL A   1      43.675  25.096  26.702  1.00  0.00     0.338 C 
ATOM     37  O   UNL A   1      44.131  25.459  25.611  1.00  0.00    -0.246 OA
BRANCH  36  38
ATOM     38  C   UNL A   1      42.814  25.985  27.503  1.00  0.00     0.060 A 
ATOM     39  C   UNL A   1      43.152  27.342  27.556  1.00  0.00     0.016 A 
ATOM     40  C   UNL A   1      41.786  25.488  28.310  1.00  0.00     0.016 A 
ATOM     41  C   UNL A   1      42.517  28.187  28.468  1.00  0.00     0.010 A 
ATOM     42  C   UNL A   1      41.151  26.340  29.230  1.00  0.00     0.010 A 
ATOM     43  C   UNL A   1      41.541  27.686  29.344  1.00  0.00    -0.014 A 
BRANCH  43  44
ATOM     44  C   UNL A   1      41.146  28.518  30.520  1.00  0.00     0.031 A 
ATOM     45  C   UNL A   1      42.071  28.529  31.704  1.00  0.00     0.074 A 
ATOM     46  C   UNL A   1      40.034  29.278  30.526  1.00  0.00     0.049 A 
ATOM     47  N   UNL A   1      42.047  29.286  32.768  1.00  0.00    -0.248 NA
ATOM     48  C   UNL A   1      43.157  27.536  31.692  1.00  0.00     0.031 C 
ATOM     49  C   UNL A   1      39.061  29.302  29.448  1.00  0.00     0.029 A 
ATOM     50  N   UNL A   1      39.547  30.201  31.425  1.00  0.00    -0.354 N 
ATOM     51  C   UNL A   1      43.080  28.826  33.576  1.00  0.00     0.074 A 
ATOM     52  C   UNL A   1      43.727  27.743  32.869  1.00  0.00     0.031 C 
ATOM     53  C   UNL A   1      38.176  30.288  29.669  1.00  0.00     0.029 A 
ATOM     54  C   UNL A   1      38.444  30.903  30.968  1.00  0.00     0.049 A 
ATOM     55  H   UNL A   1      39.948  30.348  32.312  1.00  0.00     0.167 HD
ATOM     56  C   UNL A   1      43.434  29.251  34.811  1.00  0.00     0.037 A 
ATOM     57  C   UNL A   1      37.756  31.924  31.536  1.00  0.00     0.037 A 
ATOM     58  C   UNL A   1      42.782  30.334  35.500  1.00  0.00     0.049 A 
ATOM     59  C   UNL A   1      38.221  32.389  32.907  1.00  0.00     0.074 A 
ATOM     60  C   UNL A   1      43.070  30.857  36.747  1.00  0.00     0.029 A 
ATOM     61  N   UNL A   1      41.703  31.050  35.003  1.00  0.00    -0.354 N 
ATOM     62  N   UNL A   1      39.312  32.074  33.570  1.00  0.00    -0.248 NA
ATOM     63  C   UNL A   1      37.366  33.362  33.603  1.00  0.00     0.031 C 
ATOM     64  C   UNL A   1      42.134  31.858  37.024  1.00  0.00     0.029 A 
ATOM     65  C   UNL A   1      41.289  31.989  35.932  1.00  0.00     0.049 A 
ATOM     66  H   UNL A   1      41.292  30.912  34.119  1.00  0.00     0.167 HD
ATOM     67  C   UNL A   1      39.309  32.871  34.715  1.00  0.00     0.074 A 
ATOM     68  C   UNL A   1      38.133  33.711  34.625  1.00  0.00     0.031 C 
ATOM     69  C   UNL A   1      40.175  32.890  35.764  1.00  0.00     0.037 A 
BRANCH  56  70
ATOM     70  C   UNL A   1      44.518  28.489  35.520  1.00  0.00     0.058 A 
ATOM     71  C   UNL A   1      44.243  27.398  36.360  1.00  0.00     0.135 A 
ATOM     72  C   UNL A   1      45.860  28.867  35.357  1.00  0.00     0.135 A 
ATOM     73  F   UNL A   1      42.974  27.013  36.575  1.00  0.00    -0.206 F 
ATOM     74  C   UNL A   1      45.259  26.725  37.032  1.00  0.00     0.059 A 
ATOM     75  C   UNL A   1      46.894  28.193  35.999  1.00  0.00     0.059 A 
ATOM     76  F   UNL A   1      46.178  29.911  34.575  1.00  0.00    -0.206 F 
ATOM     77  C   UNL A   1      46.583  27.131  36.846  1.00  0.00     0.060 A 
BRANCH  77  78
ATOM     78  S   UNL A   1      47.891  26.250  37.723  1.00  0.00     0.124 S 
ATOM     79  O   UNL A   1      47.779  24.913  37.146  1.00  0.00    -0.237 OA
ATOM     80  O   UNL A   1      49.082  27.004  37.347  1.00  0.00    -0.237 OA
ATOM     81  O   UNL A   1      47.497  26.363  39.123  1.00  0.00    -0.744 OA
ENDBRANCH  77  78
ENDBRANCH  56  70
BRANCH  57  82
ATOM     82  C   UNL A   1      36.659  32.661  30.799  1.00  0.00     0.058 A 
ATOM     83  C   UNL A   1      35.305  32.476  31.143  1.00  0.00     0.135 A 
ATOM     84  C   UNL A   1      36.900  33.588  29.770  1.00  0.00     0.135 A 
ATOM     85  F   UNL A   1      34.954  31.553  32.049  1.00  0.00    -0.206 F 
ATOM     86  C   UNL A   1      34.267  33.206  30.571  1.00  0.00     0.059 A 
ATOM     87  C   UNL A   1      35.883  34.371  29.211  1.00  0.00     0.059 A 
ATOM     88  F   UNL A   1      38.145  33.773  29.305  1.00  0.00    -0.206 F 
ATOM     89  C   UNL A   1      34.570  34.186  29.636  1.00  0.00     0.060 A 
BRANCH  89  90
ATOM     90  S   UNL A   1      33.226  35.222  29.023  1.00  0.00     0.124 S 
ATOM     91  O   UNL A   1      33.948  36.355  28.454  1.00  0.00    -0.237 OA
ATOM     92  O   UNL A   1      32.582  34.331  28.063  1.00  0.00    -0.237 OA
ATOM     93  O   UNL A   1      32.449  35.512  30.223  1.00  0.00    -0.744 OA
ENDBRANCH  89  90
ENDBRANCH  57  82
BRANCH  69  94
ATOM     94  C   UNL A   1      39.937  33.914  36.849  1.00  0.00     0.058 A 
ATOM     95  C   UNL A   1      39.110  33.647  37.952  1.00  0.00     0.135 A 
ATOM     96  C   UNL A   1      40.575  35.165  36.804  1.00  0.00     0.135 A 
ATOM     97  F   UNL A   1      38.486  32.463  38.059  1.00  0.00    -0.206 F 
ATOM     98  C   UNL A   1      38.867  34.605  38.932  1.00  0.00     0.059 A 
ATOM     99  C   UNL A   1      40.381  36.123  37.796  1.00  0.00     0.059 A 
ATOM    100  F   UNL A   1      41.406  35.468  35.794  1.00  0.00    -0.206 F 
ATOM    101  C   UNL A   1      39.503  35.844  38.841  1.00  0.00     0.060 A 
BRANCH 101 102
ATOM    102  S   UNL A   1      39.179  37.080  40.117  1.00  0.00     0.124 S 
ATOM    103  O   UNL A   1      38.361  36.322  41.057  1.00  0.00    -0.237 OA
ATOM    104  O   UNL A   1      40.523  37.419  40.578  1.00  0.00    -0.237 OA
ATOM    105  O   UNL A   1      38.487  38.141  39.391  1.00  0.00    -0.744 OA
ENDBRANCH 101 102
ENDBRANCH  69  94
ENDBRANCH  43  44
ENDBRANCH  36  38
ENDBRANCH  35  36
ENDBRANCH  34  35
ENDBRANCH  33  34
ENDBRANCH  32  33
ENDBRANCH   1  32
TORSDOF 23
ENDMDL
MODEL 2
REMARK VINA RESULT:     -10.2      5.460     10.282
REMARK SMILES CCc1ccc(-c2cc(Cl)cc3c2O[C@H](C(F)(F)F)C(C(=O)OCCOCCOCCOC(=O)c2ccc(-c4c5nc(c(-c6c(F)cc(S(=O)(=O)[O-])cc6F)c6ccc([nH]6)c(-c6c(F)cc(S(=O)(=O)[O-])cc6F)c6nc(c(-c7c(F)cc(S(=O)(=O)[O-])cc7F)c7ccc4[nH]7)C=C6)C=C5)cc2)=C3)cc1
REMARK SMILES IDX 28 1 27 2 26 3 25 4 24 5 23 6 21 7 22 8 20 9 7 10 8 11 13 12
REMARK SMILES IDX 9 13 12 14 14 15 10 16 11 17 101 18 15 19 6 20 3 21 4 22
REMARK SMILES IDX 103 23 5 24 102 25 2 26 1 27 16 28 17 29 18 30 19 31 29 32
REMARK SMILES IDX 30 33 31 34 32 35 33 36 34 37 35 38 36 39 100 40 37 41 99 42
REMARK SMILES IDX 38 43 39 44 40 45 93 46 41 47 98 48 92 49 94 50 42 51 97 52
REMARK SMILES IDX 91 53 90 54 43 56 77 57 56 58 76 59 57 60 60 61 75 62 95 63
REMARK SMILES IDX 58 64 59 65 74 67 96 68 61 69 44 70 45 71 54 72 46 73 47 74
REMARK SMILES IDX 53 75 55 76 48 77 49 78 50 79 51 80 52 81 78 82 79 83 88 84
REMARK SMILES IDX 80 85 81 86 87 87 89 88 82 89 83 90 84 91 85 92 86 93 62 94
REMARK SMILES IDX 63 95 72 96 64 97 65 98 71 99 73 100 66 101 67 102 68 103
REMARK SMILES IDX 69 104 70 105
REMARK H PARENT 94 55 60 66
REMARK Flexibility Score: inf
ROOT
ATOM      1  C   UNL A   1      36.006  21.100  24.690  1.00  0.00     0.188 C 
ENDROOT
BRANCH   1   2
ATOM      2  C   UNL A   1      34.626  20.544  25.104  1.00  0.00     0.188 C 
BRANCH   2   3
ATOM      3  O   UNL A   1      33.549  20.930  24.266  1.00  0.00    -0.376 OA
BRANCH   3   4
ATOM      4  C   UNL A   1      33.780  22.049  23.415  1.00  0.00     0.202 C 
BRANCH   4   5
ATOM      5  C   UNL A   1      32.610  22.429  22.497  1.00  0.00     0.261 C 
BRANCH   5   6
ATOM      6  O   UNL A   1      31.417  22.713  23.267  1.00  0.00    -0.460 OA
BRANCH   6   7
ATOM      7  C   UNL A   1      31.191  24.018  23.514  1.00  0.00     0.338 C 
ATOM      8  O   UNL A   1      30.158  24.618  23.213  1.00  0.00    -0.246 OA
BRANCH   7   9
ATOM      9  C   UNL A   1      32.263  24.627  24.340  1.00  0.00     0.087 C 
ATOM     10  C   UNL A   1      32.272  28.453  25.924  1.00  0.00     0.026 A 
ATOM     11  C   UNL A   1      31.418  29.233  25.118  1.00  0.00     0.033 A 
ATOM     12  C   UNL A   1      32.527  27.162  25.461  1.00  0.00     0.135 A 
ATOM     13  C   UNL A   1      31.024  28.835  23.841  1.00  0.00     0.042 A 
ATOM     14  C   UNL A   1      32.331  26.869  24.099  1.00  0.00     0.019 A 
ATOM     15  O   UNL A   1      32.864  26.092  26.281  1.00  0.00    -0.475 OA
ATOM     16  Cl  UNL A   1      29.952  29.815  22.926  1.00  0.00    -0.084 Cl
ATOM     17  C   UNL A   1      31.556  27.686  23.288  1.00  0.00     0.032 A 
ATOM     18  C   UNL A   1      32.870  25.582  23.612  1.00  0.00     0.027 C 
ATOM     19  C   UNL A   1      32.118  24.871  25.843  1.00  0.00     0.316 C 
BRANCH  10  20
ATOM     20  C   UNL A   1      33.118  29.221  26.871  1.00  0.00    -0.015 A 
ATOM     21  C   UNL A   1      35.136  30.974  27.896  1.00  0.00    -0.048 A 
ATOM     22  C   UNL A   1      33.811  31.399  27.769  1.00  0.00     0.004 A 
ATOM     23  C   UNL A   1      35.432  29.650  27.548  1.00  0.00     0.004 A 
ATOM     24  C   UNL A   1      32.819  30.534  27.267  1.00  0.00     0.009 A 
ATOM     25  C   UNL A   1      34.442  28.789  27.059  1.00  0.00     0.009 A 
BRANCH  21  26
ATOM     26  C   UNL A   1      36.278  31.860  28.345  1.00  0.00     0.032 C 
ATOM     27  C   UNL A   1      36.056  33.367  28.307  1.00  0.00     0.009 C 
ENDBRANCH  21  26
ENDBRANCH  10  20
BRANCH  19  28
ATOM     28  C   UNL A   1      32.546  23.625  26.623  1.00  0.00     0.430 C 
ATOM     29  F   UNL A   1      33.866  23.366  26.502  1.00  0.00    -0.167 F 
ATOM     30  F   UNL A   1      32.260  23.734  27.940  1.00  0.00    -0.167 F 
ATOM     31  F   UNL A   1      31.883  22.526  26.174  1.00  0.00    -0.167 F 
ENDBRANCH  19  28
ENDBRANCH   7   9
ENDBRANCH   6   7
ENDBRANCH   5   6
ENDBRANCH   4   5
ENDBRANCH   3   4
ENDBRANCH   2   3
ENDBRANCH   1   2
BRANCH   1  32
ATOM     32  O   UNL A   1      36.962  21.449  25.683  1.00  0.00    -0.376 OA
BRANCH  32  33
ATOM     33  C   UNL A   1      38.347  21.403  25.363  1.00  0.00     0.202 C 
BRANCH  33  34
ATOM     34  C   UNL A   1      39.379  21.700  26.459  1.00  0.00     0.261 C 
BRANCH  34  35
ATOM     35  O   UNL A   1      40.048  20.542  26.997  1.00  0.00    -0.460 OA
BRANCH  35  36
ATOM     36  C   UNL A   1      41.179  20.181  26.357  1.00  0.00     0.338 C 
ATOM     37  O   UNL A   1      41.346  19.154  25.690  1.00  0.00    -0.246 OA
BRANCH  36  38
ATOM     38  C   UNL A   1      42.200  21.245  26.391  1.00  0.00     0.060 A 
ATOM     39  C   UNL A   1      42.772  21.556  27.630  1.00  0.00     0.016 A 
ATOM     40  C   UNL A   1      42.487  22.030  25.271  1.00  0.00     0.016 A 
ATOM     41  C   UNL A   1      43.570  22.692  27.767  1.00  0.00     0.010 A 
ATOM     42  C   UNL A   1      43.289  23.177  25.413  1.00  0.00     0.010 A 
ATOM     43  C   UNL A   1      43.801  23.538  26.671  1.00  0.00    -0.014 A 
BRANCH  43  44
ATOM     44  C   UNL A   1      44.352  24.902  26.929  1.00  0.00     0.031 A 
ATOM     45  C   UNL A   1      43.580  25.799  27.855  1.00  0.00     0.074 A 
ATOM     46  C   UNL A   1      45.520  25.321  26.403  1.00  0.00     0.049 A 
ATOM     47  N   UNL A   1      43.920  26.950  28.369  1.00  0.00    -0.248 NA
ATOM     48  C   UNL A   1      42.233  25.341  28.234  1.00  0.00     0.031 C 
ATOM     49  C   UNL A   1      46.315  24.544  25.469  1.00  0.00     0.029 A 
ATOM     50  N   UNL A   1      46.268  26.461  26.599  1.00  0.00    -0.354 N 
ATOM     51  C   UNL A   1      42.811  27.379  29.089  1.00  0.00     0.074 A 
ATOM     52  C   UNL A   1      41.799  26.354  28.966  1.00  0.00     0.031 C 
ATOM     53  C   UNL A   1      47.499  25.149  25.280  1.00  0.00     0.029 A 
ATOM     54  C   UNL A   1      47.513  26.426  25.993  1.00  0.00     0.049 A 
ATOM     55  H   UNL A   1      45.947  27.230  27.122  1.00  0.00     0.167 HD
ATOM     56  C   UNL A   1      42.644  28.540  29.763  1.00  0.00     0.037 A 
ATOM     57  C   UNL A   1      48.533  27.318  26.031  1.00  0.00     0.037 A 
ATOM     58  C   UNL A   1      43.664  29.549  29.880  1.00  0.00     0.049 A 
ATOM     59  C   UNL A   1      48.309  28.587  26.837  1.00  0.00     0.074 A 
ATOM     60  C   UNL A   1      43.608  30.756  30.554  1.00  0.00     0.029 A 
ATOM     61  N   UNL A   1      44.921  29.473  29.297  1.00  0.00    -0.354 N 
ATOM     62  N   UNL A   1      47.332  28.889  27.665  1.00  0.00    -0.248 NA
ATOM     63  C   UNL A   1      49.334  29.635  26.725  1.00  0.00     0.031 C 
ATOM     64  C   UNL A   1      44.814  31.430  30.337  1.00  0.00     0.029 A 
ATOM     65  C   UNL A   1      45.639  30.626  29.565  1.00  0.00     0.049 A 
ATOM     66  H   UNL A   1      45.254  28.710  28.770  1.00  0.00     0.167 HD
ATOM     67  C   UNL A   1      47.671  30.119  28.227  1.00  0.00     0.074 A 
ATOM     68  C   UNL A   1      48.964  30.476  27.680  1.00  0.00     0.031 C 
ATOM     69  C   UNL A   1      46.973  30.903  29.092  1.00  0.00     0.037 A 
BRANCH  56  70
ATOM     70  C   UNL A   1      41.288  28.809  30.352  1.00  0.00     0.058 A 
ATOM     71  C   UNL A   1      40.249  29.393  29.610  1.00  0.00     0.135 A 
ATOM     72  C   UNL A   1      41.030  28.480  31.693  1.00  0.00     0.135 A 
ATOM     73  F   UNL A   1      40.452  29.754  28.332  1.00  0.00    -0.206 F 
ATOM     74  C   UNL A   1      39.010  29.662  30.183  1.00  0.00     0.059 A 
ATOM     75  C   UNL A   1      39.790  28.716  32.279  1.00  0.00     0.059 A 
ATOM     76  F   UNL A   1      41.992  27.931  32.451  1.00  0.00    -0.206 F 
ATOM     77  C   UNL A   1      38.790  29.321  31.520  1.00  0.00     0.060 A 
BRANCH  77  78
ATOM     78  S   UNL A   1      37.179  29.675  32.251  1.00  0.00     0.124 S 
ATOM     79  O   UNL A   1      36.291  29.474  31.109  1.00  0.00    -0.237 OA
ATOM     80  O   UNL A   1      37.088  28.673  33.308  1.00  0.00    -0.237 OA
ATOM     81  O   UNL A   1      37.309  31.054  32.709  1.00  0.00    -0.744 OA
ENDBRANCH  77  78
ENDBRANCH  56  70
BRANCH  57  82
ATOM     82  C   UNL A   1      49.883  27.021  25.414  1.00  0.00     0.058 A 
ATOM     83  C   UNL A   1      50.144  27.322  24.062  1.00  0.00     0.135 A 
ATOM     84  C   UNL A   1      50.962  26.474  26.130  1.00  0.00     0.135 A 
ATOM     85  F   UNL A   1      49.163  27.766  23.264  1.00  0.00    -0.206 F 
ATOM     86  C   UNL A   1      51.397  27.168  23.475  1.00  0.00     0.059 A 
ATOM     87  C   UNL A   1      52.244  26.353  25.581  1.00  0.00     0.059 A 
ATOM     88  F   UNL A   1      50.796  26.068  27.399  1.00  0.00    -0.206 F 
ATOM     89  C   UNL A   1      52.455  26.725  24.256  1.00  0.00     0.060 A 
BRANCH  89  90
ATOM     90  S   UNL A   1      54.099  26.680  23.514  1.00  0.00     0.124 S 
ATOM     91  O   UNL A   1      53.798  26.361  22.123  1.00  0.00    -0.237 OA
ATOM     92  O   UNL A   1      54.574  28.037  23.768  1.00  0.00    -0.237 OA
ATOM     93  O   UNL A   1      54.780  25.631  24.266  1.00  0.00    -0.744 OA
ENDBRANCH  89  90
ENDBRANCH  57  82
BRANCH  69  94
ATOM     94  C   UNL A   1      47.631  32.175  29.572  1.00  0.00     0.058 A 
ATOM     95  C   UNL A   1      47.501  33.387  28.874  1.00  0.00     0.135 A 
ATOM     96  C   UNL A   1      48.373  32.190  30.766  1.00  0.00     0.135 A 
ATOM     97  F   UNL A   1      46.792  33.439  27.736  1.00  0.00    -0.206 F 
ATOM     98  C   UNL A   1      48.137  34.548  29.302  1.00  0.00     0.059 A 
ATOM     99  C   UNL A   1      48.982  33.351  31.236  1.00  0.00     0.059 A 
ATOM    100  F   UNL A   1      48.505  31.072  31.497  1.00  0.00    -0.206 F 
ATOM    101  C   UNL A   1      48.882  34.518  30.482  1.00  0.00     0.060 A 
BRANCH 101 102
ATOM    102  S   UNL A   1      49.704  36.030  31.027  1.00  0.00     0.124 S 
ATOM    103  O   UNL A   1      50.215  35.630  32.333  1.00  0.00    -0.237 OA
ATOM    104  O   UNL A   1      50.711  36.235  29.989  1.00  0.00    -0.237 OA
ATOM    105  O   UNL A   1      48.626  37.013  31.046  1.00  0.00    -0.744 OA
ENDBRANCH 101 102
ENDBRANCH  69  94
ENDBRANCH  43  44
ENDBRANCH  36  38
ENDBRANCH  35  36
ENDBRANCH  34  35
ENDBRANCH  33  34
ENDBRANCH  32  33
ENDBRANCH   1  32
TORSDOF 23
ENDMDL
MODEL 3
REMARK VINA RESULT:     -10.1      5.472      8.176
REMARK SMILES CCc1ccc(-c2cc(Cl)cc3c2O[C@H](C(F)(F)F)C(C(=O)OCCOCCOCCOC(=O)c2ccc(-c4c5nc(c(-c6c(F)cc(S(=O)(=O)[O-])cc6F)c6ccc([nH]6)c(-c6c(F)cc(S(=O)(=O)[O-])cc6F)c6nc(c(-c7c(F)cc(S(=O)(=O)[O-])cc7F)c7ccc4[nH]7)C=C6)C=C5)cc2)=C3)cc1
REMARK SMILES IDX 28 1 27 2 26 3 25 4 24 5 23 6 21 7 22 8 20 9 7 10 8 11 13 12
REMARK SMILES IDX 9 13 12 14 14 15 10 16 11 17 101 18 15 19 6 20 3 21 4 22
REMARK SMILES IDX 103 23 5 24 102 25 2 26 1 27 16 28 17 29 18 30 19 31 29 32
REMARK SMILES IDX 30 33 31 34 32 35 33 36 34 37 35 38 36 39 100 40 37 41 99 42
REMARK SMILES IDX 38 43 39 44 40 45 93 46 41 47 98 48 92 49 94 50 42 51 97 52
REMARK SMILES IDX 91 53 90 54 43 56 77 57 56 58 76 59 57 60 60 61 75 62 95 63
REMARK SMILES IDX 58 64 59 65 74 67 96 68 61 69 44 70 45 71 54 72 46 73 47 74
REMARK SMILES IDX 53 75 55 76 48 77 49 78 50 79 51 80 52 81 78 82 79 83 88 84
REMARK SMILES IDX 80 85 81 86 87 87 89 88 82 89 83 90 84 91 85 92 86 93 62 94
REMARK SMILES IDX 63 95 72 96 64 97 65 98 71 99 73 100 66 101 67 102 68 103
REMARK SMILES IDX 69 104 70 105
REMARK H PARENT 94 55 60 66
REMARK Flexibility Score: inf
ROOT
ATOM      1  C   UNL A   1      35.870  20.912  24.741  1.00  0.00     0.188 C 
ENDROOT
BRANCH   1   2
ATOM      2  C   UNL A   1      34.504  20.332  25.168  1.00  0.00     0.188 C 
BRANCH   2   3
ATOM      3  O   UNL A   1      33.407  20.731  24.364  1.00  0.00    -0.376 OA
BRANCH   3   4
ATOM      4  C   UNL A   1      33.642  21.810  23.463  1.00  0.00     0.202 C 
BRANCH   4   5
ATOM      5  C   UNL A   1      32.473  22.152  22.528  1.00  0.00     0.261 C 
BRANCH   5   6
ATOM      6  O   UNL A   1      31.288  22.499  23.283  1.00  0.00    -0.460 OA
BRANCH   6   7
ATOM      7  C   UNL A   1      31.079  23.821  23.445  1.00  0.00     0.338 C 
ATOM      8  O   UNL A   1      30.070  24.420  23.069  1.00  0.00    -0.246 OA
BRANCH   7   9
ATOM      9  C   UNL A   1      32.130  24.459  24.276  1.00  0.00     0.087 C 
ATOM     10  C   UNL A   1      32.127  28.355  25.679  1.00  0.00     0.026 A 
ATOM     11  C   UNL A   1      31.308  29.104  24.809  1.00  0.00     0.033 A 
ATOM     12  C   UNL A   1      32.384  27.041  25.285  1.00  0.00     0.135 A 
ATOM     13  C   UNL A   1      30.951  28.650  23.541  1.00  0.00     0.042 A 
ATOM     14  C   UNL A   1      32.229  26.686  23.933  1.00  0.00     0.019 A 
ATOM     15  O   UNL A   1      32.683  26.009  26.166  1.00  0.00    -0.475 OA
ATOM     16  Cl  UNL A   1      29.919  29.594  22.546  1.00  0.00    -0.084 Cl
ATOM     17  C   UNL A   1      31.489  27.471  23.060  1.00  0.00     0.032 A 
ATOM     18  C   UNL A   1      32.770  25.373  23.524  1.00  0.00     0.027 C 
ATOM     19  C   UNL A   1      31.939  24.774  25.761  1.00  0.00     0.316 C 
BRANCH  10  20
ATOM     20  C   UNL A   1      32.950  29.159  26.616  1.00  0.00    -0.015 A 
ATOM     21  C   UNL A   1      34.838  31.064  27.617  1.00  0.00    -0.048 A 
ATOM     22  C   UNL A   1      33.471  31.350  27.597  1.00  0.00     0.004 A 
ATOM     23  C   UNL A   1      35.247  29.799  27.175  1.00  0.00     0.004 A 
ATOM     24  C   UNL A   1      32.543  30.411  27.106  1.00  0.00     0.009 A 
ATOM     25  C   UNL A   1      34.322  28.863  26.697  1.00  0.00     0.009 A 
BRANCH  21  26
ATOM     26  C   UNL A   1      35.909  32.043  28.047  1.00  0.00     0.032 C 
ATOM     27  C   UNL A   1      35.452  33.382  28.613  1.00  0.00     0.009 C 
ENDBRANCH  21  26
ENDBRANCH  10  20
BRANCH  19  28
ATOM     28  C   UNL A   1      32.329  23.563  26.611  1.00  0.00     0.430 C 
ATOM     29  F   UNL A   1      33.653  23.304  26.568  1.00  0.00    -0.167 F 
ATOM     30  F   UNL A   1      31.976  23.725  27.907  1.00  0.00    -0.167 F 
ATOM     31  F   UNL A   1      31.691  22.444  26.175  1.00  0.00    -0.167 F 
ENDBRANCH  19  28
ENDBRANCH   7   9
ENDBRANCH   6   7
ENDBRANCH   5   6
ENDBRANCH   4   5
ENDBRANCH   3   4
ENDBRANCH   2   3
ENDBRANCH   1   2
BRANCH   1  32
ATOM     32  O   UNL A   1      36.880  21.151  25.713  1.00  0.00    -0.376 OA
BRANCH  32  33
ATOM     33  C   UNL A   1      38.236  21.257  25.297  1.00  0.00     0.202 C 
BRANCH  33  34
ATOM     34  C   UNL A   1      39.291  21.739  26.301  1.00  0.00     0.261 C 
BRANCH  34  35
ATOM     35  O   UNL A   1      40.094  20.697  26.890  1.00  0.00    -0.460 OA
BRANCH  35  36
ATOM     36  C   UNL A   1      41.268  20.456  26.271  1.00  0.00     0.338 C 
ATOM     37  O   UNL A   1      41.516  19.510  25.514  1.00  0.00    -0.246 OA
BRANCH  36  38
ATOM     38  C   UNL A   1      42.231  21.556  26.459  1.00  0.00     0.060 A 
ATOM     39  C   UNL A   1      42.811  21.703  27.725  1.00  0.00     0.016 A 
ATOM     40  C   UNL A   1      42.455  22.521  25.472  1.00  0.00     0.016 A 
ATOM     41  C   UNL A   1      43.550  22.847  28.028  1.00  0.00     0.010 A 
ATOM     42  C   UNL A   1      43.197  23.674  25.781  1.00  0.00     0.010 A 
ATOM     43  C   UNL A   1      43.714  23.864  27.074  1.00  0.00    -0.014 A 
BRANCH  43  44
ATOM     44  C   UNL A   1      44.197  25.201  27.535  1.00  0.00     0.031 A 
ATOM     45  C   UNL A   1      45.568  25.632  27.095  1.00  0.00     0.074 A 
ATOM     46  C   UNL A   1      43.434  26.029  28.274  1.00  0.00     0.049 A 
ATOM     47  N   UNL A   1      46.149  26.795  27.215  1.00  0.00    -0.248 NA
ATOM     48  C   UNL A   1      46.401  24.602  26.453  1.00  0.00     0.031 C 
ATOM     49  C   UNL A   1      42.116  25.685  28.779  1.00  0.00     0.029 A 
ATOM     50  N   UNL A   1      43.617  27.327  28.696  1.00  0.00    -0.354 N 
ATOM     51  C   UNL A   1      47.433  26.624  26.711  1.00  0.00     0.074 A 
ATOM     52  C   UNL A   1      47.537  25.253  26.263  1.00  0.00     0.031 C 
ATOM     53  C   UNL A   1      41.545  26.777  29.313  1.00  0.00     0.029 A 
ATOM     54  C   UNL A   1      42.500  27.885  29.296  1.00  0.00     0.049 A 
ATOM     55  H   UNL A   1      44.464  27.814  28.580  1.00  0.00     0.167 HD
ATOM     56  C   UNL A   1      48.442  27.524  26.660  1.00  0.00     0.037 A 
ATOM     57  C   UNL A   1      42.286  29.142  29.757  1.00  0.00     0.037 A 
ATOM     58  C   UNL A   1      48.321  28.887  27.107  1.00  0.00     0.049 A 
ATOM     59  C   UNL A   1      43.440  30.124  29.637  1.00  0.00     0.074 A 
ATOM     60  C   UNL A   1      49.275  29.887  27.085  1.00  0.00     0.029 A 
ATOM     61  N   UNL A   1      47.176  29.434  27.668  1.00  0.00    -0.354 N 
ATOM     62  N   UNL A   1      44.578  30.002  28.988  1.00  0.00    -0.248 NA
ATOM     63  C   UNL A   1      43.276  31.425  30.303  1.00  0.00     0.031 C 
ATOM     64  C   UNL A   1      48.722  31.026  27.678  1.00  0.00     0.029 A 
ATOM     65  C   UNL A   1      47.409  30.750  28.030  1.00  0.00     0.049 A 
ATOM     66  H   UNL A   1      46.323  28.958  27.791  1.00  0.00     0.167 HD
ATOM     67  C   UNL A   1      45.220  31.235  29.102  1.00  0.00     0.074 A 
ATOM     68  C   UNL A   1      44.320  32.097  29.840  1.00  0.00     0.031 C 
ATOM     69  C   UNL A   1      46.450  31.619  28.668  1.00  0.00     0.037 A 
BRANCH  56  70
ATOM     70  C   UNL A   1      49.779  27.036  26.178  1.00  0.00     0.058 A 
ATOM     71  C   UNL A   1      50.145  27.061  24.823  1.00  0.00     0.135 A 
ATOM     72  C   UNL A   1      50.710  26.525  27.098  1.00  0.00     0.135 A 
ATOM     73  F   UNL A   1      49.281  27.512  23.899  1.00  0.00    -0.206 F 
ATOM     74  C   UNL A   1      51.376  26.576  24.394  1.00  0.00     0.059 A 
ATOM     75  C   UNL A   1      51.957  26.058  26.694  1.00  0.00     0.059 A 
ATOM     76  F   UNL A   1      50.407  26.466  28.404  1.00  0.00    -0.206 F 
ATOM     77  C   UNL A   1      52.276  26.075  25.338  1.00  0.00     0.060 A 
BRANCH  77  78
ATOM     78  S   UNL A   1      53.870  25.448  24.768  1.00  0.00     0.124 S 
ATOM     79  O   UNL A   1      53.623  24.009  24.737  1.00  0.00    -0.237 OA
ATOM     80  O   UNL A   1      54.013  26.095  23.468  1.00  0.00    -0.237 OA
ATOM     81  O   UNL A   1      54.801  25.902  25.796  1.00  0.00    -0.744 OA
ENDBRANCH  77  78
ENDBRANCH  56  70
BRANCH  57  82
ATOM     82  C   UNL A   1      40.929  29.598  30.249  1.00  0.00     0.058 A 
ATOM     83  C   UNL A   1      40.642  29.656  31.627  1.00  0.00     0.135 A 
ATOM     84  C   UNL A   1      39.894  30.021  29.397  1.00  0.00     0.135 A 
ATOM     85  F   UNL A   1      41.523  29.195  32.525  1.00  0.00    -0.206 F 
ATOM     86  C   UNL A   1      39.450  30.166  32.135  1.00  0.00     0.059 A 
ATOM     87  C   UNL A   1      38.707  30.584  29.879  1.00  0.00     0.059 A 
ATOM     88  F   UNL A   1      40.031  29.921  28.065  1.00  0.00    -0.206 F 
ATOM     89  C   UNL A   1      38.505  30.671  31.254  1.00  0.00     0.060 A 
BRANCH  89  90
ATOM     90  S   UNL A   1      37.038  31.466  31.942  1.00  0.00     0.124 S 
ATOM     91  O   UNL A   1      35.959  30.706  31.321  1.00  0.00    -0.237 OA
ATOM     92  O   UNL A   1      37.229  31.247  33.373  1.00  0.00    -0.237 OA
ATOM     93  O   UNL A   1      37.166  32.851  31.501  1.00  0.00    -0.744 OA
ENDBRANCH  89  90
ENDBRANCH  57  82
BRANCH  69  94
ATOM     94  C   UNL A   1      46.856  33.056  28.897  1.00  0.00     0.058 A 
ATOM     95  C   UNL A   1      46.609  34.058  27.944  1.00  0.00     0.135 A 
ATOM     96  C   UNL A   1      47.469  33.443  30.101  1.00  0.00     0.135 A 
ATOM     97  F   UNL A   1      46.012  33.752  26.781  1.00  0.00    -0.206 F 
ATOM     98  C   UNL A   1      47.015  35.373  28.144  1.00  0.00     0.059 A 
ATOM     99  C   UNL A   1      47.845  34.762  30.341  1.00  0.00     0.059 A 
ATOM    100  F   UNL A   1      47.701  32.539  31.066  1.00  0.00    -0.206 F 
ATOM    101  C   UNL A   1      47.640  35.714  29.345  1.00  0.00     0.060 A 
BRANCH 101 102
ATOM    102  S   UNL A   1      48.165  37.423  29.593  1.00  0.00     0.124 S 
ATOM    103  O   UNL A   1      48.600  37.396  30.986  1.00  0.00    -0.237 OA
ATOM    104  O   UNL A   1      49.227  37.576  28.602  1.00  0.00    -0.237 OA
ATOM    105  O   UNL A   1      46.953  38.192  29.326  1.00  0.00    -0.744 OA
ENDBRANCH 101 102
ENDBRANCH  69  94
ENDBRANCH  43  44
ENDBRANCH  36  38
ENDBRANCH  35  36
ENDBRANCH  34  35
ENDBRANCH  33  34
ENDBRANCH  32  33
ENDBRANCH   1  32
TORSDOF 23
ENDMDL
