MODEL 1
REMARK VINA RESULT:     -10.4      0.000      0.000
REMARK SMILES O=C(COc1nc(NCc2cccc(Cl)c2)nc2c1CCC2)OCCOCCOCCOC(=O)c1ccc(-c2c3nc(c(-c4c(F)cc(S(=O)(=O)[O-])cc4F)c4ccc([nH]4)c(-c4c(F)cc(S(=O)(=O)[O-])cc4F)c4nc(c(-c5c(F)cc(S(=O)(=O)[O-])cc5F)c5ccc2[nH]5)C=C4)C=C3)cc1
REMARK SMILES IDX 27 1 26 2 25 3 24 4 23 5 2 6 1 7 3 8 4 9 5 10 6 11 19 12
REMARK SMILES IDX 7 13 18 14 20 15 17 16 22 17 21 18 8 19 9 21 10 22 11 23
REMARK SMILES IDX 16 24 12 25 14 26 13 27 15 28 28 29 29 30 30 31 31 32 32 33
REMARK SMILES IDX 33 34 34 35 35 36 36 37 100 38 37 39 99 40 38 41 39 42 40 43
REMARK SMILES IDX 93 44 41 45 98 46 92 47 94 48 42 49 97 50 91 51 90 52 43 54
REMARK SMILES IDX 77 55 56 56 76 57 57 58 60 59 75 60 95 61 58 62 59 63 74 65
REMARK SMILES IDX 96 66 61 67 44 68 45 69 54 70 46 71 47 72 53 73 55 74 48 75
REMARK SMILES IDX 49 76 50 77 51 78 52 79 78 80 79 81 88 82 80 83 81 84 87 85
REMARK SMILES IDX 89 86 82 87 83 88 84 89 85 90 86 91 62 92 63 93 72 94 64 95
REMARK SMILES IDX 65 96 71 97 73 98 66 99 67 100 68 101 69 102 70 103
REMARK H PARENT 8 20 94 53 60 64
REMARK Flexibility Score: inf
ROOT
ATOM      1  C   UNL A   1      37.294  21.761  25.266  1.00  0.00     0.188 C 
ENDROOT
BRANCH   1   2
ATOM      2  O   UNL A   1      37.205  23.144  25.560  1.00  0.00    -0.376 OA
BRANCH   2   3
ATOM      3  C   UNL A   1      36.004  23.773  25.152  1.00  0.00     0.202 C 
BRANCH   3   4
ATOM      4  C   UNL A   1      35.492  23.099  23.883  1.00  0.00     0.261 C 
BRANCH   4   5
ATOM      5  O   UNL A   1      34.934  23.989  22.887  1.00  0.00    -0.461 OA
BRANCH   5   6
ATOM      6  C   UNL A   1      33.654  24.062  22.457  1.00  0.00     0.344 C 
ATOM      7  O   UNL A   1      33.147  25.168  22.264  1.00  0.00    -0.248 OA
BRANCH   6   8
ATOM      8  C   UNL A   1      32.809  22.783  22.360  1.00  0.00     0.353 C 
BRANCH   8   9
ATOM      9  O   UNL A   1      31.574  22.719  23.053  1.00  0.00    -0.465 OA
BRANCH   9  10
ATOM     10  C   UNL A   1      31.825  22.844  24.392  1.00  0.00     0.222 A 
ATOM     11  N   UNL A   1      31.512  24.007  24.970  1.00  0.00    -0.177 NA
ATOM     12  C   UNL A   1      32.430  21.834  25.046  1.00  0.00     0.036 A 
ATOM     13  C   UNL A   1      31.921  24.216  26.222  1.00  0.00     0.226 A 
ATOM     14  C   UNL A   1      32.792  22.121  26.338  1.00  0.00     0.053 A 
ATOM     15  C   UNL A   1      32.916  20.517  24.571  1.00  0.00     0.043 C 
ATOM     16  N   UNL A   1      32.559  23.296  26.959  1.00  0.00    -0.218 NA
ATOM     17  C   UNL A   1      33.618  20.987  26.885  1.00  0.00     0.057 C 
ATOM     18  C   UNL A   1      33.245  19.852  25.912  1.00  0.00     0.011 C 
BRANCH  13  19
ATOM     19  N   UNL A   1      31.663  25.485  26.643  1.00  0.00    -0.350 N 
ATOM     20  H   UNL A   1      30.803  25.645  27.093  1.00  0.00     0.164 HD
BRANCH  19  21
ATOM     21  C   UNL A   1      32.538  26.600  26.485  1.00  0.00     0.152 C 
BRANCH  21  22
ATOM     22  C   UNL A   1      32.237  27.349  25.206  1.00  0.00    -0.027 A 
ATOM     23  C   UNL A   1      33.280  27.955  24.491  1.00  0.00     0.005 A 
ATOM     24  C   UNL A   1      30.922  27.484  24.726  1.00  0.00     0.026 A 
ATOM     25  C   UNL A   1      33.018  28.708  23.344  1.00  0.00     0.002 A 
ATOM     26  C   UNL A   1      30.668  28.235  23.576  1.00  0.00     0.041 A 
ATOM     27  C   UNL A   1      31.709  28.854  22.889  1.00  0.00     0.020 A 
ATOM     28  Cl  UNL A   1      29.050  28.417  23.011  1.00  0.00    -0.084 Cl
ENDBRANCH  21  22
ENDBRANCH  19  21
ENDBRANCH  13  19
ENDBRANCH   9  10
ENDBRANCH   8   9
ENDBRANCH   6   8
ENDBRANCH   5   6
ENDBRANCH   4   5
ENDBRANCH   3   4
ENDBRANCH   2   3
ENDBRANCH   1   2
BRANCH   1  29
ATOM     29  C   UNL A   1      38.658  21.167  25.627  1.00  0.00     0.188 C 
BRANCH  29  30
ATOM     30  O   UNL A   1      39.410  21.734  26.690  1.00  0.00    -0.376 OA
BRANCH  30  31
ATOM     31  C   UNL A   1      40.819  21.818  26.561  1.00  0.00     0.202 C 
BRANCH  31  32
ATOM     32  C   UNL A   1      41.431  23.220  26.429  1.00  0.00     0.261 C 
BRANCH  32  33
ATOM     33  O   UNL A   1      40.486  24.300  26.268  1.00  0.00    -0.460 OA
BRANCH  33  34
ATOM     34  C   UNL A   1      41.016  25.545  26.131  1.00  0.00     0.338 C 
ATOM     35  O   UNL A   1      41.254  26.124  25.086  1.00  0.00    -0.246 OA
BRANCH  34  36
ATOM     36  C   UNL A   1      41.159  26.205  27.453  1.00  0.00     0.060 A 
ATOM     37  C   UNL A   1      40.125  26.071  28.392  1.00  0.00     0.016 A 
ATOM     38  C   UNL A   1      42.241  27.044  27.730  1.00  0.00     0.016 A 
ATOM     39  C   UNL A   1      40.159  26.791  29.593  1.00  0.00     0.010 A 
ATOM     40  C   UNL A   1      42.261  27.784  28.925  1.00  0.00     0.010 A 
ATOM     41  C   UNL A   1      41.205  27.688  29.851  1.00  0.00    -0.014 A 
BRANCH  41  42
ATOM     42  C   UNL A   1      41.084  28.655  30.981  1.00  0.00     0.031 A 
ATOM     43  C   UNL A   1      40.005  29.709  30.917  1.00  0.00     0.074 A 
ATOM     44  C   UNL A   1      41.879  28.588  32.068  1.00  0.00     0.049 A 
ATOM     45  N   UNL A   1      39.706  30.643  31.782  1.00  0.00    -0.248 NA
ATOM     46  C   UNL A   1      39.149  29.707  29.717  1.00  0.00     0.031 C 
ATOM     47  C   UNL A   1      42.944  27.608  32.279  1.00  0.00     0.029 A 
ATOM     48  N   UNL A   1      41.915  29.366  33.202  1.00  0.00    -0.354 N 
ATOM     49  C   UNL A   1      38.628  31.334  31.238  1.00  0.00     0.074 A 
ATOM     50  C   UNL A   1      38.346  30.735  29.952  1.00  0.00     0.031 C 
ATOM     51  C   UNL A   1      43.534  27.852  33.465  1.00  0.00     0.029 A 
ATOM     52  C   UNL A   1      42.907  29.017  34.091  1.00  0.00     0.049 A 
ATOM     53  H   UNL A   1      41.287  30.108  33.364  1.00  0.00     0.167 HD
ATOM     54  C   UNL A   1      37.923  32.360  31.768  1.00  0.00     0.037 A 
ATOM     55  C   UNL A   1      43.279  29.578  35.263  1.00  0.00     0.037 A 
ATOM     56  C   UNL A   1      38.183  32.950  33.054  1.00  0.00     0.049 A 
ATOM     57  C   UNL A   1      42.522  30.775  35.794  1.00  0.00     0.074 A 
ATOM     58  C   UNL A   1      37.484  33.964  33.686  1.00  0.00     0.029 A 
ATOM     59  N   UNL A   1      39.220  32.593  33.898  1.00  0.00    -0.354 N 
ATOM     60  N   UNL A   1      41.463  31.369  35.297  1.00  0.00    -0.248 NA
ATOM     61  C   UNL A   1      43.010  31.381  37.045  1.00  0.00     0.031 C 
ATOM     62  C   UNL A   1      38.132  34.260  34.886  1.00  0.00     0.029 A 
ATOM     63  C   UNL A   1      39.206  33.397  35.025  1.00  0.00     0.049 A 
ATOM     64  H   UNL A   1      39.871  31.875  33.723  1.00  0.00     0.167 HD
ATOM     65  C   UNL A   1      41.154  32.403  36.179  1.00  0.00     0.074 A 
ATOM     66  C   UNL A   1      42.120  32.343  37.253  1.00  0.00     0.031 C 
ATOM     67  C   UNL A   1      40.165  33.326  36.098  1.00  0.00     0.037 A 
BRANCH  54  68
ATOM     68  C   UNL A   1      36.780  32.926  30.972  1.00  0.00     0.058 A 
ATOM     69  C   UNL A   1      35.449  32.643  31.308  1.00  0.00     0.135 A 
ATOM     70  C   UNL A   1      37.020  33.856  29.947  1.00  0.00     0.135 A 
ATOM     71  F   UNL A   1      35.168  31.748  32.268  1.00  0.00    -0.206 F 
ATOM     72  C   UNL A   1      34.391  33.272  30.661  1.00  0.00     0.059 A 
ATOM     73  C   UNL A   1      35.977  34.514  29.303  1.00  0.00     0.059 A 
ATOM     74  F   UNL A   1      38.278  34.156  29.587  1.00  0.00    -0.206 F 
ATOM     75  C   UNL A   1      34.666  34.217  29.670  1.00  0.00     0.060 A 
BRANCH  75  76
ATOM     76  S   UNL A   1      33.279  35.075  28.897  1.00  0.00     0.124 S 
ATOM     77  O   UNL A   1      33.949  36.210  28.270  1.00  0.00    -0.237 OA
ATOM     78  O   UNL A   1      32.760  34.062  27.983  1.00  0.00    -0.237 OA
ATOM     79  O   UNL A   1      32.410  35.407  30.022  1.00  0.00    -0.744 OA
ENDBRANCH  75  76
ENDBRANCH  54  68
BRANCH  55  80
ATOM     80  C   UNL A   1      44.450  29.048  36.019  1.00  0.00     0.058 A 
ATOM     81  C   UNL A   1      44.310  28.005  36.948  1.00  0.00     0.135 A 
ATOM     82  C   UNL A   1      45.725  29.615  35.867  1.00  0.00     0.135 A 
ATOM     83  F   UNL A   1      43.110  27.442  37.148  1.00  0.00    -0.206 F 
ATOM     84  C   UNL A   1      45.385  27.558  37.714  1.00  0.00     0.059 A 
ATOM     85  C   UNL A   1      46.821  29.167  36.600  1.00  0.00     0.059 A 
ATOM     86  F   UNL A   1      45.920  30.612  34.990  1.00  0.00    -0.206 F 
ATOM     87  C   UNL A   1      46.638  28.145  37.531  1.00  0.00     0.060 A 
BRANCH  87  88
ATOM     88  S   UNL A   1      48.032  27.540  38.507  1.00  0.00     0.124 S 
ATOM     89  O   UNL A   1      47.695  28.025  39.839  1.00  0.00    -0.237 OA
ATOM     90  O   UNL A   1      47.938  26.097  38.306  1.00  0.00    -0.237 OA
ATOM     91  O   UNL A   1      49.184  28.176  37.873  1.00  0.00    -0.744 OA
ENDBRANCH  87  88
ENDBRANCH  55  80
BRANCH  67  92
ATOM     92  C   UNL A   1      40.057  34.359  37.187  1.00  0.00     0.058 A 
ATOM     93  C   UNL A   1      40.730  35.587  37.092  1.00  0.00     0.135 A 
ATOM     94  C   UNL A   1      39.176  34.178  38.266  1.00  0.00     0.135 A 
ATOM     95  F   UNL A   1      41.587  35.810  36.084  1.00  0.00    -0.206 F 
ATOM     96  C   UNL A   1      40.530  36.600  38.025  1.00  0.00     0.059 A 
ATOM     97  C   UNL A   1      38.942  35.186  39.198  1.00  0.00     0.059 A 
ATOM     98  F   UNL A   1      38.498  33.026  38.400  1.00  0.00    -0.206 F 
ATOM     99  C   UNL A   1      39.624  36.395  39.067  1.00  0.00     0.060 A 
BRANCH  99 100
ATOM    100  S   UNL A   1      39.319  37.751  40.220  1.00  0.00     0.124 S 
ATOM    101  O   UNL A   1      39.004  37.031  41.448  1.00  0.00    -0.237 OA
ATOM    102  O   UNL A   1      40.596  38.459  40.210  1.00  0.00    -0.237 OA
ATOM    103  O   UNL A   1      38.205  38.473  39.612  1.00  0.00    -0.744 OA
ENDBRANCH  99 100
ENDBRANCH  67  92
ENDBRANCH  41  42
ENDBRANCH  34  36
ENDBRANCH  33  34
ENDBRANCH  32  33
ENDBRANCH  31  32
ENDBRANCH  30  31
ENDBRANCH  29  30
ENDBRANCH   1  29
TORSDOF 25
ENDMDL
MODEL 2
REMARK VINA RESULT:     -10.0      5.070      7.010
REMARK SMILES O=C(COc1nc(NCc2cccc(Cl)c2)nc2c1CCC2)OCCOCCOCCOC(=O)c1ccc(-c2c3nc(c(-c4c(F)cc(S(=O)(=O)[O-])cc4F)c4ccc([nH]4)c(-c4c(F)cc(S(=O)(=O)[O-])cc4F)c4nc(c(-c5c(F)cc(S(=O)(=O)[O-])cc5F)c5ccc2[nH]5)C=C4)C=C3)cc1
REMARK SMILES IDX 27 1 26 2 25 3 24 4 23 5 2 6 1 7 3 8 4 9 5 10 6 11 19 12
REMARK SMILES IDX 7 13 18 14 20 15 17 16 22 17 21 18 8 19 9 21 10 22 11 23
REMARK SMILES IDX 16 24 12 25 14 26 13 27 15 28 28 29 29 30 30 31 31 32 32 33
REMARK SMILES IDX 33 34 34 35 35 36 36 37 100 38 37 39 99 40 38 41 39 42 40 43
REMARK SMILES IDX 93 44 41 45 98 46 92 47 94 48 42 49 97 50 91 51 90 52 43 54
REMARK SMILES IDX 77 55 56 56 76 57 57 58 60 59 75 60 95 61 58 62 59 63 74 65
REMARK SMILES IDX 96 66 61 67 44 68 45 69 54 70 46 71 47 72 53 73 55 74 48 75
REMARK SMILES IDX 49 76 50 77 51 78 52 79 78 80 79 81 88 82 80 83 81 84 87 85
REMARK SMILES IDX 89 86 82 87 83 88 84 89 85 90 86 91 62 92 63 93 72 94 64 95
REMARK SMILES IDX 65 96 71 97 73 98 66 99 67 100 68 101 69 102 70 103
REMARK H PARENT 8 20 94 53 60 64
REMARK Flexibility Score: inf
ROOT
ATOM      1  C   UNL A   1      32.550  20.413  24.315  1.00  0.00     0.188 C 
ENDROOT
BRANCH   1   2
ATOM      2  O   UNL A   1      33.066  21.239  23.286  1.00  0.00    -0.376 OA
BRANCH   2   3
ATOM      3  C   UNL A   1      32.096  21.824  22.437  1.00  0.00     0.202 C 
BRANCH   3   4
ATOM      4  C   UNL A   1      31.401  22.961  23.180  1.00  0.00     0.261 C 
BRANCH   4   5
ATOM      5  O   UNL A   1      31.905  24.288  22.899  1.00  0.00    -0.461 OA
BRANCH   5   6
ATOM      6  C   UNL A   1      33.011  24.883  23.402  1.00  0.00     0.344 C 
ATOM      7  O   UNL A   1      33.937  25.169  22.642  1.00  0.00    -0.248 OA
BRANCH   6   8
ATOM      8  C   UNL A   1      33.160  25.057  24.921  1.00  0.00     0.353 C 
BRANCH   8   9
ATOM      9  O   UNL A   1      32.036  25.465  25.682  1.00  0.00    -0.465 OA
BRANCH   9  10
ATOM     10  C   UNL A   1      31.699  26.735  25.305  1.00  0.00     0.222 A 
ATOM     11  N   UNL A   1      30.721  26.870  24.404  1.00  0.00    -0.177 NA
ATOM     12  C   UNL A   1      32.400  27.776  25.794  1.00  0.00     0.036 A 
ATOM     13  C   UNL A   1      30.508  28.080  23.884  1.00  0.00     0.226 A 
ATOM     14  C   UNL A   1      32.100  28.989  25.227  1.00  0.00     0.053 A 
ATOM     15  C   UNL A   1      33.549  27.825  26.728  1.00  0.00     0.043 C 
ATOM     16  N   UNL A   1      31.167  29.182  24.271  1.00  0.00    -0.218 NA
ATOM     17  C   UNL A   1      33.075  30.023  25.722  1.00  0.00     0.057 C 
ATOM     18  C   UNL A   1      33.621  29.333  26.987  1.00  0.00     0.011 C 
BRANCH  13  19
ATOM     19  N   UNL A   1      29.587  28.055  22.883  1.00  0.00    -0.350 N 
ATOM     20  H   UNL A   1      29.848  27.618  22.040  1.00  0.00     0.164 HD
BRANCH  19  21
ATOM     21  C   UNL A   1      28.274  28.608  22.954  1.00  0.00     0.152 C 
BRANCH  21  22
ATOM     22  C   UNL A   1      28.287  30.081  22.612  1.00  0.00    -0.027 A 
ATOM     23  C   UNL A   1      28.325  31.035  23.640  1.00  0.00     0.005 A 
ATOM     24  C   UNL A   1      28.229  30.526  21.279  1.00  0.00     0.026 A 
ATOM     25  C   UNL A   1      28.270  32.400  23.349  1.00  0.00     0.002 A 
ATOM     26  C   UNL A   1      28.179  31.893  20.997  1.00  0.00     0.041 A 
ATOM     27  C   UNL A   1      28.190  32.831  22.027  1.00  0.00     0.020 A 
ATOM     28  Cl  UNL A   1      28.080  32.428  19.362  1.00  0.00    -0.084 Cl
ENDBRANCH  21  22
ENDBRANCH  19  21
ENDBRANCH  13  19
ENDBRANCH   9  10
ENDBRANCH   8   9
ENDBRANCH   6   8
ENDBRANCH   5   6
ENDBRANCH   4   5
ENDBRANCH   3   4
ENDBRANCH   2   3
ENDBRANCH   1   2
BRANCH   1  29
ATOM     29  C   UNL A   1      33.622  19.524  24.951  1.00  0.00     0.188 C 
BRANCH  29  30
ATOM     30  O   UNL A   1      34.993  19.776  24.680  1.00  0.00    -0.376 OA
BRANCH  30  31
ATOM     31  C   UNL A   1      35.607  20.913  25.263  1.00  0.00     0.202 C 
BRANCH  31  32
ATOM     32  C   UNL A   1      37.127  21.050  25.106  1.00  0.00     0.261 C 
BRANCH  32  33
ATOM     33  O   UNL A   1      37.717  22.210  25.732  1.00  0.00    -0.460 OA
BRANCH  33  34
ATOM     34  C   UNL A   1      38.987  22.062  26.195  1.00  0.00     0.338 C 
ATOM     35  O   UNL A   1      39.722  21.110  26.013  1.00  0.00    -0.246 OA
BRANCH  34  36
ATOM     36  C   UNL A   1      39.448  23.302  26.872  1.00  0.00     0.060 A 
ATOM     37  C   UNL A   1      38.949  24.538  26.435  1.00  0.00     0.016 A 
ATOM     38  C   UNL A   1      40.447  23.264  27.847  1.00  0.00     0.016 A 
ATOM     39  C   UNL A   1      39.462  25.733  26.951  1.00  0.00     0.010 A 
ATOM     40  C   UNL A   1      40.978  24.466  28.346  1.00  0.00     0.010 A 
ATOM     41  C   UNL A   1      40.513  25.710  27.879  1.00  0.00    -0.014 A 
BRANCH  41  42
ATOM     42  C   UNL A   1      41.243  26.973  28.197  1.00  0.00     0.031 A 
ATOM     43  C   UNL A   1      40.461  28.136  28.759  1.00  0.00     0.074 A 
ATOM     44  C   UNL A   1      42.576  27.087  28.036  1.00  0.00     0.049 A 
ATOM     45  N   UNL A   1      40.883  29.321  29.119  1.00  0.00    -0.248 NA
ATOM     46  C   UNL A   1      39.013  27.934  28.942  1.00  0.00     0.031 C 
ATOM     47  C   UNL A   1      43.461  26.039  27.530  1.00  0.00     0.029 A 
ATOM     48  N   UNL A   1      43.421  28.145  28.282  1.00  0.00    -0.354 N 
ATOM     49  C   UNL A   1      39.759  30.002  29.574  1.00  0.00     0.074 A 
ATOM     50  C   UNL A   1      38.630  29.112  29.415  1.00  0.00     0.031 C 
ATOM     51  C   UNL A   1      44.722  26.511  27.492  1.00  0.00     0.029 A 
ATOM     52  C   UNL A   1      44.735  27.901  27.950  1.00  0.00     0.049 A 
ATOM     53  H   UNL A   1      43.114  29.001  28.660  1.00  0.00     0.167 HD
ATOM     54  C   UNL A   1      39.675  31.247  30.096  1.00  0.00     0.037 A 
ATOM     55  C   UNL A   1      45.820  28.707  27.995  1.00  0.00     0.037 A 
ATOM     56  C   UNL A   1      40.794  32.133  30.278  1.00  0.00     0.049 A 
ATOM     57  C   UNL A   1      45.682  30.122  28.511  1.00  0.00     0.074 A 
ATOM     58  C   UNL A   1      40.801  33.396  30.845  1.00  0.00     0.029 A 
ATOM     59  N   UNL A   1      42.094  31.861  29.891  1.00  0.00    -0.354 N 
ATOM     60  N   UNL A   1      44.623  30.723  29.000  1.00  0.00    -0.248 NA
ATOM     61  C   UNL A   1      46.885  30.971  28.479  1.00  0.00     0.031 C 
ATOM     62  C   UNL A   1      42.094  33.911  30.750  1.00  0.00     0.029 A 
ATOM     63  C   UNL A   1      42.904  32.950  30.168  1.00  0.00     0.049 A 
ATOM     64  H   UNL A   1      42.399  31.019  29.481  1.00  0.00     0.167 HD
ATOM     65  C   UNL A   1      45.037  32.008  29.345  1.00  0.00     0.074 A 
ATOM     66  C   UNL A   1      46.446  32.094  29.032  1.00  0.00     0.031 C 
ATOM     67  C   UNL A   1      44.310  33.027  29.864  1.00  0.00     0.037 A 
BRANCH  54  68
ATOM     68  C   UNL A   1      38.326  31.749  30.531  1.00  0.00     0.058 A 
ATOM     69  C   UNL A   1      37.913  31.662  31.868  1.00  0.00     0.135 A 
ATOM     70  C   UNL A   1      37.497  32.433  29.626  1.00  0.00     0.135 A 
ATOM     71  F   UNL A   1      38.661  31.003  32.766  1.00  0.00    -0.206 F 
ATOM     72  C   UNL A   1      36.726  32.246  32.298  1.00  0.00     0.059 A 
ATOM     73  C   UNL A   1      36.318  33.045  30.040  1.00  0.00     0.059 A 
ATOM     74  F   UNL A   1      37.849  32.539  28.335  1.00  0.00    -0.206 F 
ATOM     75  C   UNL A   1      35.943  32.949  31.379  1.00  0.00     0.060 A 
BRANCH  75  76
ATOM     76  S   UNL A   1      34.447  33.762  31.974  1.00  0.00     0.124 S 
ATOM     77  O   UNL A   1      33.807  34.154  30.722  1.00  0.00    -0.237 OA
ATOM     78  O   UNL A   1      33.787  32.691  32.714  1.00  0.00    -0.237 OA
ATOM     79  O   UNL A   1      34.955  34.863  32.787  1.00  0.00    -0.744 OA
ENDBRANCH  75  76
ENDBRANCH  54  68
BRANCH  55  80
ATOM     80  C   UNL A   1      47.143  28.222  27.508  1.00  0.00     0.058 A 
ATOM     81  C   UNL A   1      48.119  27.743  28.396  1.00  0.00     0.135 A 
ATOM     82  C   UNL A   1      47.480  28.282  26.147  1.00  0.00     0.135 A 
ATOM     83  F   UNL A   1      47.859  27.683  29.711  1.00  0.00    -0.206 F 
ATOM     84  C   UNL A   1      49.385  27.362  27.957  1.00  0.00     0.059 A 
ATOM     85  C   UNL A   1      48.728  27.881  25.679  1.00  0.00     0.059 A 
ATOM     86  F   UNL A   1      46.585  28.728  25.251  1.00  0.00    -0.206 F 
ATOM     87  C   UNL A   1      49.680  27.434  26.595  1.00  0.00     0.060 A 
BRANCH  87  88
ATOM     88  S   UNL A   1      51.313  26.910  26.029  1.00  0.00     0.124 S 
ATOM     89  O   UNL A   1      51.627  27.934  25.040  1.00  0.00    -0.237 OA
ATOM     90  O   UNL A   1      52.089  26.952  27.265  1.00  0.00    -0.237 OA
ATOM     91  O   UNL A   1      51.071  25.571  25.501  1.00  0.00    -0.744 OA
ENDBRANCH  87  88
ENDBRANCH  55  80
BRANCH  67  92
ATOM     92  C   UNL A   1      45.001  34.337  30.132  1.00  0.00     0.058 A 
ATOM     93  C   UNL A   1      45.716  34.551  31.320  1.00  0.00     0.135 A 
ATOM     94  C   UNL A   1      45.059  35.335  29.144  1.00  0.00     0.135 A 
ATOM     95  F   UNL A   1      45.689  33.633  32.298  1.00  0.00    -0.206 F 
ATOM     96  C   UNL A   1      46.468  35.705  31.518  1.00  0.00     0.059 A 
ATOM     97  C   UNL A   1      45.826  36.486  29.311  1.00  0.00     0.059 A 
ATOM     98  F   UNL A   1      44.402  35.176  27.983  1.00  0.00    -0.206 F 
ATOM     99  C   UNL A   1      46.528  36.661  30.502  1.00  0.00     0.060 A 
BRANCH  99 100
ATOM    100  S   UNL A   1      47.574  38.112  30.747  1.00  0.00     0.124 S 
ATOM    101  O   UNL A   1      48.326  37.737  31.940  1.00  0.00    -0.237 OA
ATOM    102  O   UNL A   1      48.340  38.155  29.504  1.00  0.00    -0.237 OA
ATOM    103  O   UNL A   1      46.616  39.199  30.925  1.00  0.00    -0.744 OA
ENDBRANCH  99 100
ENDBRANCH  67  92
ENDBRANCH  41  42
ENDBRANCH  34  36
ENDBRANCH  33  34
ENDBRANCH  32  33
ENDBRANCH  31  32
ENDBRANCH  30  31
ENDBRANCH  29  30
ENDBRANCH   1  29
TORSDOF 25
ENDMDL
MODEL 3
REMARK VINA RESULT:      -9.3      4.339      9.507
REMARK SMILES O=C(COc1nc(NCc2cccc(Cl)c2)nc2c1CCC2)OCCOCCOCCOC(=O)c1ccc(-c2c3nc(c(-c4c(F)cc(S(=O)(=O)[O-])cc4F)c4ccc([nH]4)c(-c4c(F)cc(S(=O)(=O)[O-])cc4F)c4nc(c(-c5c(F)cc(S(=O)(=O)[O-])cc5F)c5ccc2[nH]5)C=C4)C=C3)cc1
REMARK SMILES IDX 27 1 26 2 25 3 24 4 23 5 2 6 1 7 3 8 4 9 5 10 6 11 19 12
REMARK SMILES IDX 7 13 18 14 20 15 17 16 22 17 21 18 8 19 9 21 10 22 11 23
REMARK SMILES IDX 16 24 12 25 14 26 13 27 15 28 28 29 29 30 30 31 31 32 32 33
REMARK SMILES IDX 33 34 34 35 35 36 36 37 100 38 37 39 99 40 38 41 39 42 40 43
REMARK SMILES IDX 93 44 41 45 98 46 92 47 94 48 42 49 97 50 91 51 90 52 43 54
REMARK SMILES IDX 77 55 56 56 76 57 57 58 60 59 75 60 95 61 58 62 59 63 74 65
REMARK SMILES IDX 96 66 61 67 44 68 45 69 54 70 46 71 47 72 53 73 55 74 48 75
REMARK SMILES IDX 49 76 50 77 51 78 52 79 78 80 79 81 88 82 80 83 81 84 87 85
REMARK SMILES IDX 89 86 82 87 83 88 84 89 85 90 86 91 62 92 63 93 72 94 64 95
REMARK SMILES IDX 65 96 71 97 73 98 66 99 67 100 68 101 69 102 70 103
REMARK H PARENT 8 20 94 53 60 64
REMARK Flexibility Score: inf
ROOT
ATOM      1  C   UNL A   1      40.445  23.011  27.771  1.00  0.00     0.188 C 
ENDROOT
BRANCH   1   2
ATOM      2  O   UNL A   1      39.594  23.359  26.693  1.00  0.00    -0.376 OA
BRANCH   2   3
ATOM      3  C   UNL A   1      39.488  24.746  26.430  1.00  0.00     0.202 C 
BRANCH   3   4
ATOM      4  C   UNL A   1      39.553  25.512  27.748  1.00  0.00     0.261 C 
BRANCH   4   5
ATOM      5  O   UNL A   1      39.777  26.937  27.629  1.00  0.00    -0.461 OA
BRANCH   5   6
ATOM      6  C   UNL A   1      39.897  27.848  28.622  1.00  0.00     0.344 C 
ATOM      7  O   UNL A   1      40.380  27.502  29.700  1.00  0.00    -0.248 OA
BRANCH   6   8
ATOM      8  C   UNL A   1      39.294  29.250  28.446  1.00  0.00     0.353 C 
BRANCH   8   9
ATOM      9  O   UNL A   1      38.740  29.909  29.571  1.00  0.00    -0.465 OA
BRANCH   9  10
ATOM     10  C   UNL A   1      37.520  30.416  29.216  1.00  0.00     0.222 A 
ATOM     11  N   UNL A   1      36.560  29.542  28.900  1.00  0.00    -0.177 NA
ATOM     12  C   UNL A   1      37.360  31.750  29.133  1.00  0.00     0.036 A 
ATOM     13  C   UNL A   1      35.431  30.015  28.370  1.00  0.00     0.226 A 
ATOM     14  C   UNL A   1      36.160  32.154  28.605  1.00  0.00     0.053 A 
ATOM     15  C   UNL A   1      38.311  32.863  29.366  1.00  0.00     0.043 C 
ATOM     16  N   UNL A   1      35.174  31.322  28.210  1.00  0.00    -0.218 NA
ATOM     17  C   UNL A   1      36.186  33.645  28.394  1.00  0.00     0.057 C 
ATOM     18  C   UNL A   1      37.348  34.054  29.321  1.00  0.00     0.011 C 
BRANCH  13  19
ATOM     19  N   UNL A   1      34.596  29.019  27.964  1.00  0.00    -0.350 N 
ATOM     20  H   UNL A   1      34.796  28.108  28.276  1.00  0.00     0.164 HD
BRANCH  19  21
ATOM     21  C   UNL A   1      33.457  29.189  27.123  1.00  0.00     0.152 C 
BRANCH  21  22
ATOM     22  C   UNL A   1      33.489  28.219  25.963  1.00  0.00    -0.027 A 
ATOM     23  C   UNL A   1      33.328  26.845  26.198  1.00  0.00     0.005 A 
ATOM     24  C   UNL A   1      33.712  28.657  24.646  1.00  0.00     0.026 A 
ATOM     25  C   UNL A   1      33.421  25.926  25.151  1.00  0.00     0.002 A 
ATOM     26  C   UNL A   1      33.800  27.731  23.603  1.00  0.00     0.041 A 
ATOM     27  C   UNL A   1      33.665  26.367  23.852  1.00  0.00     0.020 A 
ATOM     28  Cl  UNL A   1      34.102  28.275  21.996  1.00  0.00    -0.084 Cl
ENDBRANCH  21  22
ENDBRANCH  19  21
ENDBRANCH  13  19
ENDBRANCH   9  10
ENDBRANCH   8   9
ENDBRANCH   6   8
ENDBRANCH   5   6
ENDBRANCH   4   5
ENDBRANCH   3   4
ENDBRANCH   2   3
ENDBRANCH   1   2
BRANCH   1  29
ATOM     29  C   UNL A   1      41.101  21.640  27.587  1.00  0.00     0.188 C 
BRANCH  29  30
ATOM     30  O   UNL A   1      41.594  21.266  26.308  1.00  0.00    -0.376 OA
BRANCH  30  31
ATOM     31  C   UNL A   1      42.898  20.719  26.212  1.00  0.00     0.202 C 
BRANCH  31  32
ATOM     32  C   UNL A   1      43.757  21.153  25.016  1.00  0.00     0.261 C 
BRANCH  32  33
ATOM     33  O   UNL A   1      43.476  22.468  24.491  1.00  0.00    -0.460 OA
BRANCH  33  34
ATOM     34  C   UNL A   1      44.536  23.313  24.389  1.00  0.00     0.338 C 
ATOM     35  O   UNL A   1      45.411  23.285  23.542  1.00  0.00    -0.246 OA
BRANCH  34  36
ATOM     36  C   UNL A   1      44.438  24.403  25.393  1.00  0.00     0.060 A 
ATOM     37  C   UNL A   1      45.614  25.038  25.820  1.00  0.00     0.016 A 
ATOM     38  C   UNL A   1      43.220  24.723  25.996  1.00  0.00     0.016 A 
ATOM     39  C   UNL A   1      45.578  25.970  26.864  1.00  0.00     0.010 A 
ATOM     40  C   UNL A   1      43.190  25.641  27.061  1.00  0.00     0.010 A 
ATOM     41  C   UNL A   1      44.373  26.249  27.523  1.00  0.00    -0.014 A 
BRANCH  41  42
ATOM     42  C   UNL A   1      44.394  27.010  28.807  1.00  0.00     0.031 A 
ATOM     43  C   UNL A   1      44.575  26.245  30.097  1.00  0.00     0.074 A 
ATOM     44  C   UNL A   1      44.299  28.354  28.843  1.00  0.00     0.049 A 
ATOM     45  N   UNL A   1      44.636  26.692  31.324  1.00  0.00    -0.248 NA
ATOM     46  C   UNL A   1      44.708  24.781  29.985  1.00  0.00     0.031 C 
ATOM     47  C   UNL A   1      44.148  29.223  27.677  1.00  0.00     0.029 A 
ATOM     48  N   UNL A   1      44.311  29.225  29.908  1.00  0.00    -0.354 N 
ATOM     49  C   UNL A   1      44.820  25.572  32.128  1.00  0.00     0.074 A 
ATOM     50  C   UNL A   1      44.826  24.419  31.255  1.00  0.00     0.031 C 
ATOM     51  C   UNL A   1      44.071  30.502  28.093  1.00  0.00     0.029 A 
ATOM     52  C   UNL A   1      44.145  30.546  29.554  1.00  0.00     0.049 A 
ATOM     53  H   UNL A   1      44.429  28.931  30.841  1.00  0.00     0.167 HD
ATOM     54  C   UNL A   1      44.987  25.508  33.469  1.00  0.00     0.037 A 
ATOM     55  C   UNL A   1      44.048  31.658  30.316  1.00  0.00     0.037 A 
ATOM     56  C   UNL A   1      45.002  26.650  34.344  1.00  0.00     0.049 A 
ATOM     57  C   UNL A   1      44.161  31.547  31.821  1.00  0.00     0.074 A 
ATOM     58  C   UNL A   1      45.215  26.675  35.712  1.00  0.00     0.029 A 
ATOM     59  N   UNL A   1      44.789  27.958  33.949  1.00  0.00    -0.354 N 
ATOM     60  N   UNL A   1      44.401  30.487  32.555  1.00  0.00    -0.248 NA
ATOM     61  C   UNL A   1      43.986  32.783  32.602  1.00  0.00     0.031 C 
ATOM     62  C   UNL A   1      45.074  27.992  36.153  1.00  0.00     0.029 A 
ATOM     63  C   UNL A   1      44.822  28.794  35.052  1.00  0.00     0.049 A 
ATOM     64  H   UNL A   1      44.637  28.252  33.021  1.00  0.00     0.167 HD
ATOM     65  C   UNL A   1      44.421  30.932  33.875  1.00  0.00     0.074 A 
ATOM     66  C   UNL A   1      44.193  32.358  33.842  1.00  0.00     0.031 C 
ATOM     67  C   UNL A   1      44.603  30.218  35.013  1.00  0.00     0.037 A 
BRANCH  54  68
ATOM     68  C   UNL A   1      45.183  24.158  34.100  1.00  0.00     0.058 A 
ATOM     69  C   UNL A   1      44.095  23.316  34.369  1.00  0.00     0.135 A 
ATOM     70  C   UNL A   1      46.477  23.655  34.316  1.00  0.00     0.135 A 
ATOM     71  F   UNL A   1      42.838  23.756  34.195  1.00  0.00    -0.206 F 
ATOM     72  C   UNL A   1      44.282  22.015  34.824  1.00  0.00     0.059 A 
ATOM     73  C   UNL A   1      46.687  22.350  34.748  1.00  0.00     0.059 A 
ATOM     74  F   UNL A   1      47.549  24.426  34.076  1.00  0.00    -0.206 F 
ATOM     75  C   UNL A   1      45.583  21.536  34.996  1.00  0.00     0.060 A 
BRANCH  75  76
ATOM     76  S   UNL A   1      45.803  19.822  35.515  1.00  0.00     0.124 S 
ATOM     77  O   UNL A   1      47.010  19.448  34.786  1.00  0.00    -0.237 OA
ATOM     78  O   UNL A   1      45.951  19.954  36.961  1.00  0.00    -0.237 OA
ATOM     79  O   UNL A   1      44.576  19.169  35.069  1.00  0.00    -0.744 OA
ENDBRANCH  75  76
ENDBRANCH  54  68
BRANCH  55  80
ATOM     80  C   UNL A   1      43.796  32.986  29.688  1.00  0.00     0.058 A 
ATOM     81  C   UNL A   1      44.845  33.762  29.171  1.00  0.00     0.135 A 
ATOM     82  C   UNL A   1      42.504  33.533  29.645  1.00  0.00     0.135 A 
ATOM     83  F   UNL A   1      46.103  33.297  29.206  1.00  0.00    -0.206 F 
ATOM     84  C   UNL A   1      44.627  35.037  28.654  1.00  0.00     0.059 A 
ATOM     85  C   UNL A   1      42.256  34.793  29.108  1.00  0.00     0.059 A 
ATOM     86  F   UNL A   1      41.460  32.835  30.121  1.00  0.00    -0.206 F 
ATOM     87  C   UNL A   1      43.327  35.544  28.625  1.00  0.00     0.060 A 
BRANCH  87  88
ATOM     88  S   UNL A   1      43.048  37.186  27.927  1.00  0.00     0.124 S 
ATOM     89  O   UNL A   1      44.148  37.294  26.976  1.00  0.00    -0.237 OA
ATOM     90  O   UNL A   1      41.713  37.048  27.352  1.00  0.00    -0.237 OA
ATOM     91  O   UNL A   1      43.129  38.063  29.091  1.00  0.00    -0.744 OA
ENDBRANCH  87  88
ENDBRANCH  55  80
BRANCH  67  92
ATOM     92  C   UNL A   1      44.561  30.944  36.330  1.00  0.00     0.058 A 
ATOM     93  C   UNL A   1      43.369  31.056  37.061  1.00  0.00     0.135 A 
ATOM     94  C   UNL A   1      45.742  31.417  36.928  1.00  0.00     0.135 A 
ATOM     95  F   UNL A   1      42.212  30.626  36.533  1.00  0.00    -0.206 F 
ATOM     96  C   UNL A   1      43.347  31.606  38.338  1.00  0.00     0.059 A 
ATOM     97  C   UNL A   1      45.748  31.948  38.216  1.00  0.00     0.059 A 
ATOM     98  F   UNL A   1      46.914  31.325  36.277  1.00  0.00    -0.206 F 
ATOM     99  C   UNL A   1      44.545  32.037  38.913  1.00  0.00     0.060 A 
BRANCH  99 100
ATOM    100  S   UNL A   1      44.507  32.673  40.603  1.00  0.00     0.124 S 
ATOM    101  O   UNL A   1      43.495  33.718  40.504  1.00  0.00    -0.237 OA
ATOM    102  O   UNL A   1      44.123  31.491  41.370  1.00  0.00    -0.237 OA
ATOM    103  O   UNL A   1      45.872  33.139  40.824  1.00  0.00    -0.744 OA
ENDBRANCH  99 100
ENDBRANCH  67  92
ENDBRANCH  41  42
ENDBRANCH  34  36
ENDBRANCH  33  34
ENDBRANCH  32  33
ENDBRANCH  31  32
ENDBRANCH  30  31
ENDBRANCH  29  30
ENDBRANCH   1  29
TORSDOF 25
ENDMDL
