MODEL 1
REMARK VINA RESULT:     -10.3      0.000      0.000
REMARK SMILES Cc1cc(Cl)cc2c1O[C@H](C(F)(F)F)C(C(=O)OCCOCCOCCOC(=O)c1ccc(-c3c4nc(c(-c5c(F)cc(S(=O)(=O)[O-])cc5F)c5ccc([nH]5)c(-c5c(F)cc(S(=O)(=O)[O-])cc5F)c5nc(c(-c6c(F)cc(S(=O)(=O)[O-])cc6F)c6ccc3[nH]6)C=C5)C=C4)cc1)=C2
REMARK SMILES IDX 23 1 22 2 21 3 20 4 19 5 18 6 16 7 17 8 15 9 1 10 2 11 3 12
REMARK SMILES IDX 8 13 4 14 7 15 9 16 5 17 6 18 96 19 10 20 11 21 12 22 13 23
REMARK SMILES IDX 14 24 24 25 25 26 26 27 27 28 28 29 29 30 30 31 31 32 95 33
REMARK SMILES IDX 32 34 94 35 33 36 34 37 35 38 88 39 36 40 93 41 87 42 89 43
REMARK SMILES IDX 37 44 92 45 86 46 85 47 38 49 72 50 51 51 71 52 52 53 55 54
REMARK SMILES IDX 70 55 90 56 53 57 54 58 69 60 91 61 56 62 39 63 40 64 49 65
REMARK SMILES IDX 41 66 42 67 48 68 50 69 43 70 44 71 45 72 46 73 47 74 73 75
REMARK SMILES IDX 74 76 83 77 75 78 76 79 82 80 84 81 77 82 78 83 79 84 80 85
REMARK SMILES IDX 81 86 57 87 58 88 67 89 59 90 60 91 66 92 68 93 61 94 62 95
REMARK SMILES IDX 63 96 64 97 65 98
REMARK H PARENT 89 48 55 59
REMARK Flexibility Score: inf
ROOT
ATOM      1  C   UNL A   1      32.220  29.876  24.995  1.00  0.00     0.188 C 
ENDROOT
BRANCH   1   2
ATOM      2  C   UNL A   1      30.918  29.167  24.563  1.00  0.00     0.188 C 
BRANCH   2   3
ATOM      3  O   UNL A   1      30.779  27.765  24.678  1.00  0.00    -0.376 OA
BRANCH   3   4
ATOM      4  C   UNL A   1      30.923  27.110  25.925  1.00  0.00     0.202 C 
BRANCH   4   5
ATOM      5  C   UNL A   1      31.833  25.893  26.104  1.00  0.00     0.261 C 
BRANCH   5   6
ATOM      6  O   UNL A   1      31.831  24.984  24.998  1.00  0.00    -0.460 OA
BRANCH   6   7
ATOM      7  C   UNL A   1      32.936  25.039  24.217  1.00  0.00     0.338 C 
ATOM      8  O   UNL A   1      33.227  25.917  23.421  1.00  0.00    -0.246 OA
BRANCH   7   9
ATOM      9  C   UNL A   1      33.827  23.912  24.539  1.00  0.00     0.087 C 
ATOM     10  C   UNL A   1      36.171  19.356  24.786  1.00  0.00     0.048 C 
ATOM     11  C   UNL A   1      36.524  20.774  25.135  1.00  0.00    -0.007 A 
ATOM     12  C   UNL A   1      37.837  21.077  25.526  1.00  0.00     0.027 A 
ATOM     13  C   UNL A   1      35.598  21.821  24.988  1.00  0.00     0.131 A 
ATOM     14  C   UNL A   1      38.208  22.394  25.792  1.00  0.00     0.042 A 
ATOM     15  C   UNL A   1      35.985  23.145  25.223  1.00  0.00     0.019 A 
ATOM     16  O   UNL A   1      34.334  21.473  24.596  1.00  0.00    -0.475 OA
ATOM     17  Cl  UNL A   1      39.822  22.744  26.271  1.00  0.00    -0.084 Cl
ATOM     18  C   UNL A   1      37.289  23.429  25.645  1.00  0.00     0.032 A 
ATOM     19  C   UNL A   1      35.055  24.230  24.964  1.00  0.00     0.027 C 
ATOM     20  C   UNL A   1      33.336  22.503  24.369  1.00  0.00     0.316 C 
BRANCH  20  21
ATOM     21  C   UNL A   1      32.714  22.254  22.987  1.00  0.00     0.430 C 
ATOM     22  F   UNL A   1      32.769  20.940  22.656  1.00  0.00    -0.167 F 
ATOM     23  F   UNL A   1      31.406  22.601  22.948  1.00  0.00    -0.167 F 
ATOM     24  F   UNL A   1      33.345  22.944  22.011  1.00  0.00    -0.167 F 
ENDBRANCH  20  21
ENDBRANCH   7   9
ENDBRANCH   6   7
ENDBRANCH   5   6
ENDBRANCH   4   5
ENDBRANCH   3   4
ENDBRANCH   2   3
ENDBRANCH   1   2
BRANCH   1  25
ATOM     25  O   UNL A   1      32.591  29.965  26.356  1.00  0.00    -0.376 OA
BRANCH  25  26
ATOM     26  C   UNL A   1      33.875  29.517  26.763  1.00  0.00     0.202 C 
BRANCH  26  27
ATOM     27  C   UNL A   1      34.633  30.203  27.904  1.00  0.00     0.261 C 
BRANCH  27  28
ATOM     28  O   UNL A   1      35.642  29.392  28.518  1.00  0.00    -0.460 OA
BRANCH  28  29
ATOM     29  C   UNL A   1      36.327  29.996  29.521  1.00  0.00     0.338 C 
ATOM     30  O   UNL A   1      35.874  30.441  30.562  1.00  0.00    -0.246 OA
BRANCH  29  31
ATOM     31  C   UNL A   1      37.772  29.872  29.264  1.00  0.00     0.060 A 
ATOM     32  C   UNL A   1      38.200  29.766  27.933  1.00  0.00     0.016 A 
ATOM     33  C   UNL A   1      38.687  29.812  30.315  1.00  0.00     0.016 A 
ATOM     34  C   UNL A   1      39.550  29.576  27.650  1.00  0.00     0.010 A 
ATOM     35  C   UNL A   1      40.038  29.591  30.030  1.00  0.00     0.010 A 
ATOM     36  C   UNL A   1      40.469  29.445  28.699  1.00  0.00    -0.014 A 
BRANCH  36  37
ATOM     37  C   UNL A   1      41.839  28.959  28.414  1.00  0.00     0.031 A 
ATOM     38  C   UNL A   1      42.970  29.948  28.464  1.00  0.00     0.074 A 
ATOM     39  C   UNL A   1      42.077  27.664  28.142  1.00  0.00     0.049 A 
ATOM     40  N   UNL A   1      44.239  29.769  28.210  1.00  0.00    -0.248 NA
ATOM     41  C   UNL A   1      42.622  31.325  28.858  1.00  0.00     0.031 C 
ATOM     42  C   UNL A   1      41.070  26.605  28.118  1.00  0.00     0.029 A 
ATOM     43  N   UNL A   1      43.249  27.023  27.829  1.00  0.00    -0.354 N 
ATOM     44  C   UNL A   1      44.842  31.003  28.420  1.00  0.00     0.074 A 
ATOM     45  C   UNL A   1      43.798  31.931  28.792  1.00  0.00     0.031 C 
ATOM     46  C   UNL A   1      41.669  25.443  27.796  1.00  0.00     0.029 A 
ATOM     47  C   UNL A   1      43.093  25.684  27.562  1.00  0.00     0.049 A 
ATOM     48  H   UNL A   1      44.121  27.479  27.800  1.00  0.00     0.167 HD
ATOM     49  C   UNL A   1      46.152  31.331  28.318  1.00  0.00     0.037 A 
ATOM     50  C   UNL A   1      43.994  24.767  27.155  1.00  0.00     0.037 A 
ATOM     51  C   UNL A   1      47.186  30.410  27.932  1.00  0.00     0.049 A 
ATOM     52  C   UNL A   1      45.430  25.180  26.952  1.00  0.00     0.074 A 
ATOM     53  C   UNL A   1      48.541  30.650  27.792  1.00  0.00     0.029 A 
ATOM     54  N   UNL A   1      46.980  29.076  27.618  1.00  0.00    -0.354 N 
ATOM     55  N   UNL A   1      45.989  26.350  27.153  1.00  0.00    -0.248 NA
ATOM     56  C   UNL A   1      46.357  24.149  26.462  1.00  0.00     0.031 C 
ATOM     57  C   UNL A   1      49.148  29.470  27.349  1.00  0.00     0.029 A 
ATOM     58  C   UNL A   1      48.179  28.484  27.260  1.00  0.00     0.049 A 
ATOM     59  H   UNL A   1      46.108  28.616  27.644  1.00  0.00     0.167 HD
ATOM     60  C   UNL A   1      47.335  26.190  26.836  1.00  0.00     0.074 A 
ATOM     61  C   UNL A   1      47.509  24.808  26.439  1.00  0.00     0.031 C 
ATOM     62  C   UNL A   1      48.337  27.104  26.870  1.00  0.00     0.037 A 
BRANCH  49  63
ATOM     63  C   UNL A   1      46.536  32.751  28.616  1.00  0.00     0.058 A 
ATOM     64  C   UNL A   1      46.539  33.735  27.614  1.00  0.00     0.135 A 
ATOM     65  C   UNL A   1      46.863  33.144  29.923  1.00  0.00     0.135 A 
ATOM     66  F   UNL A   1      46.257  33.406  26.343  1.00  0.00    -0.206 F 
ATOM     67  C   UNL A   1      46.864  35.057  27.896  1.00  0.00     0.059 A 
ATOM     68  C   UNL A   1      47.168  34.465  30.232  1.00  0.00     0.059 A 
ATOM     69  F   UNL A   1      46.882  32.239  30.915  1.00  0.00    -0.206 F 
ATOM     70  C   UNL A   1      47.173  35.413  29.210  1.00  0.00     0.060 A 
BRANCH  70  71
ATOM     71  S   UNL A   1      47.571  37.139  29.562  1.00  0.00     0.124 S 
ATOM     72  O   UNL A   1      48.447  37.005  30.723  1.00  0.00    -0.237 OA
ATOM     73  O   UNL A   1      48.218  37.567  28.326  1.00  0.00    -0.237 OA
ATOM     74  O   UNL A   1      46.269  37.742  29.826  1.00  0.00    -0.744 OA
ENDBRANCH  70  71
ENDBRANCH  49  63
BRANCH  50  75
ATOM     75  C   UNL A   1      43.565  23.366  26.897  1.00  0.00     0.058 A 
ATOM     76  C   UNL A   1      43.297  22.487  27.956  1.00  0.00     0.135 A 
ATOM     77  C   UNL A   1      43.423  22.876  25.590  1.00  0.00     0.135 A 
ATOM     78  F   UNL A   1      43.435  22.903  29.225  1.00  0.00    -0.206 F 
ATOM     79  C   UNL A   1      42.909  21.170  27.730  1.00  0.00     0.059 A 
ATOM     80  C   UNL A   1      43.013  21.570  25.337  1.00  0.00     0.059 A 
ATOM     81  F   UNL A   1      43.664  23.678  24.541  1.00  0.00    -0.206 F 
ATOM     82  C   UNL A   1      42.766  20.722  26.415  1.00  0.00     0.060 A 
BRANCH  82  83
ATOM     83  S   UNL A   1      42.214  19.025  26.135  1.00  0.00     0.124 S 
ATOM     84  O   UNL A   1      40.813  19.224  25.786  1.00  0.00    -0.237 OA
ATOM     85  O   UNL A   1      43.088  18.597  25.047  1.00  0.00    -0.237 OA
ATOM     86  O   UNL A   1      42.460  18.375  27.418  1.00  0.00    -0.744 OA
ENDBRANCH  82  83
ENDBRANCH  50  75
BRANCH  62  87
ATOM     87  C   UNL A   1      49.718  26.646  26.491  1.00  0.00     0.058 A 
ATOM     88  C   UNL A   1      50.551  25.991  27.409  1.00  0.00     0.135 A 
ATOM     89  C   UNL A   1      50.178  26.788  25.172  1.00  0.00     0.135 A 
ATOM     90  F   UNL A   1      50.160  25.831  28.684  1.00  0.00    -0.206 F 
ATOM     91  C   UNL A   1      51.800  25.503  27.037  1.00  0.00     0.059 A 
ATOM     92  C   UNL A   1      51.413  26.287  24.770  1.00  0.00     0.059 A 
ATOM     93  F   UNL A   1      49.414  27.397  24.251  1.00  0.00    -0.206 F 
ATOM     94  C   UNL A   1      52.220  25.652  25.713  1.00  0.00     0.060 A 
BRANCH  94  95
ATOM     95  S   UNL A   1      53.823  24.971  25.234  1.00  0.00     0.124 S 
ATOM     96  O   UNL A   1      54.662  25.376  26.356  1.00  0.00    -0.237 OA
ATOM     97  O   UNL A   1      53.538  23.542  25.137  1.00  0.00    -0.237 OA
ATOM     98  O   UNL A   1      54.109  25.635  23.965  1.00  0.00    -0.744 OA
ENDBRANCH  94  95
ENDBRANCH  62  87
ENDBRANCH  36  37
ENDBRANCH  29  31
ENDBRANCH  28  29
ENDBRANCH  27  28
ENDBRANCH  26  27
ENDBRANCH  25  26
ENDBRANCH   1  25
TORSDOF 21
ENDMDL
MODEL 2
REMARK VINA RESULT:     -10.0      1.621      2.188
REMARK SMILES Cc1cc(Cl)cc2c1O[C@H](C(F)(F)F)C(C(=O)OCCOCCOCCOC(=O)c1ccc(-c3c4nc(c(-c5c(F)cc(S(=O)(=O)[O-])cc5F)c5ccc([nH]5)c(-c5c(F)cc(S(=O)(=O)[O-])cc5F)c5nc(c(-c6c(F)cc(S(=O)(=O)[O-])cc6F)c6ccc3[nH]6)C=C5)C=C4)cc1)=C2
REMARK SMILES IDX 23 1 22 2 21 3 20 4 19 5 18 6 16 7 17 8 15 9 1 10 2 11 3 12
REMARK SMILES IDX 8 13 4 14 7 15 9 16 5 17 6 18 96 19 10 20 11 21 12 22 13 23
REMARK SMILES IDX 14 24 24 25 25 26 26 27 27 28 28 29 29 30 30 31 31 32 95 33
REMARK SMILES IDX 32 34 94 35 33 36 34 37 35 38 88 39 36 40 93 41 87 42 89 43
REMARK SMILES IDX 37 44 92 45 86 46 85 47 38 49 72 50 51 51 71 52 52 53 55 54
REMARK SMILES IDX 70 55 90 56 53 57 54 58 69 60 91 61 56 62 39 63 40 64 49 65
REMARK SMILES IDX 41 66 42 67 48 68 50 69 43 70 44 71 45 72 46 73 47 74 73 75
REMARK SMILES IDX 74 76 83 77 75 78 76 79 82 80 84 81 77 82 78 83 79 84 80 85
REMARK SMILES IDX 81 86 57 87 58 88 67 89 59 90 60 91 66 92 68 93 61 94 62 95
REMARK SMILES IDX 63 96 64 97 65 98
REMARK H PARENT 89 48 55 59
REMARK Flexibility Score: inf
ROOT
ATOM      1  C   UNL A   1      31.934  29.982  25.174  1.00  0.00     0.188 C 
ENDROOT
BRANCH   1   2
ATOM      2  C   UNL A   1      30.956  28.832  24.852  1.00  0.00     0.188 C 
BRANCH   2   3
ATOM      3  O   UNL A   1      31.351  27.481  24.982  1.00  0.00    -0.376 OA
BRANCH   3   4
ATOM      4  C   UNL A   1      30.979  26.709  26.110  1.00  0.00     0.202 C 
BRANCH   4   5
ATOM      5  C   UNL A   1      31.697  25.409  26.478  1.00  0.00     0.261 C 
BRANCH   5   6
ATOM      6  O   UNL A   1      31.760  24.446  25.421  1.00  0.00    -0.460 OA
BRANCH   6   7
ATOM      7  C   UNL A   1      32.918  23.749  25.357  1.00  0.00     0.338 C 
ATOM      8  O   UNL A   1      33.994  24.068  25.839  1.00  0.00    -0.246 OA
BRANCH   7   9
ATOM      9  C   UNL A   1      32.682  22.454  24.697  1.00  0.00     0.087 C 
ATOM     10  C   UNL A   1      32.191  18.627  21.316  1.00  0.00     0.048 C 
ATOM     11  C   UNL A   1      32.372  18.740  22.804  1.00  0.00    -0.007 A 
ATOM     12  C   UNL A   1      32.595  17.577  23.557  1.00  0.00     0.027 A 
ATOM     13  C   UNL A   1      32.419  19.989  23.447  1.00  0.00     0.131 A 
ATOM     14  C   UNL A   1      32.831  17.659  24.927  1.00  0.00     0.042 A 
ATOM     15  C   UNL A   1      32.691  20.067  24.818  1.00  0.00     0.019 A 
ATOM     16  O   UNL A   1      32.204  21.091  22.666  1.00  0.00    -0.475 OA
ATOM     17  Cl  UNL A   1      33.101  16.222  25.832  1.00  0.00    -0.084 Cl
ATOM     18  C   UNL A   1      32.878  18.897  25.562  1.00  0.00     0.032 A 
ATOM     19  C   UNL A   1      32.846  21.363  25.454  1.00  0.00     0.027 C 
ATOM     20  C   UNL A   1      32.292  22.419  23.247  1.00  0.00     0.316 C 
BRANCH  20  21
ATOM     21  C   UNL A   1      33.225  23.256  22.360  1.00  0.00     0.430 C 
ATOM     22  F   UNL A   1      34.522  22.904  22.546  1.00  0.00    -0.167 F 
ATOM     23  F   UNL A   1      32.968  23.081  21.043  1.00  0.00    -0.167 F 
ATOM     24  F   UNL A   1      33.126  24.579  22.620  1.00  0.00    -0.167 F 
ENDBRANCH  20  21
ENDBRANCH   7   9
ENDBRANCH   6   7
ENDBRANCH   5   6
ENDBRANCH   4   5
ENDBRANCH   3   4
ENDBRANCH   2   3
ENDBRANCH   1   2
BRANCH   1  25
ATOM     25  O   UNL A   1      32.339  30.250  26.502  1.00  0.00    -0.376 OA
BRANCH  25  26
ATOM     26  C   UNL A   1      33.475  29.586  27.036  1.00  0.00     0.202 C 
BRANCH  26  27
ATOM     27  C   UNL A   1      34.515  30.335  27.875  1.00  0.00     0.261 C 
BRANCH  27  28
ATOM     28  O   UNL A   1      35.700  29.584  28.161  1.00  0.00    -0.460 OA
BRANCH  28  29
ATOM     29  C   UNL A   1      36.386  29.995  29.257  1.00  0.00     0.338 C 
ATOM     30  O   UNL A   1      35.928  30.286  30.349  1.00  0.00    -0.246 OA
BRANCH  29  31
ATOM     31  C   UNL A   1      37.831  29.860  29.003  1.00  0.00     0.060 A 
ATOM     32  C   UNL A   1      38.255  29.675  27.681  1.00  0.00     0.016 A 
ATOM     33  C   UNL A   1      38.749  29.865  30.054  1.00  0.00     0.016 A 
ATOM     34  C   UNL A   1      39.605  29.471  27.405  1.00  0.00     0.010 A 
ATOM     35  C   UNL A   1      40.099  29.631  29.779  1.00  0.00     0.010 A 
ATOM     36  C   UNL A   1      40.527  29.406  28.458  1.00  0.00    -0.014 A 
BRANCH  36  37
ATOM     37  C   UNL A   1      41.897  28.907  28.199  1.00  0.00     0.031 A 
ATOM     38  C   UNL A   1      43.033  29.892  28.235  1.00  0.00     0.074 A 
ATOM     39  C   UNL A   1      42.133  27.604  27.963  1.00  0.00     0.049 A 
ATOM     40  N   UNL A   1      44.303  29.701  27.999  1.00  0.00    -0.248 NA
ATOM     41  C   UNL A   1      42.686  31.280  28.591  1.00  0.00     0.031 C 
ATOM     42  C   UNL A   1      41.121  26.549  27.955  1.00  0.00     0.029 A 
ATOM     43  N   UNL A   1      43.305  26.950  27.678  1.00  0.00    -0.354 N 
ATOM     44  C   UNL A   1      44.910  30.938  28.183  1.00  0.00     0.074 A 
ATOM     45  C   UNL A   1      43.866  31.880  28.521  1.00  0.00     0.031 C 
ATOM     46  C   UNL A   1      41.718  25.377  27.669  1.00  0.00     0.029 A 
ATOM     47  C   UNL A   1      43.145  25.606  27.443  1.00  0.00     0.049 A 
ATOM     48  H   UNL A   1      44.179  27.402  27.645  1.00  0.00     0.167 HD
ATOM     49  C   UNL A   1      46.221  31.257  28.086  1.00  0.00     0.037 A 
ATOM     50  C   UNL A   1      44.046  24.675  27.068  1.00  0.00     0.037 A 
ATOM     51  C   UNL A   1      47.256  30.322  27.734  1.00  0.00     0.049 A 
ATOM     52  C   UNL A   1      45.485  25.077  26.869  1.00  0.00     0.074 A 
ATOM     53  C   UNL A   1      48.613  30.553  27.601  1.00  0.00     0.029 A 
ATOM     54  N   UNL A   1      47.046  28.981  27.451  1.00  0.00    -0.354 N 
ATOM     55  N   UNL A   1      46.048  26.249  27.046  1.00  0.00    -0.248 NA
ATOM     56  C   UNL A   1      46.413  24.030  26.415  1.00  0.00     0.031 C 
ATOM     57  C   UNL A   1      49.219  29.359  27.194  1.00  0.00     0.029 A 
ATOM     58  C   UNL A   1      48.246  28.375  27.121  1.00  0.00     0.049 A 
ATOM     59  H   UNL A   1      46.173  28.527  27.481  1.00  0.00     0.167 HD
ATOM     60  C   UNL A   1      47.396  26.076  26.747  1.00  0.00     0.074 A 
ATOM     61  C   UNL A   1      47.568  24.683  26.387  1.00  0.00     0.031 C 
ATOM     62  C   UNL A   1      48.401  26.986  26.768  1.00  0.00     0.037 A 
BRANCH  49  63
ATOM     63  C   UNL A   1      46.609  32.683  28.351  1.00  0.00     0.058 A 
ATOM     64  C   UNL A   1      46.555  33.657  27.342  1.00  0.00     0.135 A 
ATOM     65  C   UNL A   1      46.998  33.090  29.636  1.00  0.00     0.135 A 
ATOM     66  F   UNL A   1      46.213  33.315  26.089  1.00  0.00    -0.206 F 
ATOM     67  C   UNL A   1      46.883  34.984  27.595  1.00  0.00     0.059 A 
ATOM     68  C   UNL A   1      47.308  34.417  29.919  1.00  0.00     0.059 A 
ATOM     69  F   UNL A   1      47.074  32.195  30.635  1.00  0.00    -0.206 F 
ATOM     70  C   UNL A   1      47.255  35.355  28.889  1.00  0.00     0.060 A 
BRANCH  70  71
ATOM     71  S   UNL A   1      47.656  37.087  29.205  1.00  0.00     0.124 S 
ATOM     72  O   UNL A   1      48.982  37.193  28.601  1.00  0.00    -0.237 OA
ATOM     73  O   UNL A   1      46.584  37.787  28.506  1.00  0.00    -0.237 OA
ATOM     74  O   UNL A   1      47.622  37.185  30.660  1.00  0.00    -0.744 OA
ENDBRANCH  70  71
ENDBRANCH  49  63
BRANCH  50  75
ATOM     75  C   UNL A   1      43.613  23.270  26.842  1.00  0.00     0.058 A 
ATOM     76  C   UNL A   1      43.195  22.462  27.910  1.00  0.00     0.135 A 
ATOM     77  C   UNL A   1      43.617  22.704  25.558  1.00  0.00     0.135 A 
ATOM     78  F   UNL A   1      43.190  22.952  29.159  1.00  0.00    -0.206 F 
ATOM     79  C   UNL A   1      42.802  21.142  27.715  1.00  0.00     0.059 A 
ATOM     80  C   UNL A   1      43.205  21.393  25.334  1.00  0.00     0.059 A 
ATOM     81  F   UNL A   1      44.005  23.435  24.502  1.00  0.00    -0.206 F 
ATOM     82  C   UNL A   1      42.806  20.618  26.421  1.00  0.00     0.060 A 
BRANCH  82  83
ATOM     83  S   UNL A   1      42.247  18.918  26.174  1.00  0.00     0.124 S 
ATOM     84  O   UNL A   1      40.833  19.113  25.874  1.00  0.00    -0.237 OA
ATOM     85  O   UNL A   1      43.082  18.482  25.059  1.00  0.00    -0.237 OA
ATOM     86  O   UNL A   1      42.539  18.280  27.453  1.00  0.00    -0.744 OA
ENDBRANCH  82  83
ENDBRANCH  50  75
BRANCH  62  87
ATOM     87  C   UNL A   1      49.784  26.512  26.414  1.00  0.00     0.058 A 
ATOM     88  C   UNL A   1      50.287  26.625  25.110  1.00  0.00     0.135 A 
ATOM     89  C   UNL A   1      50.644  26.019  27.409  1.00  0.00     0.135 A 
ATOM     90  F   UNL A   1      49.506  27.088  24.121  1.00  0.00    -0.206 F 
ATOM     91  C   UNL A   1      51.592  26.253  24.800  1.00  0.00     0.059 A 
ATOM     92  C   UNL A   1      51.960  25.663  27.128  1.00  0.00     0.059 A 
ATOM     93  F   UNL A   1      50.216  25.902  28.676  1.00  0.00    -0.206 F 
ATOM     94  C   UNL A   1      52.423  25.777  25.818  1.00  0.00     0.060 A 
BRANCH  94  95
ATOM     95  S   UNL A   1      54.127  25.344  25.408  1.00  0.00     0.124 S 
ATOM     96  O   UNL A   1      54.871  26.092  26.416  1.00  0.00    -0.237 OA
ATOM     97  O   UNL A   1      54.127  23.893  25.567  1.00  0.00    -0.237 OA
ATOM     98  O   UNL A   1      54.279  25.820  24.036  1.00  0.00    -0.744 OA
ENDBRANCH  94  95
ENDBRANCH  62  87
ENDBRANCH  36  37
ENDBRANCH  29  31
ENDBRANCH  28  29
ENDBRANCH  27  28
ENDBRANCH  26  27
ENDBRANCH  25  26
ENDBRANCH   1  25
TORSDOF 21
ENDMDL
MODEL 3
REMARK VINA RESULT:      -9.7      4.597      5.575
REMARK SMILES Cc1cc(Cl)cc2c1O[C@H](C(F)(F)F)C(C(=O)OCCOCCOCCOC(=O)c1ccc(-c3c4nc(c(-c5c(F)cc(S(=O)(=O)[O-])cc5F)c5ccc([nH]5)c(-c5c(F)cc(S(=O)(=O)[O-])cc5F)c5nc(c(-c6c(F)cc(S(=O)(=O)[O-])cc6F)c6ccc3[nH]6)C=C5)C=C4)cc1)=C2
REMARK SMILES IDX 23 1 22 2 21 3 20 4 19 5 18 6 16 7 17 8 15 9 1 10 2 11 3 12
REMARK SMILES IDX 8 13 4 14 7 15 9 16 5 17 6 18 96 19 10 20 11 21 12 22 13 23
REMARK SMILES IDX 14 24 24 25 25 26 26 27 27 28 28 29 29 30 30 31 31 32 95 33
REMARK SMILES IDX 32 34 94 35 33 36 34 37 35 38 88 39 36 40 93 41 87 42 89 43
REMARK SMILES IDX 37 44 92 45 86 46 85 47 38 49 72 50 51 51 71 52 52 53 55 54
REMARK SMILES IDX 70 55 90 56 53 57 54 58 69 60 91 61 56 62 39 63 40 64 49 65
REMARK SMILES IDX 41 66 42 67 48 68 50 69 43 70 44 71 45 72 46 73 47 74 73 75
REMARK SMILES IDX 74 76 83 77 75 78 76 79 82 80 84 81 77 82 78 83 79 84 80 85
REMARK SMILES IDX 81 86 57 87 58 88 67 89 59 90 60 91 66 92 68 93 61 94 62 95
REMARK SMILES IDX 63 96 64 97 65 98
REMARK H PARENT 89 48 55 59
REMARK Flexibility Score: inf
ROOT
ATOM      1  C   UNL A   1      31.123  28.818  24.373  1.00  0.00     0.188 C 
ENDROOT
BRANCH   1   2
ATOM      2  C   UNL A   1      30.143  28.206  23.348  1.00  0.00     0.188 C 
BRANCH   2   3
ATOM      3  O   UNL A   1      30.589  27.791  22.073  1.00  0.00    -0.376 OA
BRANCH   3   4
ATOM      4  C   UNL A   1      31.496  26.713  21.923  1.00  0.00     0.202 C 
BRANCH   4   5
ATOM      5  C   UNL A   1      31.469  25.494  22.847  1.00  0.00     0.261 C 
BRANCH   5   6
ATOM      6  O   UNL A   1      32.620  25.361  23.688  1.00  0.00    -0.460 OA
BRANCH   6   7
ATOM      7  C   UNL A   1      32.421  24.628  24.809  1.00  0.00     0.338 C 
ATOM      8  O   UNL A   1      31.424  24.622  25.514  1.00  0.00    -0.246 OA
BRANCH   7   9
ATOM      9  C   UNL A   1      33.566  23.726  25.021  1.00  0.00     0.087 C 
ATOM     10  C   UNL A   1      36.933  19.860  24.844  1.00  0.00     0.048 C 
ATOM     11  C   UNL A   1      36.951  21.290  25.306  1.00  0.00    -0.007 A 
ATOM     12  C   UNL A   1      38.168  21.868  25.698  1.00  0.00     0.027 A 
ATOM     13  C   UNL A   1      35.798  22.092  25.263  1.00  0.00     0.131 A 
ATOM     14  C   UNL A   1      38.225  23.210  26.067  1.00  0.00     0.042 A 
ATOM     15  C   UNL A   1      35.868  23.449  25.602  1.00  0.00     0.019 A 
ATOM     16  O   UNL A   1      34.640  21.483  24.864  1.00  0.00    -0.475 OA
ATOM     17  Cl  UNL A   1      39.726  23.898  26.547  1.00  0.00    -0.084 Cl
ATOM     18  C   UNL A   1      37.082  24.003  26.023  1.00  0.00     0.032 A 
ATOM     19  C   UNL A   1      34.698  24.296  25.450  1.00  0.00     0.027 C 
ATOM     20  C   UNL A   1      33.418  22.258  24.741  1.00  0.00     0.316 C 
BRANCH  20  21
ATOM     21  C   UNL A   1      32.822  21.975  23.354  1.00  0.00     0.430 C 
ATOM     22  F   UNL A   1      32.910  20.658  23.044  1.00  0.00    -0.167 F 
ATOM     23  F   UNL A   1      31.508  22.295  23.289  1.00  0.00    -0.167 F 
ATOM     24  F   UNL A   1      33.455  22.663  22.377  1.00  0.00    -0.167 F 
ENDBRANCH  20  21
ENDBRANCH   7   9
ENDBRANCH   6   7
ENDBRANCH   5   6
ENDBRANCH   4   5
ENDBRANCH   3   4
ENDBRANCH   2   3
ENDBRANCH   1   2
BRANCH   1  25
ATOM     25  O   UNL A   1      31.490  28.119  25.546  1.00  0.00    -0.376 OA
BRANCH  25  26
ATOM     26  C   UNL A   1      32.845  28.126  25.971  1.00  0.00     0.202 C 
BRANCH  26  27
ATOM     27  C   UNL A   1      33.581  29.437  26.264  1.00  0.00     0.261 C 
BRANCH  27  28
ATOM     28  O   UNL A   1      34.454  29.387  27.398  1.00  0.00    -0.460 OA
BRANCH  28  29
ATOM     29  C   UNL A   1      34.974  30.582  27.771  1.00  0.00     0.338 C 
ATOM     30  O   UNL A   1      34.469  31.684  27.632  1.00  0.00    -0.246 OA
BRANCH  29  31
ATOM     31  C   UNL A   1      36.192  30.354  28.568  1.00  0.00     0.060 A 
ATOM     32  C   UNL A   1      37.361  31.032  28.198  1.00  0.00     0.016 A 
ATOM     33  C   UNL A   1      36.197  29.450  29.631  1.00  0.00     0.016 A 
ATOM     34  C   UNL A   1      38.551  30.791  28.879  1.00  0.00     0.010 A 
ATOM     35  C   UNL A   1      37.399  29.187  30.296  1.00  0.00     0.010 A 
ATOM     36  C   UNL A   1      38.584  29.835  29.904  1.00  0.00    -0.014 A 
BRANCH  36  37
ATOM     37  C   UNL A   1      39.889  29.371  30.427  1.00  0.00     0.031 A 
ATOM     38  C   UNL A   1      40.469  30.076  31.622  1.00  0.00     0.074 A 
ATOM     39  C   UNL A   1      40.534  28.330  29.871  1.00  0.00     0.049 A 
ATOM     40  N   UNL A   1      41.610  29.879  32.227  1.00  0.00    -0.248 NA
ATOM     41  C   UNL A   1      39.647  31.146  32.215  1.00  0.00     0.031 C 
ATOM     42  C   UNL A   1      40.046  27.536  28.745  1.00  0.00     0.029 A 
ATOM     43  N   UNL A   1      41.746  27.767  30.182  1.00  0.00    -0.354 N 
ATOM     44  C   UNL A   1      41.641  30.791  33.275  1.00  0.00     0.074 A 
ATOM     45  C   UNL A   1      40.420  31.563  33.207  1.00  0.00     0.031 C 
ATOM     46  C   UNL A   1      40.959  26.591  28.452  1.00  0.00     0.029 A 
ATOM     47  C   UNL A   1      42.105  26.734  29.349  1.00  0.00     0.049 A 
ATOM     48  H   UNL A   1      42.305  28.073  30.931  1.00  0.00     0.167 HD
ATOM     49  C   UNL A   1      42.599  30.964  34.215  1.00  0.00     0.037 A 
ATOM     50  C   UNL A   1      43.239  26.006  29.306  1.00  0.00     0.037 A 
ATOM     51  C   UNL A   1      43.820  30.206  34.272  1.00  0.00     0.049 A 
ATOM     52  C   UNL A   1      44.336  26.285  30.302  1.00  0.00     0.074 A 
ATOM     53  C   UNL A   1      44.857  30.314  35.181  1.00  0.00     0.029 A 
ATOM     54  N   UNL A   1      44.171  29.205  33.379  1.00  0.00    -0.354 N 
ATOM     55  N   UNL A   1      44.355  27.150  31.289  1.00  0.00    -0.248 NA
ATOM     56  C   UNL A   1      45.568  25.491  30.178  1.00  0.00     0.031 C 
ATOM     57  C   UNL A   1      45.856  29.407  34.810  1.00  0.00     0.029 A 
ATOM     58  C   UNL A   1      45.420  28.702  33.701  1.00  0.00     0.049 A 
ATOM     59  H   UNL A   1      43.615  28.898  32.626  1.00  0.00     0.167 HD
ATOM     60  C   UNL A   1      45.588  26.989  31.915  1.00  0.00     0.074 A 
ATOM     61  C   UNL A   1      46.284  25.938  31.202  1.00  0.00     0.031 C 
ATOM     62  C   UNL A   1      46.099  27.652  32.982  1.00  0.00     0.037 A 
BRANCH  49  63
ATOM     63  C   UNL A   1      42.371  32.026  35.251  1.00  0.00     0.058 A 
ATOM     64  C   UNL A   1      41.774  31.729  36.487  1.00  0.00     0.135 A 
ATOM     65  C   UNL A   1      42.791  33.345  35.026  1.00  0.00     0.135 A 
ATOM     66  F   UNL A   1      41.332  30.487  36.743  1.00  0.00    -0.206 F 
ATOM     67  C   UNL A   1      41.592  32.706  37.459  1.00  0.00     0.059 A 
ATOM     68  C   UNL A   1      42.641  34.334  35.993  1.00  0.00     0.059 A 
ATOM     69  F   UNL A   1      43.360  33.683  33.857  1.00  0.00    -0.206 F 
ATOM     70  C   UNL A   1      42.032  34.006  37.204  1.00  0.00     0.060 A 
BRANCH  70  71
ATOM     71  S   UNL A   1      41.808  35.257  38.485  1.00  0.00     0.124 S 
ATOM     72  O   UNL A   1      42.635  36.347  37.976  1.00  0.00    -0.237 OA
ATOM     73  O   UNL A   1      40.367  35.485  38.448  1.00  0.00    -0.237 OA
ATOM     74  O   UNL A   1      42.305  34.603  39.691  1.00  0.00    -0.744 OA
ENDBRANCH  70  71
ENDBRANCH  49  63
BRANCH  50  75
ATOM     75  C   UNL A   1      43.405  24.948  28.274  1.00  0.00     0.058 A 
ATOM     76  C   UNL A   1      43.984  25.237  27.029  1.00  0.00     0.135 A 
ATOM     77  C   UNL A   1      42.983  23.630  28.507  1.00  0.00     0.135 A 
ATOM     78  F   UNL A   1      44.389  26.486  26.752  1.00  0.00    -0.206 F 
ATOM     79  C   UNL A   1      44.132  24.261  26.049  1.00  0.00     0.059 A 
ATOM     80  C   UNL A   1      43.142  22.630  27.551  1.00  0.00     0.059 A 
ATOM     81  F   UNL A   1      42.426  23.300  29.682  1.00  0.00    -0.206 F 
ATOM     82  C   UNL A   1      43.712  22.958  26.323  1.00  0.00     0.060 A 
BRANCH  82  83
ATOM     83  S   UNL A   1      43.955  21.688  25.060  1.00  0.00     0.124 S 
ATOM     84  O   UNL A   1      45.320  21.257  25.334  1.00  0.00    -0.237 OA
ATOM     85  O   UNL A   1      42.904  20.729  25.387  1.00  0.00    -0.237 OA
ATOM     86  O   UNL A   1      43.761  22.416  23.810  1.00  0.00    -0.744 OA
ENDBRANCH  82  83
ENDBRANCH  50  75
BRANCH  62  87
ATOM     87  C   UNL A   1      47.466  27.254  33.467  1.00  0.00     0.058 A 
ATOM     88  C   UNL A   1      47.642  26.218  34.395  1.00  0.00     0.135 A 
ATOM     89  C   UNL A   1      48.615  27.859  32.932  1.00  0.00     0.135 A 
ATOM     90  F   UNL A   1      46.577  25.608  34.938  1.00  0.00    -0.206 F 
ATOM     91  C   UNL A   1      48.911  25.803  34.787  1.00  0.00     0.059 A 
ATOM     92  C   UNL A   1      49.894  27.445  33.291  1.00  0.00     0.059 A 
ATOM     93  F   UNL A   1      48.502  28.848  32.031  1.00  0.00    -0.206 F 
ATOM     94  C   UNL A   1      50.032  26.419  34.225  1.00  0.00     0.060 A 
BRANCH  94  95
ATOM     95  S   UNL A   1      51.671  25.836  34.709  1.00  0.00     0.124 S 
ATOM     96  O   UNL A   1      51.400  24.445  35.051  1.00  0.00    -0.237 OA
ATOM     97  O   UNL A   1      52.450  26.051  33.493  1.00  0.00    -0.237 OA
ATOM     98  O   UNL A   1      52.022  26.701  35.832  1.00  0.00    -0.744 OA
ENDBRANCH  94  95
ENDBRANCH  62  87
ENDBRANCH  36  37
ENDBRANCH  29  31
ENDBRANCH  28  29
ENDBRANCH  27  28
ENDBRANCH  26  27
ENDBRANCH  25  26
ENDBRANCH   1  25
TORSDOF 21
ENDMDL
