MODEL 1
REMARK VINA RESULT:     -10.4      0.000      0.000
REMARK SMILES CCc1ccc2c(c1)C=C(C(=O)OCCOCCOCCOC(=O)c1ccc(-c3c4nc(c(-c5c(F)cc(S(=O)(=O)[O-])cc5F)c5ccc([nH]5)c(-c5c(F)cc(S(=O)(=O)[O-])cc5F)c5nc(c(-c6c(F)cc(S(=O)(=O)[O-])cc6F)c6ccc3[nH]6)C=C5)C=C4)cc1)[C@H](C(F)(F)F)O2
REMARK SMILES IDX 18 1 17 2 16 3 15 4 14 5 13 6 11 7 12 8 10 9 3 10 4 11 8 12
REMARK SMILES IDX 5 13 7 14 6 15 9 16 96 17 91 18 2 19 1 20 92 21 93 22 94 23
REMARK SMILES IDX 95 24 19 25 20 26 21 27 22 28 23 29 24 30 25 31 26 32 90 33
REMARK SMILES IDX 27 34 89 35 28 36 29 37 30 38 83 39 31 40 88 41 82 42 84 43
REMARK SMILES IDX 32 44 87 45 81 46 80 47 33 49 67 50 46 51 66 52 47 53 50 54
REMARK SMILES IDX 65 55 85 56 48 57 49 58 64 60 86 61 51 62 34 63 35 64 44 65
REMARK SMILES IDX 36 66 37 67 43 68 45 69 38 70 39 71 40 72 41 73 42 74 68 75
REMARK SMILES IDX 69 76 78 77 70 78 71 79 77 80 79 81 72 82 73 83 74 84 75 85
REMARK SMILES IDX 76 86 52 87 53 88 62 89 54 90 55 91 61 92 63 93 56 94 57 95
REMARK SMILES IDX 58 96 59 97 60 98
REMARK H PARENT 84 48 50 59
REMARK Flexibility Score: inf
ROOT
ATOM      1  C   UNL A   1      38.604  21.581  25.738  1.00  0.00     0.188 C 
ENDROOT
BRANCH   1   2
ATOM      2  C   UNL A   1      37.419  21.020  24.926  1.00  0.00     0.188 C 
BRANCH   2   3
ATOM      3  O   UNL A   1      36.180  21.060  25.622  1.00  0.00    -0.376 OA
BRANCH   3   4
ATOM      4  C   UNL A   1      35.365  22.196  25.366  1.00  0.00     0.202 C 
BRANCH   4   5
ATOM      5  C   UNL A   1      35.131  22.425  23.872  1.00  0.00     0.261 C 
BRANCH   5   6
ATOM      6  O   UNL A   1      35.184  23.808  23.487  1.00  0.00    -0.460 OA
BRANCH   6   7
ATOM      7  C   UNL A   1      34.019  24.383  23.109  1.00  0.00     0.338 C 
ATOM      8  O   UNL A   1      33.451  24.210  22.047  1.00  0.00    -0.246 OA
BRANCH   7   9
ATOM      9  C   UNL A   1      33.490  25.199  24.221  1.00  0.00     0.087 C 
ATOM     10  C   UNL A   1      33.313  29.283  26.797  1.00  0.00    -0.047 A 
ATOM     11  C   UNL A   1      32.089  28.859  27.339  1.00  0.00     0.007 A 
ATOM     12  C   UNL A   1      33.969  28.451  25.875  1.00  0.00     0.015 A 
ATOM     13  C   UNL A   1      31.523  27.640  26.958  1.00  0.00     0.047 A 
ATOM     14  C   UNL A   1      33.393  27.240  25.474  1.00  0.00     0.018 A 
ATOM     15  C   UNL A   1      32.180  26.833  26.037  1.00  0.00     0.128 A 
ATOM     16  C   UNL A   1      33.978  26.439  24.404  1.00  0.00     0.027 C 
ATOM     17  O   UNL A   1      31.558  25.669  25.668  1.00  0.00    -0.475 OA
ATOM     18  C   UNL A   1      32.459  24.635  25.175  1.00  0.00     0.316 C 
BRANCH  10  19
ATOM     19  C   UNL A   1      33.906  30.604  27.229  1.00  0.00     0.032 C 
ATOM     20  C   UNL A   1      35.036  30.469  28.243  1.00  0.00     0.009 C 
ENDBRANCH  10  19
BRANCH  18  21
ATOM     21  C   UNL A   1      31.622  23.434  24.708  1.00  0.00     0.430 C 
ATOM     22  F   UNL A   1      32.300  22.275  24.892  1.00  0.00    -0.167 F 
ATOM     23  F   UNL A   1      30.494  23.330  25.456  1.00  0.00    -0.167 F 
ATOM     24  F   UNL A   1      31.247  23.524  23.418  1.00  0.00    -0.167 F 
ENDBRANCH  18  21
ENDBRANCH   7   9
ENDBRANCH   6   7
ENDBRANCH   5   6
ENDBRANCH   4   5
ENDBRANCH   3   4
ENDBRANCH   2   3
ENDBRANCH   1   2
BRANCH   1  25
ATOM     25  O   UNL A   1      39.753  20.779  25.988  1.00  0.00    -0.376 OA
BRANCH  25  26
ATOM     26  C   UNL A   1      40.657  21.159  27.014  1.00  0.00     0.202 C 
BRANCH  26  27
ATOM     27  C   UNL A   1      41.720  22.208  26.676  1.00  0.00     0.261 C 
BRANCH  27  28
ATOM     28  O   UNL A   1      41.203  23.536  26.490  1.00  0.00    -0.460 OA
BRANCH  28  29
ATOM     29  C   UNL A   1      42.134  24.521  26.483  1.00  0.00     0.338 C 
ATOM     30  O   UNL A   1      43.120  24.598  25.770  1.00  0.00    -0.246 OA
BRANCH  29  31
ATOM     31  C   UNL A   1      41.707  25.621  27.371  1.00  0.00     0.060 A 
ATOM     32  C   UNL A   1      42.465  26.800  27.370  1.00  0.00     0.016 A 
ATOM     33  C   UNL A   1      40.628  25.475  28.246  1.00  0.00     0.016 A 
ATOM     34  C   UNL A   1      42.165  27.828  28.264  1.00  0.00     0.010 A 
ATOM     35  C   UNL A   1      40.344  26.497  29.160  1.00  0.00     0.010 A 
ATOM     36  C   UNL A   1      41.128  27.664  29.192  1.00  0.00    -0.014 A 
BRANCH  36  37
ATOM     37  C   UNL A   1      40.972  28.634  30.303  1.00  0.00     0.031 A 
ATOM     38  C   UNL A   1      41.868  28.508  31.504  1.00  0.00     0.074 A 
ATOM     39  C   UNL A   1      40.052  29.614  30.246  1.00  0.00     0.049 A 
ATOM     40  N   UNL A   1      41.867  29.193  32.617  1.00  0.00    -0.248 NA
ATOM     41  C   UNL A   1      42.909  27.466  31.438  1.00  0.00     0.031 C 
ATOM     42  C   UNL A   1      39.158  29.869  29.118  1.00  0.00     0.029 A 
ATOM     43  N   UNL A   1      39.712  30.569  31.171  1.00  0.00    -0.354 N 
ATOM     44  C   UNL A   1      42.898  28.667  33.386  1.00  0.00     0.074 A 
ATOM     45  C   UNL A   1      43.491  27.591  32.622  1.00  0.00     0.031 C 
ATOM     46  C   UNL A   1      38.353  30.902  29.429  1.00  0.00     0.029 A 
ATOM     47  C   UNL A   1      38.655  31.358  30.785  1.00  0.00     0.049 A 
ATOM     48  H   UNL A   1      40.181  30.679  32.029  1.00  0.00     0.167 HD
ATOM     49  C   UNL A   1      43.316  29.047  34.617  1.00  0.00     0.037 A 
ATOM     50  C   UNL A   1      37.993  32.318  31.460  1.00  0.00     0.037 A 
ATOM     51  C   UNL A   1      42.719  30.110  35.381  1.00  0.00     0.049 A 
ATOM     52  C   UNL A   1      38.424  32.673  32.861  1.00  0.00     0.074 A 
ATOM     53  C   UNL A   1      43.075  30.575  36.635  1.00  0.00     0.029 A 
ATOM     54  N   UNL A   1      41.633  30.868  34.966  1.00  0.00    -0.354 N 
ATOM     55  N   UNL A   1      39.410  32.178  33.571  1.00  0.00    -0.248 NA
ATOM     56  C   UNL A   1      37.651  33.715  33.553  1.00  0.00     0.031 C 
ATOM     57  C   UNL A   1      42.178  31.587  36.996  1.00  0.00     0.029 A 
ATOM     58  C   UNL A   1      41.292  31.783  35.949  1.00  0.00     0.049 A 
ATOM     59  H   UNL A   1      41.173  30.771  34.101  1.00  0.00     0.167 HD
ATOM     60  C   UNL A   1      39.392  32.868  34.780  1.00  0.00     0.074 A 
ATOM     61  C   UNL A   1      38.301  33.817  34.705  1.00  0.00     0.031 C 
ATOM     62  C   UNL A   1      40.208  32.730  35.854  1.00  0.00     0.037 A 
BRANCH  49  63
ATOM     63  C   UNL A   1      44.459  28.286  35.225  1.00  0.00     0.058 A 
ATOM     64  C   UNL A   1      45.791  28.695  35.050  1.00  0.00     0.135 A 
ATOM     65  C   UNL A   1      44.219  27.146  36.008  1.00  0.00     0.135 A 
ATOM     66  F   UNL A   1      46.076  29.766  34.294  1.00  0.00    -0.206 F 
ATOM     67  C   UNL A   1      46.847  27.984  35.610  1.00  0.00     0.059 A 
ATOM     68  C   UNL A   1      45.259  26.433  36.597  1.00  0.00     0.059 A 
ATOM     69  F   UNL A   1      42.964  26.711  36.202  1.00  0.00    -0.206 F 
ATOM     70  C   UNL A   1      46.571  26.852  36.380  1.00  0.00     0.060 A 
BRANCH  70  71
ATOM     71  S   UNL A   1      47.952  25.937  37.099  1.00  0.00     0.124 S 
ATOM     72  O   UNL A   1      49.060  26.859  36.870  1.00  0.00    -0.237 OA
ATOM     73  O   UNL A   1      47.535  25.781  38.488  1.00  0.00    -0.237 OA
ATOM     74  O   UNL A   1      47.987  24.706  36.316  1.00  0.00    -0.744 OA
ENDBRANCH  70  71
ENDBRANCH  49  63
BRANCH  50  75
ATOM     75  C   UNL A   1      36.832  33.003  30.831  1.00  0.00     0.058 A 
ATOM     76  C   UNL A   1      37.015  34.012  29.875  1.00  0.00     0.135 A 
ATOM     77  C   UNL A   1      35.515  32.668  31.185  1.00  0.00     0.135 A 
ATOM     78  F   UNL A   1      38.255  34.377  29.517  1.00  0.00    -0.206 F 
ATOM     79  C   UNL A   1      35.936  34.675  29.300  1.00  0.00     0.059 A 
ATOM     80  C   UNL A   1      34.419  33.301  30.607  1.00  0.00     0.059 A 
ATOM     81  F   UNL A   1      35.287  31.705  32.092  1.00  0.00    -0.206 F 
ATOM     82  C   UNL A   1      34.640  34.313  29.673  1.00  0.00     0.060 A 
BRANCH  82  83
ATOM     83  S   UNL A   1      33.243  35.154  28.896  1.00  0.00     0.124 S 
ATOM     84  O   UNL A   1      32.728  34.112  28.015  1.00  0.00    -0.237 OA
ATOM     85  O   UNL A   1      32.406  35.489  30.044  1.00  0.00    -0.237 OA
ATOM     86  O   UNL A   1      33.867  36.293  28.230  1.00  0.00    -0.744 OA
ENDBRANCH  82  83
ENDBRANCH  50  75
BRANCH  62  87
ATOM     87  C   UNL A   1      39.984  33.646  37.026  1.00  0.00     0.058 A 
ATOM     88  C   UNL A   1      40.618  34.895  37.117  1.00  0.00     0.135 A 
ATOM     89  C   UNL A   1      39.070  33.298  38.034  1.00  0.00     0.135 A 
ATOM     90  F   UNL A   1      41.504  35.273  36.181  1.00  0.00    -0.206 F 
ATOM     91  C   UNL A   1      40.365  35.762  38.175  1.00  0.00     0.059 A 
ATOM     92  C   UNL A   1      38.785  34.160  39.089  1.00  0.00     0.059 A 
ATOM     93  F   UNL A   1      38.429  32.120  37.988  1.00  0.00    -0.206 F 
ATOM     94  C   UNL A   1      39.444  35.386  39.156  1.00  0.00     0.060 A 
BRANCH  94  95
ATOM     95  S   UNL A   1      39.086  36.539  40.499  1.00  0.00     0.124 S 
ATOM     96  O   UNL A   1      40.414  36.752  41.065  1.00  0.00    -0.237 OA
ATOM     97  O   UNL A   1      38.510  37.678  39.791  1.00  0.00    -0.237 OA
ATOM     98  O   UNL A   1      38.154  35.798  41.343  1.00  0.00    -0.744 OA
ENDBRANCH  94  95
ENDBRANCH  62  87
ENDBRANCH  36  37
ENDBRANCH  29  31
ENDBRANCH  28  29
ENDBRANCH  27  28
ENDBRANCH  26  27
ENDBRANCH  25  26
ENDBRANCH   1  25
TORSDOF 22
ENDMDL
MODEL 2
REMARK VINA RESULT:     -10.3      0.573      8.102
REMARK SMILES CCc1ccc2c(c1)C=C(C(=O)OCCOCCOCCOC(=O)c1ccc(-c3c4nc(c(-c5c(F)cc(S(=O)(=O)[O-])cc5F)c5ccc([nH]5)c(-c5c(F)cc(S(=O)(=O)[O-])cc5F)c5nc(c(-c6c(F)cc(S(=O)(=O)[O-])cc6F)c6ccc3[nH]6)C=C5)C=C4)cc1)[C@H](C(F)(F)F)O2
REMARK SMILES IDX 18 1 17 2 16 3 15 4 14 5 13 6 11 7 12 8 10 9 3 10 4 11 8 12
REMARK SMILES IDX 5 13 7 14 6 15 9 16 96 17 91 18 2 19 1 20 92 21 93 22 94 23
REMARK SMILES IDX 95 24 19 25 20 26 21 27 22 28 23 29 24 30 25 31 26 32 90 33
REMARK SMILES IDX 27 34 89 35 28 36 29 37 30 38 83 39 31 40 88 41 82 42 84 43
REMARK SMILES IDX 32 44 87 45 81 46 80 47 33 49 67 50 46 51 66 52 47 53 50 54
REMARK SMILES IDX 65 55 85 56 48 57 49 58 64 60 86 61 51 62 34 63 35 64 44 65
REMARK SMILES IDX 36 66 37 67 43 68 45 69 38 70 39 71 40 72 41 73 42 74 68 75
REMARK SMILES IDX 69 76 78 77 70 78 71 79 77 80 79 81 72 82 73 83 74 84 75 85
REMARK SMILES IDX 76 86 52 87 53 88 62 89 54 90 55 91 61 92 63 93 56 94 57 95
REMARK SMILES IDX 58 96 59 97 60 98
REMARK H PARENT 84 48 50 59
REMARK Flexibility Score: inf
ROOT
ATOM      1  C   UNL A   1      38.497  21.648  25.754  1.00  0.00     0.188 C 
ENDROOT
BRANCH   1   2
ATOM      2  C   UNL A   1      37.514  20.823  24.900  1.00  0.00     0.188 C 
BRANCH   2   3
ATOM      3  O   UNL A   1      36.202  20.757  25.443  1.00  0.00    -0.376 OA
BRANCH   3   4
ATOM      4  C   UNL A   1      35.390  21.905  25.237  1.00  0.00     0.202 C 
BRANCH   4   5
ATOM      5  C   UNL A   1      35.433  22.403  23.792  1.00  0.00     0.261 C 
BRANCH   5   6
ATOM      6  O   UNL A   1      35.323  23.830  23.671  1.00  0.00    -0.460 OA
BRANCH   6   7
ATOM      7  C   UNL A   1      34.134  24.319  23.251  1.00  0.00     0.338 C 
ATOM      8  O   UNL A   1      33.611  24.092  22.176  1.00  0.00    -0.246 OA
BRANCH   7   9
ATOM      9  C   UNL A   1      33.517  25.112  24.334  1.00  0.00     0.087 C 
ATOM     10  C   UNL A   1      33.214  29.096  27.052  1.00  0.00    -0.047 A 
ATOM     11  C   UNL A   1      31.923  28.703  27.439  1.00  0.00     0.007 A 
ATOM     12  C   UNL A   1      33.934  28.274  26.170  1.00  0.00     0.015 A 
ATOM     13  C   UNL A   1      31.356  27.526  26.947  1.00  0.00     0.047 A 
ATOM     14  C   UNL A   1      33.361  27.105  25.656  1.00  0.00     0.018 A 
ATOM     15  C   UNL A   1      32.079  26.728  26.067  1.00  0.00     0.128 A 
ATOM     16  C   UNL A   1      34.028  26.322  24.623  1.00  0.00     0.027 C 
ATOM     17  O   UNL A   1      31.458  25.606  25.583  1.00  0.00    -0.475 OA
ATOM     18  C   UNL A   1      32.367  24.556  25.145  1.00  0.00     0.316 C 
BRANCH  10  19
ATOM     19  C   UNL A   1      33.805  30.373  27.602  1.00  0.00     0.032 C 
ATOM     20  C   UNL A   1      35.314  30.313  27.806  1.00  0.00     0.009 C 
ENDBRANCH  10  19
BRANCH  18  21
ATOM     21  C   UNL A   1      31.542  23.410  24.539  1.00  0.00     0.430 C 
ATOM     22  F   UNL A   1      30.526  23.060  25.366  1.00  0.00    -0.167 F 
ATOM     23  F   UNL A   1      30.959  23.815  23.382  1.00  0.00    -0.167 F 
ATOM     24  F   UNL A   1      32.281  22.319  24.262  1.00  0.00    -0.167 F 
ENDBRANCH  18  21
ENDBRANCH   7   9
ENDBRANCH   6   7
ENDBRANCH   5   6
ENDBRANCH   4   5
ENDBRANCH   3   4
ENDBRANCH   2   3
ENDBRANCH   1   2
BRANCH   1  25
ATOM     25  O   UNL A   1      39.765  21.113  26.117  1.00  0.00    -0.376 OA
BRANCH  25  26
ATOM     26  C   UNL A   1      40.473  21.679  27.209  1.00  0.00     0.202 C 
BRANCH  26  27
ATOM     27  C   UNL A   1      41.645  22.612  26.893  1.00  0.00     0.261 C 
BRANCH  27  28
ATOM     28  O   UNL A   1      41.258  23.952  26.547  1.00  0.00    -0.460 OA
BRANCH  28  29
ATOM     29  C   UNL A   1      42.231  24.885  26.677  1.00  0.00     0.338 C 
ATOM     30  O   UNL A   1      43.247  24.989  26.011  1.00  0.00    -0.246 OA
BRANCH  29  31
ATOM     31  C   UNL A   1      41.820  25.905  27.664  1.00  0.00     0.060 A 
ATOM     32  C   UNL A   1      42.693  26.974  27.909  1.00  0.00     0.016 A 
ATOM     33  C   UNL A   1      40.636  25.778  28.393  1.00  0.00     0.016 A 
ATOM     34  C   UNL A   1      42.398  27.907  28.904  1.00  0.00     0.010 A 
ATOM     35  C   UNL A   1      40.354  26.699  29.409  1.00  0.00     0.010 A 
ATOM     36  C   UNL A   1      41.247  27.750  29.687  1.00  0.00    -0.014 A 
BRANCH  36  37
ATOM     37  C   UNL A   1      41.063  28.580  30.902  1.00  0.00     0.031 A 
ATOM     38  C   UNL A   1      39.996  29.641  30.898  1.00  0.00     0.074 A 
ATOM     39  C   UNL A   1      41.828  28.396  31.992  1.00  0.00     0.049 A 
ATOM     40  N   UNL A   1      39.702  30.526  31.813  1.00  0.00    -0.248 NA
ATOM     41  C   UNL A   1      39.144  29.708  29.698  1.00  0.00     0.031 C 
ATOM     42  C   UNL A   1      42.862  27.372  32.136  1.00  0.00     0.029 A 
ATOM     43  N   UNL A   1      41.859  29.077  33.183  1.00  0.00    -0.354 N 
ATOM     44  C   UNL A   1      38.637  31.259  31.302  1.00  0.00     0.074 A 
ATOM     45  C   UNL A   1      38.350  30.728  29.987  1.00  0.00     0.031 C 
ATOM     46  C   UNL A   1      43.443  27.509  33.342  1.00  0.00     0.029 A 
ATOM     47  C   UNL A   1      42.843  28.645  34.039  1.00  0.00     0.049 A 
ATOM     48  H   UNL A   1      41.235  29.806  33.403  1.00  0.00     0.167 HD
ATOM     49  C   UNL A   1      37.958  32.280  31.877  1.00  0.00     0.037 A 
ATOM     50  C   UNL A   1      43.231  29.130  35.235  1.00  0.00     0.037 A 
ATOM     51  C   UNL A   1      38.252  32.814  33.180  1.00  0.00     0.049 A 
ATOM     52  C   UNL A   1      42.513  30.319  35.823  1.00  0.00     0.074 A 
ATOM     53  C   UNL A   1      37.617  33.843  33.853  1.00  0.00     0.029 A 
ATOM     54  N   UNL A   1      39.274  32.367  34.006  1.00  0.00    -0.354 N 
ATOM     55  N   UNL A   1      41.498  30.993  35.337  1.00  0.00    -0.248 NA
ATOM     56  C   UNL A   1      42.994  30.814  37.122  1.00  0.00     0.031 C 
ATOM     57  C   UNL A   1      38.281  34.046  35.068  1.00  0.00     0.029 A 
ATOM     58  C   UNL A   1      39.301  33.114  35.172  1.00  0.00     0.049 A 
ATOM     59  H   UNL A   1      39.889  31.628  33.795  1.00  0.00     0.167 HD
ATOM     60  C   UNL A   1      41.203  31.972  36.282  1.00  0.00     0.074 A 
ATOM     61  C   UNL A   1      42.142  31.800  37.370  1.00  0.00     0.031 C 
ATOM     62  C   UNL A   1      40.238  32.924  36.252  1.00  0.00     0.037 A 
BRANCH  49  63
ATOM     63  C   UNL A   1      36.847  32.904  31.084  1.00  0.00     0.058 A 
ATOM     64  C   UNL A   1      35.498  32.646  31.378  1.00  0.00     0.135 A 
ATOM     65  C   UNL A   1      37.133  33.786  30.030  1.00  0.00     0.135 A 
ATOM     66  F   UNL A   1      35.171  31.796  32.362  1.00  0.00    -0.206 F 
ATOM     67  C   UNL A   1      34.471  33.223  30.637  1.00  0.00     0.059 A 
ATOM     68  C   UNL A   1      36.121  34.392  29.290  1.00  0.00     0.059 A 
ATOM     69  F   UNL A   1      38.405  34.062  29.706  1.00  0.00    -0.206 F 
ATOM     70  C   UNL A   1      34.793  34.093  29.592  1.00  0.00     0.060 A 
BRANCH  70  71
ATOM     71  S   UNL A   1      33.451  34.831  28.637  1.00  0.00     0.124 S 
ATOM     72  O   UNL A   1      33.159  33.769  27.679  1.00  0.00    -0.237 OA
ATOM     73  O   UNL A   1      32.432  35.062  29.655  1.00  0.00    -0.237 OA
ATOM     74  O   UNL A   1      34.056  36.034  28.075  1.00  0.00    -0.744 OA
ENDBRANCH  70  71
ENDBRANCH  49  63
BRANCH  50  75
ATOM     75  C   UNL A   1      44.375  28.508  35.954  1.00  0.00     0.058 A 
ATOM     76  C   UNL A   1      44.173  27.483  36.889  1.00  0.00     0.135 A 
ATOM     77  C   UNL A   1      45.693  28.937  35.728  1.00  0.00     0.135 A 
ATOM     78  F   UNL A   1      42.931  27.051  37.151  1.00  0.00    -0.206 F 
ATOM     79  C   UNL A   1      45.234  26.912  37.585  1.00  0.00     0.059 A 
ATOM     80  C   UNL A   1      46.773  28.367  36.395  1.00  0.00     0.059 A 
ATOM     81  F   UNL A   1      45.939  29.912  34.839  1.00  0.00    -0.206 F 
ATOM     82  C   UNL A   1      46.531  27.361  37.331  1.00  0.00     0.060 A 
BRANCH  82  83
ATOM     83  S   UNL A   1      47.907  26.591  38.212  1.00  0.00     0.124 S 
ATOM     84  O   UNL A   1      48.188  27.585  39.242  1.00  0.00    -0.237 OA
ATOM     85  O   UNL A   1      47.316  25.341  38.677  1.00  0.00    -0.237 OA
ATOM     86  O   UNL A   1      48.928  26.448  37.178  1.00  0.00    -0.744 OA
ENDBRANCH  82  83
ENDBRANCH  50  75
BRANCH  62  87
ATOM     87  C   UNL A   1      40.118  33.835  37.443  1.00  0.00     0.058 A 
ATOM     88  C   UNL A   1      40.780  35.071  37.495  1.00  0.00     0.135 A 
ATOM     89  C   UNL A   1      39.275  33.495  38.514  1.00  0.00     0.135 A 
ATOM     90  F   UNL A   1      41.601  35.441  36.499  1.00  0.00    -0.206 F 
ATOM     91  C   UNL A   1      40.621  35.934  38.575  1.00  0.00     0.059 A 
ATOM     92  C   UNL A   1      39.084  34.353  39.593  1.00  0.00     0.059 A 
ATOM     93  F   UNL A   1      38.610  32.329  38.508  1.00  0.00    -0.206 F 
ATOM     94  C   UNL A   1      39.768  35.567  39.619  1.00  0.00     0.060 A 
BRANCH  94  95
ATOM     95  S   UNL A   1      39.532  36.715  40.993  1.00  0.00     0.124 S 
ATOM     96  O   UNL A   1      39.181  37.945  40.291  1.00  0.00    -0.237 OA
ATOM     97  O   UNL A   1      38.452  36.086  41.747  1.00  0.00    -0.237 OA
ATOM     98  O   UNL A   1      40.831  36.720  41.658  1.00  0.00    -0.744 OA
ENDBRANCH  94  95
ENDBRANCH  62  87
ENDBRANCH  36  37
ENDBRANCH  29  31
ENDBRANCH  28  29
ENDBRANCH  27  28
ENDBRANCH  26  27
ENDBRANCH  25  26
ENDBRANCH   1  25
TORSDOF 22
ENDMDL
MODEL 3
REMARK VINA RESULT:     -10.0      4.522      5.830
REMARK SMILES CCc1ccc2c(c1)C=C(C(=O)OCCOCCOCCOC(=O)c1ccc(-c3c4nc(c(-c5c(F)cc(S(=O)(=O)[O-])cc5F)c5ccc([nH]5)c(-c5c(F)cc(S(=O)(=O)[O-])cc5F)c5nc(c(-c6c(F)cc(S(=O)(=O)[O-])cc6F)c6ccc3[nH]6)C=C5)C=C4)cc1)[C@H](C(F)(F)F)O2
REMARK SMILES IDX 18 1 17 2 16 3 15 4 14 5 13 6 11 7 12 8 10 9 3 10 4 11 8 12
REMARK SMILES IDX 5 13 7 14 6 15 9 16 96 17 91 18 2 19 1 20 92 21 93 22 94 23
REMARK SMILES IDX 95 24 19 25 20 26 21 27 22 28 23 29 24 30 25 31 26 32 90 33
REMARK SMILES IDX 27 34 89 35 28 36 29 37 30 38 83 39 31 40 88 41 82 42 84 43
REMARK SMILES IDX 32 44 87 45 81 46 80 47 33 49 67 50 46 51 66 52 47 53 50 54
REMARK SMILES IDX 65 55 85 56 48 57 49 58 64 60 86 61 51 62 34 63 35 64 44 65
REMARK SMILES IDX 36 66 37 67 43 68 45 69 38 70 39 71 40 72 41 73 42 74 68 75
REMARK SMILES IDX 69 76 78 77 70 78 71 79 77 80 79 81 72 82 73 83 74 84 75 85
REMARK SMILES IDX 76 86 52 87 53 88 62 89 54 90 55 91 61 92 63 93 56 94 57 95
REMARK SMILES IDX 58 96 59 97 60 98
REMARK H PARENT 84 48 50 59
REMARK Flexibility Score: inf
ROOT
ATOM      1  C   UNL A   1      34.645  20.826  25.341  1.00  0.00     0.188 C 
ENDROOT
BRANCH   1   2
ATOM      2  C   UNL A   1      33.212  20.256  25.320  1.00  0.00     0.188 C 
BRANCH   2   3
ATOM      3  O   UNL A   1      32.303  21.025  24.542  1.00  0.00    -0.376 OA
BRANCH   3   4
ATOM      4  C   UNL A   1      32.872  21.735  23.451  1.00  0.00     0.202 C 
BRANCH   4   5
ATOM      5  C   UNL A   1      32.227  23.105  23.242  1.00  0.00     0.261 C 
BRANCH   5   6
ATOM      6  O   UNL A   1      32.823  24.148  24.031  1.00  0.00    -0.460 OA
BRANCH   6   7
ATOM      7  C   UNL A   1      33.193  25.274  23.379  1.00  0.00     0.338 C 
ATOM      8  O   UNL A   1      33.650  25.326  22.252  1.00  0.00    -0.246 OA
BRANCH   7   9
ATOM      9  C   UNL A   1      32.880  26.451  24.214  1.00  0.00     0.087 C 
ATOM     10  C   UNL A   1      34.180  30.019  27.202  1.00  0.00    -0.047 A 
ATOM     11  C   UNL A   1      32.966  30.665  26.918  1.00  0.00     0.007 A 
ATOM     12  C   UNL A   1      34.450  28.787  26.585  1.00  0.00     0.015 A 
ATOM     13  C   UNL A   1      32.049  30.104  26.028  1.00  0.00     0.047 A 
ATOM     14  C   UNL A   1      33.544  28.233  25.674  1.00  0.00     0.018 A 
ATOM     15  C   UNL A   1      32.335  28.888  25.418  1.00  0.00     0.128 A 
ATOM     16  C   UNL A   1      33.873  27.037  24.906  1.00  0.00     0.027 C 
ATOM     17  O   UNL A   1      31.419  28.404  24.521  1.00  0.00    -0.475 OA
ATOM     18  C   UNL A   1      31.460  26.960  24.337  1.00  0.00     0.316 C 
BRANCH  10  19
ATOM     19  C   UNL A   1      35.154  30.646  28.173  1.00  0.00     0.032 C 
ATOM     20  C   UNL A   1      34.606  31.878  28.884  1.00  0.00     0.009 C 
ENDBRANCH  10  19
BRANCH  18  21
ATOM     21  C   UNL A   1      30.456  26.574  23.240  1.00  0.00     0.430 C 
ATOM     22  F   UNL A   1      29.392  27.414  23.245  1.00  0.00    -0.167 F 
ATOM     23  F   UNL A   1      31.028  26.702  22.015  1.00  0.00    -0.167 F 
ATOM     24  F   UNL A   1      30.016  25.306  23.352  1.00  0.00    -0.167 F 
ENDBRANCH  18  21
ENDBRANCH   7   9
ENDBRANCH   6   7
ENDBRANCH   5   6
ENDBRANCH   4   5
ENDBRANCH   3   4
ENDBRANCH   2   3
ENDBRANCH   1   2
BRANCH   1  25
ATOM     25  O   UNL A   1      35.720  20.101  24.753  1.00  0.00    -0.376 OA
BRANCH  25  26
ATOM     26  C   UNL A   1      37.056  20.462  25.067  1.00  0.00     0.202 C 
BRANCH  26  27
ATOM     27  C   UNL A   1      37.471  21.920  24.853  1.00  0.00     0.261 C 
BRANCH  27  28
ATOM     28  O   UNL A   1      37.776  22.632  26.063  1.00  0.00    -0.460 OA
BRANCH  28  29
ATOM     29  C   UNL A   1      39.094  22.703  26.374  1.00  0.00     0.338 C 
ATOM     30  O   UNL A   1      39.942  21.848  26.184  1.00  0.00    -0.246 OA
BRANCH  29  31
ATOM     31  C   UNL A   1      39.426  24.063  26.845  1.00  0.00     0.060 A 
ATOM     32  C   UNL A   1      40.017  24.949  25.935  1.00  0.00     0.016 A 
ATOM     33  C   UNL A   1      39.231  24.441  28.176  1.00  0.00     0.016 A 
ATOM     34  C   UNL A   1      40.443  26.209  26.357  1.00  0.00     0.010 A 
ATOM     35  C   UNL A   1      39.682  25.695  28.604  1.00  0.00     0.010 A 
ATOM     36  C   UNL A   1      40.315  26.572  27.704  1.00  0.00    -0.014 A 
BRANCH  36  37
ATOM     37  C   UNL A   1      40.991  27.792  28.207  1.00  0.00     0.031 A 
ATOM     38  C   UNL A   1      42.491  27.875  28.118  1.00  0.00     0.074 A 
ATOM     39  C   UNL A   1      40.288  28.812  28.730  1.00  0.00     0.049 A 
ATOM     40  N   UNL A   1      43.299  28.806  28.554  1.00  0.00    -0.248 NA
ATOM     41  C   UNL A   1      43.170  26.754  27.444  1.00  0.00     0.031 C 
ATOM     42  C   UNL A   1      38.831  28.871  28.828  1.00  0.00     0.029 A 
ATOM     43  N   UNL A   1      40.714  29.990  29.291  1.00  0.00    -0.354 N 
ATOM     44  C   UNL A   1      44.579  28.385  28.213  1.00  0.00     0.074 A 
ATOM     45  C   UNL A   1      44.443  27.105  27.553  1.00  0.00     0.031 C 
ATOM     46  C   UNL A   1      38.484  30.020  29.437  1.00  0.00     0.029 A 
ATOM     47  C   UNL A   1      39.693  30.759  29.797  1.00  0.00     0.049 A 
ATOM     48  H   UNL A   1      41.660  30.259  29.328  1.00  0.00     0.167 HD
ATOM     49  C   UNL A   1      45.761  29.010  28.429  1.00  0.00     0.037 A 
ATOM     50  C   UNL A   1      39.734  31.912  30.493  1.00  0.00     0.037 A 
ATOM     51  C   UNL A   1      45.895  30.278  29.096  1.00  0.00     0.049 A 
ATOM     52  C   UNL A   1      41.067  32.552  30.792  1.00  0.00     0.074 A 
ATOM     53  C   UNL A   1      47.050  30.996  29.356  1.00  0.00     0.029 A 
ATOM     54  N   UNL A   1      44.840  31.013  29.617  1.00  0.00    -0.354 N 
ATOM     55  N   UNL A   1      42.269  32.152  30.451  1.00  0.00    -0.248 NA
ATOM     56  C   UNL A   1      41.049  33.799  31.571  1.00  0.00     0.031 C 
ATOM     57  C   UNL A   1      46.696  32.146  30.071  1.00  0.00     0.029 A 
ATOM     58  C   UNL A   1      45.319  32.166  30.217  1.00  0.00     0.049 A 
ATOM     59  H   UNL A   1      43.892  30.754  29.567  1.00  0.00     0.167 HD
ATOM     60  C   UNL A   1      43.146  33.112  30.950  1.00  0.00     0.074 A 
ATOM     61  C   UNL A   1      42.337  34.114  31.612  1.00  0.00     0.031 C 
ATOM     62  C   UNL A   1      44.498  33.160  30.864  1.00  0.00     0.037 A 
BRANCH  49  63
ATOM     63  C   UNL A   1      47.006  28.313  27.961  1.00  0.00     0.058 A 
ATOM     64  C   UNL A   1      47.741  27.471  28.811  1.00  0.00     0.135 A 
ATOM     65  C   UNL A   1      47.460  28.474  26.642  1.00  0.00     0.135 A 
ATOM     66  F   UNL A   1      47.362  27.299  30.086  1.00  0.00    -0.206 F 
ATOM     67  C   UNL A   1      48.897  26.831  28.375  1.00  0.00     0.059 A 
ATOM     68  C   UNL A   1      48.601  27.826  26.179  1.00  0.00     0.059 A 
ATOM     69  F   UNL A   1      46.795  29.272  25.792  1.00  0.00    -0.206 F 
ATOM     70  C   UNL A   1      49.321  27.018  27.057  1.00  0.00     0.060 A 
BRANCH  70  71
ATOM     71  S   UNL A   1      50.825  26.186  26.507  1.00  0.00     0.124 S 
ATOM     72  O   UNL A   1      50.683  26.259  25.056  1.00  0.00    -0.237 OA
ATOM     73  O   UNL A   1      51.875  27.020  27.083  1.00  0.00    -0.237 OA
ATOM     74  O   UNL A   1      50.703  24.850  27.082  1.00  0.00    -0.744 OA
ENDBRANCH  70  71
ENDBRANCH  49  63
BRANCH  50  75
ATOM     75  C   UNL A   1      38.473  32.532  30.981  1.00  0.00     0.058 A 
ATOM     76  C   UNL A   1      37.795  33.492  30.218  1.00  0.00     0.135 A 
ATOM     77  C   UNL A   1      37.929  32.183  32.227  1.00  0.00     0.135 A 
ATOM     78  F   UNL A   1      38.284  33.870  29.027  1.00  0.00    -0.206 F 
ATOM     79  C   UNL A   1      36.628  34.096  30.676  1.00  0.00     0.059 A 
ATOM     80  C   UNL A   1      36.752  32.756  32.698  1.00  0.00     0.059 A 
ATOM     81  F   UNL A   1      38.539  31.264  32.993  1.00  0.00    -0.206 F 
ATOM     82  C   UNL A   1      36.114  33.721  31.919  1.00  0.00     0.060 A 
BRANCH  82  83
ATOM     83  S   UNL A   1      34.580  34.482  32.492  1.00  0.00     0.124 S 
ATOM     84  O   UNL A   1      34.132  33.521  33.493  1.00  0.00    -0.237 OA
ATOM     85  O   UNL A   1      35.045  35.767  33.006  1.00  0.00    -0.237 OA
ATOM     86  O   UNL A   1      33.769  34.556  31.280  1.00  0.00    -0.744 OA
ENDBRANCH  82  83
ENDBRANCH  50  75
BRANCH  62  87
ATOM     87  C   UNL A   1      45.195  34.350  31.465  1.00  0.00     0.058 A 
ATOM     88  C   UNL A   1      45.397  35.532  30.737  1.00  0.00     0.135 A 
ATOM     89  C   UNL A   1      45.603  34.328  32.809  1.00  0.00     0.135 A 
ATOM     90  F   UNL A   1      45.030  35.603  29.448  1.00  0.00    -0.206 F 
ATOM     91  C   UNL A   1      45.993  36.648  31.316  1.00  0.00     0.059 A 
ATOM     92  C   UNL A   1      46.180  35.440  33.414  1.00  0.00     0.059 A 
ATOM     93  F   UNL A   1      45.423  33.225  33.553  1.00  0.00    -0.206 F 
ATOM     94  C   UNL A   1      46.380  36.594  32.657  1.00  0.00     0.060 A 
BRANCH  94  95
ATOM     95  S   UNL A   1      47.108  38.063  33.412  1.00  0.00     0.124 S 
ATOM     96  O   UNL A   1      46.983  39.040  32.335  1.00  0.00    -0.237 OA
ATOM     97  O   UNL A   1      46.246  38.283  34.569  1.00  0.00    -0.237 OA
ATOM     98  O   UNL A   1      48.470  37.644  33.726  1.00  0.00    -0.744 OA
ENDBRANCH  94  95
ENDBRANCH  62  87
ENDBRANCH  36  37
ENDBRANCH  29  31
ENDBRANCH  28  29
ENDBRANCH  27  28
ENDBRANCH  26  27
ENDBRANCH  25  26
ENDBRANCH   1  25
TORSDOF 22
ENDMDL
