MODEL 1
REMARK VINA RESULT:     -10.0      0.000      0.000
REMARK SMILES CN(CC(N)=O)S(=O)(=O)c1ccc(C(=O)OCCOCCOCCOC(=O)c2ccc(-c3c4nc(c(-c5c(F)cc(S(=O)(=O)[O-])cc5F)c5ccc([nH]5)c(-c5c(F)cc(S(=O)(=O)[O-])cc5F)c5nc(c(-c6c(F)cc(S(=O)(=O)[O-])cc6F)c6ccc3[nH]6)C=C5)C=C4)cc2)cc1Br
REMARK SMILES IDX 20 1 19 2 18 3 17 4 16 5 14 6 15 7 13 8 10 9 11 10 95 11
REMARK SMILES IDX 12 12 94 13 96 14 7 15 8 16 9 17 2 18 1 19 3 20 4 21 5 22
REMARK SMILES IDX 6 23 21 26 22 27 23 28 24 29 25 30 26 31 27 32 28 33 29 34
REMARK SMILES IDX 93 35 30 36 92 37 31 38 32 39 33 40 86 41 34 42 91 43 85 44
REMARK SMILES IDX 87 45 35 46 90 47 84 48 83 49 36 51 70 52 49 53 69 54 50 55
REMARK SMILES IDX 53 56 68 57 88 58 51 59 52 60 67 62 89 63 54 64 37 65 38 66
REMARK SMILES IDX 47 67 39 68 40 69 46 70 48 71 41 72 42 73 43 74 44 75 45 76
REMARK SMILES IDX 71 77 72 78 81 79 73 80 74 81 80 82 82 83 75 84 76 85 77 86
REMARK SMILES IDX 78 87 79 88 55 89 56 90 65 91 57 92 58 93 64 94 66 95 59 96
REMARK SMILES IDX 60 97 61 98 62 99 63 100
REMARK H PARENT 5 24 5 25 87 50 53 61
REMARK Flexibility Score: inf
ROOT
ATOM      1  C   UNL A   1      41.320  20.578  27.528  1.00  0.00     0.188 C 
ENDROOT
BRANCH   1   2
ATOM      2  O   UNL A   1      40.099  21.309  27.605  1.00  0.00    -0.376 OA
BRANCH   2   3
ATOM      3  C   UNL A   1      39.707  22.131  26.510  1.00  0.00     0.202 C 
BRANCH   3   4
ATOM      4  C   UNL A   1      38.525  21.667  25.656  1.00  0.00     0.261 C 
BRANCH   4   5
ATOM      5  O   UNL A   1      37.413  22.581  25.680  1.00  0.00    -0.460 OA
BRANCH   5   6
ATOM      6  C   UNL A   1      36.372  22.229  24.886  1.00  0.00     0.338 C 
ATOM      7  O   UNL A   1      36.129  21.117  24.449  1.00  0.00    -0.246 OA
BRANCH   6   8
ATOM      8  C   UNL A   1      35.435  23.361  24.703  1.00  0.00     0.061 A 
ATOM      9  C   UNL A   1      33.461  25.345  24.573  1.00  0.00     0.096 A 
ATOM     10  C   UNL A   1      34.193  25.151  25.755  1.00  0.00     0.024 A 
ATOM     11  C   UNL A   1      33.771  24.592  23.431  1.00  0.00     0.038 A 
ATOM     12  C   UNL A   1      35.170  24.158  25.820  1.00  0.00     0.017 A 
ATOM     13  C   UNL A   1      34.771  23.604  23.496  1.00  0.00     0.032 A 
ATOM     14  Br  UNL A   1      32.905  24.797  21.753  1.00  0.00    -0.049 Br
BRANCH   9  15
ATOM     15  S   UNL A   1      32.005  26.366  24.685  1.00  0.00     0.244 S 
ATOM     16  O   UNL A   1      31.760  26.614  26.093  1.00  0.00    -0.207 OA
ATOM     17  O   UNL A   1      30.993  25.730  23.870  1.00  0.00    -0.207 OA
BRANCH  15  18
ATOM     18  N   UNL A   1      32.423  27.855  23.979  1.00  0.00    -0.192 NA
ATOM     19  C   UNL A   1      33.897  28.046  23.908  1.00  0.00     0.125 C 
BRANCH  18  20
ATOM     20  C   UNL A   1      31.750  28.198  22.699  1.00  0.00     0.201 C 
BRANCH  20  21
ATOM     21  C   UNL A   1      30.737  29.334  22.759  1.00  0.00     0.232 C 
ATOM     22  N   UNL A   1      30.599  30.079  21.624  1.00  0.00    -0.369 N 
ATOM     23  O   UNL A   1      30.054  29.569  23.751  1.00  0.00    -0.274 OA
ATOM     24  H   UNL A   1      31.152  29.882  20.834  1.00  0.00     0.159 HD
ATOM     25  H   UNL A   1      29.945  30.815  21.596  1.00  0.00     0.159 HD
ENDBRANCH  20  21
ENDBRANCH  18  20
ENDBRANCH  15  18
ENDBRANCH   9  15
ENDBRANCH   6   8
ENDBRANCH   5   6
ENDBRANCH   4   5
ENDBRANCH   3   4
ENDBRANCH   2   3
ENDBRANCH   1   2
BRANCH   1  26
ATOM     26  C   UNL A   1      41.902  20.252  26.138  1.00  0.00     0.188 C 
BRANCH  26  27
ATOM     27  O   UNL A   1      43.198  20.778  25.936  1.00  0.00    -0.376 OA
BRANCH  27  28
ATOM     28  C   UNL A   1      43.324  22.125  25.515  1.00  0.00     0.202 C 
BRANCH  28  29
ATOM     29  C   UNL A   1      43.604  23.233  26.544  1.00  0.00     0.261 C 
BRANCH  29  30
ATOM     30  O   UNL A   1      42.500  24.055  26.940  1.00  0.00    -0.460 OA
BRANCH  30  31
ATOM     31  C   UNL A   1      42.316  25.206  26.258  1.00  0.00     0.338 C 
ATOM     32  O   UNL A   1      42.465  25.375  25.062  1.00  0.00    -0.246 OA
BRANCH  31  33
ATOM     33  C   UNL A   1      41.725  26.198  27.182  1.00  0.00     0.060 A 
ATOM     34  C   UNL A   1      42.230  27.504  27.173  1.00  0.00     0.016 A 
ATOM     35  C   UNL A   1      40.706  25.839  28.070  1.00  0.00     0.016 A 
ATOM     36  C   UNL A   1      41.757  28.439  28.095  1.00  0.00     0.010 A 
ATOM     37  C   UNL A   1      40.244  26.773  29.003  1.00  0.00     0.010 A 
ATOM     38  C   UNL A   1      40.799  28.063  29.048  1.00  0.00    -0.014 A 
BRANCH  38  39
ATOM     39  C   UNL A   1      40.560  28.939  30.221  1.00  0.00     0.031 A 
ATOM     40  C   UNL A   1      41.421  28.738  31.441  1.00  0.00     0.074 A 
ATOM     41  C   UNL A   1      39.632  29.912  30.199  1.00  0.00     0.049 A 
ATOM     42  N   UNL A   1      41.413  29.382  32.578  1.00  0.00    -0.248 NA
ATOM     43  C   UNL A   1      42.429  27.667  31.362  1.00  0.00     0.031 C 
ATOM     44  C   UNL A   1      38.754  30.220  29.072  1.00  0.00     0.029 A 
ATOM     45  N   UNL A   1      39.274  30.819  31.164  1.00  0.00    -0.354 N 
ATOM     46  C   UNL A   1      42.412  28.797  33.348  1.00  0.00     0.074 A 
ATOM     47  C   UNL A   1      42.988  27.730  32.561  1.00  0.00     0.031 C 
ATOM     48  C   UNL A   1      37.949  31.243  29.415  1.00  0.00     0.029 A 
ATOM     49  C   UNL A   1      38.243  31.647  30.789  1.00  0.00     0.049 A 
ATOM     50  H   UNL A   1      39.716  30.873  32.043  1.00  0.00     0.167 HD
ATOM     51  C   UNL A   1      42.822  29.125  34.596  1.00  0.00     0.037 A 
ATOM     52  C   UNL A   1      37.605  32.611  31.484  1.00  0.00     0.037 A 
ATOM     53  C   UNL A   1      42.243  30.176  35.386  1.00  0.00     0.049 A 
ATOM     54  C   UNL A   1      38.046  32.927  32.891  1.00  0.00     0.074 A 
ATOM     55  C   UNL A   1      42.584  30.582  36.664  1.00  0.00     0.029 A 
ATOM     56  N   UNL A   1      41.195  30.985  34.975  1.00  0.00    -0.354 N 
ATOM     57  N   UNL A   1      39.009  32.382  33.596  1.00  0.00    -0.248 NA
ATOM     58  C   UNL A   1      37.318  33.994  33.594  1.00  0.00     0.031 C 
ATOM     59  C   UNL A   1      41.720  31.617  37.037  1.00  0.00     0.029 A 
ATOM     60  C   UNL A   1      40.869  31.882  35.976  1.00  0.00     0.049 A 
ATOM     61  H   UNL A   1      40.748  30.929  34.099  1.00  0.00     0.167 HD
ATOM     62  C   UNL A   1      39.024  33.061  34.811  1.00  0.00     0.074 A 
ATOM     63  C   UNL A   1      37.975  34.058  34.744  1.00  0.00     0.031 C 
ATOM     64  C   UNL A   1      39.834  32.881  35.883  1.00  0.00     0.037 A 
BRANCH  51  65
ATOM     65  C   UNL A   1      43.940  28.314  35.186  1.00  0.00     0.058 A 
ATOM     66  C   UNL A   1      43.689  27.143  35.920  1.00  0.00     0.135 A 
ATOM     67  C   UNL A   1      45.276  28.708  35.013  1.00  0.00     0.135 A 
ATOM     68  F   UNL A   1      42.428  26.738  36.134  1.00  0.00    -0.206 F 
ATOM     69  C   UNL A   1      44.723  26.405  36.484  1.00  0.00     0.059 A 
ATOM     70  C   UNL A   1      46.328  27.973  35.551  1.00  0.00     0.059 A 
ATOM     71  F   UNL A   1      45.568  29.825  34.327  1.00  0.00    -0.206 F 
ATOM     72  C   UNL A   1      46.040  26.830  36.298  1.00  0.00     0.060 A 
BRANCH  72  73
ATOM     73  S   UNL A   1      47.373  25.870  37.045  1.00  0.00     0.124 S 
ATOM     74  O   UNL A   1      46.764  25.464  38.308  1.00  0.00    -0.237 OA
ATOM     75  O   UNL A   1      47.579  24.806  36.069  1.00  0.00    -0.237 OA
ATOM     76  O   UNL A   1      48.464  26.835  37.155  1.00  0.00    -0.744 OA
ENDBRANCH  72  73
ENDBRANCH  51  65
BRANCH  52  77
ATOM     77  C   UNL A   1      36.476  33.353  30.863  1.00  0.00     0.058 A 
ATOM     78  C   UNL A   1      35.155  33.155  31.289  1.00  0.00     0.135 A 
ATOM     79  C   UNL A   1      36.697  34.263  29.818  1.00  0.00     0.135 A 
ATOM     80  F   UNL A   1      34.893  32.285  32.277  1.00  0.00    -0.206 F 
ATOM     81  C   UNL A   1      34.089  33.822  30.694  1.00  0.00     0.059 A 
ATOM     82  C   UNL A   1      35.650  34.958  29.221  1.00  0.00     0.059 A 
ATOM     83  F   UNL A   1      37.944  34.494  29.380  1.00  0.00    -0.206 F 
ATOM     84  C   UNL A   1      34.348  34.723  29.659  1.00  0.00     0.060 A 
BRANCH  84  85
ATOM     85  S   UNL A   1      32.964  35.616  28.917  1.00  0.00     0.124 S 
ATOM     86  O   UNL A   1      32.427  34.618  28.000  1.00  0.00    -0.237 OA
ATOM     87  O   UNL A   1      32.138  35.925  30.081  1.00  0.00    -0.237 OA
ATOM     88  O   UNL A   1      33.608  36.767  28.292  1.00  0.00    -0.744 OA
ENDBRANCH  84  85
ENDBRANCH  52  77
BRANCH  64  89
ATOM     89  C   UNL A   1      39.659  33.808  37.053  1.00  0.00     0.058 A 
ATOM     90  C   UNL A   1      38.829  33.483  38.136  1.00  0.00     0.135 A 
ATOM     91  C   UNL A   1      40.380  35.012  37.114  1.00  0.00     0.135 A 
ATOM     92  F   UNL A   1      38.117  32.345  38.124  1.00  0.00    -0.206 F 
ATOM     93  C   UNL A   1      38.702  34.330  39.233  1.00  0.00     0.059 A 
ATOM     94  C   UNL A   1      40.286  35.863  38.210  1.00  0.00     0.059 A 
ATOM     95  F   UNL A   1      41.197  35.362  36.109  1.00  0.00    -0.206 F 
ATOM     96  C   UNL A   1      39.436  35.519  39.261  1.00  0.00     0.060 A 
BRANCH  96  97
ATOM     97  S   UNL A   1      39.294  36.596  40.702  1.00  0.00     0.124 S 
ATOM     98  O   UNL A   1      38.941  37.869  40.083  1.00  0.00    -0.237 OA
ATOM     99  O   UNL A   1      38.235  35.952  41.474  1.00  0.00    -0.237 OA
ATOM    100  O   UNL A   1      40.624  36.535  41.302  1.00  0.00    -0.744 OA
ENDBRANCH  96  97
ENDBRANCH  64  89
ENDBRANCH  38  39
ENDBRANCH  31  33
ENDBRANCH  30  31
ENDBRANCH  29  30
ENDBRANCH  28  29
ENDBRANCH  27  28
ENDBRANCH  26  27
ENDBRANCH   1  26
TORSDOF 24
ENDMDL
MODEL 2
REMARK VINA RESULT:      -9.8      1.312      2.056
REMARK SMILES CN(CC(N)=O)S(=O)(=O)c1ccc(C(=O)OCCOCCOCCOC(=O)c2ccc(-c3c4nc(c(-c5c(F)cc(S(=O)(=O)[O-])cc5F)c5ccc([nH]5)c(-c5c(F)cc(S(=O)(=O)[O-])cc5F)c5nc(c(-c6c(F)cc(S(=O)(=O)[O-])cc6F)c6ccc3[nH]6)C=C5)C=C4)cc2)cc1Br
REMARK SMILES IDX 20 1 19 2 18 3 17 4 16 5 14 6 15 7 13 8 10 9 11 10 95 11
REMARK SMILES IDX 12 12 94 13 96 14 7 15 8 16 9 17 2 18 1 19 3 20 4 21 5 22
REMARK SMILES IDX 6 23 21 26 22 27 23 28 24 29 25 30 26 31 27 32 28 33 29 34
REMARK SMILES IDX 93 35 30 36 92 37 31 38 32 39 33 40 86 41 34 42 91 43 85 44
REMARK SMILES IDX 87 45 35 46 90 47 84 48 83 49 36 51 70 52 49 53 69 54 50 55
REMARK SMILES IDX 53 56 68 57 88 58 51 59 52 60 67 62 89 63 54 64 37 65 38 66
REMARK SMILES IDX 47 67 39 68 40 69 46 70 48 71 41 72 42 73 43 74 44 75 45 76
REMARK SMILES IDX 71 77 72 78 81 79 73 80 74 81 80 82 82 83 75 84 76 85 77 86
REMARK SMILES IDX 78 87 79 88 55 89 56 90 65 91 57 92 58 93 64 94 66 95 59 96
REMARK SMILES IDX 60 97 61 98 62 99 63 100
REMARK H PARENT 5 24 5 25 87 50 53 61
REMARK Flexibility Score: inf
ROOT
ATOM      1  C   UNL A   1      38.632  22.534  26.426  1.00  0.00     0.188 C 
ENDROOT
BRANCH   1   2
ATOM      2  O   UNL A   1      38.218  22.032  25.158  1.00  0.00    -0.376 OA
BRANCH   2   3
ATOM      3  C   UNL A   1      37.389  20.874  25.101  1.00  0.00     0.202 C 
BRANCH   3   4
ATOM      4  C   UNL A   1      35.910  21.072  24.763  1.00  0.00     0.261 C 
BRANCH   4   5
ATOM      5  O   UNL A   1      35.257  22.037  25.608  1.00  0.00    -0.460 OA
BRANCH   5   6
ATOM      6  C   UNL A   1      33.908  22.078  25.487  1.00  0.00     0.338 C 
ATOM      7  O   UNL A   1      33.149  21.125  25.444  1.00  0.00    -0.246 OA
BRANCH   6   8
ATOM      8  C   UNL A   1      33.410  23.470  25.551  1.00  0.00     0.061 A 
ATOM      9  C   UNL A   1      32.602  26.119  25.977  1.00  0.00     0.096 A 
ATOM     10  C   UNL A   1      33.963  25.808  25.833  1.00  0.00     0.024 A 
ATOM     11  C   UNL A   1      31.638  25.110  25.833  1.00  0.00     0.038 A 
ATOM     12  C   UNL A   1      34.364  24.488  25.629  1.00  0.00     0.017 A 
ATOM     13  C   UNL A   1      32.047  23.782  25.607  1.00  0.00     0.032 A 
ATOM     14  Br  UNL A   1      29.765  25.403  25.939  1.00  0.00    -0.049 Br
BRANCH   9  15
ATOM     15  S   UNL A   1      32.207  27.744  26.593  1.00  0.00     0.244 S 
ATOM     16  O   UNL A   1      33.461  28.409  26.891  1.00  0.00    -0.207 OA
ATOM     17  O   UNL A   1      31.214  27.562  27.629  1.00  0.00    -0.207 OA
BRANCH  15  18
ATOM     18  N   UNL A   1      31.496  28.577  25.292  1.00  0.00    -0.192 NA
ATOM     19  C   UNL A   1      31.701  30.047  25.390  1.00  0.00     0.125 C 
BRANCH  18  20
ATOM     20  C   UNL A   1      31.789  28.060  23.929  1.00  0.00     0.201 C 
BRANCH  20  21
ATOM     21  C   UNL A   1      30.598  27.944  22.987  1.00  0.00     0.232 C 
ATOM     22  N   UNL A   1      29.390  28.325  23.494  1.00  0.00    -0.369 N 
ATOM     23  O   UNL A   1      30.697  27.555  21.827  1.00  0.00    -0.274 OA
ATOM     24  H   UNL A   1      29.321  28.635  24.426  1.00  0.00     0.159 HD
ATOM     25  H   UNL A   1      28.585  28.291  22.926  1.00  0.00     0.159 HD
ENDBRANCH  20  21
ENDBRANCH  18  20
ENDBRANCH  15  18
ENDBRANCH   9  15
ENDBRANCH   6   8
ENDBRANCH   5   6
ENDBRANCH   4   5
ENDBRANCH   3   4
ENDBRANCH   2   3
ENDBRANCH   1   2
BRANCH   1  26
ATOM     26  C   UNL A   1      40.054  22.205  26.925  1.00  0.00     0.188 C 
BRANCH  26  27
ATOM     27  O   UNL A   1      40.861  21.581  25.947  1.00  0.00    -0.376 OA
BRANCH  27  28
ATOM     28  C   UNL A   1      42.263  21.769  26.007  1.00  0.00     0.202 C 
BRANCH  28  29
ATOM     29  C   UNL A   1      42.903  23.016  25.373  1.00  0.00     0.261 C 
BRANCH  29  30
ATOM     30  O   UNL A   1      42.482  24.293  25.868  1.00  0.00    -0.460 OA
BRANCH  30  31
ATOM     31  C   UNL A   1      43.427  25.071  26.439  1.00  0.00     0.338 C 
ATOM     32  O   UNL A   1      44.613  25.094  26.166  1.00  0.00    -0.246 OA
BRANCH  31  33
ATOM     33  C   UNL A   1      42.750  26.031  27.337  1.00  0.00     0.060 A 
ATOM     34  C   UNL A   1      43.168  27.367  27.326  1.00  0.00     0.016 A 
ATOM     35  C   UNL A   1      41.735  25.615  28.205  1.00  0.00     0.016 A 
ATOM     36  C   UNL A   1      42.613  28.278  28.227  1.00  0.00     0.010 A 
ATOM     37  C   UNL A   1      41.190  26.524  29.117  1.00  0.00     0.010 A 
ATOM     38  C   UNL A   1      41.659  27.848  29.161  1.00  0.00    -0.014 A 
BRANCH  38  39
ATOM     39  C   UNL A   1      41.334  28.718  30.318  1.00  0.00     0.031 A 
ATOM     40  C   UNL A   1      42.177  28.586  31.559  1.00  0.00     0.074 A 
ATOM     41  C   UNL A   1      40.345  29.627  30.264  1.00  0.00     0.049 A 
ATOM     42  N   UNL A   1      42.100  29.240  32.689  1.00  0.00    -0.248 NA
ATOM     43  C   UNL A   1      43.256  27.584  31.516  1.00  0.00     0.031 C 
ATOM     44  C   UNL A   1      39.475  29.865  29.114  1.00  0.00     0.029 A 
ATOM     45  N   UNL A   1      39.904  30.518  31.210  1.00  0.00    -0.354 N 
ATOM     46  C   UNL A   1      43.118  28.730  33.488  1.00  0.00     0.074 A 
ATOM     47  C   UNL A   1      43.781  27.696  32.726  1.00  0.00     0.031 C 
ATOM     48  C   UNL A   1      38.596  30.835  29.427  1.00  0.00     0.029 A 
ATOM     49  C   UNL A   1      38.830  31.271  30.803  1.00  0.00     0.049 A 
ATOM     50  H   UNL A   1      40.321  30.609  32.098  1.00  0.00     0.167 HD
ATOM     51  C   UNL A   1      43.476  29.097  34.741  1.00  0.00     0.037 A 
ATOM     52  C   UNL A   1      38.113  32.197  31.472  1.00  0.00     0.037 A 
ATOM     53  C   UNL A   1      42.809  30.114  35.506  1.00  0.00     0.049 A 
ATOM     54  C   UNL A   1      38.499  32.555  32.885  1.00  0.00     0.074 A 
ATOM     55  C   UNL A   1      43.093  30.555  36.787  1.00  0.00     0.029 A 
ATOM     56  N   UNL A   1      41.720  30.847  35.062  1.00  0.00    -0.354 N 
ATOM     57  N   UNL A   1      39.479  32.083  33.618  1.00  0.00    -0.248 NA
ATOM     58  C   UNL A   1      37.685  33.578  33.559  1.00  0.00     0.031 C 
ATOM     59  C   UNL A   1      42.153  31.534  37.129  1.00  0.00     0.029 A 
ATOM     60  C   UNL A   1      41.312  31.731  36.046  1.00  0.00     0.049 A 
ATOM     61  H   UNL A   1      41.299  30.754  34.177  1.00  0.00     0.167 HD
ATOM     62  C   UNL A   1      39.420  32.773  34.825  1.00  0.00     0.074 A 
ATOM     63  C   UNL A   1      38.310  33.697  34.723  1.00  0.00     0.031 C 
ATOM     64  C   UNL A   1      40.216  32.657  35.917  1.00  0.00     0.037 A 
BRANCH  51  65
ATOM     65  C   UNL A   1      44.631  28.368  35.365  1.00  0.00     0.058 A 
ATOM     66  C   UNL A   1      44.440  27.198  36.119  1.00  0.00     0.135 A 
ATOM     67  C   UNL A   1      45.942  28.840  35.207  1.00  0.00     0.135 A 
ATOM     68  F   UNL A   1      43.201  26.720  36.321  1.00  0.00    -0.206 F 
ATOM     69  C   UNL A   1      45.507  26.536  36.715  1.00  0.00     0.059 A 
ATOM     70  C   UNL A   1      47.028  28.182  35.776  1.00  0.00     0.059 A 
ATOM     71  F   UNL A   1      46.178  29.959  34.503  1.00  0.00    -0.206 F 
ATOM     72  C   UNL A   1      46.798  27.038  36.541  1.00  0.00     0.060 A 
BRANCH  72  73
ATOM     73  S   UNL A   1      48.174  26.177  37.329  1.00  0.00     0.124 S 
ATOM     74  O   UNL A   1      47.659  24.813  37.400  1.00  0.00    -0.237 OA
ATOM     75  O   UNL A   1      49.264  26.394  36.384  1.00  0.00    -0.237 OA
ATOM     76  O   UNL A   1      48.313  26.863  38.611  1.00  0.00    -0.744 OA
ENDBRANCH  72  73
ENDBRANCH  51  65
BRANCH  52  77
ATOM     77  C   UNL A   1      36.952  32.856  30.817  1.00  0.00     0.058 A 
ATOM     78  C   UNL A   1      37.136  33.848  29.842  1.00  0.00     0.135 A 
ATOM     79  C   UNL A   1      35.636  32.517  31.165  1.00  0.00     0.135 A 
ATOM     80  F   UNL A   1      38.377  34.214  29.485  1.00  0.00    -0.206 F 
ATOM     81  C   UNL A   1      36.057  34.492  29.245  1.00  0.00     0.059 A 
ATOM     82  C   UNL A   1      34.541  33.131  30.567  1.00  0.00     0.059 A 
ATOM     83  F   UNL A   1      35.408  31.568  32.086  1.00  0.00    -0.206 F 
ATOM     84  C   UNL A   1      34.762  34.126  29.615  1.00  0.00     0.060 A 
BRANCH  84  85
ATOM     85  S   UNL A   1      33.364  34.936  28.806  1.00  0.00     0.124 S 
ATOM     86  O   UNL A   1      33.967  36.188  28.363  1.00  0.00    -0.237 OA
ATOM     87  O   UNL A   1      33.023  33.983  27.755  1.00  0.00    -0.237 OA
ATOM     88  O   UNL A   1      32.381  35.053  29.879  1.00  0.00    -0.744 OA
ENDBRANCH  84  85
ENDBRANCH  52  77
BRANCH  64  89
ATOM     89  C   UNL A   1      39.951  33.582  37.072  1.00  0.00     0.058 A 
ATOM     90  C   UNL A   1      40.576  34.834  37.174  1.00  0.00     0.135 A 
ATOM     91  C   UNL A   1      39.014  33.232  38.058  1.00  0.00     0.135 A 
ATOM     92  F   UNL A   1      41.481  35.215  36.259  1.00  0.00    -0.206 F 
ATOM     93  C   UNL A   1      40.296  35.700  38.227  1.00  0.00     0.059 A 
ATOM     94  C   UNL A   1      38.703  34.091  39.106  1.00  0.00     0.059 A 
ATOM     95  F   UNL A   1      38.380  32.050  37.997  1.00  0.00    -0.206 F 
ATOM     96  C   UNL A   1      39.357  35.319  39.189  1.00  0.00     0.060 A 
BRANCH  96  97
ATOM     97  S   UNL A   1      38.973  36.463  40.532  1.00  0.00     0.124 S 
ATOM     98  O   UNL A   1      38.561  37.652  39.794  1.00  0.00    -0.237 OA
ATOM     99  O   UNL A   1      37.912  35.762  41.249  1.00  0.00    -0.237 OA
ATOM    100  O   UNL A   1      40.238  36.576  41.252  1.00  0.00    -0.744 OA
ENDBRANCH  96  97
ENDBRANCH  64  89
ENDBRANCH  38  39
ENDBRANCH  31  33
ENDBRANCH  30  31
ENDBRANCH  29  30
ENDBRANCH  28  29
ENDBRANCH  27  28
ENDBRANCH  26  27
ENDBRANCH   1  26
TORSDOF 24
ENDMDL
MODEL 3
REMARK VINA RESULT:      -9.6      6.111      8.596
REMARK SMILES CN(CC(N)=O)S(=O)(=O)c1ccc(C(=O)OCCOCCOCCOC(=O)c2ccc(-c3c4nc(c(-c5c(F)cc(S(=O)(=O)[O-])cc5F)c5ccc([nH]5)c(-c5c(F)cc(S(=O)(=O)[O-])cc5F)c5nc(c(-c6c(F)cc(S(=O)(=O)[O-])cc6F)c6ccc3[nH]6)C=C5)C=C4)cc2)cc1Br
REMARK SMILES IDX 20 1 19 2 18 3 17 4 16 5 14 6 15 7 13 8 10 9 11 10 95 11
REMARK SMILES IDX 12 12 94 13 96 14 7 15 8 16 9 17 2 18 1 19 3 20 4 21 5 22
REMARK SMILES IDX 6 23 21 26 22 27 23 28 24 29 25 30 26 31 27 32 28 33 29 34
REMARK SMILES IDX 93 35 30 36 92 37 31 38 32 39 33 40 86 41 34 42 91 43 85 44
REMARK SMILES IDX 87 45 35 46 90 47 84 48 83 49 36 51 70 52 49 53 69 54 50 55
REMARK SMILES IDX 53 56 68 57 88 58 51 59 52 60 67 62 89 63 54 64 37 65 38 66
REMARK SMILES IDX 47 67 39 68 40 69 46 70 48 71 41 72 42 73 43 74 44 75 45 76
REMARK SMILES IDX 71 77 72 78 81 79 73 80 74 81 80 82 82 83 75 84 76 85 77 86
REMARK SMILES IDX 78 87 79 88 55 89 56 90 65 91 57 92 58 93 64 94 66 95 59 96
REMARK SMILES IDX 60 97 61 98 62 99 63 100
REMARK H PARENT 5 24 5 25 87 50 53 61
REMARK Flexibility Score: inf
ROOT
ATOM      1  C   UNL A   1      39.657  21.377  26.339  1.00  0.00     0.188 C 
ENDROOT
BRANCH   1   2
ATOM      2  O   UNL A   1      38.919  20.662  25.352  1.00  0.00    -0.376 OA
BRANCH   2   3
ATOM      3  C   UNL A   1      37.523  20.907  25.210  1.00  0.00     0.202 C 
BRANCH   3   4
ATOM      4  C   UNL A   1      36.965  22.210  25.786  1.00  0.00     0.261 C 
BRANCH   4   5
ATOM      5  O   UNL A   1      37.171  23.346  24.926  1.00  0.00    -0.460 OA
BRANCH   5   6
ATOM      6  C   UNL A   1      36.444  23.332  23.783  1.00  0.00     0.338 C 
ATOM      7  O   UNL A   1      36.812  22.944  22.687  1.00  0.00    -0.246 OA
BRANCH   6   8
ATOM      8  C   UNL A   1      35.041  23.728  24.039  1.00  0.00     0.061 A 
ATOM      9  C   UNL A   1      32.368  24.553  24.201  1.00  0.00     0.096 A 
ATOM     10  C   UNL A   1      32.709  23.391  23.490  1.00  0.00     0.024 A 
ATOM     11  C   UNL A   1      33.360  25.262  24.894  1.00  0.00     0.038 A 
ATOM     12  C   UNL A   1      34.040  22.987  23.404  1.00  0.00     0.017 A 
ATOM     13  C   UNL A   1      34.700  24.838  24.820  1.00  0.00     0.032 A 
ATOM     14  Br  UNL A   1      33.027  26.808  25.943  1.00  0.00    -0.049 Br
BRANCH   9  15
ATOM     15  S   UNL A   1      30.723  25.193  23.956  1.00  0.00     0.244 S 
ATOM     16  O   UNL A   1      30.201  25.551  25.260  1.00  0.00    -0.207 OA
ATOM     17  O   UNL A   1      30.025  24.231  23.131  1.00  0.00    -0.207 OA
BRANCH  15  18
ATOM     18  N   UNL A   1      30.909  26.637  23.077  1.00  0.00    -0.192 NA
ATOM     19  C   UNL A   1      31.406  26.391  21.697  1.00  0.00     0.125 C 
BRANCH  18  20
ATOM     20  C   UNL A   1      29.764  27.584  23.100  1.00  0.00     0.201 C 
BRANCH  20  21
ATOM     21  C   UNL A   1      30.081  29.025  22.723  1.00  0.00     0.232 C 
ATOM     22  N   UNL A   1      30.761  29.755  23.654  1.00  0.00    -0.369 N 
ATOM     23  O   UNL A   1      29.774  29.517  21.641  1.00  0.00    -0.274 OA
ATOM     24  H   UNL A   1      31.003  29.351  24.518  1.00  0.00     0.159 HD
ATOM     25  H   UNL A   1      31.012  30.688  23.459  1.00  0.00     0.159 HD
ENDBRANCH  20  21
ENDBRANCH  18  20
ENDBRANCH  15  18
ENDBRANCH   9  15
ENDBRANCH   6   8
ENDBRANCH   5   6
ENDBRANCH   4   5
ENDBRANCH   3   4
ENDBRANCH   2   3
ENDBRANCH   1   2
BRANCH   1  26
ATOM     26  C   UNL A   1      41.137  21.010  26.569  1.00  0.00     0.188 C 
BRANCH  26  27
ATOM     27  O   UNL A   1      41.313  19.907  27.435  1.00  0.00    -0.376 OA
BRANCH  27  28
ATOM     28  C   UNL A   1      42.302  18.945  27.112  1.00  0.00     0.202 C 
BRANCH  28  29
ATOM     29  C   UNL A   1      42.754  18.761  25.654  1.00  0.00     0.261 C 
BRANCH  29  30
ATOM     30  O   UNL A   1      44.144  18.960  25.368  1.00  0.00    -0.460 OA
BRANCH  30  31
ATOM     31  C   UNL A   1      44.453  19.917  24.467  1.00  0.00     0.338 C 
ATOM     32  O   UNL A   1      44.622  19.765  23.271  1.00  0.00    -0.246 OA
BRANCH  31  33
ATOM     33  C   UNL A   1      44.379  21.229  25.146  1.00  0.00     0.060 A 
ATOM     34  C   UNL A   1      43.853  22.319  24.442  1.00  0.00     0.016 A 
ATOM     35  C   UNL A   1      44.853  21.393  26.453  1.00  0.00     0.016 A 
ATOM     36  C   UNL A   1      43.855  23.588  25.023  1.00  0.00     0.010 A 
ATOM     37  C   UNL A   1      44.867  22.668  27.027  1.00  0.00     0.010 A 
ATOM     38  C   UNL A   1      44.409  23.777  26.297  1.00  0.00    -0.014 A 
BRANCH  38  39
ATOM     39  C   UNL A   1      44.718  25.154  26.757  1.00  0.00     0.031 A 
ATOM     40  C   UNL A   1      46.066  25.729  26.408  1.00  0.00     0.074 A 
ATOM     41  C   UNL A   1      43.821  25.891  27.434  1.00  0.00     0.049 A 
ATOM     42  N   UNL A   1      46.563  26.906  26.683  1.00  0.00    -0.248 NA
ATOM     43  C   UNL A   1      46.972  24.857  25.640  1.00  0.00     0.031 C 
ATOM     44  C   UNL A   1      42.478  25.456  27.811  1.00  0.00     0.029 A 
ATOM     45  N   UNL A   1      43.913  27.168  27.928  1.00  0.00    -0.354 N 
ATOM     46  C   UNL A   1      47.836  26.917  26.122  1.00  0.00     0.074 A 
ATOM     47  C   UNL A   1      48.046  25.622  25.516  1.00  0.00     0.031 C 
ATOM     48  C   UNL A   1      41.872  26.449  28.488  1.00  0.00     0.029 A 
ATOM     49  C   UNL A   1      42.791  27.581  28.607  1.00  0.00     0.049 A 
ATOM     50  H   UNL A   1      44.708  27.736  27.805  1.00  0.00     0.167 HD
ATOM     51  C   UNL A   1      48.745  27.920  26.105  1.00  0.00     0.037 A 
ATOM     52  C   UNL A   1      42.545  28.735  29.259  1.00  0.00     0.037 A 
ATOM     53  C   UNL A   1      48.544  29.203  26.719  1.00  0.00     0.049 A 
ATOM     54  C   UNL A   1      43.592  29.820  29.268  1.00  0.00     0.074 A 
ATOM     55  C   UNL A   1      49.408  30.283  26.761  1.00  0.00     0.029 A 
ATOM     56  N   UNL A   1      47.400  29.578  27.405  1.00  0.00    -0.354 N 
ATOM     57  N   UNL A   1      44.780  29.825  28.712  1.00  0.00    -0.248 NA
ATOM     58  C   UNL A   1      43.261  31.059  29.987  1.00  0.00     0.031 C 
ATOM     59  C   UNL A   1      48.796  31.302  27.501  1.00  0.00     0.029 A 
ATOM     60  C   UNL A   1      47.537  30.869  27.883  1.00  0.00     0.049 A 
ATOM     61  H   UNL A   1      46.606  29.010  27.533  1.00  0.00     0.167 HD
ATOM     62  C   UNL A   1      45.325  31.077  28.986  1.00  0.00     0.074 A 
ATOM     63  C   UNL A   1      44.335  31.802  29.755  1.00  0.00     0.031 C 
ATOM     64  C   UNL A   1      46.531  31.582  28.630  1.00  0.00     0.037 A 
BRANCH  51  65
ATOM     65  C   UNL A   1      50.051  27.649  25.414  1.00  0.00     0.058 A 
ATOM     66  C   UNL A   1      51.226  27.394  26.141  1.00  0.00     0.135 A 
ATOM     67  C   UNL A   1      50.130  27.639  24.014  1.00  0.00     0.135 A 
ATOM     68  F   UNL A   1      51.208  27.417  27.483  1.00  0.00    -0.206 F 
ATOM     69  C   UNL A   1      52.439  27.165  25.502  1.00  0.00     0.059 A 
ATOM     70  C   UNL A   1      51.328  27.391  23.352  1.00  0.00     0.059 A 
ATOM     71  F   UNL A   1      49.037  27.886  23.274  1.00  0.00    -0.206 F 
ATOM     72  C   UNL A   1      52.481  27.170  24.106  1.00  0.00     0.060 A 
BRANCH  72  73
ATOM     73  S   UNL A   1      54.064  26.883  23.288  1.00  0.00     0.124 S 
ATOM     74  O   UNL A   1      54.619  28.233  23.251  1.00  0.00    -0.237 OA
ATOM     75  O   UNL A   1      54.723  25.951  24.197  1.00  0.00    -0.237 OA
ATOM     76  O   UNL A   1      53.679  26.326  21.994  1.00  0.00    -0.744 OA
ENDBRANCH  72  73
ENDBRANCH  51  65
BRANCH  52  77
ATOM     77  C   UNL A   1      41.249  28.931  29.960  1.00  0.00     0.058 A 
ATOM     78  C   UNL A   1      40.113  29.383  29.274  1.00  0.00     0.135 A 
ATOM     79  C   UNL A   1      41.126  28.685  31.337  1.00  0.00     0.135 A 
ATOM     80  F   UNL A   1      40.184  29.643  27.959  1.00  0.00    -0.206 F 
ATOM     81  C   UNL A   1      38.903  29.598  29.927  1.00  0.00     0.059 A 
ATOM     82  C   UNL A   1      39.923  28.872  32.008  1.00  0.00     0.059 A 
ATOM     83  F   UNL A   1      42.183  28.243  32.037  1.00  0.00    -0.206 F 
ATOM     84  C   UNL A   1      38.819  29.340  31.297  1.00  0.00     0.060 A 
BRANCH  84  85
ATOM     85  S   UNL A   1      37.235  29.582  32.131  1.00  0.00     0.124 S 
ATOM     86  O   UNL A   1      37.349  30.964  32.581  1.00  0.00    -0.237 OA
ATOM     87  O   UNL A   1      36.280  29.336  31.056  1.00  0.00    -0.237 OA
ATOM     88  O   UNL A   1      37.256  28.571  33.184  1.00  0.00    -0.744 OA
ENDBRANCH  84  85
ENDBRANCH  52  77
BRANCH  64  89
ATOM     89  C   UNL A   1      46.835  33.001  29.020  1.00  0.00     0.058 A 
ATOM     90  C   UNL A   1      47.460  33.316  30.236  1.00  0.00     0.135 A 
ATOM     91  C   UNL A   1      46.548  34.054  28.136  1.00  0.00     0.135 A 
ATOM     92  F   UNL A   1      47.753  32.347  31.117  1.00  0.00    -0.206 F 
ATOM     93  C   UNL A   1      47.772  34.630  30.572  1.00  0.00     0.059 A 
ATOM     94  C   UNL A   1      46.871  35.372  28.441  1.00  0.00     0.059 A 
ATOM     95  F   UNL A   1      45.961  33.803  26.955  1.00  0.00    -0.206 F 
ATOM     96  C   UNL A   1      47.473  35.652  29.668  1.00  0.00     0.060 A 
BRANCH  96  97
ATOM     97  S   UNL A   1      47.913  37.350  30.095  1.00  0.00     0.124 S 
ATOM     98  O   UNL A   1      46.601  37.985  30.156  1.00  0.00    -0.237 OA
ATOM     99  O   UNL A   1      48.598  37.186  31.374  1.00  0.00    -0.237 OA
ATOM    100  O   UNL A   1      48.764  37.768  28.985  1.00  0.00    -0.744 OA
ENDBRANCH  96  97
ENDBRANCH  64  89
ENDBRANCH  38  39
ENDBRANCH  31  33
ENDBRANCH  30  31
ENDBRANCH  29  30
ENDBRANCH  28  29
ENDBRANCH  27  28
ENDBRANCH  26  27
ENDBRANCH   1  26
TORSDOF 24
ENDMDL
