MODEL 1
REMARK VINA RESULT:      -8.6      0.000      0.000
REMARK SMILES CC(C)[C@@H](CO)NC(=O)CC(C)(C)CC(=O)OCCOCCOCCOC(=O)c1ccc(-c2c3nc(c(-c4c(F)cc(S(=O)(=O)[O-])cc4F)c4ccc([nH]4)c(-c4c(F)cc(S(=O)(=O)[O-])cc4F)c4nc(c(-c5c(F)cc(S(=O)(=O)[O-])cc5F)c5ccc2[nH]5)C=C4)C=C3)cc1
REMARK SMILES IDX 20 1 19 2 18 3 17 4 15 5 16 6 14 7 11 8 12 9 13 10 10 11
REMARK SMILES IDX 8 12 7 13 9 15 4 16 2 17 1 18 3 19 5 20 6 21 21 23 22 24
REMARK SMILES IDX 23 25 24 26 25 27 26 28 27 29 28 30 29 31 30 32 94 33 31 34
REMARK SMILES IDX 93 35 32 36 33 37 34 38 87 39 35 40 92 41 86 42 88 43 36 44
REMARK SMILES IDX 91 45 85 46 84 47 37 49 71 50 50 51 70 52 51 53 54 54 69 55
REMARK SMILES IDX 89 56 52 57 53 58 68 60 90 61 55 62 38 63 39 64 48 65 40 66
REMARK SMILES IDX 41 67 47 68 49 69 42 70 43 71 44 72 45 73 46 74 72 75 73 76
REMARK SMILES IDX 82 77 74 78 75 79 81 80 83 81 76 82 77 83 78 84 79 85 80 86
REMARK SMILES IDX 56 87 57 88 66 89 58 90 59 91 65 92 67 93 60 94 61 95 62 96
REMARK SMILES IDX 63 97 64 98
REMARK H PARENT 7 14 6 22 88 48 54 59
REMARK Flexibility Score: inf
ROOT
ATOM      1  O   UNL A   1      38.339  22.017  26.059  1.00  0.00    -0.376 OA
ENDROOT
BRANCH   1   2
ATOM      2  C   UNL A   1      37.523  21.459  25.025  1.00  0.00     0.202 C 
BRANCH   2   3
ATOM      3  C   UNL A   1      36.045  21.209  25.384  1.00  0.00     0.261 C 
BRANCH   3   4
ATOM      4  O   UNL A   1      35.359  22.411  25.814  1.00  0.00    -0.463 OA
BRANCH   4   5
ATOM      5  C   UNL A   1      34.758  23.164  24.851  1.00  0.00     0.306 C 
ATOM      6  O   UNL A   1      35.363  23.803  23.998  1.00  0.00    -0.252 OA
BRANCH   5   7
ATOM      7  C   UNL A   1      33.235  22.994  24.834  1.00  0.00     0.129 C 
BRANCH   7   8
ATOM      8  C   UNL A   1      32.353  23.617  25.955  1.00  0.00    -0.016 C 
ATOM      9  C   UNL A   1      32.531  22.820  27.260  1.00  0.00     0.012 C 
ATOM     10  C   UNL A   1      30.842  23.537  25.637  1.00  0.00     0.012 C 
BRANCH   8  11
ATOM     11  C   UNL A   1      32.663  25.120  26.225  1.00  0.00     0.107 C 
BRANCH  11  12
ATOM     12  C   UNL A   1      31.704  26.279  25.986  1.00  0.00     0.220 C 
ATOM     13  N   UNL A   1      31.528  26.858  24.771  1.00  0.00    -0.351 N 
ATOM     14  H   UNL A   1      30.695  26.710  24.266  1.00  0.00     0.163 HD
ATOM     15  O   UNL A   1      31.154  26.819  26.945  1.00  0.00    -0.275 OA
BRANCH  13  16
ATOM     16  C   UNL A   1      32.584  27.701  24.220  1.00  0.00     0.110 C 
BRANCH  16  17
ATOM     17  C   UNL A   1      33.420  26.979  23.129  1.00  0.00     0.007 C 
ATOM     18  C   UNL A   1      32.545  25.906  22.473  1.00  0.00     0.009 C 
ATOM     19  C   UNL A   1      34.037  27.884  22.053  1.00  0.00     0.009 C 
ENDBRANCH  16  17
BRANCH  16  20
ATOM     20  C   UNL A   1      31.965  29.021  23.675  1.00  0.00     0.181 C 
BRANCH  20  21
ATOM     21  O   UNL A   1      31.372  29.781  24.727  1.00  0.00    -0.394 OA
ATOM     22  H   UNL A   1      30.447  29.970  24.506  1.00  0.00     0.210 HD
ENDBRANCH  20  21
ENDBRANCH  16  20
ENDBRANCH  13  16
ENDBRANCH  11  12
ENDBRANCH   8  11
ENDBRANCH   7   8
ENDBRANCH   5   7
ENDBRANCH   4   5
ENDBRANCH   3   4
ENDBRANCH   2   3
ENDBRANCH   1   2
BRANCH   1  23
ATOM     23  C   UNL A   1      39.632  21.445  26.212  1.00  0.00     0.188 C 
BRANCH  23  24
ATOM     24  C   UNL A   1      39.778  19.986  25.756  1.00  0.00     0.188 C 
BRANCH  24  25
ATOM     25  O   UNL A   1      41.108  19.549  25.511  1.00  0.00    -0.376 OA
BRANCH  25  26
ATOM     26  C   UNL A   1      42.092  19.932  26.470  1.00  0.00     0.202 C 
BRANCH  26  27
ATOM     27  C   UNL A   1      43.079  21.018  26.002  1.00  0.00     0.261 C 
BRANCH  27  28
ATOM     28  O   UNL A   1      43.020  22.263  26.730  1.00  0.00    -0.460 OA
BRANCH  28  29
ATOM     29  C   UNL A   1      42.891  23.383  25.984  1.00  0.00     0.338 C 
ATOM     30  O   UNL A   1      42.954  23.435  24.764  1.00  0.00    -0.246 OA
BRANCH  29  31
ATOM     31  C   UNL A   1      42.434  24.489  26.859  1.00  0.00     0.060 A 
ATOM     32  C   UNL A   1      43.087  25.720  26.770  1.00  0.00     0.016 A 
ATOM     33  C   UNL A   1      41.392  24.339  27.769  1.00  0.00     0.016 A 
ATOM     34  C   UNL A   1      42.811  26.759  27.648  1.00  0.00     0.010 A 
ATOM     35  C   UNL A   1      41.076  25.402  28.631  1.00  0.00     0.010 A 
ATOM     36  C   UNL A   1      41.817  26.603  28.611  1.00  0.00    -0.014 A 
BRANCH  36  37
ATOM     37  C   UNL A   1      41.668  27.627  29.679  1.00  0.00     0.031 A 
ATOM     38  C   UNL A   1      42.642  27.616  30.827  1.00  0.00     0.074 A 
ATOM     39  C   UNL A   1      40.737  28.599  29.602  1.00  0.00     0.049 A 
ATOM     40  N   UNL A   1      42.612  28.284  31.950  1.00  0.00    -0.248 NA
ATOM     41  C   UNL A   1      43.805  26.723  30.691  1.00  0.00     0.031 C 
ATOM     42  C   UNL A   1      39.806  28.799  28.491  1.00  0.00     0.029 A 
ATOM     43  N   UNL A   1      40.420  29.605  30.484  1.00  0.00    -0.354 N 
ATOM     44  C   UNL A   1      43.717  27.853  32.676  1.00  0.00     0.074 A 
ATOM     45  C   UNL A   1      44.394  26.862  31.870  1.00  0.00     0.031 C 
ATOM     46  C   UNL A   1      39.024  29.858  28.757  1.00  0.00     0.029 A 
ATOM     47  C   UNL A   1      39.341  30.363  30.090  1.00  0.00     0.049 A 
ATOM     48  H   UNL A   1      40.918  29.768  31.317  1.00  0.00     0.167 HD
ATOM     49  C   UNL A   1      44.126  28.251  33.904  1.00  0.00     0.037 A 
ATOM     50  C   UNL A   1      38.652  31.318  30.748  1.00  0.00     0.037 A 
ATOM     51  C   UNL A   1      43.469  29.276  34.673  1.00  0.00     0.049 A 
ATOM     52  C   UNL A   1      39.075  31.690  32.146  1.00  0.00     0.074 A 
ATOM     53  C   UNL A   1      43.802  29.755  35.927  1.00  0.00     0.029 A 
ATOM     54  N   UNL A   1      42.354  29.988  34.255  1.00  0.00    -0.354 N 
ATOM     55  N   UNL A   1      40.083  31.232  32.853  1.00  0.00    -0.248 NA
ATOM     56  C   UNL A   1      38.264  32.698  32.843  1.00  0.00     0.031 C 
ATOM     57  C   UNL A   1      42.855  30.718  36.292  1.00  0.00     0.029 A 
ATOM     58  C   UNL A   1      41.972  30.886  35.238  1.00  0.00     0.049 A 
ATOM     59  H   UNL A   1      41.901  29.872  33.389  1.00  0.00     0.167 HD
ATOM     60  C   UNL A   1      40.042  31.915  34.064  1.00  0.00     0.074 A 
ATOM     61  C   UNL A   1      38.919  32.827  33.990  1.00  0.00     0.031 C 
ATOM     62  C   UNL A   1      40.859  31.800  35.140  1.00  0.00     0.037 A 
BRANCH  49  63
ATOM     63  C   UNL A   1      45.304  27.543  34.517  1.00  0.00     0.058 A 
ATOM     64  C   UNL A   1      46.599  28.083  34.504  1.00  0.00     0.135 A 
ATOM     65  C   UNL A   1      45.119  26.312  35.168  1.00  0.00     0.135 A 
ATOM     66  F   UNL A   1      46.839  29.246  33.878  1.00  0.00    -0.206 F 
ATOM     67  C   UNL A   1      47.671  27.420  35.095  1.00  0.00     0.059 A 
ATOM     68  C   UNL A   1      46.168  25.646  35.793  1.00  0.00     0.059 A 
ATOM     69  F   UNL A   1      43.902  25.744  35.208  1.00  0.00    -0.206 F 
ATOM     70  C   UNL A   1      47.443  26.203  35.741  1.00  0.00     0.060 A 
BRANCH  70  71
ATOM     71  S   UNL A   1      48.839  25.367  36.524  1.00  0.00     0.124 S 
ATOM     72  O   UNL A   1      49.693  25.083  35.375  1.00  0.00    -0.237 OA
ATOM     73  O   UNL A   1      49.336  26.385  37.445  1.00  0.00    -0.237 OA
ATOM     74  O   UNL A   1      48.229  24.201  37.154  1.00  0.00    -0.744 OA
ENDBRANCH  70  71
ENDBRANCH  49  63
BRANCH  50  75
ATOM     75  C   UNL A   1      37.455  31.947  30.123  1.00  0.00     0.058 A 
ATOM     76  C   UNL A   1      36.184  31.363  30.224  1.00  0.00     0.135 A 
ATOM     77  C   UNL A   1      37.561  33.147  29.398  1.00  0.00     0.135 A 
ATOM     78  F   UNL A   1      36.027  30.208  30.890  1.00  0.00    -0.206 F 
ATOM     79  C   UNL A   1      35.067  31.932  29.618  1.00  0.00     0.059 A 
ATOM     80  C   UNL A   1      36.455  33.753  28.813  1.00  0.00     0.059 A 
ATOM     81  F   UNL A   1      38.753  33.753  29.271  1.00  0.00    -0.206 F 
ATOM     82  C   UNL A   1      35.212  33.132  28.918  1.00  0.00     0.060 A 
BRANCH  82  83
ATOM     83  S   UNL A   1      33.750  33.886  28.173  1.00  0.00     0.124 S 
ATOM     84  O   UNL A   1      33.107  34.490  29.334  1.00  0.00    -0.237 OA
ATOM     85  O   UNL A   1      34.341  34.816  27.215  1.00  0.00    -0.237 OA
ATOM     86  O   UNL A   1      33.048  32.750  27.583  1.00  0.00    -0.744 OA
ENDBRANCH  82  83
ENDBRANCH  50  75
BRANCH  62  87
ATOM     87  C   UNL A   1      40.611  32.717  36.307  1.00  0.00     0.058 A 
ATOM     88  C   UNL A   1      41.392  33.861  36.534  1.00  0.00     0.135 A 
ATOM     89  C   UNL A   1      39.534  32.477  37.177  1.00  0.00     0.135 A 
ATOM     90  F   UNL A   1      42.438  34.134  35.737  1.00  0.00    -0.206 F 
ATOM     91  C   UNL A   1      41.127  34.722  37.594  1.00  0.00     0.059 A 
ATOM     92  C   UNL A   1      39.232  33.342  38.223  1.00  0.00     0.059 A 
ATOM     93  F   UNL A   1      38.747  31.403  36.998  1.00  0.00    -0.206 F 
ATOM     94  C   UNL A   1      40.042  34.456  38.430  1.00  0.00     0.060 A 
BRANCH  94  95
ATOM     95  S   UNL A   1      39.687  35.603  39.779  1.00  0.00     0.124 S 
ATOM     96  O   UNL A   1      39.270  36.796  39.049  1.00  0.00    -0.237 OA
ATOM     97  O   UNL A   1      38.634  34.906  40.511  1.00  0.00    -0.237 OA
ATOM     98  O   UNL A   1      40.964  35.711  40.480  1.00  0.00    -0.744 OA
ENDBRANCH  94  95
ENDBRANCH  62  87
ENDBRANCH  36  37
ENDBRANCH  29  31
ENDBRANCH  28  29
ENDBRANCH  27  28
ENDBRANCH  26  27
ENDBRANCH  25  26
ENDBRANCH  24  25
ENDBRANCH  23  24
ENDBRANCH   1  23
TORSDOF 27
ENDMDL
MODEL 2
REMARK VINA RESULT:      -8.6      1.333      2.660
REMARK SMILES CC(C)[C@@H](CO)NC(=O)CC(C)(C)CC(=O)OCCOCCOCCOC(=O)c1ccc(-c2c3nc(c(-c4c(F)cc(S(=O)(=O)[O-])cc4F)c4ccc([nH]4)c(-c4c(F)cc(S(=O)(=O)[O-])cc4F)c4nc(c(-c5c(F)cc(S(=O)(=O)[O-])cc5F)c5ccc2[nH]5)C=C4)C=C3)cc1
REMARK SMILES IDX 20 1 19 2 18 3 17 4 15 5 16 6 14 7 11 8 12 9 13 10 10 11
REMARK SMILES IDX 8 12 7 13 9 15 4 16 2 17 1 18 3 19 5 20 6 21 21 23 22 24
REMARK SMILES IDX 23 25 24 26 25 27 26 28 27 29 28 30 29 31 30 32 94 33 31 34
REMARK SMILES IDX 93 35 32 36 33 37 34 38 87 39 35 40 92 41 86 42 88 43 36 44
REMARK SMILES IDX 91 45 85 46 84 47 37 49 71 50 50 51 70 52 51 53 54 54 69 55
REMARK SMILES IDX 89 56 52 57 53 58 68 60 90 61 55 62 38 63 39 64 48 65 40 66
REMARK SMILES IDX 41 67 47 68 49 69 42 70 43 71 44 72 45 73 46 74 72 75 73 76
REMARK SMILES IDX 82 77 74 78 75 79 81 80 83 81 76 82 77 83 78 84 79 85 80 86
REMARK SMILES IDX 56 87 57 88 66 89 58 90 59 91 65 92 67 93 60 94 61 95 62 96
REMARK SMILES IDX 63 97 64 98
REMARK H PARENT 7 14 6 22 88 48 54 59
REMARK Flexibility Score: inf
ROOT
ATOM      1  O   UNL A   1      38.347  22.049  25.807  1.00  0.00    -0.376 OA
ENDROOT
BRANCH   1   2
ATOM      2  C   UNL A   1      37.681  20.879  25.325  1.00  0.00     0.202 C 
BRANCH   2   3
ATOM      3  C   UNL A   1      36.204  21.054  24.919  1.00  0.00     0.261 C 
BRANCH   3   4
ATOM      4  O   UNL A   1      36.001  22.158  24.001  1.00  0.00    -0.463 OA
BRANCH   4   5
ATOM      5  C   UNL A   1      35.486  23.309  24.515  1.00  0.00     0.306 C 
ATOM      6  O   UNL A   1      35.506  23.603  25.705  1.00  0.00    -0.252 OA
BRANCH   5   7
ATOM      7  C   UNL A   1      35.028  24.288  23.428  1.00  0.00     0.129 C 
BRANCH   7   8
ATOM      8  C   UNL A   1      33.693  25.073  23.576  1.00  0.00    -0.016 C 
ATOM      9  C   UNL A   1      33.431  25.899  22.303  1.00  0.00     0.012 C 
ATOM     10  C   UNL A   1      33.734  26.107  24.725  1.00  0.00     0.012 C 
BRANCH   8  11
ATOM     11  C   UNL A   1      32.463  24.158  23.857  1.00  0.00     0.107 C 
BRANCH  11  12
ATOM     12  C   UNL A   1      31.212  24.567  24.623  1.00  0.00     0.220 C 
ATOM     13  N   UNL A   1      31.003  24.247  25.926  1.00  0.00    -0.351 N 
ATOM     14  H   UNL A   1      31.059  24.941  26.623  1.00  0.00     0.163 HD
ATOM     15  O   UNL A   1      30.276  25.093  24.022  1.00  0.00    -0.275 OA
BRANCH  13  16
ATOM     16  C   UNL A   1      30.696  22.867  26.285  1.00  0.00     0.110 C 
BRANCH  16  17
ATOM     17  C   UNL A   1      31.929  22.101  26.838  1.00  0.00     0.007 C 
ATOM     18  C   UNL A   1      32.524  21.254  25.710  1.00  0.00     0.009 C 
ATOM     19  C   UNL A   1      33.023  22.969  27.476  1.00  0.00     0.009 C 
ENDBRANCH  16  17
BRANCH  16  20
ATOM     20  C   UNL A   1      29.516  22.843  27.299  1.00  0.00     0.181 C 
BRANCH  20  21
ATOM     21  O   UNL A   1      28.587  21.809  26.979  1.00  0.00    -0.394 OA
ATOM     22  H   UNL A   1      28.975  21.222  26.311  1.00  0.00     0.210 HD
ENDBRANCH  20  21
ENDBRANCH  16  20
ENDBRANCH  13  16
ENDBRANCH  11  12
ENDBRANCH   8  11
ENDBRANCH   7   8
ENDBRANCH   5   7
ENDBRANCH   4   5
ENDBRANCH   3   4
ENDBRANCH   2   3
ENDBRANCH   1   2
BRANCH   1  23
ATOM     23  C   UNL A   1      39.721  21.894  26.139  1.00  0.00     0.188 C 
BRANCH  23  24
ATOM     24  C   UNL A   1      40.212  20.449  26.305  1.00  0.00     0.188 C 
BRANCH  24  25
ATOM     25  O   UNL A   1      41.620  20.284  26.404  1.00  0.00    -0.376 OA
BRANCH  25  26
ATOM     26  C   UNL A   1      42.303  21.162  27.298  1.00  0.00     0.202 C 
BRANCH  26  27
ATOM     27  C   UNL A   1      43.331  22.102  26.640  1.00  0.00     0.261 C 
BRANCH  27  28
ATOM     28  O   UNL A   1      43.383  23.438  27.182  1.00  0.00    -0.460 OA
BRANCH  28  29
ATOM     29  C   UNL A   1      42.780  24.401  26.450  1.00  0.00     0.338 C 
ATOM     30  O   UNL A   1      42.532  24.334  25.254  1.00  0.00    -0.246 OA
BRANCH  29  31
ATOM     31  C   UNL A   1      42.263  25.445  27.367  1.00  0.00     0.060 A 
ATOM     32  C   UNL A   1      42.835  26.718  27.314  1.00  0.00     0.016 A 
ATOM     33  C   UNL A   1      41.244  25.198  28.281  1.00  0.00     0.016 A 
ATOM     34  C   UNL A   1      42.503  27.708  28.230  1.00  0.00     0.010 A 
ATOM     35  C   UNL A   1      40.870  26.208  29.182  1.00  0.00     0.010 A 
ATOM     36  C   UNL A   1      41.533  27.455  29.196  1.00  0.00    -0.014 A 
BRANCH  36  37
ATOM     37  C   UNL A   1      41.331  28.430  30.300  1.00  0.00     0.031 A 
ATOM     38  C   UNL A   1      42.253  28.373  31.489  1.00  0.00     0.074 A 
ATOM     39  C   UNL A   1      40.398  29.401  30.225  1.00  0.00     0.049 A 
ATOM     40  N   UNL A   1      42.170  28.991  32.637  1.00  0.00    -0.248 NA
ATOM     41  C   UNL A   1      43.427  27.491  31.365  1.00  0.00     0.031 C 
ATOM     42  C   UNL A   1      39.516  29.646  29.083  1.00  0.00     0.029 A 
ATOM     43  N   UNL A   1      40.037  30.366  31.135  1.00  0.00    -0.354 N 
ATOM     44  C   UNL A   1      43.245  28.533  33.392  1.00  0.00     0.074 A 
ATOM     45  C   UNL A   1      43.963  27.580  32.574  1.00  0.00     0.031 C 
ATOM     46  C   UNL A   1      38.717  30.689  29.360  1.00  0.00     0.029 A 
ATOM     47  C   UNL A   1      38.972  31.137  30.727  1.00  0.00     0.049 A 
ATOM     48  H   UNL A   1      40.497  30.495  31.995  1.00  0.00     0.167 HD
ATOM     49  C   UNL A   1      43.597  28.878  34.653  1.00  0.00     0.037 A 
ATOM     50  C   UNL A   1      38.250  32.059  31.395  1.00  0.00     0.037 A 
ATOM     51  C   UNL A   1      42.901  29.865  35.436  1.00  0.00     0.049 A 
ATOM     52  C   UNL A   1      38.609  32.371  32.826  1.00  0.00     0.074 A 
ATOM     53  C   UNL A   1      43.175  30.291  36.723  1.00  0.00     0.029 A 
ATOM     54  N   UNL A   1      41.801  30.591  35.001  1.00  0.00    -0.354 N 
ATOM     55  N   UNL A   1      39.587  31.886  33.555  1.00  0.00    -0.248 NA
ATOM     56  C   UNL A   1      37.762  33.344  33.530  1.00  0.00     0.031 C 
ATOM     57  C   UNL A   1      42.208  31.233  37.088  1.00  0.00     0.029 A 
ATOM     58  C   UNL A   1      41.371  31.444  36.004  1.00  0.00     0.049 A 
ATOM     59  H   UNL A   1      41.387  30.511  34.111  1.00  0.00     0.167 HD
ATOM     60  C   UNL A   1      39.488  32.516  34.793  1.00  0.00     0.074 A 
ATOM     61  C   UNL A   1      38.365  33.425  34.708  1.00  0.00     0.031 C 
ATOM     62  C   UNL A   1      40.259  32.357  35.897  1.00  0.00     0.037 A 
BRANCH  49  63
ATOM     63  C   UNL A   1      44.751  28.148  35.286  1.00  0.00     0.058 A 
ATOM     64  C   UNL A   1      44.589  26.945  35.989  1.00  0.00     0.135 A 
ATOM     65  C   UNL A   1      46.056  28.649  35.144  1.00  0.00     0.135 A 
ATOM     66  F   UNL A   1      43.363  26.431  36.173  1.00  0.00    -0.206 F 
ATOM     67  C   UNL A   1      45.674  26.277  36.548  1.00  0.00     0.059 A 
ATOM     68  C   UNL A   1      47.159  27.982  35.667  1.00  0.00     0.059 A 
ATOM     69  F   UNL A   1      46.272  29.799  34.485  1.00  0.00    -0.206 F 
ATOM     70  C   UNL A   1      46.957  26.802  36.378  1.00  0.00     0.060 A 
BRANCH  70  71
ATOM     71  S   UNL A   1      48.357  25.910  37.089  1.00  0.00     0.124 S 
ATOM     72  O   UNL A   1      48.781  26.824  38.144  1.00  0.00    -0.237 OA
ATOM     73  O   UNL A   1      47.738  24.667  37.539  1.00  0.00    -0.237 OA
ATOM     74  O   UNL A   1      49.281  25.775  35.967  1.00  0.00    -0.744 OA
ENDBRANCH  70  71
ENDBRANCH  49  63
BRANCH  50  75
ATOM     75  C   UNL A   1      37.077  32.710  30.745  1.00  0.00     0.058 A 
ATOM     76  C   UNL A   1      37.231  33.818  29.899  1.00  0.00     0.135 A 
ATOM     77  C   UNL A   1      35.771  32.241  30.969  1.00  0.00     0.135 A 
ATOM     78  F   UNL A   1      38.454  34.318  29.664  1.00  0.00    -0.206 F 
ATOM     79  C   UNL A   1      36.137  34.447  29.311  1.00  0.00     0.059 A 
ATOM     80  C   UNL A   1      34.665  32.830  30.366  1.00  0.00     0.059 A 
ATOM     81  F   UNL A   1      35.563  31.181  31.766  1.00  0.00    -0.206 F 
ATOM     82  C   UNL A   1      34.857  33.942  29.547  1.00  0.00     0.060 A 
BRANCH  82  83
ATOM     83  S   UNL A   1      33.447  34.738  28.746  1.00  0.00     0.124 S 
ATOM     84  O   UNL A   1      32.556  34.964  29.877  1.00  0.00    -0.237 OA
ATOM     85  O   UNL A   1      34.059  35.932  28.168  1.00  0.00    -0.237 OA
ATOM     86  O   UNL A   1      33.001  33.740  27.779  1.00  0.00    -0.744 OA
ENDBRANCH  82  83
ENDBRANCH  50  75
BRANCH  62  87
ATOM     87  C   UNL A   1      39.954  33.221  37.091  1.00  0.00     0.058 A 
ATOM     88  C   UNL A   1      40.649  34.414  37.343  1.00  0.00     0.135 A 
ATOM     89  C   UNL A   1      38.907  32.877  37.962  1.00  0.00     0.135 A 
ATOM     90  F   UNL A   1      41.664  34.786  36.547  1.00  0.00    -0.206 F 
ATOM     91  C   UNL A   1      40.331  35.223  38.428  1.00  0.00     0.059 A 
ATOM     92  C   UNL A   1      38.550  33.688  39.034  1.00  0.00     0.059 A 
ATOM     93  F   UNL A   1      38.200  31.752  37.760  1.00  0.00    -0.206 F 
ATOM     94  C   UNL A   1      39.277  34.854  39.266  1.00  0.00     0.060 A 
BRANCH  94  95
ATOM     95  S   UNL A   1      38.851  35.935  40.649  1.00  0.00     0.124 S 
ATOM     96  O   UNL A   1      40.075  35.893  41.443  1.00  0.00    -0.237 OA
ATOM     97  O   UNL A   1      38.571  37.201  39.979  1.00  0.00    -0.237 OA
ATOM     98  O   UNL A   1      37.691  35.280  41.248  1.00  0.00    -0.744 OA
ENDBRANCH  94  95
ENDBRANCH  62  87
ENDBRANCH  36  37
ENDBRANCH  29  31
ENDBRANCH  28  29
ENDBRANCH  27  28
ENDBRANCH  26  27
ENDBRANCH  25  26
ENDBRANCH  24  25
ENDBRANCH  23  24
ENDBRANCH   1  23
TORSDOF 27
ENDMDL
MODEL 3
REMARK VINA RESULT:      -8.3      1.887      3.587
REMARK SMILES CC(C)[C@@H](CO)NC(=O)CC(C)(C)CC(=O)OCCOCCOCCOC(=O)c1ccc(-c2c3nc(c(-c4c(F)cc(S(=O)(=O)[O-])cc4F)c4ccc([nH]4)c(-c4c(F)cc(S(=O)(=O)[O-])cc4F)c4nc(c(-c5c(F)cc(S(=O)(=O)[O-])cc5F)c5ccc2[nH]5)C=C4)C=C3)cc1
REMARK SMILES IDX 20 1 19 2 18 3 17 4 15 5 16 6 14 7 11 8 12 9 13 10 10 11
REMARK SMILES IDX 8 12 7 13 9 15 4 16 2 17 1 18 3 19 5 20 6 21 21 23 22 24
REMARK SMILES IDX 23 25 24 26 25 27 26 28 27 29 28 30 29 31 30 32 94 33 31 34
REMARK SMILES IDX 93 35 32 36 33 37 34 38 87 39 35 40 92 41 86 42 88 43 36 44
REMARK SMILES IDX 91 45 85 46 84 47 37 49 71 50 50 51 70 52 51 53 54 54 69 55
REMARK SMILES IDX 89 56 52 57 53 58 68 60 90 61 55 62 38 63 39 64 48 65 40 66
REMARK SMILES IDX 41 67 47 68 49 69 42 70 43 71 44 72 45 73 46 74 72 75 73 76
REMARK SMILES IDX 82 77 74 78 75 79 81 80 83 81 76 82 77 83 78 84 79 85 80 86
REMARK SMILES IDX 56 87 57 88 66 89 58 90 59 91 65 92 67 93 60 94 61 95 62 96
REMARK SMILES IDX 63 97 64 98
REMARK H PARENT 7 14 6 22 88 48 54 59
REMARK Flexibility Score: inf
ROOT
ATOM      1  O   UNL A   1      38.320  21.451  26.125  1.00  0.00    -0.376 OA
ENDROOT
BRANCH   1   2
ATOM      2  C   UNL A   1      37.754  22.440  25.260  1.00  0.00     0.202 C 
BRANCH   2   3
ATOM      3  C   UNL A   1      37.252  23.730  25.939  1.00  0.00     0.261 C 
BRANCH   3   4
ATOM      4  O   UNL A   1      35.809  23.765  26.082  1.00  0.00    -0.463 OA
BRANCH   4   5
ATOM      5  C   UNL A   1      35.100  24.384  25.098  1.00  0.00     0.306 C 
ATOM      6  O   UNL A   1      34.927  25.595  25.029  1.00  0.00    -0.252 OA
BRANCH   5   7
ATOM      7  C   UNL A   1      34.682  23.423  23.979  1.00  0.00     0.129 C 
BRANCH   7   8
ATOM      8  C   UNL A   1      33.205  22.953  23.846  1.00  0.00    -0.016 C 
ATOM      9  C   UNL A   1      32.583  23.549  22.570  1.00  0.00     0.012 C 
ATOM     10  C   UNL A   1      32.312  23.458  25.003  1.00  0.00     0.012 C 
BRANCH   8  11
ATOM     11  C   UNL A   1      33.047  21.403  23.818  1.00  0.00     0.107 C 
BRANCH  11  12
ATOM     12  C   UNL A   1      32.447  20.553  24.930  1.00  0.00     0.220 C 
ATOM     13  N   UNL A   1      32.953  19.350  25.300  1.00  0.00    -0.351 N 
ATOM     14  H   UNL A   1      33.430  19.253  26.156  1.00  0.00     0.163 HD
ATOM     15  O   UNL A   1      31.377  20.888  25.439  1.00  0.00    -0.275 OA
BRANCH  13  16
ATOM     16  C   UNL A   1      32.786  18.200  24.417  1.00  0.00     0.110 C 
BRANCH  16  17
ATOM     17  C   UNL A   1      34.107  17.786  23.713  1.00  0.00     0.007 C 
ATOM     18  C   UNL A   1      35.285  18.260  24.569  1.00  0.00     0.009 C 
ATOM     19  C   UNL A   1      34.254  16.291  23.397  1.00  0.00     0.009 C 
ENDBRANCH  16  17
BRANCH  16  20
ATOM     20  C   UNL A   1      32.177  17.013  25.218  1.00  0.00     0.181 C 
BRANCH  20  21
ATOM     21  O   UNL A   1      32.903  16.783  26.424  1.00  0.00    -0.394 OA
ATOM     22  H   UNL A   1      32.958  17.609  26.930  1.00  0.00     0.210 HD
ENDBRANCH  20  21
ENDBRANCH  16  20
ENDBRANCH  13  16
ENDBRANCH  11  12
ENDBRANCH   8  11
ENDBRANCH   7   8
ENDBRANCH   5   7
ENDBRANCH   4   5
ENDBRANCH   3   4
ENDBRANCH   2   3
ENDBRANCH   1   2
BRANCH   1  23
ATOM     23  C   UNL A   1      39.733  21.488  26.277  1.00  0.00     0.188 C 
BRANCH  23  24
ATOM     24  C   UNL A   1      40.470  20.165  26.022  1.00  0.00     0.188 C 
BRANCH  24  25
ATOM     25  O   UNL A   1      41.853  20.158  26.350  1.00  0.00    -0.376 OA
BRANCH  25  26
ATOM     26  C   UNL A   1      42.315  21.220  27.183  1.00  0.00     0.202 C 
BRANCH  26  27
ATOM     27  C   UNL A   1      43.384  22.133  26.553  1.00  0.00     0.261 C 
BRANCH  27  28
ATOM     28  O   UNL A   1      43.345  23.513  26.973  1.00  0.00    -0.460 OA
BRANCH  28  29
ATOM     29  C   UNL A   1      42.486  24.314  26.304  1.00  0.00     0.338 C 
ATOM     30  O   UNL A   1      42.014  24.084  25.200  1.00  0.00    -0.246 OA
BRANCH  29  31
ATOM     31  C   UNL A   1      42.033  25.394  27.214  1.00  0.00     0.060 A 
ATOM     32  C   UNL A   1      42.750  26.592  27.232  1.00  0.00     0.016 A 
ATOM     33  C   UNL A   1      40.933  25.250  28.053  1.00  0.00     0.016 A 
ATOM     34  C   UNL A   1      42.474  27.595  28.150  1.00  0.00     0.010 A 
ATOM     35  C   UNL A   1      40.619  26.279  28.955  1.00  0.00     0.010 A 
ATOM     36  C   UNL A   1      41.418  27.439  29.046  1.00  0.00    -0.014 A 
BRANCH  36  37
ATOM     37  C   UNL A   1      41.257  28.411  30.160  1.00  0.00     0.031 A 
ATOM     38  C   UNL A   1      42.205  28.331  31.327  1.00  0.00     0.074 A 
ATOM     39  C   UNL A   1      40.338  29.396  30.112  1.00  0.00     0.049 A 
ATOM     40  N   UNL A   1      42.158  28.942  32.480  1.00  0.00    -0.248 NA
ATOM     41  C   UNL A   1      43.362  27.432  31.170  1.00  0.00     0.031 C 
ATOM     42  C   UNL A   1      39.434  29.662  28.993  1.00  0.00     0.029 A 
ATOM     43  N   UNL A   1      40.012  30.360  31.036  1.00  0.00    -0.354 N 
ATOM     44  C   UNL A   1      43.243  28.463  33.207  1.00  0.00     0.074 A 
ATOM     45  C   UNL A   1      43.927  27.505  32.367  1.00  0.00     0.031 C 
ATOM     46  C   UNL A   1      38.657  30.715  29.295  1.00  0.00     0.029 A 
ATOM     47  C   UNL A   1      38.950  31.150  30.658  1.00  0.00     0.049 A 
ATOM     48  H   UNL A   1      40.494  30.476  31.887  1.00  0.00     0.167 HD
ATOM     49  C   UNL A   1      43.629  28.794  34.462  1.00  0.00     0.037 A 
ATOM     50  C   UNL A   1      38.258  32.078  31.349  1.00  0.00     0.037 A 
ATOM     51  C   UNL A   1      42.967  29.787  35.268  1.00  0.00     0.049 A 
ATOM     52  C   UNL A   1      38.654  32.375  32.772  1.00  0.00     0.074 A 
ATOM     53  C   UNL A   1      43.277  30.199  36.551  1.00  0.00     0.029 A 
ATOM     54  N   UNL A   1      41.868  30.532  34.862  1.00  0.00    -0.354 N 
ATOM     55  N   UNL A   1      39.641  31.870  33.476  1.00  0.00    -0.248 NA
ATOM     56  C   UNL A   1      37.839  33.356  33.502  1.00  0.00     0.031 C 
ATOM     57  C   UNL A   1      42.333  31.153  36.944  1.00  0.00     0.029 A 
ATOM     58  C   UNL A   1      41.474  31.385  35.880  1.00  0.00     0.049 A 
ATOM     59  H   UNL A   1      41.432  30.465  33.982  1.00  0.00     0.167 HD
ATOM     60  C   UNL A   1      39.581  32.493  34.719  1.00  0.00     0.074 A 
ATOM     61  C   UNL A   1      38.470  33.420  34.667  1.00  0.00     0.031 C 
ATOM     62  C   UNL A   1      40.374  32.315  35.805  1.00  0.00     0.037 A 
BRANCH  49  63
ATOM     63  C   UNL A   1      44.786  28.043  35.063  1.00  0.00     0.058 A 
ATOM     64  C   UNL A   1      44.624  26.826  35.743  1.00  0.00     0.135 A 
ATOM     65  C   UNL A   1      46.093  28.537  34.915  1.00  0.00     0.135 A 
ATOM     66  F   UNL A   1      43.397  26.317  35.933  1.00  0.00    -0.206 F 
ATOM     67  C   UNL A   1      45.712  26.138  36.274  1.00  0.00     0.059 A 
ATOM     68  C   UNL A   1      47.198  27.852  35.408  1.00  0.00     0.059 A 
ATOM     69  F   UNL A   1      46.308  29.700  34.277  1.00  0.00    -0.206 F 
ATOM     70  C   UNL A   1      46.996  26.657  36.096  1.00  0.00     0.060 A 
BRANCH  70  71
ATOM     71  S   UNL A   1      48.399  25.741  36.769  1.00  0.00     0.124 S 
ATOM     72  O   UNL A   1      49.284  26.824  37.184  1.00  0.00    -0.237 OA
ATOM     73  O   UNL A   1      47.782  24.978  37.850  1.00  0.00    -0.237 OA
ATOM     74  O   UNL A   1      48.865  24.949  35.634  1.00  0.00    -0.744 OA
ENDBRANCH  70  71
ENDBRANCH  49  63
BRANCH  50  75
ATOM     75  C   UNL A   1      37.081  32.751  30.730  1.00  0.00     0.058 A 
ATOM     76  C   UNL A   1      37.234  33.710  29.718  1.00  0.00     0.135 A 
ATOM     77  C   UNL A   1      35.772  32.455  31.150  1.00  0.00     0.135 A 
ATOM     78  F   UNL A   1      38.462  34.044  29.291  1.00  0.00    -0.206 F 
ATOM     79  C   UNL A   1      36.140  34.362  29.156  1.00  0.00     0.059 A 
ATOM     80  C   UNL A   1      34.661  33.067  30.580  1.00  0.00     0.059 A 
ATOM     81  F   UNL A   1      35.564  31.542  32.113  1.00  0.00    -0.206 F 
ATOM     82  C   UNL A   1      34.855  34.030  29.591  1.00  0.00     0.060 A 
BRANCH  82  83
ATOM     83  S   UNL A   1      33.439  34.849  28.826  1.00  0.00     0.124 S 
ATOM     84  O   UNL A   1      32.493  34.895  29.934  1.00  0.00    -0.237 OA
ATOM     85  O   UNL A   1      34.011  36.131  28.421  1.00  0.00    -0.237 OA
ATOM     86  O   UNL A   1      33.084  33.955  27.729  1.00  0.00    -0.744 OA
ENDBRANCH  82  83
ENDBRANCH  50  75
BRANCH  62  87
ATOM     87  C   UNL A   1      40.110  33.176  37.011  1.00  0.00     0.058 A 
ATOM     88  C   UNL A   1      39.167  32.818  37.988  1.00  0.00     0.135 A 
ATOM     89  C   UNL A   1      40.857  34.347  37.220  1.00  0.00     0.135 A 
ATOM     90  F   UNL A   1      38.421  31.712  37.835  1.00  0.00    -0.206 F 
ATOM     91  C   UNL A   1      38.961  33.602  39.118  1.00  0.00     0.059 A 
ATOM     92  C   UNL A   1      40.689  35.128  38.358  1.00  0.00     0.059 A 
ATOM     93  F   UNL A   1      41.780  34.729  36.322  1.00  0.00    -0.206 F 
ATOM     94  C   UNL A   1      39.730  34.753  39.297  1.00  0.00     0.060 A 
BRANCH  94  95
ATOM     95  S   UNL A   1      39.477  35.741  40.787  1.00  0.00     0.124 S 
ATOM     96  O   UNL A   1      38.042  35.584  41.004  1.00  0.00    -0.237 OA
ATOM     97  O   UNL A   1      40.342  35.071  41.754  1.00  0.00    -0.237 OA
ATOM     98  O   UNL A   1      39.910  37.077  40.388  1.00  0.00    -0.744 OA
ENDBRANCH  94  95
ENDBRANCH  62  87
ENDBRANCH  36  37
ENDBRANCH  29  31
ENDBRANCH  28  29
ENDBRANCH  27  28
ENDBRANCH  26  27
ENDBRANCH  25  26
ENDBRANCH  24  25
ENDBRANCH  23  24
ENDBRANCH   1  23
TORSDOF 27
ENDMDL
