MODEL 1
REMARK VINA RESULT:     -10.4      0.000      0.000
REMARK SMILES COc1ccc(C(=O)N[C@H](C(=O)OCCOCCOCCOC(=O)c2ccc(-c3c4nc(c(-c5c(F)cc(S(=O)(=O)[O-])cc5F)c5ccc([nH]5)c(-c5c(F)cc(S(=O)(=O)[O-])cc5F)c5nc(c(-c6c(F)cc(S(=O)(=O)[O-])cc6F)c6ccc3[nH]6)C=C5)C=C4)cc2)C2=C(C)N=N[C@H]2C)c(F)c1F
REMARK SMILES IDX 17 1 16 2 15 3 14 4 13 5 11 6 12 7 10 8 9 9 7 10 8 11 6 13
REMARK SMILES IDX 3 14 4 15 100 16 5 17 98 18 101 19 99 20 2 21 1 22 91 23
REMARK SMILES IDX 92 24 96 25 93 26 94 27 95 28 97 29 18 30 19 31 20 32 21 33
REMARK SMILES IDX 22 34 23 35 24 36 25 37 26 38 90 39 27 40 89 41 28 42 29 43
REMARK SMILES IDX 30 44 83 45 31 46 88 47 82 48 84 49 32 50 87 51 81 52 80 53
REMARK SMILES IDX 33 55 67 56 46 57 66 58 47 59 50 60 65 61 85 62 48 63 49 64
REMARK SMILES IDX 64 66 86 67 51 68 34 69 35 70 44 71 36 72 37 73 43 74 45 75
REMARK SMILES IDX 38 76 39 77 40 78 41 79 42 80 68 81 69 82 78 83 70 84 71 85
REMARK SMILES IDX 77 86 79 87 72 88 73 89 74 90 75 91 76 92 52 93 53 94 62 95
REMARK SMILES IDX 54 96 55 97 61 98 63 99 56 100 57 101 58 102 59 103 60 104
REMARK H PARENT 9 12 84 54 50 65
REMARK Flexibility Score: inf
ROOT
ATOM      1  C   UNL A   1      36.194  23.058  24.294  1.00  0.00     0.188 C 
ENDROOT
BRANCH   1   2
ATOM      2  O   UNL A   1      35.065  23.892  24.206  1.00  0.00    -0.376 OA
BRANCH   2   3
ATOM      3  C   UNL A   1      34.744  24.788  25.256  1.00  0.00     0.202 C 
BRANCH   3   4
ATOM      4  C   UNL A   1      34.228  26.226  25.077  1.00  0.00     0.261 C 
BRANCH   4   5
ATOM      5  O   UNL A   1      34.063  27.021  26.255  1.00  0.00    -0.461 OA
BRANCH   5   6
ATOM      6  C   UNL A   1      32.801  27.446  26.508  1.00  0.00     0.333 C 
ATOM      7  O   UNL A   1      32.497  28.122  27.488  1.00  0.00    -0.249 OA
BRANCH   6   8
ATOM      8  C   UNL A   1      31.753  27.021  25.446  1.00  0.00     0.223 C 
BRANCH   8   9
ATOM      9  N   UNL A   1      30.695  26.314  26.168  1.00  0.00    -0.335 N 
ATOM     10  C   UNL A   1      30.282  25.014  26.232  1.00  0.00     0.255 C 
ATOM     11  O   UNL A   1      29.248  24.818  26.876  1.00  0.00    -0.269 OA
ATOM     12  H   UNL A   1      30.158  26.911  26.738  1.00  0.00     0.165 HD
BRANCH  10  13
ATOM     13  C   UNL A   1      30.979  23.846  25.634  1.00  0.00     0.078 A 
ATOM     14  C   UNL A   1      32.527  21.666  24.755  1.00  0.00     0.157 A 
ATOM     15  C   UNL A   1      32.437  21.935  26.114  1.00  0.00     0.050 A 
ATOM     16  C   UNL A   1      31.834  22.453  23.848  1.00  0.00     0.201 A 
ATOM     17  C   UNL A   1      31.668  23.018  26.547  1.00  0.00     0.021 A 
ATOM     18  C   UNL A   1      31.029  23.495  24.287  1.00  0.00     0.175 A 
ATOM     19  F   UNL A   1      31.910  22.195  22.532  1.00  0.00    -0.200 F 
ATOM     20  F   UNL A   1      30.279  24.075  23.350  1.00  0.00    -0.203 F 
BRANCH  14  21
ATOM     21  O   UNL A   1      33.320  20.644  24.321  1.00  0.00    -0.494 OA
ATOM     22  C   UNL A   1      32.529  19.479  24.091  1.00  0.00     0.278 C 
ENDBRANCH  14  21
ENDBRANCH  10  13
ENDBRANCH   8   9
BRANCH   8  23
ATOM     23  C   UNL A   1      31.123  27.987  24.460  1.00  0.00     0.012 C 
ATOM     24  C   UNL A   1      30.896  29.317  24.505  1.00  0.00     0.064 C 
ATOM     25  C   UNL A   1      30.260  27.512  23.326  1.00  0.00     0.156 C 
ATOM     26  C   UNL A   1      31.407  30.399  25.403  1.00  0.00     0.069 C 
ATOM     27  N   UNL A   1      29.905  29.705  23.632  1.00  0.00    -0.160 NA
ATOM     28  N   UNL A   1      29.415  28.704  23.049  1.00  0.00    -0.181 NA
ATOM     29  C   UNL A   1      30.955  27.216  21.997  1.00  0.00     0.040 C 
ENDBRANCH   8  23
ENDBRANCH   6   8
ENDBRANCH   5   6
ENDBRANCH   4   5
ENDBRANCH   3   4
ENDBRANCH   2   3
ENDBRANCH   1   2
BRANCH   1  30
ATOM     30  C   UNL A   1      36.188  22.071  25.474  1.00  0.00     0.188 C 
BRANCH  30  31
ATOM     31  O   UNL A   1      36.860  20.830  25.393  1.00  0.00    -0.376 OA
BRANCH  31  32
ATOM     32  C   UNL A   1      38.241  20.823  25.069  1.00  0.00     0.202 C 
BRANCH  32  33
ATOM     33  C   UNL A   1      39.313  21.204  26.108  1.00  0.00     0.261 C 
BRANCH  33  34
ATOM     34  O   UNL A   1      39.960  20.114  26.783  1.00  0.00    -0.460 OA
BRANCH  34  35
ATOM     35  C   UNL A   1      41.229  19.848  26.377  1.00  0.00     0.338 C 
ATOM     36  O   UNL A   1      41.611  18.873  25.747  1.00  0.00    -0.246 OA
BRANCH  35  37
ATOM     37  C   UNL A   1      42.071  21.040  26.609  1.00  0.00     0.060 A 
ATOM     38  C   UNL A   1      42.280  21.471  27.929  1.00  0.00     0.016 A 
ATOM     39  C   UNL A   1      42.642  21.732  25.542  1.00  0.00     0.016 A 
ATOM     40  C   UNL A   1      43.059  22.597  28.188  1.00  0.00     0.010 A 
ATOM     41  C   UNL A   1      43.387  22.886  25.800  1.00  0.00     0.010 A 
ATOM     42  C   UNL A   1      43.579  23.336  27.121  1.00  0.00    -0.014 A 
BRANCH  42  43
ATOM     43  C   UNL A   1      44.149  24.683  27.365  1.00  0.00     0.031 A 
ATOM     44  C   UNL A   1      43.208  25.793  27.746  1.00  0.00     0.074 A 
ATOM     45  C   UNL A   1      45.468  24.917  27.253  1.00  0.00     0.049 A 
ATOM     46  N   UNL A   1      43.448  27.066  27.913  1.00  0.00    -0.248 NA
ATOM     47  C   UNL A   1      41.802  25.410  27.962  1.00  0.00     0.031 C 
ATOM     48  C   UNL A   1      46.484  23.911  26.949  1.00  0.00     0.029 A 
ATOM     49  N   UNL A   1      46.176  26.087  27.370  1.00  0.00    -0.354 N 
ATOM     50  C   UNL A   1      42.225  27.640  28.239  1.00  0.00     0.074 A 
ATOM     51  C   UNL A   1      41.240  26.581  28.220  1.00  0.00     0.031 C 
ATOM     52  C   UNL A   1      47.684  24.512  26.879  1.00  0.00     0.029 A 
ATOM     53  C   UNL A   1      47.516  25.949  27.096  1.00  0.00     0.049 A 
ATOM     54  H   UNL A   1      45.764  26.944  27.625  1.00  0.00     0.167 HD
ATOM     55  C   UNL A   1      41.951  28.933  28.531  1.00  0.00     0.037 A 
ATOM     56  C   UNL A   1      48.487  26.880  27.002  1.00  0.00     0.037 A 
ATOM     57  C   UNL A   1      42.939  29.980  28.542  1.00  0.00     0.049 A 
ATOM     58  C   UNL A   1      48.145  28.328  27.254  1.00  0.00     0.074 A 
ATOM     59  C   UNL A   1      42.768  31.321  28.836  1.00  0.00     0.029 A 
ATOM     60  N   UNL A   1      44.281  29.806  28.233  1.00  0.00    -0.354 N 
ATOM     61  N   UNL A   1      46.988  28.861  27.574  1.00  0.00    -0.248 NA
ATOM     62  C   UNL A   1      49.238  29.302  27.132  1.00  0.00     0.031 C 
ATOM     63  C   UNL A   1      43.993  31.968  28.646  1.00  0.00     0.029 A 
ATOM     64  C   UNL A   1      44.944  31.021  28.301  1.00  0.00     0.049 A 
ATOM     65  H   UNL A   1      44.701  28.946  28.000  1.00  0.00     0.167 HD
ATOM     66  C   UNL A   1      47.223  30.224  27.724  1.00  0.00     0.074 A 
ATOM     67  C   UNL A   1      48.633  30.433  27.469  1.00  0.00     0.031 C 
ATOM     68  C   UNL A   1      46.352  31.213  28.050  1.00  0.00     0.037 A 
BRANCH  55  69
ATOM     69  C   UNL A   1      40.519  29.294  28.822  1.00  0.00     0.058 A 
ATOM     70  C   UNL A   1      40.063  29.538  30.128  1.00  0.00     0.135 A 
ATOM     71  C   UNL A   1      39.593  29.420  27.774  1.00  0.00     0.135 A 
ATOM     72  F   UNL A   1      40.899  29.413  31.171  1.00  0.00    -0.206 F 
ATOM     73  C   UNL A   1      38.736  29.867  30.385  1.00  0.00     0.059 A 
ATOM     74  C   UNL A   1      38.269  29.779  28.005  1.00  0.00     0.059 A 
ATOM     75  F   UNL A   1      39.972  29.193  26.505  1.00  0.00    -0.206 F 
ATOM     76  C   UNL A   1      37.847  29.987  29.316  1.00  0.00     0.060 A 
BRANCH  76  77
ATOM     77  S   UNL A   1      36.130  30.418  29.668  1.00  0.00     0.124 S 
ATOM     78  O   UNL A   1      36.170  31.875  29.580  1.00  0.00    -0.237 OA
ATOM     79  O   UNL A   1      35.412  29.739  28.593  1.00  0.00    -0.237 OA
ATOM     80  O   UNL A   1      35.908  29.878  31.005  1.00  0.00    -0.744 OA
ENDBRANCH  76  77
ENDBRANCH  55  69
BRANCH  56  81
ATOM     81  C   UNL A   1      49.873  26.477  26.638  1.00  0.00     0.058 A 
ATOM     82  C   UNL A   1      50.834  26.205  27.623  1.00  0.00     0.135 A 
ATOM     83  C   UNL A   1      50.265  26.356  25.295  1.00  0.00     0.135 A 
ATOM     84  F   UNL A   1      50.516  26.322  28.920  1.00  0.00    -0.206 F 
ATOM     85  C   UNL A   1      52.135  25.839  27.291  1.00  0.00     0.059 A 
ATOM     86  C   UNL A   1      51.552  25.965  24.938  1.00  0.00     0.059 A 
ATOM     87  F   UNL A   1      49.384  26.601  24.311  1.00  0.00    -0.206 F 
ATOM     88  C   UNL A   1      52.483  25.715  25.944  1.00  0.00     0.060 A 
BRANCH  88  89
ATOM     89  S   UNL A   1      54.160  25.189  25.529  1.00  0.00     0.124 S 
ATOM     90  O   UNL A   1      53.904  24.071  24.627  1.00  0.00    -0.237 OA
ATOM     91  O   UNL A   1      54.714  26.391  24.913  1.00  0.00    -0.237 OA
ATOM     92  O   UNL A   1      54.733  24.835  26.824  1.00  0.00    -0.744 OA
ENDBRANCH  88  89
ENDBRANCH  56  81
BRANCH  68  93
ATOM     93  C   UNL A   1      46.899  32.609  28.196  1.00  0.00     0.058 A 
ATOM     94  C   UNL A   1      47.475  33.061  29.393  1.00  0.00     0.135 A 
ATOM     95  C   UNL A   1      46.901  33.487  27.099  1.00  0.00     0.135 A 
ATOM     96  F   UNL A   1      47.498  32.267  30.475  1.00  0.00    -0.206 F 
ATOM     97  C   UNL A   1      48.011  34.341  29.505  1.00  0.00     0.059 A 
ATOM     98  C   UNL A   1      47.459  34.759  27.179  1.00  0.00     0.059 A 
ATOM     99  F   UNL A   1      46.373  33.103  25.924  1.00  0.00    -0.206 F 
ATOM    100  C   UNL A   1      48.001  35.182  28.390  1.00  0.00     0.060 A 
BRANCH 100 101
ATOM    101  S   UNL A   1      48.730  36.826  28.540  1.00  0.00     0.124 S 
ATOM    102  O   UNL A   1      47.705  37.536  29.300  1.00  0.00    -0.237 OA
ATOM    103  O   UNL A   1      49.973  36.553  29.254  1.00  0.00    -0.237 OA
ATOM    104  O   UNL A   1      48.892  37.256  27.153  1.00  0.00    -0.744 OA
ENDBRANCH 100 101
ENDBRANCH  68  93
ENDBRANCH  42  43
ENDBRANCH  35  37
ENDBRANCH  34  35
ENDBRANCH  33  34
ENDBRANCH  32  33
ENDBRANCH  31  32
ENDBRANCH  30  31
ENDBRANCH   1  30
TORSDOF 24
ENDMDL
MODEL 2
REMARK VINA RESULT:     -10.2      1.405      3.023
REMARK SMILES COc1ccc(C(=O)N[C@H](C(=O)OCCOCCOCCOC(=O)c2ccc(-c3c4nc(c(-c5c(F)cc(S(=O)(=O)[O-])cc5F)c5ccc([nH]5)c(-c5c(F)cc(S(=O)(=O)[O-])cc5F)c5nc(c(-c6c(F)cc(S(=O)(=O)[O-])cc6F)c6ccc3[nH]6)C=C5)C=C4)cc2)C2=C(C)N=N[C@H]2C)c(F)c1F
REMARK SMILES IDX 17 1 16 2 15 3 14 4 13 5 11 6 12 7 10 8 9 9 7 10 8 11 6 13
REMARK SMILES IDX 3 14 4 15 100 16 5 17 98 18 101 19 99 20 2 21 1 22 91 23
REMARK SMILES IDX 92 24 96 25 93 26 94 27 95 28 97 29 18 30 19 31 20 32 21 33
REMARK SMILES IDX 22 34 23 35 24 36 25 37 26 38 90 39 27 40 89 41 28 42 29 43
REMARK SMILES IDX 30 44 83 45 31 46 88 47 82 48 84 49 32 50 87 51 81 52 80 53
REMARK SMILES IDX 33 55 67 56 46 57 66 58 47 59 50 60 65 61 85 62 48 63 49 64
REMARK SMILES IDX 64 66 86 67 51 68 34 69 35 70 44 71 36 72 37 73 43 74 45 75
REMARK SMILES IDX 38 76 39 77 40 78 41 79 42 80 68 81 69 82 78 83 70 84 71 85
REMARK SMILES IDX 77 86 79 87 72 88 73 89 74 90 75 91 76 92 52 93 53 94 62 95
REMARK SMILES IDX 54 96 55 97 61 98 63 99 56 100 57 101 58 102 59 103 60 104
REMARK H PARENT 9 12 84 54 50 65
REMARK Flexibility Score: inf
ROOT
ATOM      1  C   UNL A   1      34.588  20.485  24.551  1.00  0.00     0.188 C 
ENDROOT
BRANCH   1   2
ATOM      2  O   UNL A   1      33.717  21.284  25.315  1.00  0.00    -0.376 OA
BRANCH   2   3
ATOM      3  C   UNL A   1      34.020  21.597  26.664  1.00  0.00     0.202 C 
BRANCH   3   4
ATOM      4  C   UNL A   1      33.232  22.577  27.551  1.00  0.00     0.261 C 
BRANCH   4   5
ATOM      5  O   UNL A   1      32.799  23.804  26.959  1.00  0.00    -0.461 OA
BRANCH   5   6
ATOM      6  C   UNL A   1      31.524  23.820  26.501  1.00  0.00     0.333 C 
ATOM      7  O   UNL A   1      30.540  23.858  27.235  1.00  0.00    -0.249 OA
BRANCH   6   8
ATOM      8  C   UNL A   1      31.395  23.802  24.954  1.00  0.00     0.223 C 
BRANCH   8   9
ATOM      9  N   UNL A   1      30.253  24.654  24.623  1.00  0.00    -0.335 N 
ATOM     10  C   UNL A   1      30.011  25.996  24.678  1.00  0.00     0.255 C 
ATOM     11  O   UNL A   1      28.853  26.337  24.422  1.00  0.00    -0.269 OA
ATOM     12  H   UNL A   1      29.483  24.144  24.281  1.00  0.00     0.165 HD
BRANCH  10  13
ATOM     13  C   UNL A   1      31.011  27.053  24.982  1.00  0.00     0.078 A 
ATOM     14  C   UNL A   1      32.712  29.127  25.831  1.00  0.00     0.157 A 
ATOM     15  C   UNL A   1      32.045  28.361  26.777  1.00  0.00     0.050 A 
ATOM     16  C   UNL A   1      32.557  28.847  24.482  1.00  0.00     0.201 A 
ATOM     17  C   UNL A   1      31.200  27.333  26.353  1.00  0.00     0.021 A 
ATOM     18  C   UNL A   1      31.759  27.790  24.067  1.00  0.00     0.175 A 
ATOM     19  F   UNL A   1      33.206  29.578  23.561  1.00  0.00    -0.200 F 
ATOM     20  F   UNL A   1      31.816  27.504  22.766  1.00  0.00    -0.203 F 
BRANCH  14  21
ATOM     21  O   UNL A   1      33.495  30.168  26.237  1.00  0.00    -0.494 OA
ATOM     22  C   UNL A   1      32.800  30.945  27.213  1.00  0.00     0.278 C 
ENDBRANCH  14  21
ENDBRANCH  10  13
ENDBRANCH   8   9
BRANCH   8  23
ATOM     23  C   UNL A   1      32.544  24.121  24.016  1.00  0.00     0.012 C 
ATOM     24  C   UNL A   1      33.648  24.884  24.154  1.00  0.00     0.064 C 
ATOM     25  C   UNL A   1      32.442  23.899  22.534  1.00  0.00     0.156 C 
ATOM     26  C   UNL A   1      34.316  25.490  25.349  1.00  0.00     0.069 C 
ATOM     27  N   UNL A   1      34.168  25.272  22.939  1.00  0.00    -0.160 NA
ATOM     28  N   UNL A   1      33.441  24.862  21.999  1.00  0.00    -0.181 NA
ATOM     29  C   UNL A   1      32.894  22.539  22.000  1.00  0.00     0.040 C 
ENDBRANCH   8  23
ENDBRANCH   6   8
ENDBRANCH   5   6
ENDBRANCH   4   5
ENDBRANCH   3   4
ENDBRANCH   2   3
ENDBRANCH   1   2
BRANCH   1  30
ATOM     30  C   UNL A   1      35.961  20.217  25.190  1.00  0.00     0.188 C 
BRANCH  30  31
ATOM     31  O   UNL A   1      37.058  21.076  24.952  1.00  0.00    -0.376 OA
BRANCH  31  32
ATOM     32  C   UNL A   1      38.371  20.551  25.070  1.00  0.00     0.202 C 
BRANCH  32  33
ATOM     33  C   UNL A   1      39.374  21.115  26.095  1.00  0.00     0.261 C 
BRANCH  33  34
ATOM     34  O   UNL A   1      40.226  20.159  26.743  1.00  0.00    -0.460 OA
BRANCH  34  35
ATOM     35  C   UNL A   1      41.447  19.985  26.174  1.00  0.00     0.338 C 
ATOM     36  O   UNL A   1      41.781  19.093  25.407  1.00  0.00    -0.246 OA
BRANCH  35  37
ATOM     37  C   UNL A   1      42.278  21.179  26.435  1.00  0.00     0.060 A 
ATOM     38  C   UNL A   1      42.520  21.553  27.767  1.00  0.00     0.016 A 
ATOM     39  C   UNL A   1      42.805  21.928  25.384  1.00  0.00     0.016 A 
ATOM     40  C   UNL A   1      43.290  22.678  28.054  1.00  0.00     0.010 A 
ATOM     41  C   UNL A   1      43.540  23.081  25.673  1.00  0.00     0.010 A 
ATOM     42  C   UNL A   1      43.765  23.474  27.007  1.00  0.00    -0.014 A 
BRANCH  42  43
ATOM     43  C   UNL A   1      44.322  24.817  27.295  1.00  0.00     0.031 A 
ATOM     44  C   UNL A   1      43.369  25.906  27.707  1.00  0.00     0.074 A 
ATOM     45  C   UNL A   1      45.639  25.066  27.196  1.00  0.00     0.049 A 
ATOM     46  N   UNL A   1      43.597  27.176  27.914  1.00  0.00    -0.248 NA
ATOM     47  C   UNL A   1      41.966  25.504  27.905  1.00  0.00     0.031 C 
ATOM     48  C   UNL A   1      46.665  24.080  26.865  1.00  0.00     0.029 A 
ATOM     49  N   UNL A   1      46.336  26.239  27.353  1.00  0.00    -0.354 N 
ATOM     50  C   UNL A   1      42.368  27.728  28.254  1.00  0.00     0.074 A 
ATOM     51  C   UNL A   1      41.393  26.661  28.198  1.00  0.00     0.031 C 
ATOM     52  C   UNL A   1      47.860  24.693  26.819  1.00  0.00     0.029 A 
ATOM     53  C   UNL A   1      47.678  26.122  27.080  1.00  0.00     0.049 A 
ATOM     54  H   UNL A   1      45.915  27.083  27.633  1.00  0.00     0.167 HD
ATOM     55  C   UNL A   1      42.080  29.008  28.585  1.00  0.00     0.037 A 
ATOM     56  C   UNL A   1      48.641  27.064  27.019  1.00  0.00     0.037 A 
ATOM     57  C   UNL A   1      43.059  30.064  28.632  1.00  0.00     0.049 A 
ATOM     58  C   UNL A   1      48.284  28.500  27.315  1.00  0.00     0.074 A 
ATOM     59  C   UNL A   1      42.874  31.393  28.968  1.00  0.00     0.029 A 
ATOM     60  N   UNL A   1      44.404  29.911  28.324  1.00  0.00    -0.354 N 
ATOM     61  N   UNL A   1      47.122  29.012  27.646  1.00  0.00    -0.248 NA
ATOM     62  C   UNL A   1      49.369  29.488  27.228  1.00  0.00     0.031 C 
ATOM     63  C   UNL A   1      44.094  32.057  28.803  1.00  0.00     0.029 A 
ATOM     64  C   UNL A   1      45.055  31.130  28.433  1.00  0.00     0.049 A 
ATOM     65  H   UNL A   1      44.832  29.064  28.066  1.00  0.00     0.167 HD
ATOM     66  C   UNL A   1      47.344  30.372  27.841  1.00  0.00     0.074 A 
ATOM     67  C   UNL A   1      48.752  30.602  27.598  1.00  0.00     0.031 C 
ATOM     68  C   UNL A   1      46.463  31.342  28.194  1.00  0.00     0.037 A 
BRANCH  55  69
ATOM     69  C   UNL A   1      40.644  29.347  28.881  1.00  0.00     0.058 A 
ATOM     70  C   UNL A   1      39.683  29.467  27.863  1.00  0.00     0.135 A 
ATOM     71  C   UNL A   1      40.218  29.531  30.206  1.00  0.00     0.135 A 
ATOM     72  F   UNL A   1      40.037  29.321  26.577  1.00  0.00    -0.206 F 
ATOM     73  C   UNL A   1      38.359  29.785  28.148  1.00  0.00     0.059 A 
ATOM     74  C   UNL A   1      38.892  29.818  30.516  1.00  0.00     0.059 A 
ATOM     75  F   UNL A   1      41.095  29.433  31.218  1.00  0.00    -0.206 F 
ATOM     76  C   UNL A   1      37.973  29.956  29.478  1.00  0.00     0.060 A 
BRANCH  76  77
ATOM     77  S   UNL A   1      36.250  30.363  29.831  1.00  0.00     0.124 S 
ATOM     78  O   UNL A   1      36.271  31.821  29.753  1.00  0.00    -0.237 OA
ATOM     79  O   UNL A   1      35.542  29.682  28.751  1.00  0.00    -0.237 OA
ATOM     80  O   UNL A   1      36.034  29.811  31.164  1.00  0.00    -0.744 OA
ENDBRANCH  76  77
ENDBRANCH  55  69
BRANCH  56  81
ATOM     81  C   UNL A   1      50.032  26.686  26.648  1.00  0.00     0.058 A 
ATOM     82  C   UNL A   1      50.976  26.337  27.625  1.00  0.00     0.135 A 
ATOM     83  C   UNL A   1      50.446  26.664  25.306  1.00  0.00     0.135 A 
ATOM     84  F   UNL A   1      50.638  26.358  28.923  1.00  0.00    -0.206 F 
ATOM     85  C   UNL A   1      52.282  25.993  27.288  1.00  0.00     0.059 A 
ATOM     86  C   UNL A   1      51.737  26.297  24.942  1.00  0.00     0.059 A 
ATOM     87  F   UNL A   1      49.581  26.985  24.330  1.00  0.00    -0.206 F 
ATOM     88  C   UNL A   1      52.652  25.970  25.942  1.00  0.00     0.060 A 
BRANCH  88  89
ATOM     89  S   UNL A   1      54.334  25.470  25.515  1.00  0.00     0.124 S 
ATOM     90  O   UNL A   1      54.846  26.674  24.870  1.00  0.00    -0.237 OA
ATOM     91  O   UNL A   1      54.901  25.158  26.823  1.00  0.00    -0.237 OA
ATOM     92  O   UNL A   1      54.132  24.322  24.636  1.00  0.00    -0.744 OA
ENDBRANCH  88  89
ENDBRANCH  56  81
BRANCH  68  93
ATOM     93  C   UNL A   1      46.996  32.738  28.385  1.00  0.00     0.058 A 
ATOM     94  C   UNL A   1      47.523  33.171  29.612  1.00  0.00     0.135 A 
ATOM     95  C   UNL A   1      47.035  33.636  27.305  1.00  0.00     0.135 A 
ATOM     96  F   UNL A   1      47.508  32.358  30.679  1.00  0.00    -0.206 F 
ATOM     97  C   UNL A   1      48.047  34.452  29.768  1.00  0.00     0.059 A 
ATOM     98  C   UNL A   1      47.584  34.908  27.429  1.00  0.00     0.059 A 
ATOM     99  F   UNL A   1      46.556  33.271  26.104  1.00  0.00    -0.206 F 
ATOM    100  C   UNL A   1      48.076  35.312  28.668  1.00  0.00     0.060 A 
BRANCH 100 101
ATOM    101  S   UNL A   1      48.790  36.957  28.875  1.00  0.00     0.124 S 
ATOM    102  O   UNL A   1      48.084  37.717  27.849  1.00  0.00    -0.237 OA
ATOM    103  O   UNL A   1      48.439  37.278  30.255  1.00  0.00    -0.237 OA
ATOM    104  O   UNL A   1      50.214  36.744  28.630  1.00  0.00    -0.744 OA
ENDBRANCH 100 101
ENDBRANCH  68  93
ENDBRANCH  42  43
ENDBRANCH  35  37
ENDBRANCH  34  35
ENDBRANCH  33  34
ENDBRANCH  32  33
ENDBRANCH  31  32
ENDBRANCH  30  31
ENDBRANCH   1  30
TORSDOF 24
ENDMDL
MODEL 3
REMARK VINA RESULT:      -9.8      6.031     10.832
REMARK SMILES COc1ccc(C(=O)N[C@H](C(=O)OCCOCCOCCOC(=O)c2ccc(-c3c4nc(c(-c5c(F)cc(S(=O)(=O)[O-])cc5F)c5ccc([nH]5)c(-c5c(F)cc(S(=O)(=O)[O-])cc5F)c5nc(c(-c6c(F)cc(S(=O)(=O)[O-])cc6F)c6ccc3[nH]6)C=C5)C=C4)cc2)C2=C(C)N=N[C@H]2C)c(F)c1F
REMARK SMILES IDX 17 1 16 2 15 3 14 4 13 5 11 6 12 7 10 8 9 9 7 10 8 11 6 13
REMARK SMILES IDX 3 14 4 15 100 16 5 17 98 18 101 19 99 20 2 21 1 22 91 23
REMARK SMILES IDX 92 24 96 25 93 26 94 27 95 28 97 29 18 30 19 31 20 32 21 33
REMARK SMILES IDX 22 34 23 35 24 36 25 37 26 38 90 39 27 40 89 41 28 42 29 43
REMARK SMILES IDX 30 44 83 45 31 46 88 47 82 48 84 49 32 50 87 51 81 52 80 53
REMARK SMILES IDX 33 55 67 56 46 57 66 58 47 59 50 60 65 61 85 62 48 63 49 64
REMARK SMILES IDX 64 66 86 67 51 68 34 69 35 70 44 71 36 72 37 73 43 74 45 75
REMARK SMILES IDX 38 76 39 77 40 78 41 79 42 80 68 81 69 82 78 83 70 84 71 85
REMARK SMILES IDX 77 86 79 87 72 88 73 89 74 90 75 91 76 92 52 93 53 94 62 95
REMARK SMILES IDX 54 96 55 97 61 98 63 99 56 100 57 101 58 102 59 103 60 104
REMARK H PARENT 9 12 84 54 50 65
REMARK Flexibility Score: inf
ROOT
ATOM      1  C   UNL A   1      37.692  21.572  25.576  1.00  0.00     0.188 C 
ENDROOT
BRANCH   1   2
ATOM      2  O   UNL A   1      36.986  22.765  25.822  1.00  0.00    -0.376 OA
BRANCH   2   3
ATOM      3  C   UNL A   1      36.643  23.635  24.757  1.00  0.00     0.202 C 
BRANCH   3   4
ATOM      4  C   UNL A   1      35.213  24.031  24.353  1.00  0.00     0.261 C 
BRANCH   4   5
ATOM      5  O   UNL A   1      34.890  24.012  22.960  1.00  0.00    -0.461 OA
BRANCH   5   6
ATOM      6  C   UNL A   1      33.652  24.456  22.635  1.00  0.00     0.333 C 
ATOM      7  O   UNL A   1      33.389  25.017  21.574  1.00  0.00    -0.249 OA
BRANCH   6   8
ATOM      8  C   UNL A   1      32.568  24.188  23.713  1.00  0.00     0.223 C 
BRANCH   8   9
ATOM      9  N   UNL A   1      31.405  24.993  23.340  1.00  0.00    -0.335 N 
ATOM     10  C   UNL A   1      30.884  26.180  23.766  1.00  0.00     0.255 C 
ATOM     11  O   UNL A   1      29.792  26.485  23.281  1.00  0.00    -0.269 OA
ATOM     12  H   UNL A   1      30.875  24.585  22.617  1.00  0.00     0.165 HD
BRANCH  10  13
ATOM     13  C   UNL A   1      31.527  27.126  24.716  1.00  0.00     0.078 A 
ATOM     14  C   UNL A   1      33.020  28.900  26.310  1.00  0.00     0.157 A 
ATOM     15  C   UNL A   1      33.211  28.893  24.936  1.00  0.00     0.050 A 
ATOM     16  C   UNL A   1      32.080  28.056  26.882  1.00  0.00     0.201 A 
ATOM     17  C   UNL A   1      32.469  28.010  24.147  1.00  0.00     0.021 A 
ATOM     18  C   UNL A   1      31.307  27.220  26.088  1.00  0.00     0.175 A 
ATOM     19  F   UNL A   1      31.883  28.063  28.210  1.00  0.00    -0.200 F 
ATOM     20  F   UNL A   1      30.321  26.581  26.718  1.00  0.00    -0.203 F 
BRANCH  14  21
ATOM     21  O   UNL A   1      33.781  29.719  27.093  1.00  0.00    -0.494 OA
ATOM     22  C   UNL A   1      35.082  29.156  27.262  1.00  0.00     0.278 C 
ENDBRANCH  14  21
ENDBRANCH  10  13
ENDBRANCH   8   9
BRANCH   8  23
ATOM     23  C   UNL A   1      32.107  22.798  24.107  1.00  0.00     0.012 C 
ATOM     24  C   UNL A   1      31.453  22.327  25.190  1.00  0.00     0.064 C 
ATOM     25  C   UNL A   1      32.667  21.564  23.459  1.00  0.00     0.156 C 
ATOM     26  C   UNL A   1      30.691  23.006  26.285  1.00  0.00     0.069 C 
ATOM     27  N   UNL A   1      31.646  20.976  25.367  1.00  0.00    -0.160 NA
ATOM     28  N   UNL A   1      32.440  20.527  24.502  1.00  0.00    -0.181 NA
ATOM     29  C   UNL A   1      31.939  21.033  22.224  1.00  0.00     0.040 C 
ENDBRANCH   8  23
ENDBRANCH   6   8
ENDBRANCH   5   6
ENDBRANCH   4   5
ENDBRANCH   3   4
ENDBRANCH   2   3
ENDBRANCH   1   2
BRANCH   1  30
ATOM     30  C   UNL A   1      39.205  21.640  25.842  1.00  0.00     0.188 C 
BRANCH  30  31
ATOM     31  O   UNL A   1      39.709  21.981  27.118  1.00  0.00    -0.376 OA
BRANCH  31  32
ATOM     32  C   UNL A   1      40.515  23.142  27.242  1.00  0.00     0.202 C 
BRANCH  32  33
ATOM     33  C   UNL A   1      41.690  23.412  26.282  1.00  0.00     0.261 C 
BRANCH  33  34
ATOM     34  O   UNL A   1      42.801  24.142  26.827  1.00  0.00    -0.460 OA
BRANCH  34  35
ATOM     35  C   UNL A   1      42.938  25.416  26.377  1.00  0.00     0.338 C 
ATOM     36  O   UNL A   1      42.942  25.790  25.213  1.00  0.00    -0.246 OA
BRANCH  35  37
ATOM     37  C   UNL A   1      42.853  26.346  27.523  1.00  0.00     0.060 A 
ATOM     38  C   UNL A   1      42.190  25.921  28.687  1.00  0.00     0.016 A 
ATOM     39  C   UNL A   1      43.410  27.622  27.453  1.00  0.00     0.016 A 
ATOM     40  C   UNL A   1      42.080  26.772  29.784  1.00  0.00     0.010 A 
ATOM     41  C   UNL A   1      43.261  28.490  28.538  1.00  0.00     0.010 A 
ATOM     42  C   UNL A   1      42.576  28.078  29.698  1.00  0.00    -0.014 A 
BRANCH  42  43
ATOM     43  C   UNL A   1      42.207  29.076  30.730  1.00  0.00     0.031 A 
ATOM     44  C   UNL A   1      43.044  29.147  31.978  1.00  0.00     0.074 A 
ATOM     45  C   UNL A   1      41.158  29.899  30.566  1.00  0.00     0.049 A 
ATOM     46  N   UNL A   1      42.867  29.860  33.059  1.00  0.00    -0.248 NA
ATOM     47  C   UNL A   1      44.242  28.290  32.010  1.00  0.00     0.031 C 
ATOM     48  C   UNL A   1      40.310  29.965  29.377  1.00  0.00     0.029 A 
ATOM     49  N   UNL A   1      40.619  30.833  31.417  1.00  0.00    -0.354 N 
ATOM     50  C   UNL A   1      43.919  29.530  33.904  1.00  0.00     0.074 A 
ATOM     51  C   UNL A   1      44.715  28.533  33.223  1.00  0.00     0.031 C 
ATOM     52  C   UNL A   1      39.341  30.873  29.583  1.00  0.00     0.029 A 
ATOM     53  C   UNL A   1      39.477  31.426  30.931  1.00  0.00     0.049 A 
ATOM     54  H   UNL A   1      41.011  31.056  32.291  1.00  0.00     0.167 HD
ATOM     55  C   UNL A   1      44.197  30.018  35.136  1.00  0.00     0.037 A 
ATOM     56  C   UNL A   1      38.627  32.290  31.519  1.00  0.00     0.037 A 
ATOM     57  C   UNL A   1      43.394  31.008  35.807  1.00  0.00     0.049 A 
ATOM     58  C   UNL A   1      38.911  32.762  32.924  1.00  0.00     0.074 A 
ATOM     59  C   UNL A   1      43.595  31.577  37.051  1.00  0.00     0.029 A 
ATOM     60  N   UNL A   1      42.231  31.564  35.293  1.00  0.00    -0.354 N 
ATOM     61  N   UNL A   1      39.915  32.454  33.712  1.00  0.00    -0.248 NA
ATOM     62  C   UNL A   1      37.949  33.699  33.521  1.00  0.00     0.031 C 
ATOM     63  C   UNL A   1      42.521  32.434  37.316  1.00  0.00     0.029 A 
ATOM     64  C   UNL A   1      41.687  32.451  36.209  1.00  0.00     0.049 A 
ATOM     65  H   UNL A   1      41.849  31.361  34.410  1.00  0.00     0.167 HD
ATOM     66  C   UNL A   1      39.722  33.185  34.881  1.00  0.00     0.074 A 
ATOM     67  C   UNL A   1      38.511  33.955  34.694  1.00  0.00     0.031 C 
ATOM     68  C   UNL A   1      40.482  33.218  36.006  1.00  0.00     0.037 A 
BRANCH  55  69
ATOM     69  C   UNL A   1      45.395  29.458  35.854  1.00  0.00     0.058 A 
ATOM     70  C   UNL A   1      46.671  30.034  35.735  1.00  0.00     0.135 A 
ATOM     71  C   UNL A   1      45.260  28.340  36.693  1.00  0.00     0.135 A 
ATOM     72  F   UNL A   1      46.864  31.091  34.931  1.00  0.00    -0.206 F 
ATOM     73  C   UNL A   1      47.772  29.505  36.400  1.00  0.00     0.059 A 
ATOM     74  C   UNL A   1      46.341  27.814  37.393  1.00  0.00     0.059 A 
ATOM     75  F   UNL A   1      44.065  27.746  36.840  1.00  0.00    -0.206 F 
ATOM     76  C   UNL A   1      47.597  28.396  37.229  1.00  0.00     0.060 A 
BRANCH  76  77
ATOM     77  S   UNL A   1      49.036  27.725  38.088  1.00  0.00     0.124 S 
ATOM     78  O   UNL A   1      49.237  26.464  37.382  1.00  0.00    -0.237 OA
ATOM     79  O   UNL A   1      50.046  28.752  37.851  1.00  0.00    -0.237 OA
ATOM     80  O   UNL A   1      48.582  27.603  39.469  1.00  0.00    -0.744 OA
ENDBRANCH  76  77
ENDBRANCH  55  69
BRANCH  56  81
ATOM     81  C   UNL A   1      37.415  32.756  30.791  1.00  0.00     0.058 A 
ATOM     82  C   UNL A   1      36.200  32.062  30.882  1.00  0.00     0.135 A 
ATOM     83  C   UNL A   1      37.448  33.907  29.987  1.00  0.00     0.135 A 
ATOM     84  F   UNL A   1      36.118  30.947  31.623  1.00  0.00    -0.206 F 
ATOM     85  C   UNL A   1      35.065  32.484  30.195  1.00  0.00     0.059 A 
ATOM     86  C   UNL A   1      36.320  34.365  29.313  1.00  0.00     0.059 A 
ATOM     87  F   UNL A   1      38.584  34.612  29.867  1.00  0.00    -0.206 F 
ATOM     88  C   UNL A   1      35.133  33.641  29.417  1.00  0.00     0.060 A 
BRANCH  88  89
ATOM     89  S   UNL A   1      33.640  34.207  28.574  1.00  0.00     0.124 S 
ATOM     90  O   UNL A   1      34.162  35.279  27.735  1.00  0.00    -0.237 OA
ATOM     91  O   UNL A   1      33.210  33.001  27.873  1.00  0.00    -0.237 OA
ATOM     92  O   UNL A   1      32.773  34.629  29.670  1.00  0.00    -0.744 OA
ENDBRANCH  88  89
ENDBRANCH  56  81
BRANCH  68  93
ATOM     93  C   UNL A   1      40.058  34.151  37.110  1.00  0.00     0.058 A 
ATOM     94  C   UNL A   1      39.248  33.724  38.174  1.00  0.00     0.135 A 
ATOM     95  C   UNL A   1      40.520  35.478  37.134  1.00  0.00     0.135 A 
ATOM     96  F   UNL A   1      38.774  32.468  38.202  1.00  0.00    -0.206 F 
ATOM     97  C   UNL A   1      38.892  34.584  39.209  1.00  0.00     0.059 A 
ATOM     98  C   UNL A   1      40.204  36.345  38.174  1.00  0.00     0.059 A 
ATOM     99  F   UNL A   1      41.308  35.937  36.147  1.00  0.00    -0.206 F 
ATOM    100  C   UNL A   1      39.379  35.894  39.201  1.00  0.00     0.060 A 
BRANCH 100 101
ATOM    101  S   UNL A   1      38.938  36.988  40.567  1.00  0.00     0.124 S 
ATOM    102  O   UNL A   1      40.252  37.358  41.085  1.00  0.00    -0.237 OA
ATOM    103  O   UNL A   1      38.202  38.052  39.890  1.00  0.00    -0.237 OA
ATOM    104  O   UNL A   1      38.136  36.137  41.442  1.00  0.00    -0.744 OA
ENDBRANCH 100 101
ENDBRANCH  68  93
ENDBRANCH  42  43
ENDBRANCH  35  37
ENDBRANCH  34  35
ENDBRANCH  33  34
ENDBRANCH  32  33
ENDBRANCH  31  32
ENDBRANCH  30  31
ENDBRANCH   1  30
TORSDOF 24
ENDMDL
