MODEL 1
REMARK VINA RESULT:      -8.4      0.000      0.000
REMARK SMILES CC1(C)CC[C@@]2(C(=O)OCCOCCOCCOC(=O)c3ccc(-c4c5nc(c(-c6c(F)cc(S(=O)(=O)[O-])cc6F)c6ccc([nH]6)c(-c6c(F)cc(S(=O)(=O)[O-])cc6F)c6nc(c(-c7c(F)cc(S(=O)(=O)[O-])cc7F)c7ccc4[nH]7)C=C6)C=C5)cc3)CC[C@@]3(C)C(=CC[C@H]4[C@@]5(C)CC[C@H](O)C(C)(C)[C@@H]5CC[C@]43C)[C@@H]2C1
REMARK SMILES IDX 14 1 13 2 12 3 11 4 10 5 9 6 7 7 8 8 6 9 1 10 2 11 3 12 4 13
REMARK SMILES IDX 110 14 5 15 109 16 91 17 87 18 89 19 92 20 88 21 90 22
REMARK SMILES IDX 107 23 93 24 94 25 106 26 108 27 95 28 105 29 96 30 97 31
REMARK SMILES IDX 104 32 98 33 101 34 99 35 102 36 103 37 100 38 15 40 16 41
REMARK SMILES IDX 17 42 18 43 19 44 20 45 21 46 22 47 86 48 23 49 85 50 24 51
REMARK SMILES IDX 25 52 26 53 79 54 27 55 84 56 78 57 80 58 28 59 83 60 77 61
REMARK SMILES IDX 76 62 29 64 63 65 42 66 62 67 43 68 46 69 61 70 81 71 44 72
REMARK SMILES IDX 45 73 60 75 82 76 47 77 30 78 31 79 40 80 32 81 33 82 39 83
REMARK SMILES IDX 41 84 34 85 35 86 36 87 37 88 38 89 64 90 65 91 74 92 66 93
REMARK SMILES IDX 67 94 73 95 75 96 68 97 69 98 70 99 71 100 72 101 48 102
REMARK SMILES IDX 49 103 58 104 50 105 51 106 57 107 59 108 52 109 53 110
REMARK SMILES IDX 54 111 55 112 56 113
REMARK H PARENT 100 39 80 63 46 74
REMARK Flexibility Score: inf
ROOT
ATOM      1  C   UNL A   1      38.325  32.152  34.882  1.00  0.00     0.188 C 
ENDROOT
BRANCH   1   2
ATOM      2  C   UNL A   1      38.857  31.008  35.707  1.00  0.00     0.188 C 
BRANCH   2   3
ATOM      3  O   UNL A   1      39.705  30.235  34.918  1.00  0.00    -0.376 OA
BRANCH   3   4
ATOM      4  C   UNL A   1      40.673  29.448  35.632  1.00  0.00     0.202 C 
BRANCH   4   5
ATOM      5  C   UNL A   1      41.751  30.321  36.242  1.00  0.00     0.261 C 
BRANCH   5   6
ATOM      6  O   UNL A   1      42.590  29.433  36.900  1.00  0.00    -0.463 OA
BRANCH   6   7
ATOM      7  C   UNL A   1      43.650  29.285  36.065  1.00  0.00     0.312 C 
ATOM      8  O   UNL A   1      43.921  30.107  35.240  1.00  0.00    -0.252 OA
BRANCH   7   9
ATOM      9  C   UNL A   1      44.355  27.992  36.211  1.00  0.00     0.075 C 
ATOM     10  C   UNL A   1      43.958  26.720  32.140  1.00  0.00     0.011 C 
ATOM     11  C   UNL A   1      43.764  27.779  33.251  1.00  0.00    -0.035 C 
ATOM     12  C   UNL A   1      43.044  28.937  32.468  1.00  0.00     0.011 C 
ATOM     13  C   UNL A   1      42.825  27.069  34.266  1.00  0.00     0.007 C 
ATOM     14  C   UNL A   1      45.171  28.346  33.822  1.00  0.00     0.015 C 
ATOM     15  C   UNL A   1      43.448  26.839  35.666  1.00  0.00     0.020 C 
ATOM     16  C   UNL A   1      45.604  28.320  35.387  1.00  0.00     0.033 C 
ATOM     17  C   UNL A   1      46.386  29.696  36.016  1.00  0.00    -0.063 C 
ATOM     18  C   UNL A   1      44.731  27.840  37.700  1.00  0.00     0.020 C 
ATOM     19  C   UNL A   1      46.207  30.156  37.596  1.00  0.00    -0.006 C 
ATOM     20  C   UNL A   1      46.649  30.685  35.132  1.00  0.00    -0.027 C 
ATOM     21  C   UNL A   1      45.219  29.164  38.411  1.00  0.00     0.013 C 
ATOM     22  C   UNL A   1      47.579  29.635  38.216  1.00  0.00     0.017 C 
ATOM     23  C   UNL A   1      46.028  32.022  37.737  1.00  0.00    -0.020 C 
ATOM     24  C   UNL A   1      46.165  32.135  35.133  1.00  0.00     0.032 C 
ATOM     25  C   UNL A   1      45.557  32.806  36.388  1.00  0.00     0.006 C 
ATOM     26  C   UNL A   1      45.404  32.944  38.923  1.00  0.00     0.008 C 
ATOM     27  C   UNL A   1      47.565  32.387  37.957  1.00  0.00     0.012 C 
ATOM     28  C   UNL A   1      44.157  33.889  36.209  1.00  0.00    -0.025 C 
ATOM     29  C   UNL A   1      44.459  34.295  38.615  1.00  0.00     0.005 C 
ATOM     30  C   UNL A   1      44.728  35.245  35.697  1.00  0.00     0.012 C 
ATOM     31  C   UNL A   1      43.154  33.548  35.088  1.00  0.00     0.010 C 
ATOM     32  C   UNL A   1      43.357  34.094  37.552  1.00  0.00     0.003 C 
ATOM     33  C   UNL A   1      41.755  34.187  35.019  1.00  0.00     0.033 C 
ATOM     34  C   UNL A   1      41.897  34.946  37.459  1.00  0.00    -0.006 C 
ATOM     35  C   UNL A   1      41.022  34.277  36.349  1.00  0.00     0.120 C 
ATOM     36  C   UNL A   1      41.896  36.457  37.144  1.00  0.00     0.014 C 
ATOM     37  C   UNL A   1      41.039  34.865  38.756  1.00  0.00     0.014 C 
BRANCH  35  38
ATOM     38  O   UNL A   1      39.763  34.942  36.155  1.00  0.00    -0.393 OA
ATOM     39  H   UNL A   1      39.631  35.112  35.209  1.00  0.00     0.210 HD
ENDBRANCH  35  38
ENDBRANCH   7   9
ENDBRANCH   6   7
ENDBRANCH   5   6
ENDBRANCH   4   5
ENDBRANCH   3   4
ENDBRANCH   2   3
ENDBRANCH   1   2
BRANCH   1  40
ATOM     40  O   UNL A   1      36.906  32.282  34.829  1.00  0.00    -0.376 OA
BRANCH  40  41
ATOM     41  C   UNL A   1      36.276  33.422  34.254  1.00  0.00     0.202 C 
BRANCH  41  42
ATOM     42  C   UNL A   1      35.352  32.966  33.120  1.00  0.00     0.261 C 
BRANCH  42  43
ATOM     43  O   UNL A   1      35.693  31.769  32.391  1.00  0.00    -0.460 OA
BRANCH  43  44
ATOM     44  C   UNL A   1      35.754  31.833  31.048  1.00  0.00     0.338 C 
ATOM     45  O   UNL A   1      34.988  32.433  30.319  1.00  0.00    -0.246 OA
BRANCH  44  46
ATOM     46  C   UNL A   1      36.879  31.029  30.603  1.00  0.00     0.060 A 
ATOM     47  C   UNL A   1      37.457  30.159  31.533  1.00  0.00     0.016 A 
ATOM     48  C   UNL A   1      37.119  30.953  29.223  1.00  0.00     0.016 A 
ATOM     49  C   UNL A   1      38.279  29.157  31.081  1.00  0.00     0.010 A 
ATOM     50  C   UNL A   1      38.005  30.007  28.771  1.00  0.00     0.010 A 
ATOM     51  C   UNL A   1      38.637  29.202  29.731  1.00  0.00    -0.014 A 
BRANCH  51  52
ATOM     52  C   UNL A   1      40.048  28.938  29.493  1.00  0.00     0.031 A 
ATOM     53  C   UNL A   1      40.951  30.125  29.699  1.00  0.00     0.074 A 
ATOM     54  C   UNL A   1      40.420  27.706  29.151  1.00  0.00     0.049 A 
ATOM     55  N   UNL A   1      42.230  30.233  29.505  1.00  0.00    -0.248 NA
ATOM     56  C   UNL A   1      40.332  31.377  30.188  1.00  0.00     0.031 C 
ATOM     57  C   UNL A   1      39.531  26.549  29.013  1.00  0.00     0.029 A 
ATOM     58  N   UNL A   1      41.652  27.238  28.841  1.00  0.00    -0.354 N 
ATOM     59  C   UNL A   1      42.543  31.546  29.847  1.00  0.00     0.074 A 
ATOM     60  C   UNL A   1      41.342  32.218  30.234  1.00  0.00     0.031 C 
ATOM     61  C   UNL A   1      40.260  25.498  28.605  1.00  0.00     0.029 A 
ATOM     62  C   UNL A   1      41.639  25.934  28.426  1.00  0.00     0.049 A 
ATOM     63  H   UNL A   1      42.472  27.779  28.907  1.00  0.00     0.167 HD
ATOM     64  C   UNL A   1      43.751  32.136  29.828  1.00  0.00     0.037 A 
ATOM     65  C   UNL A   1      42.658  25.222  27.923  1.00  0.00     0.037 A 
ATOM     66  C   UNL A   1      44.903  31.420  29.375  1.00  0.00     0.049 A 
ATOM     67  C   UNL A   1      43.990  25.918  27.845  1.00  0.00     0.074 A 
ATOM     68  C   UNL A   1      46.200  31.858  29.245  1.00  0.00     0.029 A 
ATOM     69  N   UNL A   1      44.865  30.092  28.961  1.00  0.00    -0.354 N 
ATOM     70  N   UNL A   1      44.292  27.162  28.158  1.00  0.00    -0.248 NA
ATOM     71  C   UNL A   1      45.119  25.121  27.368  1.00  0.00     0.031 C 
ATOM     72  C   UNL A   1      46.940  30.803  28.701  1.00  0.00     0.029 A 
ATOM     73  C   UNL A   1      46.117  29.689  28.561  1.00  0.00     0.049 A 
ATOM     74  H   UNL A   1      44.060  29.524  28.955  1.00  0.00     0.167 HD
ATOM     75  C   UNL A   1      45.658  27.290  27.950  1.00  0.00     0.074 A 
ATOM     76  C   UNL A   1      46.115  25.987  27.494  1.00  0.00     0.031 C 
ATOM     77  C   UNL A   1      46.474  28.364  28.118  1.00  0.00     0.037 A 
BRANCH  64  78
ATOM     78  C   UNL A   1      43.828  33.582  30.227  1.00  0.00     0.058 A 
ATOM     79  C   UNL A   1      43.537  34.624  29.328  1.00  0.00     0.135 A 
ATOM     80  C   UNL A   1      44.250  33.937  31.517  1.00  0.00     0.135 A 
ATOM     81  F   UNL A   1      43.192  34.347  28.059  1.00  0.00    -0.206 F 
ATOM     82  C   UNL A   1      43.659  35.962  29.693  1.00  0.00     0.059 A 
ATOM     83  C   UNL A   1      44.349  35.268  31.914  1.00  0.00     0.059 A 
ATOM     84  F   UNL A   1      44.590  32.987  32.401  1.00  0.00    -0.206 F 
ATOM     85  C   UNL A   1      44.055  36.273  30.994  1.00  0.00     0.060 A 
BRANCH  85  86
ATOM     86  S   UNL A   1      44.150  38.011  31.476  1.00  0.00     0.124 S 
ATOM     87  O   UNL A   1      43.398  38.013  32.726  1.00  0.00    -0.237 OA
ATOM     88  O   UNL A   1      45.589  38.217  31.601  1.00  0.00    -0.237 OA
ATOM     89  O   UNL A   1      43.515  38.708  30.361  1.00  0.00    -0.744 OA
ENDBRANCH  85  86
ENDBRANCH  64  78
BRANCH  65  90
ATOM     90  C   UNL A   1      42.437  23.824  27.491  1.00  0.00     0.058 A 
ATOM     91  C   UNL A   1      42.259  23.507  26.138  1.00  0.00     0.135 A 
ATOM     92  C   UNL A   1      42.465  22.763  28.413  1.00  0.00     0.135 A 
ATOM     93  F   UNL A   1      42.246  24.484  25.218  1.00  0.00    -0.206 F 
ATOM     94  C   UNL A   1      42.089  22.194  25.714  1.00  0.00     0.059 A 
ATOM     95  C   UNL A   1      42.326  21.440  28.011  1.00  0.00     0.059 A 
ATOM     96  F   UNL A   1      42.670  23.010  29.716  1.00  0.00    -0.206 F 
ATOM     97  C   UNL A   1      42.125  21.167  26.659  1.00  0.00     0.060 A 
BRANCH  97  98
ATOM     98  S   UNL A   1      41.931  19.465  26.090  1.00  0.00     0.124 S 
ATOM     99  O   UNL A   1      40.504  19.417  25.795  1.00  0.00    -0.237 OA
ATOM    100  O   UNL A   1      42.824  19.426  24.937  1.00  0.00    -0.237 OA
ATOM    101  O   UNL A   1      42.365  18.675  27.238  1.00  0.00    -0.744 OA
ENDBRANCH  97  98
ENDBRANCH  65  90
BRANCH  77 102
ATOM    102  C   UNL A   1      47.927  28.132  27.854  1.00  0.00     0.058 A 
ATOM    103  C   UNL A   1      48.816  27.789  28.881  1.00  0.00     0.135 A 
ATOM    104  C   UNL A   1      48.417  28.220  26.541  1.00  0.00     0.135 A 
ATOM    105  F   UNL A   1      48.385  27.695  30.149  1.00  0.00    -0.206 F 
ATOM    106  C   UNL A   1      50.164  27.593  28.622  1.00  0.00     0.059 A 
ATOM    107  C   UNL A   1      49.752  27.985  26.254  1.00  0.00     0.059 A 
ATOM    108  F   UNL A   1      47.591  28.521  25.526  1.00  0.00    -0.206 F 
ATOM    109  C   UNL A   1      50.621  27.695  27.306  1.00  0.00     0.060 A 
BRANCH 109 110
ATOM    110  S   UNL A   1      52.374  27.442  26.985  1.00  0.00     0.124 S 
ATOM    111  O   UNL A   1      52.949  28.662  27.541  1.00  0.00    -0.237 OA
ATOM    112  O   UNL A   1      52.651  26.213  27.722  1.00  0.00    -0.237 OA
ATOM    113  O   UNL A   1      52.438  27.322  25.530  1.00  0.00    -0.744 OA
ENDBRANCH 109 110
ENDBRANCH  77 102
ENDBRANCH  51  52
ENDBRANCH  44  46
ENDBRANCH  43  44
ENDBRANCH  42  43
ENDBRANCH  41  42
ENDBRANCH  40  41
ENDBRANCH   1  40
TORSDOF 21
ENDMDL
MODEL 2
REMARK VINA RESULT:      -8.3      1.217      8.564
REMARK SMILES CC1(C)CC[C@@]2(C(=O)OCCOCCOCCOC(=O)c3ccc(-c4c5nc(c(-c6c(F)cc(S(=O)(=O)[O-])cc6F)c6ccc([nH]6)c(-c6c(F)cc(S(=O)(=O)[O-])cc6F)c6nc(c(-c7c(F)cc(S(=O)(=O)[O-])cc7F)c7ccc4[nH]7)C=C6)C=C5)cc3)CC[C@@]3(C)C(=CC[C@H]4[C@@]5(C)CC[C@H](O)C(C)(C)[C@@H]5CC[C@]43C)[C@@H]2C1
REMARK SMILES IDX 14 1 13 2 12 3 11 4 10 5 9 6 7 7 8 8 6 9 1 10 2 11 3 12 4 13
REMARK SMILES IDX 110 14 5 15 109 16 91 17 87 18 89 19 92 20 88 21 90 22
REMARK SMILES IDX 107 23 93 24 94 25 106 26 108 27 95 28 105 29 96 30 97 31
REMARK SMILES IDX 104 32 98 33 101 34 99 35 102 36 103 37 100 38 15 40 16 41
REMARK SMILES IDX 17 42 18 43 19 44 20 45 21 46 22 47 86 48 23 49 85 50 24 51
REMARK SMILES IDX 25 52 26 53 79 54 27 55 84 56 78 57 80 58 28 59 83 60 77 61
REMARK SMILES IDX 76 62 29 64 63 65 42 66 62 67 43 68 46 69 61 70 81 71 44 72
REMARK SMILES IDX 45 73 60 75 82 76 47 77 30 78 31 79 40 80 32 81 33 82 39 83
REMARK SMILES IDX 41 84 34 85 35 86 36 87 37 88 38 89 64 90 65 91 74 92 66 93
REMARK SMILES IDX 67 94 73 95 75 96 68 97 69 98 70 99 71 100 72 101 48 102
REMARK SMILES IDX 49 103 58 104 50 105 51 106 57 107 59 108 52 109 53 110
REMARK SMILES IDX 54 111 55 112 56 113
REMARK H PARENT 100 39 80 63 46 74
REMARK Flexibility Score: inf
ROOT
ATOM      1  C   UNL A   1      37.167  32.488  34.191  1.00  0.00     0.188 C 
ENDROOT
BRANCH   1   2
ATOM      2  C   UNL A   1      37.843  31.142  34.260  1.00  0.00     0.188 C 
BRANCH   2   3
ATOM      3  O   UNL A   1      38.944  31.229  35.107  1.00  0.00    -0.376 OA
BRANCH   3   4
ATOM      4  C   UNL A   1      39.424  32.558  35.369  1.00  0.00     0.202 C 
BRANCH   4   5
ATOM      5  C   UNL A   1      40.939  32.608  35.361  1.00  0.00     0.261 C 
BRANCH   5   6
ATOM      6  O   UNL A   1      41.246  33.956  35.483  1.00  0.00    -0.463 OA
BRANCH   6   7
ATOM      7  C   UNL A   1      41.599  34.107  36.784  1.00  0.00     0.312 C 
ATOM      8  O   UNL A   1      41.715  33.171  37.518  1.00  0.00    -0.252 OA
BRANCH   7   9
ATOM      9  C   UNL A   1      41.724  35.519  37.214  1.00  0.00     0.075 C 
ATOM     10  C   UNL A   1      39.092  35.273  40.584  1.00  0.00     0.011 C 
ATOM     11  C   UNL A   1      39.847  34.611  39.407  1.00  0.00    -0.035 C 
ATOM     12  C   UNL A   1      39.372  33.117  39.521  1.00  0.00     0.011 C 
ATOM     13  C   UNL A   1      39.264  35.330  38.157  1.00  0.00     0.007 C 
ATOM     14  C   UNL A   1      41.456  34.653  39.597  1.00  0.00     0.015 C 
ATOM     15  C   UNL A   1      40.299  36.151  37.347  1.00  0.00     0.020 C 
ATOM     16  C   UNL A   1      42.491  35.291  38.520  1.00  0.00     0.033 C 
ATOM     17  C   UNL A   1      43.940  34.448  38.219  1.00  0.00    -0.063 C 
ATOM     18  C   UNL A   1      42.631  36.231  36.188  1.00  0.00     0.020 C 
ATOM     19  C   UNL A   1      44.681  34.486  36.739  1.00  0.00    -0.006 C 
ATOM     20  C   UNL A   1      44.147  33.338  38.963  1.00  0.00    -0.027 C 
ATOM     21  C   UNL A   1      43.860  35.384  35.670  1.00  0.00     0.013 C 
ATOM     22  C   UNL A   1      45.857  35.524  37.019  1.00  0.00     0.017 C 
ATOM     23  C   UNL A   1      45.331  32.785  36.270  1.00  0.00    -0.020 C 
ATOM     24  C   UNL A   1      44.326  31.890  38.506  1.00  0.00     0.032 C 
ATOM     25  C   UNL A   1      44.659  31.517  37.042  1.00  0.00     0.006 C 
ATOM     26  C   UNL A   1      45.719  32.159  34.820  1.00  0.00     0.008 C 
ATOM     27  C   UNL A   1      46.809  32.934  36.850  1.00  0.00     0.012 C 
ATOM     28  C   UNL A   1      43.877  30.101  36.300  1.00  0.00    -0.025 C 
ATOM     29  C   UNL A   1      45.351  30.579  34.391  1.00  0.00     0.005 C 
ATOM     30  C   UNL A   1      44.641  28.857  36.845  1.00  0.00     0.012 C 
ATOM     31  C   UNL A   1      42.437  29.786  36.753  1.00  0.00     0.010 C 
ATOM     32  C   UNL A   1      43.912  30.129  34.725  1.00  0.00     0.003 C 
ATOM     33  C   UNL A   1      41.531  28.810  35.982  1.00  0.00     0.033 C 
ATOM     34  C   UNL A   1      43.030  28.935  33.911  1.00  0.00    -0.006 C 
ATOM     35  C   UNL A   1      41.569  28.956  34.468  1.00  0.00     0.120 C 
ATOM     36  C   UNL A   1      43.482  27.459  33.967  1.00  0.00     0.014 C 
ATOM     37  C   UNL A   1      42.885  29.192  32.383  1.00  0.00     0.014 C 
BRANCH  35  38
ATOM     38  O   UNL A   1      40.730  27.953  33.872  1.00  0.00    -0.393 OA
ATOM     39  H   UNL A   1      41.038  27.767  32.971  1.00  0.00     0.210 HD
ENDBRANCH  35  38
ENDBRANCH   7   9
ENDBRANCH   6   7
ENDBRANCH   5   6
ENDBRANCH   4   5
ENDBRANCH   3   4
ENDBRANCH   2   3
ENDBRANCH   1   2
BRANCH   1  40
ATOM     40  O   UNL A   1      35.814  32.489  33.739  1.00  0.00    -0.376 OA
BRANCH  40  41
ATOM     41  C   UNL A   1      35.343  33.429  32.780  1.00  0.00     0.202 C 
BRANCH  41  42
ATOM     42  C   UNL A   1      34.680  32.673  31.622  1.00  0.00     0.261 C 
BRANCH  42  43
ATOM     43  O   UNL A   1      35.294  31.457  31.151  1.00  0.00    -0.460 OA
BRANCH  43  44
ATOM     44  C   UNL A   1      35.457  31.294  29.825  1.00  0.00     0.338 C 
ATOM     45  O   UNL A   1      34.661  31.599  28.957  1.00  0.00    -0.246 OA
BRANCH  44  46
ATOM     46  C   UNL A   1      36.742  30.656  29.597  1.00  0.00     0.060 A 
ATOM     47  C   UNL A   1      37.360  30.045  30.692  1.00  0.00     0.016 A 
ATOM     48  C   UNL A   1      37.133  30.434  28.268  1.00  0.00     0.016 A 
ATOM     49  C   UNL A   1      38.382  29.157  30.465  1.00  0.00     0.010 A 
ATOM     50  C   UNL A   1      38.208  29.613  28.038  1.00  0.00     0.010 A 
ATOM     51  C   UNL A   1      38.865  29.079  29.156  1.00  0.00    -0.014 A 
BRANCH  51  52
ATOM     52  C   UNL A   1      40.317  29.047  29.071  1.00  0.00     0.031 A 
ATOM     53  C   UNL A   1      40.893  27.719  28.658  1.00  0.00     0.074 A 
ATOM     54  C   UNL A   1      40.997  30.163  29.330  1.00  0.00     0.049 A 
ATOM     55  N   UNL A   1      42.134  27.352  28.558  1.00  0.00    -0.248 NA
ATOM     56  C   UNL A   1      39.941  26.641  28.312  1.00  0.00     0.031 C 
ATOM     57  C   UNL A   1      40.414  31.463  29.674  1.00  0.00     0.029 A 
ATOM     58  N   UNL A   1      42.336  30.363  29.358  1.00  0.00    -0.354 N 
ATOM     59  C   UNL A   1      42.091  26.023  28.144  1.00  0.00     0.074 A 
ATOM     60  C   UNL A   1      40.723  25.621  28.033  1.00  0.00     0.031 C 
ATOM     61  C   UNL A   1      41.413  32.328  29.915  1.00  0.00     0.029 A 
ATOM     62  C   UNL A   1      42.680  31.620  29.775  1.00  0.00     0.049 A 
ATOM     63  H   UNL A   1      42.994  29.676  29.105  1.00  0.00     0.167 HD
ATOM     64  C   UNL A   1      43.128  25.208  27.886  1.00  0.00     0.037 A 
ATOM     65  C   UNL A   1      43.906  32.091  30.040  1.00  0.00     0.037 A 
ATOM     66  C   UNL A   1      44.472  25.659  28.073  1.00  0.00     0.049 A 
ATOM     67  C   UNL A   1      45.053  31.145  29.810  1.00  0.00     0.074 A 
ATOM     68  C   UNL A   1      45.650  24.969  27.903  1.00  0.00     0.029 A 
ATOM     69  N   UNL A   1      44.797  26.945  28.494  1.00  0.00    -0.354 N 
ATOM     70  N   UNL A   1      45.021  29.884  29.428  1.00  0.00    -0.248 NA
ATOM     71  C   UNL A   1      46.397  31.678  30.026  1.00  0.00     0.031 C 
ATOM     72  C   UNL A   1      46.689  25.828  28.274  1.00  0.00     0.029 A 
ATOM     73  C   UNL A   1      46.161  27.073  28.604  1.00  0.00     0.049 A 
ATOM     74  H   UNL A   1      44.144  27.659  28.686  1.00  0.00     0.167 HD
ATOM     75  C   UNL A   1      46.344  29.480  29.322  1.00  0.00     0.074 A 
ATOM     76  C   UNL A   1      47.145  30.642  29.672  1.00  0.00     0.031 C 
ATOM     77  C   UNL A   1      46.868  28.277  28.966  1.00  0.00     0.037 A 
BRANCH  64  78
ATOM     78  C   UNL A   1      42.821  23.799  27.469  1.00  0.00     0.058 A 
ATOM     79  C   UNL A   1      42.624  22.766  28.405  1.00  0.00     0.135 A 
ATOM     80  C   UNL A   1      42.771  23.459  26.109  1.00  0.00     0.135 A 
ATOM     81  F   UNL A   1      42.725  23.016  29.720  1.00  0.00    -0.206 F 
ATOM     82  C   UNL A   1      42.388  21.453  28.007  1.00  0.00     0.059 A 
ATOM     83  C   UNL A   1      42.506  22.159  25.688  1.00  0.00     0.059 A 
ATOM     84  F   UNL A   1      43.001  24.391  25.172  1.00  0.00    -0.206 F 
ATOM     85  C   UNL A   1      42.319  21.162  26.644  1.00  0.00     0.060 A 
BRANCH  85  86
ATOM     86  S   UNL A   1      41.952  19.467  26.140  1.00  0.00     0.124 S 
ATOM     87  O   UNL A   1      40.519  19.542  25.875  1.00  0.00    -0.237 OA
ATOM     88  O   UNL A   1      42.806  19.302  24.970  1.00  0.00    -0.237 OA
ATOM     89  O   UNL A   1      42.333  18.676  27.307  1.00  0.00    -0.744 OA
ENDBRANCH  85  86
ENDBRANCH  64  78
BRANCH  65  90
ATOM     90  C   UNL A   1      44.074  33.481  30.521  1.00  0.00     0.058 A 
ATOM     91  C   UNL A   1      44.427  34.511  29.639  1.00  0.00     0.135 A 
ATOM     92  C   UNL A   1      43.821  33.824  31.861  1.00  0.00     0.135 A 
ATOM     93  F   UNL A   1      44.659  34.236  28.346  1.00  0.00    -0.206 F 
ATOM     94  C   UNL A   1      44.550  35.827  30.070  1.00  0.00     0.059 A 
ATOM     95  C   UNL A   1      43.910  35.137  32.309  1.00  0.00     0.059 A 
ATOM     96  F   UNL A   1      43.443  32.880  32.737  1.00  0.00    -0.206 F 
ATOM     97  C   UNL A   1      44.290  36.129  31.408  1.00  0.00     0.060 A 
BRANCH  97  98
ATOM     98  S   UNL A   1      44.427  37.847  31.946  1.00  0.00     0.124 S 
ATOM     99  O   UNL A   1      43.788  38.551  30.840  1.00  0.00    -0.237 OA
ATOM    100  O   UNL A   1      43.689  37.831  33.205  1.00  0.00    -0.237 OA
ATOM    101  O   UNL A   1      45.867  38.046  32.074  1.00  0.00    -0.744 OA
ENDBRANCH  97  98
ENDBRANCH  65  90
BRANCH  77 102
ATOM    102  C   UNL A   1      48.359  28.205  28.897  1.00  0.00     0.058 A 
ATOM    103  C   UNL A   1      49.131  27.839  30.007  1.00  0.00     0.135 A 
ATOM    104  C   UNL A   1      49.011  28.471  27.682  1.00  0.00     0.135 A 
ATOM    105  F   UNL A   1      48.543  27.576  31.185  1.00  0.00    -0.206 F 
ATOM    106  C   UNL A   1      50.515  27.792  29.930  1.00  0.00     0.059 A 
ATOM    107  C   UNL A   1      50.391  28.388  27.572  1.00  0.00     0.059 A 
ATOM    108  F   UNL A   1      48.305  28.800  26.589  1.00  0.00    -0.206 F 
ATOM    109  C   UNL A   1      51.133  28.070  28.709  1.00  0.00     0.060 A 
BRANCH 109 110
ATOM    110  S   UNL A   1      52.930  28.010  28.625  1.00  0.00     0.124 S 
ATOM    111  O   UNL A   1      53.299  28.479  29.956  1.00  0.00    -0.237 OA
ATOM    112  O   UNL A   1      53.182  26.598  28.354  1.00  0.00    -0.237 OA
ATOM    113  O   UNL A   1      53.248  28.919  27.527  1.00  0.00    -0.744 OA
ENDBRANCH 109 110
ENDBRANCH  77 102
ENDBRANCH  51  52
ENDBRANCH  44  46
ENDBRANCH  43  44
ENDBRANCH  42  43
ENDBRANCH  41  42
ENDBRANCH  40  41
ENDBRANCH   1  40
TORSDOF 21
ENDMDL
MODEL 3
REMARK VINA RESULT:      -8.2      3.592     11.889
REMARK SMILES CC1(C)CC[C@@]2(C(=O)OCCOCCOCCOC(=O)c3ccc(-c4c5nc(c(-c6c(F)cc(S(=O)(=O)[O-])cc6F)c6ccc([nH]6)c(-c6c(F)cc(S(=O)(=O)[O-])cc6F)c6nc(c(-c7c(F)cc(S(=O)(=O)[O-])cc7F)c7ccc4[nH]7)C=C6)C=C5)cc3)CC[C@@]3(C)C(=CC[C@H]4[C@@]5(C)CC[C@H](O)C(C)(C)[C@@H]5CC[C@]43C)[C@@H]2C1
REMARK SMILES IDX 14 1 13 2 12 3 11 4 10 5 9 6 7 7 8 8 6 9 1 10 2 11 3 12 4 13
REMARK SMILES IDX 110 14 5 15 109 16 91 17 87 18 89 19 92 20 88 21 90 22
REMARK SMILES IDX 107 23 93 24 94 25 106 26 108 27 95 28 105 29 96 30 97 31
REMARK SMILES IDX 104 32 98 33 101 34 99 35 102 36 103 37 100 38 15 40 16 41
REMARK SMILES IDX 17 42 18 43 19 44 20 45 21 46 22 47 86 48 23 49 85 50 24 51
REMARK SMILES IDX 25 52 26 53 79 54 27 55 84 56 78 57 80 58 28 59 83 60 77 61
REMARK SMILES IDX 76 62 29 64 63 65 42 66 62 67 43 68 46 69 61 70 81 71 44 72
REMARK SMILES IDX 45 73 60 75 82 76 47 77 30 78 31 79 40 80 32 81 33 82 39 83
REMARK SMILES IDX 41 84 34 85 35 86 36 87 37 88 38 89 64 90 65 91 74 92 66 93
REMARK SMILES IDX 67 94 73 95 75 96 68 97 69 98 70 99 71 100 72 101 48 102
REMARK SMILES IDX 49 103 58 104 50 105 51 106 57 107 59 108 52 109 53 110
REMARK SMILES IDX 54 111 55 112 56 113
REMARK H PARENT 100 39 80 63 46 74
REMARK Flexibility Score: inf
ROOT
ATOM      1  C   UNL A   1      50.546  28.499  32.577  1.00  0.00     0.188 C 
ENDROOT
BRANCH   1   2
ATOM      2  C   UNL A   1      49.353  29.368  32.883  1.00  0.00     0.188 C 
BRANCH   2   3
ATOM      3  O   UNL A   1      49.315  30.424  31.977  1.00  0.00    -0.376 OA
BRANCH   3   4
ATOM      4  C   UNL A   1      48.423  31.500  32.311  1.00  0.00     0.202 C 
BRANCH   4   5
ATOM      5  C   UNL A   1      47.293  31.611  31.308  1.00  0.00     0.261 C 
BRANCH   5   6
ATOM      6  O   UNL A   1      47.855  32.261  30.218  1.00  0.00    -0.463 OA
BRANCH   6   7
ATOM      7  C   UNL A   1      47.321  31.637  29.138  1.00  0.00     0.312 C 
ATOM      8  O   UNL A   1      46.189  31.253  29.129  1.00  0.00    -0.252 OA
BRANCH   7   9
ATOM      9  C   UNL A   1      48.287  31.398  28.042  1.00  0.00     0.075 C 
ATOM     10  C   UNL A   1      47.876  27.137  27.904  1.00  0.00     0.011 C 
ATOM     11  C   UNL A   1      47.462  28.518  28.466  1.00  0.00    -0.035 C 
ATOM     12  C   UNL A   1      46.363  28.121  29.518  1.00  0.00     0.011 C 
ATOM     13  C   UNL A   1      48.766  29.040  29.133  1.00  0.00     0.007 C 
ATOM     14  C   UNL A   1      46.778  29.466  27.344  1.00  0.00     0.015 C 
ATOM     15  C   UNL A   1      49.338  30.333  28.498  1.00  0.00     0.020 C 
ATOM     16  C   UNL A   1      47.297  30.956  26.960  1.00  0.00     0.033 C 
ATOM     17  C   UNL A   1      46.124  32.162  26.699  1.00  0.00    -0.063 C 
ATOM     18  C   UNL A   1      48.902  32.763  27.668  1.00  0.00     0.020 C 
ATOM     19  C   UNL A   1      46.413  33.753  27.054  1.00  0.00    -0.006 C 
ATOM     20  C   UNL A   1      44.835  31.760  26.765  1.00  0.00    -0.027 C 
ATOM     21  C   UNL A   1      47.895  33.981  27.668  1.00  0.00     0.013 C 
ATOM     22  C   UNL A   1      46.701  34.337  25.600  1.00  0.00     0.017 C 
ATOM     23  C   UNL A   1      44.908  34.547  27.854  1.00  0.00    -0.020 C 
ATOM     24  C   UNL A   1      43.725  32.225  27.708  1.00  0.00     0.032 C 
ATOM     25  C   UNL A   1      43.830  33.531  28.532  1.00  0.00     0.006 C 
ATOM     26  C   UNL A   1      44.773  35.881  28.775  1.00  0.00     0.008 C 
ATOM     27  C   UNL A   1      44.219  35.119  26.534  1.00  0.00     0.012 C 
ATOM     28  C   UNL A   1      43.242  33.555  30.211  1.00  0.00    -0.025 C 
ATOM     29  C   UNL A   1      43.764  35.955  30.113  1.00  0.00     0.005 C 
ATOM     30  C   UNL A   1      41.691  33.677  30.119  1.00  0.00     0.012 C 
ATOM     31  C   UNL A   1      43.388  32.249  31.018  1.00  0.00     0.010 C 
ATOM     32  C   UNL A   1      43.842  34.739  31.061  1.00  0.00     0.003 C 
ATOM     33  C   UNL A   1      43.228  32.209  32.549  1.00  0.00     0.033 C 
ATOM     34  C   UNL A   1      43.506  34.748  32.720  1.00  0.00    -0.006 C 
ATOM     35  C   UNL A   1      43.903  33.350  33.296  1.00  0.00     0.120 C 
ATOM     36  C   UNL A   1      42.072  35.020  33.223  1.00  0.00     0.014 C 
ATOM     37  C   UNL A   1      44.354  35.774  33.527  1.00  0.00     0.014 C 
BRANCH  35  38
ATOM     38  O   UNL A   1      43.627  33.226  34.701  1.00  0.00    -0.393 OA
ATOM     39  H   UNL A   1      43.689  34.099  35.120  1.00  0.00     0.210 HD
ENDBRANCH  35  38
ENDBRANCH   7   9
ENDBRANCH   6   7
ENDBRANCH   5   6
ENDBRANCH   4   5
ENDBRANCH   3   4
ENDBRANCH   2   3
ENDBRANCH   1   2
BRANCH   1  40
ATOM     40  O   UNL A   1      50.264  27.150  32.211  1.00  0.00    -0.376 OA
BRANCH  40  41
ATOM     41  C   UNL A   1      50.308  26.089  33.158  1.00  0.00     0.202 C 
BRANCH  41  42
ATOM     42  C   UNL A   1      48.877  25.718  33.562  1.00  0.00     0.261 C 
BRANCH  42  43
ATOM     43  O   UNL A   1      48.263  26.429  34.656  1.00  0.00    -0.460 OA
BRANCH  43  44
ATOM     44  C   UNL A   1      47.178  25.890  35.242  1.00  0.00     0.338 C 
ATOM     45  O   UNL A   1      47.096  24.775  35.721  1.00  0.00    -0.246 OA
BRANCH  44  46
ATOM     46  C   UNL A   1      46.096  26.857  35.179  1.00  0.00     0.060 A 
ATOM     47  C   UNL A   1      44.882  26.505  35.777  1.00  0.00     0.016 A 
ATOM     48  C   UNL A   1      46.417  28.168  34.797  1.00  0.00     0.016 A 
ATOM     49  C   UNL A   1      43.962  27.490  36.038  1.00  0.00     0.010 A 
ATOM     50  C   UNL A   1      45.469  29.145  34.977  1.00  0.00     0.010 A 
ATOM     51  C   UNL A   1      44.228  28.753  35.501  1.00  0.00    -0.014 A 
BRANCH  51  52
ATOM     52  C   UNL A   1      43.066  29.384  34.893  1.00  0.00     0.031 A 
ATOM     53  C   UNL A   1      42.759  28.916  33.495  1.00  0.00     0.074 A 
ATOM     54  C   UNL A   1      42.376  30.274  35.604  1.00  0.00     0.049 A 
ATOM     55  N   UNL A   1      41.846  29.327  32.669  1.00  0.00    -0.248 NA
ATOM     56  C   UNL A   1      43.599  27.834  32.937  1.00  0.00     0.031 C 
ATOM     57  C   UNL A   1      42.658  30.672  36.985  1.00  0.00     0.029 A 
ATOM     58  N   UNL A   1      41.301  31.013  35.240  1.00  0.00    -0.354 N 
ATOM     59  C   UNL A   1      42.016  28.557  31.522  1.00  0.00     0.074 A 
ATOM     60  C   UNL A   1      43.122  27.672  31.723  1.00  0.00     0.031 C 
ATOM     61  C   UNL A   1      41.782  31.626  37.341  1.00  0.00     0.029 A 
ATOM     62  C   UNL A   1      40.921  31.911  36.199  1.00  0.00     0.049 A 
ATOM     63  H   UNL A   1      40.841  30.915  34.375  1.00  0.00     0.167 HD
ATOM     64  C   UNL A   1      41.297  28.600  30.387  1.00  0.00     0.037 A 
ATOM     65  C   UNL A   1      39.993  32.874  36.102  1.00  0.00     0.037 A 
ATOM     66  C   UNL A   1      40.238  29.549  30.233  1.00  0.00     0.049 A 
ATOM     67  C   UNL A   1      39.241  32.953  34.801  1.00  0.00     0.074 A 
ATOM     68  C   UNL A   1      39.426  29.772  29.146  1.00  0.00     0.029 A 
ATOM     69  N   UNL A   1      39.867  30.451  31.226  1.00  0.00    -0.354 N 
ATOM     70  N   UNL A   1      39.402  32.234  33.708  1.00  0.00    -0.248 NA
ATOM     71  C   UNL A   1      38.177  33.951  34.718  1.00  0.00     0.031 C 
ATOM     72  C   UNL A   1      38.593  30.849  29.466  1.00  0.00     0.029 A 
ATOM     73  C   UNL A   1      38.840  31.247  30.777  1.00  0.00     0.049 A 
ATOM     74  H   UNL A   1      40.280  30.510  32.119  1.00  0.00     0.167 HD
ATOM     75  C   UNL A   1      38.433  32.668  32.815  1.00  0.00     0.074 A 
ATOM     76  C   UNL A   1      37.688  33.706  33.510  1.00  0.00     0.031 C 
ATOM     77  C   UNL A   1      38.163  32.261  31.547  1.00  0.00     0.037 A 
BRANCH  64  78
ATOM     78  C   UNL A   1      41.691  27.672  29.274  1.00  0.00     0.058 A 
ATOM     79  C   UNL A   1      42.788  27.935  28.432  1.00  0.00     0.135 A 
ATOM     80  C   UNL A   1      40.932  26.523  29.010  1.00  0.00     0.135 A 
ATOM     81  F   UNL A   1      43.513  29.054  28.595  1.00  0.00    -0.206 F 
ATOM     82  C   UNL A   1      43.116  27.094  27.373  1.00  0.00     0.059 A 
ATOM     83  C   UNL A   1      41.260  25.651  27.975  1.00  0.00     0.059 A 
ATOM     84  F   UNL A   1      39.846  26.248  29.747  1.00  0.00    -0.206 F 
ATOM     85  C   UNL A   1      42.352  25.946  27.160  1.00  0.00     0.060 A 
BRANCH  85  86
ATOM     86  S   UNL A   1      42.824  24.830  25.821  1.00  0.00     0.124 S 
ATOM     87  O   UNL A   1      42.850  25.736  24.677  1.00  0.00    -0.237 OA
ATOM     88  O   UNL A   1      44.122  24.340  26.272  1.00  0.00    -0.237 OA
ATOM     89  O   UNL A   1      41.752  23.839  25.812  1.00  0.00    -0.744 OA
ENDBRANCH  85  86
ENDBRANCH  64  78
BRANCH  65  90
ATOM     90  C   UNL A   1      39.748  33.779  37.247  1.00  0.00     0.058 A 
ATOM     91  C   UNL A   1      40.425  35.001  37.357  1.00  0.00     0.135 A 
ATOM     92  C   UNL A   1      38.782  33.476  38.222  1.00  0.00     0.135 A 
ATOM     93  F   UNL A   1      41.341  35.344  36.438  1.00  0.00    -0.206 F 
ATOM     94  C   UNL A   1      40.176  35.878  38.406  1.00  0.00     0.059 A 
ATOM     95  C   UNL A   1      38.495  34.350  39.264  1.00  0.00     0.059 A 
ATOM     96  F   UNL A   1      38.079  32.336  38.141  1.00  0.00    -0.206 F 
ATOM     97  C   UNL A   1      39.209  35.543  39.355  1.00  0.00     0.060 A 
BRANCH  97  98
ATOM     98  S   UNL A   1      38.877  36.706  40.696  1.00  0.00     0.124 S 
ATOM     99  O   UNL A   1      38.006  35.916  41.558  1.00  0.00    -0.237 OA
ATOM    100  O   UNL A   1      40.218  36.968  41.209  1.00  0.00    -0.237 OA
ATOM    101  O   UNL A   1      38.243  37.831  40.016  1.00  0.00    -0.744 OA
ENDBRANCH  97  98
ENDBRANCH  65  90
BRANCH  77 102
ATOM    102  C   UNL A   1      36.991  32.911  30.884  1.00  0.00     0.058 A 
ATOM    103  C   UNL A   1      35.674  32.553  31.200  1.00  0.00     0.135 A 
ATOM    104  C   UNL A   1      37.205  33.935  29.947  1.00  0.00     0.135 A 
ATOM    105  F   UNL A   1      35.431  31.580  32.092  1.00  0.00    -0.206 F 
ATOM    106  C   UNL A   1      34.599  33.156  30.565  1.00  0.00     0.059 A 
ATOM    107  C   UNL A   1      36.143  34.579  29.332  1.00  0.00     0.059 A 
ATOM    108  F   UNL A   1      38.451  34.323  29.636  1.00  0.00    -0.206 F 
ATOM    109  C   UNL A   1      34.846  34.166  29.631  1.00  0.00     0.060 A 
BRANCH 109 110
ATOM    110  S   UNL A   1      33.440  34.935  28.810  1.00  0.00     0.124 S 
ATOM    111  O   UNL A   1      32.499  35.073  29.915  1.00  0.00    -0.237 OA
ATOM    112  O   UNL A   1      34.017  36.178  28.306  1.00  0.00    -0.237 OA
ATOM    113  O   UNL A   1      33.072  33.961  27.786  1.00  0.00    -0.744 OA
ENDBRANCH 109 110
ENDBRANCH  77 102
ENDBRANCH  51  52
ENDBRANCH  44  46
ENDBRANCH  43  44
ENDBRANCH  42  43
ENDBRANCH  41  42
ENDBRANCH  40  41
ENDBRANCH   1  40
TORSDOF 21
ENDMDL
