MODEL 1
REMARK VINA RESULT:     -12.6      0.000      0.000
REMARK SMILES Cc1ccc(-c2cc(Cl)cc3c2O[C@@H](C(F)(F)F)C(C(=O)OCCOCCOCCOC(=O)c2ccc(-c4c5nc(c(-c6c(F)cc(S(=O)(=O)[O-])cc6F)c6ccc([nH]6)c(-c6c(F)cc(S(=O)(=O)[O-])cc6F)c6nc(c(-c7c(F)cc(S(=O)(=O)[O-])cc7F)c7ccc4[nH]7)C=C6)C=C5)cc2)=C3)cc1
REMARK SMILES IDX 27 1 26 2 25 3 24 4 23 5 22 6 20 7 21 8 19 9 6 10 7 11 12 12
REMARK SMILES IDX 8 13 11 14 13 15 9 16 10 17 100 18 14 19 5 20 1 21 2 22 3 23
REMARK SMILES IDX 102 24 4 25 101 26 15 27 16 28 17 29 18 30 28 31 29 32 30 33
REMARK SMILES IDX 31 34 32 35 33 36 34 37 35 38 99 39 36 40 98 41 37 42 38 43
REMARK SMILES IDX 39 44 92 45 40 46 97 47 91 48 93 49 41 50 96 51 90 52 89 53
REMARK SMILES IDX 42 55 76 56 55 57 75 58 56 59 59 60 74 61 94 62 57 63 58 64
REMARK SMILES IDX 73 66 95 67 60 68 43 69 44 70 53 71 45 72 46 73 52 74 54 75
REMARK SMILES IDX 47 76 48 77 49 78 50 79 51 80 77 81 78 82 87 83 79 84 80 85
REMARK SMILES IDX 86 86 88 87 81 88 82 89 83 90 84 91 85 92 61 93 62 94 71 95
REMARK SMILES IDX 63 96 64 97 70 98 72 99 65 100 66 101 67 102 68 103 69 104
REMARK H PARENT 93 54 59 65
REMARK Flexibility Score: inf
ROOT
ATOM      1  C   UNL A   1      34.262  31.580  28.166  1.00  0.00     0.188 C 
ENDROOT
BRANCH   1   2
ATOM      2  C   UNL A   1      33.132  31.247  27.235  1.00  0.00     0.188 C 
BRANCH   2   3
ATOM      3  O   UNL A   1      33.004  29.909  26.686  1.00  0.00    -0.376 OA
BRANCH   3   4
ATOM      4  C   UNL A   1      33.936  28.756  26.713  1.00  0.00     0.202 C 
BRANCH   4   5
ATOM      5  C   UNL A   1      34.113  27.045  25.965  1.00  0.00     0.261 C 
BRANCH   5   6
ATOM      6  O   UNL A   1      33.642  26.379  24.200  1.00  0.00    -0.460 OA
BRANCH   6   7
ATOM      7  C   UNL A   1      32.378  25.690  23.345  1.00  0.00     0.338 C 
ATOM      8  O   UNL A   1      31.902  26.176  22.310  1.00  0.00    -0.246 OA
BRANCH   7   9
ATOM      9  C   UNL A   1      31.578  24.362  23.618  1.00  0.00     0.087 C 
ATOM     10  C   UNL A   1      34.635  21.572  24.890  1.00  0.00     0.026 A 
ATOM     11  C   UNL A   1      34.348  20.220  24.904  1.00  0.00     0.033 A 
ATOM     12  C   UNL A   1      33.447  22.451  24.471  1.00  0.00     0.135 A 
ATOM     13  C   UNL A   1      33.091  19.799  24.444  1.00  0.00     0.042 A 
ATOM     14  C   UNL A   1      32.439  22.025  23.618  1.00  0.00     0.019 A 
ATOM     15  O   UNL A   1      32.845  23.500  25.380  1.00  0.00    -0.475 OA
ATOM     16  Cl  UNL A   1      32.637  18.161  24.773  1.00  0.00    -0.084 Cl
ATOM     17  C   UNL A   1      32.188  20.656  23.731  1.00  0.00     0.032 A 
ATOM     18  C   UNL A   1      31.685  23.175  22.909  1.00  0.00     0.027 C 
ATOM     19  C   UNL A   1      31.494  24.004  25.029  1.00  0.00     0.316 C 
BRANCH  10  20
ATOM     20  C   UNL A   1      36.371  21.967  25.004  1.00  0.00    -0.015 A 
ATOM     21  C   UNL A   1      40.813  23.488  27.177  1.00  0.00     0.044 C 
ATOM     22  C   UNL A   1      39.481  23.034  26.639  1.00  0.00    -0.051 A 
ATOM     23  C   UNL A   1      39.489  21.406  26.034  1.00  0.00     0.004 A 
ATOM     24  C   UNL A   1      38.076  24.130  26.460  1.00  0.00     0.004 A 
ATOM     25  C   UNL A   1      38.030  20.801  25.222  1.00  0.00     0.009 A 
ATOM     26  C   UNL A   1      36.544  23.659  25.655  1.00  0.00     0.009 A 
ENDBRANCH  10  20
BRANCH  19  27
ATOM     27  C   UNL A   1      30.598  25.136  25.612  1.00  0.00     0.430 C 
ATOM     28  F   UNL A   1      29.870  25.772  24.631  1.00  0.00    -0.167 F 
ATOM     29  F   UNL A   1      29.633  24.604  26.412  1.00  0.00    -0.167 F 
ATOM     30  F   UNL A   1      31.211  26.091  26.306  1.00  0.00    -0.167 F 
ENDBRANCH  19  27
ENDBRANCH   7   9
ENDBRANCH   6   7
ENDBRANCH   5   6
ENDBRANCH   4   5
ENDBRANCH   3   4
ENDBRANCH   2   3
ENDBRANCH   1   2
BRANCH   1  31
ATOM     31  O   UNL A   1      35.030  32.519  27.465  1.00  0.00    -0.376 OA
BRANCH  31  32
ATOM     32  C   UNL A   1      35.143  33.781  28.049  1.00  0.00     0.202 C 
BRANCH  32  33
ATOM     33  C   UNL A   1      34.689  33.745  29.498  1.00  0.00     0.261 C 
BRANCH  33  34
ATOM     34  O   UNL A   1      35.798  33.759  30.434  1.00  0.00    -0.460 OA
BRANCH  34  35
ATOM     35  C   UNL A   1      36.188  32.568  31.002  1.00  0.00     0.338 C 
ATOM     36  O   UNL A   1      35.422  31.850  31.620  1.00  0.00    -0.246 OA
BRANCH  35  37
ATOM     37  C   UNL A   1      37.524  32.147  30.520  1.00  0.00     0.060 A 
ATOM     38  C   UNL A   1      37.850  31.158  29.608  1.00  0.00     0.016 A 
ATOM     39  C   UNL A   1      38.590  32.868  30.935  1.00  0.00     0.016 A 
ATOM     40  C   UNL A   1      39.232  30.630  29.537  1.00  0.00     0.010 A 
ATOM     41  C   UNL A   1      39.860  32.314  30.696  1.00  0.00     0.010 A 
ATOM     42  C   UNL A   1      40.321  30.957  30.277  1.00  0.00    -0.014 A 
BRANCH  42  43
ATOM     43  C   UNL A   1      42.028  30.117  30.375  1.00  0.00     0.031 A 
ATOM     44  C   UNL A   1      42.431  28.360  29.786  1.00  0.00     0.074 A 
ATOM     45  C   UNL A   1      43.233  30.711  30.674  1.00  0.00     0.049 A 
ATOM     46  N   UNL A   1      43.533  27.681  29.921  1.00  0.00    -0.248 NA
ATOM     47  C   UNL A   1      41.391  27.260  29.149  1.00  0.00     0.031 C 
ATOM     48  C   UNL A   1      44.593  30.217  30.397  1.00  0.00     0.029 A 
ATOM     49  N   UNL A   1      43.545  31.934  31.302  1.00  0.00    -0.354 N 
ATOM     50  C   UNL A   1      43.354  26.401  29.371  1.00  0.00     0.074 A 
ATOM     51  C   UNL A   1      41.996  26.106  29.221  1.00  0.00     0.031 C 
ATOM     52  C   UNL A   1      45.480  30.889  31.156  1.00  0.00     0.029 A 
ATOM     53  C   UNL A   1      44.699  31.708  32.066  1.00  0.00     0.049 A 
ATOM     54  H   UNL A   1      43.050  32.780  31.220  1.00  0.00     0.167 HD
ATOM     55  C   UNL A   1      44.398  25.688  28.905  1.00  0.00     0.037 A 
ATOM     56  C   UNL A   1      44.628  31.607  33.429  1.00  0.00     0.037 A 
ATOM     57  C   UNL A   1      45.560  26.134  29.636  1.00  0.00     0.049 A 
ATOM     58  C   UNL A   1      45.142  30.188  33.890  1.00  0.00     0.074 A 
ATOM     59  C   UNL A   1      46.569  27.045  29.418  1.00  0.00     0.029 A 
ATOM     60  N   UNL A   1      45.466  25.994  31.006  1.00  0.00    -0.354 N 
ATOM     61  N   UNL A   1      45.585  29.245  33.080  1.00  0.00    -0.248 NA
ATOM     62  C   UNL A   1      45.208  29.710  35.274  1.00  0.00     0.031 C 
ATOM     63  C   UNL A   1      47.004  27.513  30.707  1.00  0.00     0.029 A 
ATOM     64  C   UNL A   1      46.283  26.856  31.695  1.00  0.00     0.049 A 
ATOM     65  H   UNL A   1      44.873  25.343  31.445  1.00  0.00     0.167 HD
ATOM     66  C   UNL A   1      45.823  28.068  33.756  1.00  0.00     0.074 A 
ATOM     67  C   UNL A   1      45.603  28.429  35.142  1.00  0.00     0.031 C 
ATOM     68  C   UNL A   1      46.142  26.874  33.154  1.00  0.00     0.037 A 
BRANCH  55  69
ATOM     69  C   UNL A   1      44.313  24.745  27.710  1.00  0.00     0.058 A 
ATOM     70  C   UNL A   1      44.565  23.386  27.949  1.00  0.00     0.135 A 
ATOM     71  C   UNL A   1      44.178  25.070  26.324  1.00  0.00     0.135 A 
ATOM     72  F   UNL A   1      44.708  22.926  29.199  1.00  0.00    -0.206 F 
ATOM     73  C   UNL A   1      44.737  22.449  26.925  1.00  0.00     0.059 A 
ATOM     74  C   UNL A   1      44.304  24.142  25.287  1.00  0.00     0.059 A 
ATOM     75  F   UNL A   1      43.977  26.307  25.856  1.00  0.00    -0.206 F 
ATOM     76  C   UNL A   1      44.617  22.837  25.595  1.00  0.00     0.060 A 
BRANCH  76  77
ATOM     77  S   UNL A   1      44.921  21.635  24.293  1.00  0.00     0.124 S 
ATOM     78  O   UNL A   1      44.010  20.556  24.660  1.00  0.00    -0.237 OA
ATOM     79  O   UNL A   1      44.569  22.391  23.096  1.00  0.00    -0.237 OA
ATOM     80  O   UNL A   1      46.341  21.321  24.435  1.00  0.00    -0.744 OA
ENDBRANCH  76  77
ENDBRANCH  55  69
BRANCH  56  81
ATOM     81  C   UNL A   1      43.393  32.506  34.076  1.00  0.00     0.058 A 
ATOM     82  C   UNL A   1      41.373  32.544  34.297  1.00  0.00     0.135 A 
ATOM     83  C   UNL A   1      44.229  33.835  34.974  1.00  0.00     0.135 A 
ATOM     84  F   UNL A   1      40.389  31.684  33.878  1.00  0.00    -0.206 F 
ATOM     85  C   UNL A   1      40.563  33.788  35.280  1.00  0.00     0.059 A 
ATOM     86  C   UNL A   1      43.211  34.992  35.939  1.00  0.00     0.059 A 
ATOM     87  F   UNL A   1      45.470  34.156  34.603  1.00  0.00    -0.206 F 
ATOM     88  C   UNL A   1      41.501  34.942  36.059  1.00  0.00     0.060 A 
BRANCH  88  89
ATOM     89  S   UNL A   1      40.872  36.038  37.324  1.00  0.00     0.124 S 
ATOM     90  O   UNL A   1      39.906  36.851  36.600  1.00  0.00    -0.237 OA
ATOM     91  O   UNL A   1      40.323  35.071  38.273  1.00  0.00    -0.237 OA
ATOM     92  O   UNL A   1      42.081  36.727  37.766  1.00  0.00    -0.744 OA
ENDBRANCH  88  89
ENDBRANCH  56  81
BRANCH  68  93
ATOM     93  C   UNL A   1      46.362  25.545  33.884  1.00  0.00     0.058 A 
ATOM     94  C   UNL A   1      47.640  25.093  34.234  1.00  0.00     0.135 A 
ATOM     95  C   UNL A   1      45.324  24.586  34.045  1.00  0.00     0.135 A 
ATOM     96  F   UNL A   1      48.701  25.909  34.137  1.00  0.00    -0.206 F 
ATOM     97  C   UNL A   1      47.876  23.781  34.671  1.00  0.00     0.059 A 
ATOM     98  C   UNL A   1      45.546  23.253  34.383  1.00  0.00     0.059 A 
ATOM     99  F   UNL A   1      44.030  24.918  33.911  1.00  0.00    -0.206 F 
ATOM    100  C   UNL A   1      46.828  22.859  34.710  1.00  0.00     0.060 A 
BRANCH 100 101
ATOM    101  S   UNL A   1      47.147  21.149  35.190  1.00  0.00     0.124 S 
ATOM    102  O   UNL A   1      48.593  21.142  35.396  1.00  0.00    -0.237 OA
ATOM    103  O   UNL A   1      46.336  21.030  36.398  1.00  0.00    -0.237 OA
ATOM    104  O   UNL A   1      46.680  20.375  34.044  1.00  0.00    -0.744 OA
ENDBRANCH 100 101
ENDBRANCH  68  93
ENDBRANCH  42  43
ENDBRANCH  35  37
ENDBRANCH  34  35
ENDBRANCH  33  34
ENDBRANCH  32  33
ENDBRANCH  31  32
ENDBRANCH   1  31
TORSDOF 22
ENDMDL
MODEL 2
REMARK VINA RESULT:     -12.2      1.609      2.196
REMARK SMILES Cc1ccc(-c2cc(Cl)cc3c2O[C@@H](C(F)(F)F)C(C(=O)OCCOCCOCCOC(=O)c2ccc(-c4c5nc(c(-c6c(F)cc(S(=O)(=O)[O-])cc6F)c6ccc([nH]6)c(-c6c(F)cc(S(=O)(=O)[O-])cc6F)c6nc(c(-c7c(F)cc(S(=O)(=O)[O-])cc7F)c7ccc4[nH]7)C=C6)C=C5)cc2)=C3)cc1
REMARK SMILES IDX 27 1 26 2 25 3 24 4 23 5 22 6 20 7 21 8 19 9 6 10 7 11 12 12
REMARK SMILES IDX 8 13 11 14 13 15 9 16 10 17 100 18 14 19 5 20 1 21 2 22 3 23
REMARK SMILES IDX 102 24 4 25 101 26 15 27 16 28 17 29 18 30 28 31 29 32 30 33
REMARK SMILES IDX 31 34 32 35 33 36 34 37 35 38 99 39 36 40 98 41 37 42 38 43
REMARK SMILES IDX 39 44 92 45 40 46 97 47 91 48 93 49 41 50 96 51 90 52 89 53
REMARK SMILES IDX 42 55 76 56 55 57 75 58 56 59 59 60 74 61 94 62 57 63 58 64
REMARK SMILES IDX 73 66 95 67 60 68 43 69 44 70 53 71 45 72 46 73 52 74 54 75
REMARK SMILES IDX 47 76 48 77 49 78 50 79 51 80 77 81 78 82 87 83 79 84 80 85
REMARK SMILES IDX 86 86 88 87 81 88 82 89 83 90 84 91 85 92 61 93 62 94 71 95
REMARK SMILES IDX 63 96 64 97 70 98 72 99 65 100 66 101 67 102 68 103 69 104
REMARK H PARENT 93 54 59 65
REMARK Flexibility Score: inf
ROOT
ATOM      1  C   UNL A   1      34.155  31.570  28.180  1.00  0.00     0.188 C 
ENDROOT
BRANCH   1   2
ATOM      2  C   UNL A   1      33.137  31.263  27.120  1.00  0.00     0.188 C 
BRANCH   2   3
ATOM      3  O   UNL A   1      32.956  29.900  26.649  1.00  0.00    -0.376 OA
BRANCH   3   4
ATOM      4  C   UNL A   1      33.796  28.692  26.830  1.00  0.00     0.202 C 
BRANCH   4   5
ATOM      5  C   UNL A   1      34.026  26.987  26.083  1.00  0.00     0.261 C 
BRANCH   5   6
ATOM      6  O   UNL A   1      33.573  26.305  24.319  1.00  0.00    -0.460 OA
BRANCH   6   7
ATOM      7  C   UNL A   1      32.335  25.564  23.470  1.00  0.00     0.338 C 
ATOM      8  O   UNL A   1      31.844  26.021  22.430  1.00  0.00    -0.246 OA
BRANCH   7   9
ATOM      9  C   UNL A   1      31.581  24.212  23.756  1.00  0.00     0.087 C 
ATOM     10  C   UNL A   1      34.734  21.538  25.043  1.00  0.00     0.026 A 
ATOM     11  C   UNL A   1      34.494  20.177  25.068  1.00  0.00     0.033 A 
ATOM     12  C   UNL A   1      33.516  22.373  24.620  1.00  0.00     0.135 A 
ATOM     13  C   UNL A   1      33.251  19.710  24.616  1.00  0.00     0.042 A 
ATOM     14  C   UNL A   1      32.521  21.906  23.773  1.00  0.00     0.019 A 
ATOM     15  O   UNL A   1      32.881  23.408  25.522  1.00  0.00    -0.475 OA
ATOM     16  Cl  UNL A   1      32.854  18.061  24.960  1.00  0.00    -0.084 Cl
ATOM     17  C   UNL A   1      32.318  20.529  23.898  1.00  0.00     0.032 A 
ATOM     18  C   UNL A   1      31.727  23.023  23.057  1.00  0.00     0.027 C 
ATOM     19  C   UNL A   1      31.513  23.863  25.171  1.00  0.00     0.316 C 
BRANCH  10  20
ATOM     20  C   UNL A   1      36.457  21.993  25.148  1.00  0.00    -0.015 A 
ATOM     21  C   UNL A   1      40.868  23.607  27.316  1.00  0.00     0.044 C 
ATOM     22  C   UNL A   1      39.547  23.121  26.780  1.00  0.00    -0.051 A 
ATOM     23  C   UNL A   1      39.606  21.515  26.123  1.00  0.00     0.004 A 
ATOM     24  C   UNL A   1      38.101  24.170  26.652  1.00  0.00     0.004 A 
ATOM     25  C   UNL A   1      38.159  20.882  25.310  1.00  0.00     0.009 A 
ATOM     26  C   UNL A   1      36.576  23.669  25.851  1.00  0.00     0.009 A 
ENDBRANCH  10  20
BRANCH  19  27
ATOM     27  C   UNL A   1      30.580  24.968  25.746  1.00  0.00     0.430 C 
ATOM     28  F   UNL A   1      29.879  25.617  24.755  1.00  0.00    -0.167 F 
ATOM     29  F   UNL A   1      29.595  24.405  26.498  1.00  0.00    -0.167 F 
ATOM     30  F   UNL A   1      31.155  25.915  26.484  1.00  0.00    -0.167 F 
ENDBRANCH  19  27
ENDBRANCH   7   9
ENDBRANCH   6   7
ENDBRANCH   5   6
ENDBRANCH   4   5
ENDBRANCH   3   4
ENDBRANCH   2   3
ENDBRANCH   1   2
BRANCH   1  31
ATOM     31  O   UNL A   1      35.241  32.110  27.478  1.00  0.00    -0.376 OA
BRANCH  31  32
ATOM     32  C   UNL A   1      36.076  32.965  28.198  1.00  0.00     0.202 C 
BRANCH  32  33
ATOM     33  C   UNL A   1      35.488  33.260  29.568  1.00  0.00     0.261 C 
BRANCH  33  34
ATOM     34  O   UNL A   1      36.443  33.061  30.642  1.00  0.00    -0.460 OA
BRANCH  34  35
ATOM     35  C   UNL A   1      36.815  31.774  30.956  1.00  0.00     0.338 C 
ATOM     36  O   UNL A   1      36.026  30.846  30.977  1.00  0.00    -0.246 OA
BRANCH  35  37
ATOM     37  C   UNL A   1      38.288  31.619  30.960  1.00  0.00     0.060 A 
ATOM     38  C   UNL A   1      39.136  31.316  29.909  1.00  0.00     0.016 A 
ATOM     39  C   UNL A   1      38.939  31.896  32.112  1.00  0.00     0.016 A 
ATOM     40  C   UNL A   1      40.512  30.834  30.171  1.00  0.00     0.010 A 
ATOM     41  C   UNL A   1      40.285  31.497  32.191  1.00  0.00     0.010 A 
ATOM     42  C   UNL A   1      41.136  30.602  31.352  1.00  0.00    -0.014 A 
BRANCH  42  43
ATOM     43  C   UNL A   1      42.801  29.746  31.707  1.00  0.00     0.031 A 
ATOM     44  C   UNL A   1      43.381  28.104  30.959  1.00  0.00     0.074 A 
ATOM     45  C   UNL A   1      43.888  30.278  32.365  1.00  0.00     0.049 A 
ATOM     46  N   UNL A   1      44.444  27.405  31.235  1.00  0.00    -0.248 NA
ATOM     47  C   UNL A   1      42.547  27.125  29.936  1.00  0.00     0.031 C 
ATOM     48  C   UNL A   1      45.289  29.826  32.333  1.00  0.00     0.029 A 
ATOM     49  N   UNL A   1      44.011  31.384  33.230  1.00  0.00    -0.354 N 
ATOM     50  C   UNL A   1      44.434  26.230  30.466  1.00  0.00     0.074 A 
ATOM     51  C   UNL A   1      43.155  25.971  29.963  1.00  0.00     0.031 C 
ATOM     52  C   UNL A   1      45.959  30.363  33.371  1.00  0.00     0.029 A 
ATOM     53  C   UNL A   1      44.967  31.031  34.193  1.00  0.00     0.049 A 
ATOM     54  H   UNL A   1      43.522  32.235  33.170  1.00  0.00     0.167 HD
ATOM     55  C   UNL A   1      45.578  25.594  30.146  1.00  0.00     0.037 A 
ATOM     56  C   UNL A   1      44.590  30.715  35.471  1.00  0.00     0.037 A 
ATOM     57  C   UNL A   1      46.529  25.911  31.185  1.00  0.00     0.049 A 
ATOM     58  C   UNL A   1      45.029  29.237  35.809  1.00  0.00     0.074 A 
ATOM     59  C   UNL A   1      47.533  26.839  31.349  1.00  0.00     0.029 A 
ATOM     60  N   UNL A   1      46.130  25.555  32.458  1.00  0.00    -0.354 N 
ATOM     61  N   UNL A   1      45.674  28.433  34.986  1.00  0.00    -0.248 NA
ATOM     62  C   UNL A   1      44.794  28.545  37.080  1.00  0.00     0.031 C 
ATOM     63  C   UNL A   1      47.648  27.093  32.760  1.00  0.00     0.029 A 
ATOM     64  C   UNL A   1      46.742  26.291  33.441  1.00  0.00     0.049 A 
ATOM     65  H   UNL A   1      45.473  24.846  32.641  1.00  0.00     0.167 HD
ATOM     66  C   UNL A   1      45.788  27.162  35.506  1.00  0.00     0.074 A 
ATOM     67  C   UNL A   1      45.247  27.299  36.843  1.00  0.00     0.031 C 
ATOM     68  C   UNL A   1      46.273  26.077  34.814  1.00  0.00     0.037 A 
BRANCH  55  69
ATOM     69  C   UNL A   1      45.796  24.854  28.831  1.00  0.00     0.058 A 
ATOM     70  C   UNL A   1      46.444  25.554  27.802  1.00  0.00     0.135 A 
ATOM     71  C   UNL A   1      45.278  23.584  28.425  1.00  0.00     0.135 A 
ATOM     72  F   UNL A   1      46.990  26.756  28.031  1.00  0.00    -0.206 F 
ATOM     73  C   UNL A   1      46.516  25.085  26.487  1.00  0.00     0.059 A 
ATOM     74  C   UNL A   1      45.375  23.079  27.126  1.00  0.00     0.059 A 
ATOM     75  F   UNL A   1      44.587  22.762  29.222  1.00  0.00    -0.206 F 
ATOM     76  C   UNL A   1      45.968  23.852  26.153  1.00  0.00     0.060 A 
BRANCH  76  77
ATOM     77  S   UNL A   1      46.001  23.304  24.440  1.00  0.00     0.124 S 
ATOM     78  O   UNL A   1      47.032  24.163  23.869  1.00  0.00    -0.237 OA
ATOM     79  O   UNL A   1      46.346  21.894  24.581  1.00  0.00    -0.237 OA
ATOM     80  O   UNL A   1      44.644  23.568  23.967  1.00  0.00    -0.744 OA
ENDBRANCH  76  77
ENDBRANCH  55  69
BRANCH  56  81
ATOM     81  C   UNL A   1      43.214  31.507  35.950  1.00  0.00     0.058 A 
ATOM     82  C   UNL A   1      42.555  33.274  36.707  1.00  0.00     0.135 A 
ATOM     83  C   UNL A   1      41.871  30.382  35.506  1.00  0.00     0.135 A 
ATOM     84  F   UNL A   1      43.217  34.420  37.071  1.00  0.00    -0.206 F 
ATOM     85  C   UNL A   1      40.819  33.621  36.899  1.00  0.00     0.059 A 
ATOM     86  C   UNL A   1      40.161  30.942  35.764  1.00  0.00     0.059 A 
ATOM     87  F   UNL A   1      42.158  29.085  35.379  1.00  0.00    -0.206 F 
ATOM     88  C   UNL A   1      39.704  32.461  36.418  1.00  0.00     0.060 A 
BRANCH  88  89
ATOM     89  S   UNL A   1      37.954  32.783  36.244  1.00  0.00     0.124 S 
ATOM     90  O   UNL A   1      37.841  33.236  34.866  1.00  0.00    -0.237 OA
ATOM     91  O   UNL A   1      37.404  31.460  36.539  1.00  0.00    -0.237 OA
ATOM     92  O   UNL A   1      37.723  33.796  37.270  1.00  0.00    -0.744 OA
ENDBRANCH  88  89
ENDBRANCH  56  81
BRANCH  68  93
ATOM     93  C   UNL A   1      46.361  24.647  35.358  1.00  0.00     0.058 A 
ATOM     94  C   UNL A   1      47.589  24.016  35.589  1.00  0.00     0.135 A 
ATOM     95  C   UNL A   1      45.226  23.795  35.441  1.00  0.00     0.135 A 
ATOM     96  F   UNL A   1      48.733  24.716  35.548  1.00  0.00    -0.206 F 
ATOM     97  C   UNL A   1      47.686  22.640  35.843  1.00  0.00     0.059 A 
ATOM     98  C   UNL A   1      45.303  22.413  35.596  1.00  0.00     0.059 A 
ATOM     99  F   UNL A   1      43.975  24.282  35.410  1.00  0.00    -0.206 F 
ATOM    100  C   UNL A   1      46.542  21.841  35.812  1.00  0.00     0.060 A 
BRANCH 100 101
ATOM    101  S   UNL A   1      46.677  20.058  36.055  1.00  0.00     0.124 S 
ATOM    102  O   UNL A   1      47.505  19.964  37.254  1.00  0.00    -0.237 OA
ATOM    103  O   UNL A   1      45.277  19.680  36.222  1.00  0.00    -0.237 OA
ATOM    104  O   UNL A   1      47.310  19.589  34.826  1.00  0.00    -0.744 OA
ENDBRANCH 100 101
ENDBRANCH  68  93
ENDBRANCH  42  43
ENDBRANCH  35  37
ENDBRANCH  34  35
ENDBRANCH  33  34
ENDBRANCH  32  33
ENDBRANCH  31  32
ENDBRANCH   1  31
TORSDOF 22
ENDMDL
MODEL 3
REMARK VINA RESULT:     -11.6      5.359     12.248
REMARK SMILES Cc1ccc(-c2cc(Cl)cc3c2O[C@@H](C(F)(F)F)C(C(=O)OCCOCCOCCOC(=O)c2ccc(-c4c5nc(c(-c6c(F)cc(S(=O)(=O)[O-])cc6F)c6ccc([nH]6)c(-c6c(F)cc(S(=O)(=O)[O-])cc6F)c6nc(c(-c7c(F)cc(S(=O)(=O)[O-])cc7F)c7ccc4[nH]7)C=C6)C=C5)cc2)=C3)cc1
REMARK SMILES IDX 27 1 26 2 25 3 24 4 23 5 22 6 20 7 21 8 19 9 6 10 7 11 12 12
REMARK SMILES IDX 8 13 11 14 13 15 9 16 10 17 100 18 14 19 5 20 1 21 2 22 3 23
REMARK SMILES IDX 102 24 4 25 101 26 15 27 16 28 17 29 18 30 28 31 29 32 30 33
REMARK SMILES IDX 31 34 32 35 33 36 34 37 35 38 99 39 36 40 98 41 37 42 38 43
REMARK SMILES IDX 39 44 92 45 40 46 97 47 91 48 93 49 41 50 96 51 90 52 89 53
REMARK SMILES IDX 42 55 76 56 55 57 75 58 56 59 59 60 74 61 94 62 57 63 58 64
REMARK SMILES IDX 73 66 95 67 60 68 43 69 44 70 53 71 45 72 46 73 52 74 54 75
REMARK SMILES IDX 47 76 48 77 49 78 50 79 51 80 77 81 78 82 87 83 79 84 80 85
REMARK SMILES IDX 86 86 88 87 81 88 82 89 83 90 84 91 85 92 61 93 62 94 71 95
REMARK SMILES IDX 63 96 64 97 70 98 72 99 65 100 66 101 67 102 68 103 69 104
REMARK H PARENT 93 54 59 65
REMARK Flexibility Score: inf
ROOT
ATOM      1  C   UNL A   1      36.402  33.473  31.813  1.00  0.00     0.188 C 
ENDROOT
BRANCH   1   2
ATOM      2  C   UNL A   1      36.089  34.625  32.723  1.00  0.00     0.188 C 
BRANCH   2   3
ATOM      3  O   UNL A   1      36.657  34.680  34.059  1.00  0.00    -0.376 OA
BRANCH   3   4
ATOM      4  C   UNL A   1      38.045  34.459  34.532  1.00  0.00     0.202 C 
BRANCH   4   5
ATOM      5  C   UNL A   1      39.029  33.219  35.538  1.00  0.00     0.261 C 
BRANCH   5   6
ATOM      6  O   UNL A   1      40.016  31.637  34.985  1.00  0.00    -0.460 OA
BRANCH   6   7
ATOM      7  C   UNL A   1      40.059  30.458  33.797  1.00  0.00     0.338 C 
ATOM      8  O   UNL A   1      39.548  29.337  33.921  1.00  0.00    -0.246 OA
BRANCH   7   9
ATOM      9  C   UNL A   1      40.686  30.499  32.354  1.00  0.00     0.087 C 
ATOM     10  C   UNL A   1      42.549  34.403  32.163  1.00  0.00     0.026 A 
ATOM     11  C   UNL A   1      42.918  34.913  30.933  1.00  0.00     0.033 A 
ATOM     12  C   UNL A   1      41.951  32.990  32.092  1.00  0.00     0.135 A 
ATOM     13  C   UNL A   1      42.618  34.167  29.783  1.00  0.00     0.042 A 
ATOM     14  C   UNL A   1      41.264  32.501  30.990  1.00  0.00     0.019 A 
ATOM     15  O   UNL A   1      42.575  31.802  32.789  1.00  0.00    -0.475 OA
ATOM     16  Cl  UNL A   1      43.370  34.658  28.304  1.00  0.00    -0.084 Cl
ATOM     17  C   UNL A   1      41.733  33.038  29.789  1.00  0.00     0.032 A 
ATOM     18  C   UNL A   1      40.304  31.332  31.313  1.00  0.00     0.027 C 
ATOM     19  C   UNL A   1      42.144  30.453  32.344  1.00  0.00     0.316 C 
BRANCH  10  20
ATOM     20  C   UNL A   1      42.509  35.601  33.485  1.00  0.00    -0.015 A 
ATOM     21  C   UNL A   1      43.939  37.973  37.855  1.00  0.00     0.044 C 
ATOM     22  C   UNL A   1      43.614  37.235  36.582  1.00  0.00    -0.051 A 
ATOM     23  C   UNL A   1      43.696  38.226  35.159  1.00  0.00     0.004 A 
ATOM     24  C   UNL A   1      43.012  35.549  36.559  1.00  0.00     0.004 A 
ATOM     25  C   UNL A   1      43.177  37.524  33.611  1.00  0.00     0.009 A 
ATOM     26  C   UNL A   1      42.446  34.715  35.075  1.00  0.00     0.009 A 
ENDBRANCH  10  20
BRANCH  19  27
ATOM     27  C   UNL A   1      42.440  29.017  32.866  1.00  0.00     0.430 C 
ATOM     28  F   UNL A   1      41.502  28.108  32.430  1.00  0.00    -0.167 F 
ATOM     29  F   UNL A   1      43.595  28.549  32.320  1.00  0.00    -0.167 F 
ATOM     30  F   UNL A   1      42.530  28.864  34.185  1.00  0.00    -0.167 F 
ENDBRANCH  19  27
ENDBRANCH   7   9
ENDBRANCH   6   7
ENDBRANCH   5   6
ENDBRANCH   4   5
ENDBRANCH   3   4
ENDBRANCH   2   3
ENDBRANCH   1   2
BRANCH   1  31
ATOM     31  O   UNL A   1      36.900  34.070  30.648  1.00  0.00    -0.376 OA
BRANCH  31  32
ATOM     32  C   UNL A   1      36.991  33.248  29.524  1.00  0.00     0.202 C 
BRANCH  32  33
ATOM     33  C   UNL A   1      35.837  32.260  29.488  1.00  0.00     0.261 C 
BRANCH  33  34
ATOM     34  O   UNL A   1      36.255  30.924  29.109  1.00  0.00    -0.460 OA
BRANCH  34  35
ATOM     35  C   UNL A   1      36.611  30.044  30.105  1.00  0.00     0.338 C 
ATOM     36  O   UNL A   1      35.890  29.800  31.057  1.00  0.00    -0.246 OA
BRANCH  35  37
ATOM     37  C   UNL A   1      37.793  29.238  29.723  1.00  0.00     0.060 A 
ATOM     38  C   UNL A   1      38.295  28.091  30.314  1.00  0.00     0.016 A 
ATOM     39  C   UNL A   1      38.443  29.586  28.590  1.00  0.00     0.016 A 
ATOM     40  C   UNL A   1      39.680  27.648  30.034  1.00  0.00     0.010 A 
ATOM     41  C   UNL A   1      39.702  28.998  28.376  1.00  0.00     0.010 A 
ATOM     42  C   UNL A   1      40.628  28.219  29.250  1.00  0.00    -0.014 A 
BRANCH  42  43
ATOM     43  C   UNL A   1      42.481  27.810  29.080  1.00  0.00     0.031 A 
ATOM     44  C   UNL A   1      43.878  29.075  28.873  1.00  0.00     0.074 A 
ATOM     45  C   UNL A   1      43.088  26.593  29.295  1.00  0.00     0.049 A 
ATOM     46  N   UNL A   1      45.142  28.871  28.639  1.00  0.00    -0.248 NA
ATOM     47  C   UNL A   1      43.735  30.707  28.753  1.00  0.00     0.031 C 
ATOM     48  C   UNL A   1      44.512  26.311  29.549  1.00  0.00     0.029 A 
ATOM     49  N   UNL A   1      42.570  25.283  29.352  1.00  0.00    -0.354 N 
ATOM     50  C   UNL A   1      45.791  30.110  28.511  1.00  0.00     0.074 A 
ATOM     51  C   UNL A   1      44.870  31.136  28.275  1.00  0.00     0.031 C 
ATOM     52  C   UNL A   1      44.756  25.003  29.342  1.00  0.00     0.029 A 
ATOM     53  C   UNL A   1      43.539  24.446  28.781  1.00  0.00     0.049 A 
ATOM     54  H   UNL A   1      41.700  25.011  29.720  1.00  0.00     0.167 HD
ATOM     55  C   UNL A   1      47.105  30.243  28.778  1.00  0.00     0.037 A 
ATOM     56  C   UNL A   1      43.360  23.920  27.529  1.00  0.00     0.037 A 
ATOM     57  C   UNL A   1      47.705  28.952  28.540  1.00  0.00     0.049 A 
ATOM     58  C   UNL A   1      44.521  24.402  26.574  1.00  0.00     0.074 A 
ATOM     59  C   UNL A   1      48.041  27.865  29.317  1.00  0.00     0.029 A 
ATOM     60  N   UNL A   1      47.529  28.462  27.261  1.00  0.00    -0.354 N 
ATOM     61  N   UNL A   1      45.520  25.185  26.934  1.00  0.00    -0.248 NA
ATOM     62  C   UNL A   1      44.664  24.050  25.158  1.00  0.00     0.031 C 
ATOM     63  C   UNL A   1      47.963  26.702  28.475  1.00  0.00     0.029 A 
ATOM     64  C   UNL A   1      47.618  27.094  27.189  1.00  0.00     0.049 A 
ATOM     65  H   UNL A   1      47.356  29.036  26.481  1.00  0.00     0.167 HD
ATOM     66  C   UNL A   1      46.291  25.551  25.852  1.00  0.00     0.074 A 
ATOM     67  C   UNL A   1      45.727  24.779  24.764  1.00  0.00     0.031 C 
ATOM     68  C   UNL A   1      47.304  26.480  25.896  1.00  0.00     0.037 A 
BRANCH  55  69
ATOM     69  C   UNL A   1      47.724  31.498  29.383  1.00  0.00     0.058 A 
ATOM     70  C   UNL A   1      48.201  32.469  28.492  1.00  0.00     0.135 A 
ATOM     71  C   UNL A   1      48.051  31.762  30.751  1.00  0.00     0.135 A 
ATOM     72  F   UNL A   1      47.967  32.365  27.176  1.00  0.00    -0.206 F 
ATOM     73  C   UNL A   1      48.982  33.558  28.894  1.00  0.00     0.059 A 
ATOM     74  C   UNL A   1      48.793  32.865  31.178  1.00  0.00     0.059 A 
ATOM     75  F   UNL A   1      47.737  30.954  31.770  1.00  0.00    -0.206 F 
ATOM     76  C   UNL A   1      49.285  33.743  30.238  1.00  0.00     0.060 A 
BRANCH  76  77
ATOM     77  S   UNL A   1      50.356  35.103  30.724  1.00  0.00     0.124 S 
ATOM     78  O   UNL A   1      50.147  36.053  29.637  1.00  0.00    -0.237 OA
ATOM     79  O   UNL A   1      49.799  35.477  32.019  1.00  0.00    -0.237 OA
ATOM     80  O   UNL A   1      51.685  34.497  30.771  1.00  0.00    -0.744 OA
ENDBRANCH  76  77
ENDBRANCH  55  69
BRANCH  56  81
ATOM     81  C   UNL A   1      41.762  23.680  27.155  1.00  0.00     0.058 A 
ATOM     82  C   UNL A   1      40.003  24.666  26.902  1.00  0.00     0.135 A 
ATOM     83  C   UNL A   1      41.660  21.926  26.730  1.00  0.00     0.135 A 
ATOM     84  F   UNL A   1      39.672  25.993  27.011  1.00  0.00    -0.206 F 
ATOM     85  C   UNL A   1      38.539  23.832  26.325  1.00  0.00     0.059 A 
ATOM     86  C   UNL A   1      40.067  21.278  26.139  1.00  0.00     0.059 A 
ATOM     87  F   UNL A   1      42.596  21.109  27.215  1.00  0.00    -0.206 F 
ATOM     88  C   UNL A   1      38.629  22.196  25.963  1.00  0.00     0.060 A 
BRANCH  88  89
ATOM     89  S   UNL A   1      37.354  21.307  25.078  1.00  0.00     0.124 S 
ATOM     90  O   UNL A   1      37.944  19.990  24.892  1.00  0.00    -0.237 OA
ATOM     91  O   UNL A   1      36.249  21.395  26.032  1.00  0.00    -0.237 OA
ATOM     92  O   UNL A   1      37.198  22.112  23.869  1.00  0.00    -0.744 OA
ENDBRANCH  88  89
ENDBRANCH  56  81
BRANCH  68  93
ATOM     93  C   UNL A   1      48.138  26.937  24.694  1.00  0.00     0.058 A 
ATOM     94  C   UNL A   1      47.565  27.598  23.602  1.00  0.00     0.135 A 
ATOM     95  C   UNL A   1      49.484  26.521  24.502  1.00  0.00     0.135 A 
ATOM     96  F   UNL A   1      46.303  28.050  23.664  1.00  0.00    -0.206 F 
ATOM     97  C   UNL A   1      48.260  27.796  22.399  1.00  0.00     0.059 A 
ATOM     98  C   UNL A   1      50.161  26.618  23.289  1.00  0.00     0.059 A 
ATOM     99  F   UNL A   1      50.220  26.025  25.511  1.00  0.00    -0.206 F 
ATOM    100  C   UNL A   1      49.545  27.272  22.240  1.00  0.00     0.060 A 
BRANCH 100 101
ATOM    101  S   UNL A   1      50.406  27.452  20.664  1.00  0.00     0.124 S 
ATOM    102  O   UNL A   1      50.996  28.783  20.776  1.00  0.00    -0.237 OA
ATOM    103  O   UNL A   1      51.346  26.337  20.718  1.00  0.00    -0.237 OA
ATOM    104  O   UNL A   1      49.341  27.327  19.673  1.00  0.00    -0.744 OA
ENDBRANCH 100 101
ENDBRANCH  68  93
ENDBRANCH  42  43
ENDBRANCH  35  37
ENDBRANCH  34  35
ENDBRANCH  33  34
ENDBRANCH  32  33
ENDBRANCH  31  32
ENDBRANCH   1  31
TORSDOF 22
ENDMDL
