MODEL 1
REMARK VINA RESULT:      -9.9      0.000      0.000
REMARK SMILES CC[C@@H](C)NC(=O)[C@H](C)[NH+]1CC(n2cc(C(=O)OCCOCCOCCOC(=O)c3ccc(-c4c5nc(c(-c6c(F)cc(S(=O)(=O)[O-])cc6F)c6ccc([nH]6)c(-c6c(F)cc(S(=O)(=O)[O-])cc6F)c6nc(c(-c7c(F)cc(S(=O)(=O)[O-])cc7F)c7ccc4[nH]7)C=C6)C=C5)cc3)nn2)C1
REMARK SMILES IDX 22 1 21 2 20 3 19 4 18 5 16 6 17 7 15 8 13 9 14 10 97 11
REMARK SMILES IDX 96 12 12 13 10 14 11 15 98 16 8 18 9 19 6 20 5 21 7 23 3 24
REMARK SMILES IDX 4 25 2 26 1 27 23 28 24 29 25 30 26 31 27 32 28 33 29 34
REMARK SMILES IDX 30 35 31 36 95 37 32 38 94 39 33 40 34 41 35 42 88 43 36 44
REMARK SMILES IDX 93 45 87 46 89 47 37 48 92 49 86 50 85 51 38 53 72 54 51 55
REMARK SMILES IDX 71 56 52 57 55 58 70 59 90 60 53 61 54 62 69 64 91 65 56 66
REMARK SMILES IDX 39 67 40 68 49 69 41 70 42 71 48 72 50 73 43 74 44 75 45 76
REMARK SMILES IDX 46 77 47 78 73 79 74 80 83 81 75 82 76 83 82 84 84 85 77 86
REMARK SMILES IDX 78 87 79 88 80 89 81 90 57 91 58 92 67 93 59 94 60 95 66 96
REMARK SMILES IDX 68 97 61 98 62 99 63 100 64 101 65 102
REMARK H PARENT 10 17 5 22 89 52 55 63
REMARK Flexibility Score: inf
ROOT
ATOM      1  C   UNL A   1      33.947  34.823  29.701  1.00  0.00     0.188 C 
ENDROOT
BRANCH   1   2
ATOM      2  O   UNL A   1      34.213  34.517  28.338  1.00  0.00    -0.376 OA
BRANCH   2   3
ATOM      3  C   UNL A   1      35.127  33.485  27.996  1.00  0.00     0.202 C 
BRANCH   3   4
ATOM      4  C   UNL A   1      35.099  32.125  28.724  1.00  0.00     0.261 C 
BRANCH   4   5
ATOM      5  O   UNL A   1      34.158  31.165  28.215  1.00  0.00    -0.458 OA
BRANCH   5   6
ATOM      6  C   UNL A   1      34.671  29.964  27.833  1.00  0.00     0.360 C 
ATOM      7  O   UNL A   1      35.752  29.522  28.225  1.00  0.00    -0.244 OA
BRANCH   6   8
ATOM      8  C   UNL A   1      33.766  29.192  26.994  1.00  0.00     0.190 A 
ATOM      9  N   UNL A   1      32.755  27.752  25.721  1.00  0.00    -0.237 N 
ATOM     10  C   UNL A   1      33.928  27.950  26.404  1.00  0.00     0.147 A 
ATOM     11  N   UNL A   1      31.944  28.813  25.840  1.00  0.00    -0.066 NA
ATOM     12  N   UNL A   1      32.546  29.698  26.615  1.00  0.00    -0.123 NA
BRANCH   9  13
ATOM     13  C   UNL A   1      32.349  26.491  25.176  1.00  0.00     0.218 C 
ATOM     14  N   UNL A   1      31.774  24.571  25.804  1.00  0.00    -0.321 N 
ATOM     15  C   UNL A   1      31.039  25.872  25.731  1.00  0.00     0.296 C 
ATOM     16  C   UNL A   1      33.013  25.365  26.005  1.00  0.00     0.296 C 
ATOM     17  H   UNL A   1      31.647  23.882  25.062  1.00  0.00     0.348 HD
BRANCH  14  18
ATOM     18  C   UNL A   1      31.475  23.629  26.936  1.00  0.00     0.271 C 
ATOM     19  C   UNL A   1      30.035  23.113  26.768  1.00  0.00     0.086 C 
BRANCH  18  20
ATOM     20  C   UNL A   1      32.564  22.567  27.294  1.00  0.00     0.278 C 
ATOM     21  N   UNL A   1      33.005  21.602  26.442  1.00  0.00    -0.349 N 
ATOM     22  H   UNL A   1      33.871  21.214  26.702  1.00  0.00     0.163 HD
ATOM     23  O   UNL A   1      33.032  22.446  28.433  1.00  0.00    -0.268 OA
BRANCH  21  24
ATOM     24  C   UNL A   1      32.456  21.024  25.220  1.00  0.00     0.078 C 
ATOM     25  C   UNL A   1      32.694  19.513  25.230  1.00  0.00     0.031 C 
BRANCH  24  26
ATOM     26  C   UNL A   1      33.085  21.701  23.996  1.00  0.00     0.021 C 
ATOM     27  C   UNL A   1      32.055  22.168  22.979  1.00  0.00     0.006 C 
ENDBRANCH  24  26
ENDBRANCH  21  24
ENDBRANCH  18  20
ENDBRANCH  14  18
ENDBRANCH   9  13
ENDBRANCH   6   8
ENDBRANCH   5   6
ENDBRANCH   4   5
ENDBRANCH   3   4
ENDBRANCH   2   3
ENDBRANCH   1   2
BRANCH   1  28
ATOM     28  C   UNL A   1      33.014  35.996  30.083  1.00  0.00     0.188 C 
BRANCH  28  29
ATOM     29  O   UNL A   1      33.216  36.523  31.382  1.00  0.00    -0.376 OA
BRANCH  29  30
ATOM     30  C   UNL A   1      33.331  35.661  32.506  1.00  0.00     0.202 C 
BRANCH  30  31
ATOM     31  C   UNL A   1      34.625  35.562  33.316  1.00  0.00     0.261 C 
BRANCH  31  32
ATOM     32  O   UNL A   1      35.123  34.251  33.471  1.00  0.00    -0.460 OA
BRANCH  32  33
ATOM     33  C   UNL A   1      36.461  34.152  33.347  1.00  0.00     0.338 C 
ATOM     34  O   UNL A   1      37.302  34.704  34.037  1.00  0.00    -0.246 OA
BRANCH  33  35
ATOM     35  C   UNL A   1      36.748  33.290  32.196  1.00  0.00     0.060 A 
ATOM     36  C   UNL A   1      36.614  31.924  32.439  1.00  0.00     0.016 A 
ATOM     37  C   UNL A   1      37.608  33.814  31.221  1.00  0.00     0.016 A 
ATOM     38  C   UNL A   1      37.623  31.114  31.989  1.00  0.00     0.010 A 
ATOM     39  C   UNL A   1      38.640  33.018  30.817  1.00  0.00     0.010 A 
ATOM     40  C   UNL A   1      38.684  31.716  31.308  1.00  0.00    -0.014 A 
BRANCH  40  41
ATOM     41  C   UNL A   1      39.869  30.929  31.086  1.00  0.00     0.031 A 
ATOM     42  C   UNL A   1      40.672  30.801  32.311  1.00  0.00     0.074 A 
ATOM     43  C   UNL A   1      40.092  30.315  29.911  1.00  0.00     0.049 A 
ATOM     44  N   UNL A   1      41.783  31.395  32.592  1.00  0.00    -0.248 NA
ATOM     45  C   UNL A   1      40.028  30.146  33.462  1.00  0.00     0.031 C 
ATOM     46  C   UNL A   1      39.176  30.169  28.774  1.00  0.00     0.029 A 
ATOM     47  N   UNL A   1      41.164  29.577  29.534  1.00  0.00    -0.354 N 
ATOM     48  C   UNL A   1      42.097  30.959  33.874  1.00  0.00     0.074 A 
ATOM     49  C   UNL A   1      40.872  30.471  34.439  1.00  0.00     0.031 C 
ATOM     50  C   UNL A   1      39.645  29.201  27.952  1.00  0.00     0.029 A 
ATOM     51  C   UNL A   1      40.935  28.749  28.444  1.00  0.00     0.049 A 
ATOM     52  H   UNL A   1      42.033  29.625  29.995  1.00  0.00     0.167 HD
ATOM     53  C   UNL A   1      43.386  30.713  34.228  1.00  0.00     0.037 A 
ATOM     54  C   UNL A   1      41.715  27.700  28.077  1.00  0.00     0.037 A 
ATOM     55  C   UNL A   1      44.298  31.350  33.306  1.00  0.00     0.049 A 
ATOM     56  C   UNL A   1      43.041  27.893  28.736  1.00  0.00     0.074 A 
ATOM     57  C   UNL A   1      44.514  32.654  32.901  1.00  0.00     0.029 A 
ATOM     58  N   UNL A   1      44.899  30.553  32.359  1.00  0.00    -0.354 N 
ATOM     59  N   UNL A   1      43.859  28.872  28.449  1.00  0.00    -0.248 NA
ATOM     60  C   UNL A   1      43.242  27.291  30.048  1.00  0.00     0.031 C 
ATOM     61  C   UNL A   1      44.848  32.568  31.518  1.00  0.00     0.029 A 
ATOM     62  C   UNL A   1      44.874  31.219  31.160  1.00  0.00     0.049 A 
ATOM     63  H   UNL A   1      45.283  29.660  32.514  1.00  0.00     0.167 HD
ATOM     64  C   UNL A   1      44.386  29.277  29.670  1.00  0.00     0.074 A 
ATOM     65  C   UNL A   1      44.034  28.212  30.605  1.00  0.00     0.031 C 
ATOM     66  C   UNL A   1      44.798  30.564  29.871  1.00  0.00     0.037 A 
BRANCH  53  67
ATOM     67  C   UNL A   1      43.807  29.559  35.116  1.00  0.00     0.058 A 
ATOM     68  C   UNL A   1      43.493  28.251  34.699  1.00  0.00     0.135 A 
ATOM     69  C   UNL A   1      44.227  29.676  36.463  1.00  0.00     0.135 A 
ATOM     70  F   UNL A   1      43.113  28.009  33.433  1.00  0.00    -0.206 F 
ATOM     71  C   UNL A   1      43.468  27.171  35.581  1.00  0.00     0.059 A 
ATOM     72  C   UNL A   1      44.261  28.605  37.343  1.00  0.00     0.059 A 
ATOM     73  F   UNL A   1      44.540  30.840  37.041  1.00  0.00    -0.206 F 
ATOM     74  C   UNL A   1      43.825  27.369  36.910  1.00  0.00     0.060 A 
BRANCH  74  75
ATOM     75  S   UNL A   1      43.651  26.024  38.089  1.00  0.00     0.124 S 
ATOM     76  O   UNL A   1      42.292  25.574  37.810  1.00  0.00    -0.237 OA
ATOM     77  O   UNL A   1      44.724  25.125  37.679  1.00  0.00    -0.237 OA
ATOM     78  O   UNL A   1      43.846  26.681  39.378  1.00  0.00    -0.744 OA
ENDBRANCH  74  75
ENDBRANCH  53  67
BRANCH  54  79
ATOM     79  C   UNL A   1      41.254  26.395  27.532  1.00  0.00     0.058 A 
ATOM     80  C   UNL A   1      41.951  25.734  26.505  1.00  0.00     0.135 A 
ATOM     81  C   UNL A   1      40.246  25.645  28.175  1.00  0.00     0.135 A 
ATOM     82  F   UNL A   1      42.952  26.355  25.863  1.00  0.00    -0.206 F 
ATOM     83  C   UNL A   1      41.675  24.406  26.149  1.00  0.00     0.059 A 
ATOM     84  C   UNL A   1      39.945  24.329  27.830  1.00  0.00     0.059 A 
ATOM     85  F   UNL A   1      39.573  26.142  29.223  1.00  0.00    -0.206 F 
ATOM     86  C   UNL A   1      40.675  23.707  26.826  1.00  0.00     0.060 A 
BRANCH  86  87
ATOM     87  S   UNL A   1      40.396  21.958  26.463  1.00  0.00     0.124 S 
ATOM     88  O   UNL A   1      40.463  21.359  27.791  1.00  0.00    -0.237 OA
ATOM     89  O   UNL A   1      39.078  21.979  25.837  1.00  0.00    -0.237 OA
ATOM     90  O   UNL A   1      41.501  21.616  25.569  1.00  0.00    -0.744 OA
ENDBRANCH  86  87
ENDBRANCH  54  79
BRANCH  66  91
ATOM     91  C   UNL A   1      44.967  31.455  28.667  1.00  0.00     0.058 A 
ATOM     92  C   UNL A   1      43.980  32.335  28.190  1.00  0.00     0.135 A 
ATOM     93  C   UNL A   1      46.246  31.556  28.100  1.00  0.00     0.135 A 
ATOM     94  F   UNL A   1      42.761  32.370  28.747  1.00  0.00    -0.206 F 
ATOM     95  C   UNL A   1      44.248  33.257  27.176  1.00  0.00     0.059 A 
ATOM     96  C   UNL A   1      46.544  32.487  27.110  1.00  0.00     0.059 A 
ATOM     97  F   UNL A   1      47.246  30.785  28.558  1.00  0.00    -0.206 F 
ATOM     98  C   UNL A   1      45.536  33.332  26.647  1.00  0.00     0.060 A 
BRANCH  98  99
ATOM     99  S   UNL A   1      45.912  34.597  25.413  1.00  0.00     0.124 S 
ATOM    100  O   UNL A   1      45.522  35.822  26.101  1.00  0.00    -0.237 OA
ATOM    101  O   UNL A   1      47.346  34.418  25.201  1.00  0.00    -0.237 OA
ATOM    102  O   UNL A   1      45.074  34.224  24.276  1.00  0.00    -0.744 OA
ENDBRANCH  98  99
ENDBRANCH  66  91
ENDBRANCH  40  41
ENDBRANCH  33  35
ENDBRANCH  32  33
ENDBRANCH  31  32
ENDBRANCH  30  31
ENDBRANCH  29  30
ENDBRANCH  28  29
ENDBRANCH   1  28
TORSDOF 25
ENDMDL
MODEL 2
REMARK VINA RESULT:      -9.5      1.207      2.035
REMARK SMILES CC[C@@H](C)NC(=O)[C@H](C)[NH+]1CC(n2cc(C(=O)OCCOCCOCCOC(=O)c3ccc(-c4c5nc(c(-c6c(F)cc(S(=O)(=O)[O-])cc6F)c6ccc([nH]6)c(-c6c(F)cc(S(=O)(=O)[O-])cc6F)c6nc(c(-c7c(F)cc(S(=O)(=O)[O-])cc7F)c7ccc4[nH]7)C=C6)C=C5)cc3)nn2)C1
REMARK SMILES IDX 22 1 21 2 20 3 19 4 18 5 16 6 17 7 15 8 13 9 14 10 97 11
REMARK SMILES IDX 96 12 12 13 10 14 11 15 98 16 8 18 9 19 6 20 5 21 7 23 3 24
REMARK SMILES IDX 4 25 2 26 1 27 23 28 24 29 25 30 26 31 27 32 28 33 29 34
REMARK SMILES IDX 30 35 31 36 95 37 32 38 94 39 33 40 34 41 35 42 88 43 36 44
REMARK SMILES IDX 93 45 87 46 89 47 37 48 92 49 86 50 85 51 38 53 72 54 51 55
REMARK SMILES IDX 71 56 52 57 55 58 70 59 90 60 53 61 54 62 69 64 91 65 56 66
REMARK SMILES IDX 39 67 40 68 49 69 41 70 42 71 48 72 50 73 43 74 44 75 45 76
REMARK SMILES IDX 46 77 47 78 73 79 74 80 83 81 75 82 76 83 82 84 84 85 77 86
REMARK SMILES IDX 78 87 79 88 80 89 81 90 57 91 58 92 67 93 59 94 60 95 66 96
REMARK SMILES IDX 68 97 61 98 62 99 63 100 64 101 65 102
REMARK H PARENT 10 17 5 22 89 52 55 63
REMARK Flexibility Score: inf
ROOT
ATOM      1  C   UNL A   1      34.119  34.571  29.188  1.00  0.00     0.188 C 
ENDROOT
BRANCH   1   2
ATOM      2  O   UNL A   1      34.423  34.075  27.890  1.00  0.00    -0.376 OA
BRANCH   2   3
ATOM      3  C   UNL A   1      34.903  32.750  27.718  1.00  0.00     0.202 C 
BRANCH   3   4
ATOM      4  C   UNL A   1      34.083  31.538  28.207  1.00  0.00     0.261 C 
BRANCH   4   5
ATOM      5  O   UNL A   1      33.261  30.901  27.215  1.00  0.00    -0.458 OA
BRANCH   5   6
ATOM      6  C   UNL A   1      33.732  29.731  26.703  1.00  0.00     0.360 C 
ATOM      7  O   UNL A   1      34.616  29.056  27.233  1.00  0.00    -0.244 OA
BRANCH   6   8
ATOM      8  C   UNL A   1      33.014  29.291  25.517  1.00  0.00     0.190 A 
ATOM      9  N   UNL A   1      32.316  28.405  23.660  1.00  0.00    -0.237 N 
ATOM     10  C   UNL A   1      33.387  28.408  24.517  1.00  0.00     0.147 A 
ATOM     11  N   UNL A   1      31.368  29.259  24.072  1.00  0.00    -0.066 NA
ATOM     12  N   UNL A   1      31.779  29.805  25.205  1.00  0.00    -0.123 NA
BRANCH   9  13
ATOM     13  C   UNL A   1      32.126  27.441  22.618  1.00  0.00     0.218 C 
ATOM     14  N   UNL A   1      32.390  25.391  22.248  1.00  0.00    -0.321 N 
ATOM     15  C   UNL A   1      31.335  26.157  22.981  1.00  0.00     0.296 C 
ATOM     16  C   UNL A   1      33.335  26.475  22.621  1.00  0.00     0.296 C 
ATOM     17  H   UNL A   1      32.214  25.088  21.290  1.00  0.00     0.348 HD
BRANCH  14  18
ATOM     18  C   UNL A   1      32.796  24.038  22.761  1.00  0.00     0.271 C 
ATOM     19  C   UNL A   1      33.234  23.178  21.562  1.00  0.00     0.086 C 
BRANCH  18  20
ATOM     20  C   UNL A   1      33.712  23.995  24.028  1.00  0.00     0.278 C 
ATOM     21  N   UNL A   1      33.250  23.994  25.309  1.00  0.00    -0.349 N 
ATOM     22  H   UNL A   1      33.911  23.675  25.964  1.00  0.00     0.163 HD
ATOM     23  O   UNL A   1      34.944  24.078  23.966  1.00  0.00    -0.268 OA
BRANCH  21  24
ATOM     24  C   UNL A   1      31.975  24.368  25.909  1.00  0.00     0.078 C 
ATOM     25  C   UNL A   1      32.101  25.767  26.518  1.00  0.00     0.031 C 
BRANCH  24  26
ATOM     26  C   UNL A   1      31.562  23.319  26.949  1.00  0.00     0.021 C 
ATOM     27  C   UNL A   1      30.133  22.830  26.766  1.00  0.00     0.006 C 
ENDBRANCH  24  26
ENDBRANCH  21  24
ENDBRANCH  18  20
ENDBRANCH  14  18
ENDBRANCH   9  13
ENDBRANCH   6   8
ENDBRANCH   5   6
ENDBRANCH   4   5
ENDBRANCH   3   4
ENDBRANCH   2   3
ENDBRANCH   1   2
BRANCH   1  28
ATOM     28  C   UNL A   1      33.488  35.970  29.376  1.00  0.00     0.188 C 
BRANCH  28  29
ATOM     29  O   UNL A   1      33.244  36.341  30.720  1.00  0.00    -0.376 OA
BRANCH  29  30
ATOM     30  C   UNL A   1      32.702  35.407  31.645  1.00  0.00     0.202 C 
BRANCH  30  31
ATOM     31  C   UNL A   1      33.521  34.869  32.819  1.00  0.00     0.261 C 
BRANCH  31  32
ATOM     32  O   UNL A   1      34.156  33.633  32.576  1.00  0.00    -0.460 OA
BRANCH  32  33
ATOM     33  C   UNL A   1      35.485  33.642  32.797  1.00  0.00     0.338 C 
ATOM     34  O   UNL A   1      36.056  34.034  33.801  1.00  0.00    -0.246 OA
BRANCH  33  35
ATOM     35  C   UNL A   1      36.150  33.135  31.592  1.00  0.00     0.060 A 
ATOM     36  C   UNL A   1      35.945  31.779  31.337  1.00  0.00     0.016 A 
ATOM     37  C   UNL A   1      37.289  33.831  31.167  1.00  0.00     0.016 A 
ATOM     38  C   UNL A   1      37.049  31.039  31.009  1.00  0.00     0.010 A 
ATOM     39  C   UNL A   1      38.399  33.087  30.891  1.00  0.00     0.010 A 
ATOM     40  C   UNL A   1      38.277  31.700  30.934  1.00  0.00    -0.014 A 
BRANCH  40  41
ATOM     41  C   UNL A   1      39.469  30.896  30.873  1.00  0.00     0.031 A 
ATOM     42  C   UNL A   1      40.116  30.786  32.190  1.00  0.00     0.074 A 
ATOM     43  C   UNL A   1      39.823  30.252  29.747  1.00  0.00     0.049 A 
ATOM     44  N   UNL A   1      41.194  31.373  32.591  1.00  0.00    -0.248 NA
ATOM     45  C   UNL A   1      39.328  30.164  33.267  1.00  0.00     0.031 C 
ATOM     46  C   UNL A   1      39.050  30.092  28.511  1.00  0.00     0.029 A 
ATOM     47  N   UNL A   1      40.922  29.494  29.518  1.00  0.00    -0.354 N 
ATOM     48  C   UNL A   1      41.344  30.962  33.910  1.00  0.00     0.074 A 
ATOM     49  C   UNL A   1      40.053  30.501  34.333  1.00  0.00     0.031 C 
ATOM     50  C   UNL A   1      39.601  29.101  27.772  1.00  0.00     0.029 A 
ATOM     51  C   UNL A   1      40.816  28.645  28.426  1.00  0.00     0.049 A 
ATOM     52  H   UNL A   1      41.730  29.542  30.080  1.00  0.00     0.167 HD
ATOM     53  C   UNL A   1      42.577  30.709  34.422  1.00  0.00     0.037 A 
ATOM     54  C   UNL A   1      41.620  27.579  28.179  1.00  0.00     0.037 A 
ATOM     55  C   UNL A   1      43.603  31.315  33.605  1.00  0.00     0.049 A 
ATOM     56  C   UNL A   1      42.858  27.772  28.989  1.00  0.00     0.074 A 
ATOM     57  C   UNL A   1      43.885  32.607  33.202  1.00  0.00     0.029 A 
ATOM     58  N   UNL A   1      44.303  30.490  32.754  1.00  0.00    -0.354 N 
ATOM     59  N   UNL A   1      43.719  28.734  28.783  1.00  0.00    -0.248 NA
ATOM     60  C   UNL A   1      42.891  27.196  30.328  1.00  0.00     0.031 C 
ATOM     61  C   UNL A   1      44.382  32.486  31.872  1.00  0.00     0.029 A 
ATOM     62  C   UNL A   1      44.432  31.129  31.548  1.00  0.00     0.049 A 
ATOM     63  H   UNL A   1      44.652  29.596  32.974  1.00  0.00     0.167 HD
ATOM     64  C   UNL A   1      44.100  29.160  30.050  1.00  0.00     0.074 A 
ATOM     65  C   UNL A   1      43.623  28.121  30.957  1.00  0.00     0.031 C 
ATOM     66  C   UNL A   1      44.503  30.447  30.272  1.00  0.00     0.037 A 
BRANCH  53  67
ATOM     67  C   UNL A   1      42.871  29.571  35.378  1.00  0.00     0.058 A 
ATOM     68  C   UNL A   1      43.631  29.851  36.531  1.00  0.00     0.135 A 
ATOM     69  C   UNL A   1      42.708  28.195  35.086  1.00  0.00     0.135 A 
ATOM     70  F   UNL A   1      43.828  31.118  36.930  1.00  0.00    -0.206 F 
ATOM     71  C   UNL A   1      44.285  28.855  37.256  1.00  0.00     0.059 A 
ATOM     72  C   UNL A   1      43.306  27.186  35.825  1.00  0.00     0.059 A 
ATOM     73  F   UNL A   1      42.043  27.741  34.019  1.00  0.00    -0.206 F 
ATOM     74  C   UNL A   1      44.139  27.526  36.872  1.00  0.00     0.060 A 
BRANCH  74  75
ATOM     75  S   UNL A   1      45.096  26.250  37.699  1.00  0.00     0.124 S 
ATOM     76  O   UNL A   1      45.700  27.007  38.789  1.00  0.00    -0.237 OA
ATOM     77  O   UNL A   1      44.061  25.294  38.073  1.00  0.00    -0.237 OA
ATOM     78  O   UNL A   1      46.017  25.795  36.660  1.00  0.00    -0.744 OA
ENDBRANCH  74  75
ENDBRANCH  53  67
BRANCH  54  79
ATOM     79  C   UNL A   1      41.209  26.268  27.608  1.00  0.00     0.058 A 
ATOM     80  C   UNL A   1      41.965  25.624  26.613  1.00  0.00     0.135 A 
ATOM     81  C   UNL A   1      40.188  25.496  28.202  1.00  0.00     0.135 A 
ATOM     82  F   UNL A   1      42.982  26.267  26.020  1.00  0.00    -0.206 F 
ATOM     83  C   UNL A   1      41.732  24.292  26.241  1.00  0.00     0.059 A 
ATOM     84  C   UNL A   1      39.928  24.176  27.840  1.00  0.00     0.059 A 
ATOM     85  F   UNL A   1      39.458  25.976  29.219  1.00  0.00    -0.206 F 
ATOM     86  C   UNL A   1      40.716  23.572  26.869  1.00  0.00     0.060 A 
BRANCH  86  87
ATOM     87  S   UNL A   1      40.488  21.819  26.488  1.00  0.00     0.124 S 
ATOM     88  O   UNL A   1      39.190  21.822  25.820  1.00  0.00    -0.237 OA
ATOM     89  O   UNL A   1      41.641  21.534  25.641  1.00  0.00    -0.237 OA
ATOM     90  O   UNL A   1      40.510  21.179  27.801  1.00  0.00    -0.744 OA
ENDBRANCH  86  87
ENDBRANCH  54  79
BRANCH  66  91
ATOM     91  C   UNL A   1      44.829  31.308  29.080  1.00  0.00     0.058 A 
ATOM     92  C   UNL A   1      43.881  32.063  28.367  1.00  0.00     0.135 A 
ATOM     93  C   UNL A   1      46.181  31.524  28.775  1.00  0.00     0.135 A 
ATOM     94  F   UNL A   1      42.576  31.990  28.666  1.00  0.00    -0.206 F 
ATOM     95  C   UNL A   1      44.261  32.973  27.378  1.00  0.00     0.059 A 
ATOM     96  C   UNL A   1      46.585  32.446  27.815  1.00  0.00     0.059 A 
ATOM     97  F   UNL A   1      47.136  30.878  29.466  1.00  0.00    -0.206 F 
ATOM     98  C   UNL A   1      45.617  33.164  27.114  1.00  0.00     0.060 A 
BRANCH  98  99
ATOM     99  S   UNL A   1      46.115  34.418  25.913  1.00  0.00     0.124 S 
ATOM    100  O   UNL A   1      45.967  35.651  26.678  1.00  0.00    -0.237 OA
ATOM    101  O   UNL A   1      47.487  34.029  25.597  1.00  0.00    -0.237 OA
ATOM    102  O   UNL A   1      45.161  34.242  24.820  1.00  0.00    -0.744 OA
ENDBRANCH  98  99
ENDBRANCH  66  91
ENDBRANCH  40  41
ENDBRANCH  33  35
ENDBRANCH  32  33
ENDBRANCH  31  32
ENDBRANCH  30  31
ENDBRANCH  29  30
ENDBRANCH  28  29
ENDBRANCH   1  28
TORSDOF 25
ENDMDL
MODEL 3
REMARK VINA RESULT:      -9.4      2.212      3.059
REMARK SMILES CC[C@@H](C)NC(=O)[C@H](C)[NH+]1CC(n2cc(C(=O)OCCOCCOCCOC(=O)c3ccc(-c4c5nc(c(-c6c(F)cc(S(=O)(=O)[O-])cc6F)c6ccc([nH]6)c(-c6c(F)cc(S(=O)(=O)[O-])cc6F)c6nc(c(-c7c(F)cc(S(=O)(=O)[O-])cc7F)c7ccc4[nH]7)C=C6)C=C5)cc3)nn2)C1
REMARK SMILES IDX 22 1 21 2 20 3 19 4 18 5 16 6 17 7 15 8 13 9 14 10 97 11
REMARK SMILES IDX 96 12 12 13 10 14 11 15 98 16 8 18 9 19 6 20 5 21 7 23 3 24
REMARK SMILES IDX 4 25 2 26 1 27 23 28 24 29 25 30 26 31 27 32 28 33 29 34
REMARK SMILES IDX 30 35 31 36 95 37 32 38 94 39 33 40 34 41 35 42 88 43 36 44
REMARK SMILES IDX 93 45 87 46 89 47 37 48 92 49 86 50 85 51 38 53 72 54 51 55
REMARK SMILES IDX 71 56 52 57 55 58 70 59 90 60 53 61 54 62 69 64 91 65 56 66
REMARK SMILES IDX 39 67 40 68 49 69 41 70 42 71 48 72 50 73 43 74 44 75 45 76
REMARK SMILES IDX 46 77 47 78 73 79 74 80 83 81 75 82 76 83 82 84 84 85 77 86
REMARK SMILES IDX 78 87 79 88 80 89 81 90 57 91 58 92 67 93 59 94 60 95 66 96
REMARK SMILES IDX 68 97 61 98 62 99 63 100 64 101 65 102
REMARK H PARENT 10 17 5 22 89 52 55 63
REMARK Flexibility Score: inf
ROOT
ATOM      1  C   UNL A   1      32.902  34.386  28.004  1.00  0.00     0.188 C 
ENDROOT
BRANCH   1   2
ATOM      2  O   UNL A   1      32.994  32.974  27.863  1.00  0.00    -0.376 OA
BRANCH   2   3
ATOM      3  C   UNL A   1      32.016  32.257  27.124  1.00  0.00     0.202 C 
BRANCH   3   4
ATOM      4  C   UNL A   1      32.162  30.742  26.871  1.00  0.00     0.261 C 
BRANCH   4   5
ATOM      5  O   UNL A   1      32.426  30.360  25.511  1.00  0.00    -0.458 OA
BRANCH   5   6
ATOM      6  C   UNL A   1      31.605  29.413  24.981  1.00  0.00     0.360 C 
ATOM      7  O   UNL A   1      30.610  29.669  24.301  1.00  0.00    -0.244 OA
BRANCH   6   8
ATOM      8  C   UNL A   1      32.074  28.054  25.204  1.00  0.00     0.190 A 
ATOM      9  N   UNL A   1      32.371  25.965  25.720  1.00  0.00    -0.237 N 
ATOM     10  C   UNL A   1      31.425  26.957  25.749  1.00  0.00     0.147 A 
ATOM     11  N   UNL A   1      33.535  26.423  25.237  1.00  0.00    -0.066 NA
ATOM     12  N   UNL A   1      33.368  27.695  24.917  1.00  0.00    -0.123 NA
BRANCH   9  13
ATOM     13  C   UNL A   1      32.083  24.577  25.930  1.00  0.00     0.218 C 
ATOM     14  N   UNL A   1      32.621  22.687  25.192  1.00  0.00    -0.321 N 
ATOM     15  C   UNL A   1      33.292  23.629  26.140  1.00  0.00     0.296 C 
ATOM     16  C   UNL A   1      32.011  23.881  24.551  1.00  0.00     0.296 C 
ATOM     17  H   UNL A   1      32.088  21.899  25.562  1.00  0.00     0.348 HD
BRANCH  14  18
ATOM     18  C   UNL A   1      33.467  21.870  24.256  1.00  0.00     0.271 C 
ATOM     19  C   UNL A   1      32.543  20.921  23.473  1.00  0.00     0.086 C 
BRANCH  18  20
ATOM     20  C   UNL A   1      34.561  22.624  23.432  1.00  0.00     0.278 C 
ATOM     21  N   UNL A   1      35.879  22.672  23.770  1.00  0.00    -0.349 N 
ATOM     22  H   UNL A   1      36.467  22.923  23.021  1.00  0.00     0.163 HD
ATOM     23  O   UNL A   1      34.291  23.343  22.462  1.00  0.00    -0.268 OA
BRANCH  21  24
ATOM     24  C   UNL A   1      36.599  22.426  25.013  1.00  0.00     0.078 C 
ATOM     25  C   UNL A   1      37.420  23.667  25.370  1.00  0.00     0.031 C 
BRANCH  24  26
ATOM     26  C   UNL A   1      37.475  21.175  24.869  1.00  0.00     0.021 C 
ATOM     27  C   UNL A   1      36.679  19.881  24.926  1.00  0.00     0.006 C 
ENDBRANCH  24  26
ENDBRANCH  21  24
ENDBRANCH  18  20
ENDBRANCH  14  18
ENDBRANCH   9  13
ENDBRANCH   6   8
ENDBRANCH   5   6
ENDBRANCH   4   5
ENDBRANCH   3   4
ENDBRANCH   2   3
ENDBRANCH   1   2
BRANCH   1  28
ATOM     28  C   UNL A   1      33.582  35.111  29.188  1.00  0.00     0.188 C 
BRANCH  28  29
ATOM     29  O   UNL A   1      33.329  34.546  30.461  1.00  0.00    -0.376 OA
BRANCH  29  30
ATOM     30  C   UNL A   1      34.307  34.606  31.491  1.00  0.00     0.202 C 
BRANCH  30  31
ATOM     31  C   UNL A   1      35.589  33.774  31.433  1.00  0.00     0.261 C 
BRANCH  31  32
ATOM     32  O   UNL A   1      35.579  32.743  30.469  1.00  0.00    -0.460 OA
BRANCH  32  33
ATOM     33  C   UNL A   1      35.843  31.520  30.968  1.00  0.00     0.338 C 
ATOM     34  O   UNL A   1      35.561  31.107  32.080  1.00  0.00    -0.246 OA
BRANCH  33  35
ATOM     35  C   UNL A   1      36.578  30.763  29.949  1.00  0.00     0.060 A 
ATOM     36  C   UNL A   1      36.717  29.402  30.217  1.00  0.00     0.016 A 
ATOM     37  C   UNL A   1      37.490  31.487  29.169  1.00  0.00     0.016 A 
ATOM     38  C   UNL A   1      37.962  28.861  30.041  1.00  0.00     0.010 A 
ATOM     39  C   UNL A   1      38.744  30.964  29.042  1.00  0.00     0.010 A 
ATOM     40  C   UNL A   1      38.979  29.705  29.588  1.00  0.00    -0.014 A 
BRANCH  40  41
ATOM     41  C   UNL A   1      40.334  29.226  29.671  1.00  0.00     0.031 A 
ATOM     42  C   UNL A   1      40.794  29.141  31.066  1.00  0.00     0.074 A 
ATOM     43  C   UNL A   1      40.999  28.809  28.579  1.00  0.00     0.049 A 
ATOM     44  N   UNL A   1      41.615  29.928  31.676  1.00  0.00    -0.248 NA
ATOM     45  C   UNL A   1      40.047  28.237  31.957  1.00  0.00     0.031 C 
ATOM     46  C   UNL A   1      40.477  28.595  27.225  1.00  0.00     0.029 A 
ATOM     47  N   UNL A   1      42.277  28.370  28.485  1.00  0.00    -0.354 N 
ATOM     48  C   UNL A   1      41.677  29.431  32.972  1.00  0.00     0.074 A 
ATOM     49  C   UNL A   1      40.501  28.627  33.146  1.00  0.00     0.031 C 
ATOM     50  C   UNL A   1      41.363  27.850  26.524  1.00  0.00     0.029 A 
ATOM     51  C   UNL A   1      42.549  27.639  27.337  1.00  0.00     0.049 A 
ATOM     52  H   UNL A   1      42.957  28.555  29.173  1.00  0.00     0.167 HD
ATOM     53  C   UNL A   1      42.848  29.435  33.662  1.00  0.00     0.037 A 
ATOM     54  C   UNL A   1      43.627  26.833  27.156  1.00  0.00     0.037 A 
ATOM     55  C   UNL A   1      43.789  30.354  33.065  1.00  0.00     0.049 A 
ATOM     56  C   UNL A   1      44.646  27.237  28.170  1.00  0.00     0.074 A 
ATOM     57  C   UNL A   1      43.783  31.710  32.798  1.00  0.00     0.029 A 
ATOM     58  N   UNL A   1      44.791  29.818  32.289  1.00  0.00    -0.354 N 
ATOM     59  N   UNL A   1      45.250  28.396  28.170  1.00  0.00    -0.248 NA
ATOM     60  C   UNL A   1      44.634  26.550  29.456  1.00  0.00     0.031 C 
ATOM     61  C   UNL A   1      44.479  31.854  31.563  1.00  0.00     0.029 A 
ATOM     62  C   UNL A   1      44.922  30.591  31.164  1.00  0.00     0.049 A 
ATOM     63  H   UNL A   1      45.323  29.018  32.504  1.00  0.00     0.167 HD
ATOM     64  C   UNL A   1      45.325  28.768  29.508  1.00  0.00     0.074 A 
ATOM     65  C   UNL A   1      45.007  27.555  30.255  1.00  0.00     0.031 C 
ATOM     66  C   UNL A   1      45.347  30.083  29.876  1.00  0.00     0.037 A 
BRANCH  53  67
ATOM     67  C   UNL A   1      43.286  28.309  34.578  1.00  0.00     0.058 A 
ATOM     68  C   UNL A   1      43.651  28.632  35.900  1.00  0.00     0.135 A 
ATOM     69  C   UNL A   1      43.644  27.006  34.157  1.00  0.00     0.135 A 
ATOM     70  F   UNL A   1      43.337  29.828  36.424  1.00  0.00    -0.206 F 
ATOM     71  C   UNL A   1      44.424  27.782  36.690  1.00  0.00     0.059 A 
ATOM     72  C   UNL A   1      44.366  26.124  34.947  1.00  0.00     0.059 A 
ATOM     73  F   UNL A   1      43.404  26.534  32.929  1.00  0.00    -0.206 F 
ATOM     74  C   UNL A   1      44.802  26.541  36.189  1.00  0.00     0.060 A 
BRANCH  74  75
ATOM     75  S   UNL A   1      45.923  25.502  37.133  1.00  0.00     0.124 S 
ATOM     76  O   UNL A   1      46.973  26.454  37.477  1.00  0.00    -0.237 OA
ATOM     77  O   UNL A   1      45.069  25.060  38.230  1.00  0.00    -0.237 OA
ATOM     78  O   UNL A   1      46.300  24.463  36.180  1.00  0.00    -0.744 OA
ENDBRANCH  74  75
ENDBRANCH  53  67
BRANCH  54  79
ATOM     79  C   UNL A   1      43.653  25.528  26.443  1.00  0.00     0.058 A 
ATOM     80  C   UNL A   1      44.521  25.292  25.363  1.00  0.00     0.135 A 
ATOM     81  C   UNL A   1      42.992  24.393  26.962  1.00  0.00     0.135 A 
ATOM     82  F   UNL A   1      45.221  26.304  24.829  1.00  0.00    -0.206 F 
ATOM     83  C   UNL A   1      44.732  24.008  24.840  1.00  0.00     0.059 A 
ATOM     84  C   UNL A   1      43.175  23.110  26.450  1.00  0.00     0.059 A 
ATOM     85  F   UNL A   1      42.206  24.483  28.044  1.00  0.00    -0.206 F 
ATOM     86  C   UNL A   1      44.061  22.920  25.399  1.00  0.00     0.060 A 
BRANCH  86  87
ATOM     87  S   UNL A   1      44.420  21.246  24.816  1.00  0.00     0.124 S 
ATOM     88  O   UNL A   1      43.235  20.514  25.253  1.00  0.00    -0.237 OA
ATOM     89  O   UNL A   1      44.555  21.442  23.376  1.00  0.00    -0.237 OA
ATOM     90  O   UNL A   1      45.656  20.901  25.513  1.00  0.00    -0.744 OA
ENDBRANCH  86  87
ENDBRANCH  54  79
BRANCH  66  91
ATOM     91  C   UNL A   1      45.607  31.118  28.812  1.00  0.00     0.058 A 
ATOM     92  C   UNL A   1      44.616  31.648  27.966  1.00  0.00     0.135 A 
ATOM     93  C   UNL A   1      46.869  31.730  28.784  1.00  0.00     0.135 A 
ATOM     94  F   UNL A   1      43.359  31.186  28.004  1.00  0.00    -0.206 F 
ATOM     95  C   UNL A   1      44.878  32.723  27.114  1.00  0.00     0.059 A 
ATOM     96  C   UNL A   1      47.144  32.820  27.965  1.00  0.00     0.059 A 
ATOM     97  F   UNL A   1      47.837  31.307  29.615  1.00  0.00    -0.206 F 
ATOM     98  C   UNL A   1      46.144  33.308  27.126  1.00  0.00     0.060 A 
BRANCH  98  99
ATOM     99  S   UNL A   1      46.453  34.766  26.105  1.00  0.00     0.124 S 
ATOM    100  O   UNL A   1      47.590  34.340  25.297  1.00  0.00    -0.237 OA
ATOM    101  O   UNL A   1      45.191  34.926  25.389  1.00  0.00    -0.237 OA
ATOM    102  O   UNL A   1      46.738  35.814  27.083  1.00  0.00    -0.744 OA
ENDBRANCH  98  99
ENDBRANCH  66  91
ENDBRANCH  40  41
ENDBRANCH  33  35
ENDBRANCH  32  33
ENDBRANCH  31  32
ENDBRANCH  30  31
ENDBRANCH  29  30
ENDBRANCH  28  29
ENDBRANCH   1  28
TORSDOF 25
ENDMDL
