MODEL 1
REMARK VINA RESULT:     -10.6      0.000      0.000
REMARK SMILES COc1ccc(-c2ncn(CC(=O)OCCOCCOCCOC(=O)c3ccc(-c4c5nc(c(-c6c(F)cc(S(=O)(=O)[O-])cc6F)c6ccc([nH]6)c(-c6c(F)cc(S(=O)(=O)[O-])cc6F)c6nc(c(-c7c(F)cc(S(=O)(=O)[O-])cc7F)c7ccc4[nH]7)C=C6)C=C5)cc3)c2-c2ccc(OC)cc2)cc1
REMARK SMILES IDX 18 1 17 2 16 3 15 4 14 5 12 6 13 7 11 8 10 9 7 10 8 11 92 12
REMARK SMILES IDX 9 13 6 14 3 15 4 16 102 17 5 18 101 19 2 20 1 21 93 22 94 23
REMARK SMILES IDX 100 24 95 25 99 26 96 27 97 28 98 29 19 30 20 31 21 32 22 33
REMARK SMILES IDX 23 34 24 35 25 36 26 37 27 38 91 39 28 40 90 41 29 42 30 43
REMARK SMILES IDX 31 44 84 45 32 46 89 47 83 48 85 49 33 50 88 51 82 52 81 53
REMARK SMILES IDX 34 55 68 56 47 57 67 58 48 59 51 60 66 61 86 62 49 63 50 64
REMARK SMILES IDX 65 66 87 67 52 68 35 69 36 70 45 71 37 72 38 73 44 74 46 75
REMARK SMILES IDX 39 76 40 77 41 78 42 79 43 80 69 81 70 82 79 83 71 84 72 85
REMARK SMILES IDX 78 86 80 87 73 88 74 89 75 90 76 91 77 92 53 93 54 94 63 95
REMARK SMILES IDX 55 96 56 97 62 98 64 99 57 100 58 101 59 102 60 103 61 104
REMARK H PARENT 85 54 51 65
REMARK Flexibility Score: inf
ROOT
ATOM      1  C   UNL A   1      30.547  28.854  23.726  1.00  0.00     0.188 C 
ENDROOT
BRANCH   1   2
ATOM      2  O   UNL A   1      30.647  27.961  22.633  1.00  0.00    -0.376 OA
BRANCH   2   3
ATOM      3  C   UNL A   1      30.641  26.583  22.974  1.00  0.00     0.202 C 
BRANCH   3   4
ATOM      4  C   UNL A   1      30.184  26.195  24.403  1.00  0.00     0.261 C 
BRANCH   4   5
ATOM      5  O   UNL A   1      31.245  25.832  25.341  1.00  0.00    -0.462 OA
BRANCH   5   6
ATOM      6  C   UNL A   1      32.527  25.854  24.899  1.00  0.00     0.326 C 
ATOM      7  O   UNL A   1      33.381  26.575  25.417  1.00  0.00    -0.250 OA
BRANCH   6   8
ATOM      8  C   UNL A   1      32.908  24.964  23.714  1.00  0.00     0.246 C 
BRANCH   8   9
ATOM      9  N   UNL A   1      32.631  23.524  23.704  1.00  0.00    -0.319 N 
ATOM     10  C   UNL A   1      32.677  21.326  23.658  1.00  0.00     0.096 A 
ATOM     11  N   UNL A   1      31.478  21.718  23.105  1.00  0.00    -0.236 NA
ATOM     12  C   UNL A   1      33.500  22.436  23.935  1.00  0.00     0.076 A 
ATOM     13  C   UNL A   1      31.493  23.023  23.123  1.00  0.00     0.201 A 
BRANCH  10  14
ATOM     14  C   UNL A   1      32.858  19.928  24.041  1.00  0.00     0.003 A 
ATOM     15  C   UNL A   1      33.254  17.274  24.939  1.00  0.00     0.118 A 
ATOM     16  C   UNL A   1      33.033  18.300  25.851  1.00  0.00     0.047 A 
ATOM     17  C   UNL A   1      33.184  17.557  23.572  1.00  0.00     0.047 A 
ATOM     18  C   UNL A   1      32.806  19.606  25.404  1.00  0.00     0.014 A 
ATOM     19  C   UNL A   1      32.988  18.880  23.124  1.00  0.00     0.014 A 
BRANCH  15  20
ATOM     20  O   UNL A   1      33.480  16.046  25.497  1.00  0.00    -0.497 OA
ATOM     21  C   UNL A   1      32.324  15.297  25.863  1.00  0.00     0.278 C 
ENDBRANCH  15  20
ENDBRANCH  10  14
BRANCH  12  22
ATOM     22  C   UNL A   1      34.878  22.529  24.491  1.00  0.00     0.001 A 
ATOM     23  C   UNL A   1      35.136  23.326  25.612  1.00  0.00     0.014 A 
ATOM     24  C   UNL A   1      35.971  21.823  23.971  1.00  0.00     0.014 A 
ATOM     25  C   UNL A   1      36.375  23.379  26.255  1.00  0.00     0.047 A 
ATOM     26  C   UNL A   1      37.245  21.902  24.579  1.00  0.00     0.047 A 
ATOM     27  C   UNL A   1      37.430  22.649  25.740  1.00  0.00     0.118 A 
BRANCH  27  28
ATOM     28  O   UNL A   1      38.675  22.742  26.291  1.00  0.00    -0.497 OA
ATOM     29  C   UNL A   1      39.452  21.558  26.092  1.00  0.00     0.278 C 
ENDBRANCH  27  28
ENDBRANCH  12  22
ENDBRANCH   8   9
ENDBRANCH   6   8
ENDBRANCH   5   6
ENDBRANCH   4   5
ENDBRANCH   3   4
ENDBRANCH   2   3
ENDBRANCH   1   2
BRANCH   1  30
ATOM     30  C   UNL A   1      31.852  29.439  24.301  1.00  0.00     0.188 C 
BRANCH  30  31
ATOM     31  O   UNL A   1      31.802  30.226  25.475  1.00  0.00    -0.376 OA
BRANCH  31  32
ATOM     32  C   UNL A   1      32.614  29.820  26.560  1.00  0.00     0.202 C 
BRANCH  32  33
ATOM     33  C   UNL A   1      33.328  30.942  27.294  1.00  0.00     0.261 C 
BRANCH  33  34
ATOM     34  O   UNL A   1      34.711  30.640  27.485  1.00  0.00    -0.460 OA
BRANCH  34  35
ATOM     35  C   UNL A   1      35.220  31.229  28.591  1.00  0.00     0.338 C 
ATOM     36  O   UNL A   1      34.776  32.173  29.190  1.00  0.00    -0.246 OA
BRANCH  35  37
ATOM     37  C   UNL A   1      36.524  30.693  28.909  1.00  0.00     0.060 A 
ATOM     38  C   UNL A   1      37.464  31.607  29.401  1.00  0.00     0.016 A 
ATOM     39  C   UNL A   1      36.827  29.378  28.565  1.00  0.00     0.016 A 
ATOM     40  C   UNL A   1      38.766  31.203  29.509  1.00  0.00     0.010 A 
ATOM     41  C   UNL A   1      38.126  28.979  28.661  1.00  0.00     0.010 A 
ATOM     42  C   UNL A   1      39.074  29.907  29.098  1.00  0.00    -0.014 A 
BRANCH  42  43
ATOM     43  C   UNL A   1      40.426  29.457  29.266  1.00  0.00     0.031 A 
ATOM     44  C   UNL A   1      40.818  29.332  30.693  1.00  0.00     0.074 A 
ATOM     45  C   UNL A   1      41.111  29.023  28.197  1.00  0.00     0.049 A 
ATOM     46  N   UNL A   1      41.709  30.007  31.338  1.00  0.00    -0.248 NA
ATOM     47  C   UNL A   1      39.953  28.512  31.564  1.00  0.00     0.031 C 
ATOM     48  C   UNL A   1      40.644  28.852  26.817  1.00  0.00     0.029 A 
ATOM     49  N   UNL A   1      42.354  28.496  28.173  1.00  0.00    -0.354 N 
ATOM     50  C   UNL A   1      41.690  29.507  32.638  1.00  0.00     0.074 A 
ATOM     51  C   UNL A   1      40.457  28.784  32.767  1.00  0.00     0.031 C 
ATOM     52  C   UNL A   1      41.496  28.032  26.163  1.00  0.00     0.029 A 
ATOM     53  C   UNL A   1      42.626  27.757  27.029  1.00  0.00     0.049 A 
ATOM     54  H   UNL A   1      43.006  28.623  28.899  1.00  0.00     0.167 HD
ATOM     55  C   UNL A   1      42.813  29.506  33.410  1.00  0.00     0.037 A 
ATOM     56  C   UNL A   1      43.664  26.892  26.921  1.00  0.00     0.037 A 
ATOM     57  C   UNL A   1      43.790  30.426  32.879  1.00  0.00     0.049 A 
ATOM     58  C   UNL A   1      44.648  27.285  27.979  1.00  0.00     0.074 A 
ATOM     59  C   UNL A   1      43.800  31.789  32.645  1.00  0.00     0.029 A 
ATOM     60  N   UNL A   1      44.806  29.907  32.109  1.00  0.00    -0.354 N 
ATOM     61  N   UNL A   1      45.258  28.445  27.994  1.00  0.00    -0.248 NA
ATOM     62  C   UNL A   1      44.549  26.628  29.276  1.00  0.00     0.031 C 
ATOM     63  C   UNL A   1      44.465  31.939  31.393  1.00  0.00     0.029 A 
ATOM     64  C   UNL A   1      44.897  30.678  30.977  1.00  0.00     0.049 A 
ATOM     65  H   UNL A   1      45.365  29.128  32.329  1.00  0.00     0.167 HD
ATOM     66  C   UNL A   1      45.262  28.844  29.327  1.00  0.00     0.074 A 
ATOM     67  C   UNL A   1      44.862  27.653  30.076  1.00  0.00     0.031 C 
ATOM     68  C   UNL A   1      45.294  30.166  29.681  1.00  0.00     0.037 A 
BRANCH  55  69
ATOM     69  C   UNL A   1      43.180  28.406  34.386  1.00  0.00     0.058 A 
ATOM     70  C   UNL A   1      43.495  28.757  35.717  1.00  0.00     0.135 A 
ATOM     71  C   UNL A   1      43.513  27.080  34.023  1.00  0.00     0.135 A 
ATOM     72  F   UNL A   1      43.206  29.980  36.189  1.00  0.00    -0.206 F 
ATOM     73  C   UNL A   1      44.186  27.902  36.575  1.00  0.00     0.059 A 
ATOM     74  C   UNL A   1      44.157  26.196  34.879  1.00  0.00     0.059 A 
ATOM     75  F   UNL A   1      43.317  26.589  32.796  1.00  0.00    -0.206 F 
ATOM     76  C   UNL A   1      44.536  26.631  36.136  1.00  0.00     0.060 A 
BRANCH  76  77
ATOM     77  S   UNL A   1      45.536  25.569  37.189  1.00  0.00     0.124 S 
ATOM     78  O   UNL A   1      45.814  26.456  38.313  1.00  0.00    -0.237 OA
ATOM     79  O   UNL A   1      44.622  24.463  37.455  1.00  0.00    -0.237 OA
ATOM     80  O   UNL A   1      46.680  25.240  36.344  1.00  0.00    -0.744 OA
ENDBRANCH  76  77
ENDBRANCH  55  69
BRANCH  56  81
ATOM     81  C   UNL A   1      43.613  25.553  26.281  1.00  0.00     0.058 A 
ATOM     82  C   UNL A   1      44.499  25.203  25.250  1.00  0.00     0.135 A 
ATOM     83  C   UNL A   1      42.852  24.498  26.830  1.00  0.00     0.135 A 
ATOM     84  F   UNL A   1      45.279  26.140  24.690  1.00  0.00    -0.206 F 
ATOM     85  C   UNL A   1      44.648  23.881  24.814  1.00  0.00     0.059 A 
ATOM     86  C   UNL A   1      42.971  23.178  26.403  1.00  0.00     0.059 A 
ATOM     87  F   UNL A   1      42.022  24.703  27.865  1.00  0.00    -0.206 F 
ATOM     88  C   UNL A   1      43.890  22.871  25.409  1.00  0.00     0.060 A 
BRANCH  88  89
ATOM     89  S   UNL A   1      44.194  21.146  24.966  1.00  0.00     0.124 S 
ATOM     90  O   UNL A   1      44.368  21.232  23.520  1.00  0.00    -0.237 OA
ATOM     91  O   UNL A   1      45.393  20.836  25.737  1.00  0.00    -0.237 OA
ATOM     92  O   UNL A   1      42.980  20.463  25.408  1.00  0.00    -0.744 OA
ENDBRANCH  88  89
ENDBRANCH  56  81
BRANCH  68  93
ATOM     93  C   UNL A   1      45.535  31.198  28.604  1.00  0.00     0.058 A 
ATOM     94  C   UNL A   1      44.513  31.847  27.887  1.00  0.00     0.135 A 
ATOM     95  C   UNL A   1      46.836  31.686  28.429  1.00  0.00     0.135 A 
ATOM     96  F   UNL A   1      43.228  31.528  28.080  1.00  0.00    -0.206 F 
ATOM     97  C   UNL A   1      44.775  32.900  27.007  1.00  0.00     0.059 A 
ATOM     98  C   UNL A   1      47.120  32.756  27.582  1.00  0.00     0.059 A 
ATOM     99  F   UNL A   1      47.850  31.163  29.139  1.00  0.00    -0.206 F 
ATOM    100  C   UNL A   1      46.085  33.349  26.863  1.00  0.00     0.060 A 
BRANCH 100 101
ATOM    101  S   UNL A   1      46.413  34.760  25.784  1.00  0.00     0.124 S 
ATOM    102  O   UNL A   1      45.385  34.608  24.761  1.00  0.00    -0.237 OA
ATOM    103  O   UNL A   1      46.247  35.895  26.689  1.00  0.00    -0.237 OA
ATOM    104  O   UNL A   1      47.784  34.531  25.332  1.00  0.00    -0.744 OA
ENDBRANCH 100 101
ENDBRANCH  68  93
ENDBRANCH  42  43
ENDBRANCH  35  37
ENDBRANCH  34  35
ENDBRANCH  33  34
ENDBRANCH  32  33
ENDBRANCH  31  32
ENDBRANCH  30  31
ENDBRANCH   1  30
TORSDOF 25
ENDMDL
MODEL 2
REMARK VINA RESULT:     -10.3      1.120      3.082
REMARK SMILES COc1ccc(-c2ncn(CC(=O)OCCOCCOCCOC(=O)c3ccc(-c4c5nc(c(-c6c(F)cc(S(=O)(=O)[O-])cc6F)c6ccc([nH]6)c(-c6c(F)cc(S(=O)(=O)[O-])cc6F)c6nc(c(-c7c(F)cc(S(=O)(=O)[O-])cc7F)c7ccc4[nH]7)C=C6)C=C5)cc3)c2-c2ccc(OC)cc2)cc1
REMARK SMILES IDX 18 1 17 2 16 3 15 4 14 5 12 6 13 7 11 8 10 9 7 10 8 11 92 12
REMARK SMILES IDX 9 13 6 14 3 15 4 16 102 17 5 18 101 19 2 20 1 21 93 22 94 23
REMARK SMILES IDX 100 24 95 25 99 26 96 27 97 28 98 29 19 30 20 31 21 32 22 33
REMARK SMILES IDX 23 34 24 35 25 36 26 37 27 38 91 39 28 40 90 41 29 42 30 43
REMARK SMILES IDX 31 44 84 45 32 46 89 47 83 48 85 49 33 50 88 51 82 52 81 53
REMARK SMILES IDX 34 55 68 56 47 57 67 58 48 59 51 60 66 61 86 62 49 63 50 64
REMARK SMILES IDX 65 66 87 67 52 68 35 69 36 70 45 71 37 72 38 73 44 74 46 75
REMARK SMILES IDX 39 76 40 77 41 78 42 79 43 80 69 81 70 82 79 83 71 84 72 85
REMARK SMILES IDX 78 86 80 87 73 88 74 89 75 90 76 91 77 92 53 93 54 94 63 95
REMARK SMILES IDX 55 96 56 97 62 98 64 99 57 100 58 101 59 102 60 103 61 104
REMARK H PARENT 85 54 51 65
REMARK Flexibility Score: inf
ROOT
ATOM      1  C   UNL A   1      32.094  27.819  24.897  1.00  0.00     0.188 C 
ENDROOT
BRANCH   1   2
ATOM      2  O   UNL A   1      31.847  27.881  23.505  1.00  0.00    -0.376 OA
BRANCH   2   3
ATOM      3  C   UNL A   1      32.723  27.109  22.698  1.00  0.00     0.202 C 
BRANCH   3   4
ATOM      4  C   UNL A   1      32.095  26.032  21.776  1.00  0.00     0.261 C 
BRANCH   4   5
ATOM      5  O   UNL A   1      32.187  24.651  22.247  1.00  0.00    -0.462 OA
BRANCH   5   6
ATOM      6  C   UNL A   1      31.352  24.254  23.240  1.00  0.00     0.326 C 
ATOM      7  O   UNL A   1      30.196  23.894  23.013  1.00  0.00    -0.250 OA
BRANCH   6   8
ATOM      8  C   UNL A   1      31.868  24.272  24.680  1.00  0.00     0.246 C 
BRANCH   8   9
ATOM      9  N   UNL A   1      33.292  24.120  24.996  1.00  0.00    -0.319 N 
ATOM     10  C   UNL A   1      35.296  23.478  25.635  1.00  0.00     0.096 A 
ATOM     11  N   UNL A   1      35.266  24.853  25.716  1.00  0.00    -0.236 NA
ATOM     12  C   UNL A   1      34.029  22.957  25.307  1.00  0.00     0.076 A 
ATOM     13  C   UNL A   1      34.059  25.199  25.357  1.00  0.00     0.201 A 
BRANCH  10  14
ATOM     14  C   UNL A   1      36.584  22.793  25.700  1.00  0.00     0.003 A 
ATOM     15  C   UNL A   1      39.154  21.617  25.848  1.00  0.00     0.118 A 
ATOM     16  C   UNL A   1      38.930  22.886  26.369  1.00  0.00     0.047 A 
ATOM     17  C   UNL A   1      38.073  20.895  25.336  1.00  0.00     0.047 A 
ATOM     18  C   UNL A   1      37.652  23.453  26.323  1.00  0.00     0.014 A 
ATOM     19  C   UNL A   1      36.791  21.481  25.262  1.00  0.00     0.014 A 
BRANCH  15  20
ATOM     20  O   UNL A   1      40.446  21.178  25.936  1.00  0.00    -0.497 OA
ATOM     21  C   UNL A   1      40.625  19.782  26.163  1.00  0.00     0.278 C 
ENDBRANCH  15  20
ENDBRANCH  10  14
BRANCH  12  22
ATOM     22  C   UNL A   1      33.549  21.557  25.143  1.00  0.00     0.001 A 
ATOM     23  C   UNL A   1      33.464  20.704  26.249  1.00  0.00     0.014 A 
ATOM     24  C   UNL A   1      33.130  21.022  23.917  1.00  0.00     0.014 A 
ATOM     25  C   UNL A   1      32.922  19.417  26.193  1.00  0.00     0.047 A 
ATOM     26  C   UNL A   1      32.625  19.704  23.832  1.00  0.00     0.047 A 
ATOM     27  C   UNL A   1      32.488  18.924  24.977  1.00  0.00     0.118 A 
BRANCH  27  28
ATOM     28  O   UNL A   1      32.032  17.642  24.869  1.00  0.00    -0.497 OA
ATOM     29  C   UNL A   1      33.040  16.738  24.412  1.00  0.00     0.278 C 
ENDBRANCH  27  28
ENDBRANCH  12  22
ENDBRANCH   8   9
ENDBRANCH   6   8
ENDBRANCH   5   6
ENDBRANCH   4   5
ENDBRANCH   3   4
ENDBRANCH   2   3
ENDBRANCH   1   2
BRANCH   1  30
ATOM     30  C   UNL A   1      33.238  28.682  25.465  1.00  0.00     0.188 C 
BRANCH  30  31
ATOM     31  O   UNL A   1      33.040  30.073  25.629  1.00  0.00    -0.376 OA
BRANCH  31  32
ATOM     32  C   UNL A   1      32.758  30.534  26.937  1.00  0.00     0.202 C 
BRANCH  32  33
ATOM     33  C   UNL A   1      33.820  31.429  27.554  1.00  0.00     0.261 C 
BRANCH  33  34
ATOM     34  O   UNL A   1      35.059  30.736  27.706  1.00  0.00    -0.460 OA
BRANCH  34  35
ATOM     35  C   UNL A   1      35.645  30.979  28.901  1.00  0.00     0.338 C 
ATOM     36  O   UNL A   1      35.156  31.510  29.862  1.00  0.00    -0.246 OA
BRANCH  35  37
ATOM     37  C   UNL A   1      37.057  30.675  28.856  1.00  0.00     0.060 A 
ATOM     38  C   UNL A   1      37.397  29.377  28.455  1.00  0.00     0.016 A 
ATOM     39  C   UNL A   1      37.974  31.596  29.358  1.00  0.00     0.016 A 
ATOM     40  C   UNL A   1      38.693  28.970  28.605  1.00  0.00     0.010 A 
ATOM     41  C   UNL A   1      39.262  31.187  29.519  1.00  0.00     0.010 A 
ATOM     42  C   UNL A   1      39.590  29.875  29.172  1.00  0.00    -0.014 A 
BRANCH  42  43
ATOM     43  C   UNL A   1      40.965  29.476  29.276  1.00  0.00     0.031 A 
ATOM     44  C   UNL A   1      41.436  29.397  30.682  1.00  0.00     0.074 A 
ATOM     45  C   UNL A   1      41.607  29.042  28.181  1.00  0.00     0.049 A 
ATOM     46  N   UNL A   1      42.335  30.116  31.264  1.00  0.00    -0.248 NA
ATOM     47  C   UNL A   1      40.649  28.567  31.615  1.00  0.00     0.031 C 
ATOM     48  C   UNL A   1      41.073  28.824  26.832  1.00  0.00     0.029 A 
ATOM     49  N   UNL A   1      42.864  28.558  28.100  1.00  0.00    -0.354 N 
ATOM     50  C   UNL A   1      42.404  29.645  32.573  1.00  0.00     0.074 A 
ATOM     51  C   UNL A   1      41.206  28.883  32.784  1.00  0.00     0.031 C 
ATOM     52  C   UNL A   1      41.918  28.020  26.150  1.00  0.00     0.029 A 
ATOM     53  C   UNL A   1      43.101  27.803  26.959  1.00  0.00     0.049 A 
ATOM     54  H   UNL A   1      43.549  28.724  28.787  1.00  0.00     0.167 HD
ATOM     55  C   UNL A   1      43.566  29.700  33.283  1.00  0.00     0.037 A 
ATOM     56  C   UNL A   1      44.163  26.973  26.812  1.00  0.00     0.037 A 
ATOM     57  C   UNL A   1      44.479  30.642  32.681  1.00  0.00     0.049 A 
ATOM     58  C   UNL A   1      45.187  27.423  27.807  1.00  0.00     0.074 A 
ATOM     59  C   UNL A   1      44.428  31.998  32.419  1.00  0.00     0.029 A 
ATOM     60  N   UNL A   1      45.470  30.141  31.868  1.00  0.00    -0.354 N 
ATOM     61  N   UNL A   1      45.755  28.604  27.765  1.00  0.00    -0.248 NA
ATOM     62  C   UNL A   1      45.180  26.792  29.122  1.00  0.00     0.031 C 
ATOM     63  C   UNL A   1      45.020  32.144  31.130  1.00  0.00     0.029 A 
ATOM     64  C   UNL A   1      45.473  30.889  30.718  1.00  0.00     0.049 A 
ATOM     65  H   UNL A   1      46.068  29.386  32.074  1.00  0.00     0.167 HD
ATOM     66  C   UNL A   1      45.815  29.032  29.088  1.00  0.00     0.074 A 
ATOM     67  C   UNL A   1      45.499  27.845  29.882  1.00  0.00     0.031 C 
ATOM     68  C   UNL A   1      45.819  30.362  29.413  1.00  0.00     0.037 A 
BRANCH  55  69
ATOM     69  C   UNL A   1      44.023  28.636  34.261  1.00  0.00     0.058 A 
ATOM     70  C   UNL A   1      44.093  27.296  33.821  1.00  0.00     0.135 A 
ATOM     71  C   UNL A   1      44.119  28.811  35.661  1.00  0.00     0.135 A 
ATOM     72  F   UNL A   1      44.038  27.000  32.512  1.00  0.00    -0.206 F 
ATOM     73  C   UNL A   1      44.139  26.217  34.704  1.00  0.00     0.059 A 
ATOM     74  C   UNL A   1      44.215  27.753  36.555  1.00  0.00     0.059 A 
ATOM     75  F   UNL A   1      44.039  30.006  36.253  1.00  0.00    -0.206 F 
ATOM     76  C   UNL A   1      44.173  26.458  36.072  1.00  0.00     0.060 A 
BRANCH  76  77
ATOM     77  S   UNL A   1      44.104  25.075  37.221  1.00  0.00     0.124 S 
ATOM     78  O   UNL A   1      44.089  23.940  36.305  1.00  0.00    -0.237 OA
ATOM     79  O   UNL A   1      45.328  25.262  37.992  1.00  0.00    -0.237 OA
ATOM     80  O   UNL A   1      42.864  25.311  37.955  1.00  0.00    -0.744 OA
ENDBRANCH  76  77
ENDBRANCH  55  69
BRANCH  56  81
ATOM     81  C   UNL A   1      44.125  25.619  26.204  1.00  0.00     0.058 A 
ATOM     82  C   UNL A   1      45.023  25.251  25.189  1.00  0.00     0.135 A 
ATOM     83  C   UNL A   1      43.366  24.572  26.771  1.00  0.00     0.135 A 
ATOM     84  F   UNL A   1      45.802  26.179  24.613  1.00  0.00    -0.206 F 
ATOM     85  C   UNL A   1      45.183  23.920  24.785  1.00  0.00     0.059 A 
ATOM     86  C   UNL A   1      43.498  23.243  26.377  1.00  0.00     0.059 A 
ATOM     87  F   UNL A   1      42.527  24.796  27.794  1.00  0.00    -0.206 F 
ATOM     88  C   UNL A   1      44.427  22.919  25.398  1.00  0.00     0.060 A 
BRANCH  88  89
ATOM     89  S   UNL A   1      44.746  21.186  24.998  1.00  0.00     0.124 S 
ATOM     90  O   UNL A   1      43.743  20.500  25.804  1.00  0.00    -0.237 OA
ATOM     91  O   UNL A   1      44.534  21.159  23.555  1.00  0.00    -0.237 OA
ATOM     92  O   UNL A   1      46.130  20.989  25.424  1.00  0.00    -0.744 OA
ENDBRANCH  88  89
ENDBRANCH  56  81
BRANCH  68  93
ATOM     93  C   UNL A   1      45.965  31.378  28.304  1.00  0.00     0.058 A 
ATOM     94  C   UNL A   1      44.884  31.998  27.651  1.00  0.00     0.135 A 
ATOM     95  C   UNL A   1      47.243  31.882  28.027  1.00  0.00     0.135 A 
ATOM     96  F   UNL A   1      43.622  31.664  27.942  1.00  0.00    -0.206 F 
ATOM     97  C   UNL A   1      45.065  33.038  26.737  1.00  0.00     0.059 A 
ATOM     98  C   UNL A   1      47.448  32.940  27.143  1.00  0.00     0.059 A 
ATOM     99  F   UNL A   1      48.313  31.387  28.671  1.00  0.00    -0.206 F 
ATOM    100  C   UNL A   1      46.354  33.504  26.490  1.00  0.00     0.060 A 
BRANCH 100 101
ATOM    101  S   UNL A   1      46.581  34.899  25.366  1.00  0.00     0.124 S 
ATOM    102  O   UNL A   1      45.662  34.572  24.283  1.00  0.00    -0.237 OA
ATOM    103  O   UNL A   1      46.203  36.040  26.197  1.00  0.00    -0.237 OA
ATOM    104  O   UNL A   1      48.000  34.833  25.024  1.00  0.00    -0.744 OA
ENDBRANCH 100 101
ENDBRANCH  68  93
ENDBRANCH  42  43
ENDBRANCH  35  37
ENDBRANCH  34  35
ENDBRANCH  33  34
ENDBRANCH  32  33
ENDBRANCH  31  32
ENDBRANCH  30  31
ENDBRANCH   1  30
TORSDOF 25
ENDMDL
MODEL 3
REMARK VINA RESULT:     -10.1      3.157      8.545
REMARK SMILES COc1ccc(-c2ncn(CC(=O)OCCOCCOCCOC(=O)c3ccc(-c4c5nc(c(-c6c(F)cc(S(=O)(=O)[O-])cc6F)c6ccc([nH]6)c(-c6c(F)cc(S(=O)(=O)[O-])cc6F)c6nc(c(-c7c(F)cc(S(=O)(=O)[O-])cc7F)c7ccc4[nH]7)C=C6)C=C5)cc3)c2-c2ccc(OC)cc2)cc1
REMARK SMILES IDX 18 1 17 2 16 3 15 4 14 5 12 6 13 7 11 8 10 9 7 10 8 11 92 12
REMARK SMILES IDX 9 13 6 14 3 15 4 16 102 17 5 18 101 19 2 20 1 21 93 22 94 23
REMARK SMILES IDX 100 24 95 25 99 26 96 27 97 28 98 29 19 30 20 31 21 32 22 33
REMARK SMILES IDX 23 34 24 35 25 36 26 37 27 38 91 39 28 40 90 41 29 42 30 43
REMARK SMILES IDX 31 44 84 45 32 46 89 47 83 48 85 49 33 50 88 51 82 52 81 53
REMARK SMILES IDX 34 55 68 56 47 57 67 58 48 59 51 60 66 61 86 62 49 63 50 64
REMARK SMILES IDX 65 66 87 67 52 68 35 69 36 70 45 71 37 72 38 73 44 74 46 75
REMARK SMILES IDX 39 76 40 77 41 78 42 79 43 80 69 81 70 82 79 83 71 84 72 85
REMARK SMILES IDX 78 86 80 87 73 88 74 89 75 90 76 91 77 92 53 93 54 94 63 95
REMARK SMILES IDX 55 96 56 97 62 98 64 99 57 100 58 101 59 102 60 103 61 104
REMARK H PARENT 85 54 51 65
REMARK Flexibility Score: inf
ROOT
ATOM      1  C   UNL A   1      36.923  23.243  24.729  1.00  0.00     0.188 C 
ENDROOT
BRANCH   1   2
ATOM      2  O   UNL A   1      36.394  23.250  23.416  1.00  0.00    -0.376 OA
BRANCH   2   3
ATOM      3  C   UNL A   1      34.978  23.320  23.334  1.00  0.00     0.202 C 
BRANCH   3   4
ATOM      4  C   UNL A   1      34.353  24.603  22.728  1.00  0.00     0.261 C 
BRANCH   4   5
ATOM      5  O   UNL A   1      33.279  24.396  21.758  1.00  0.00    -0.462 OA
BRANCH   5   6
ATOM      6  C   UNL A   1      32.007  24.295  22.220  1.00  0.00     0.326 C 
ATOM      7  O   UNL A   1      31.583  23.262  22.737  1.00  0.00    -0.250 OA
BRANCH   6   8
ATOM      8  C   UNL A   1      31.078  25.502  22.073  1.00  0.00     0.246 C 
BRANCH   8   9
ATOM      9  N   UNL A   1      31.331  26.766  22.774  1.00  0.00    -0.319 N 
ATOM     10  C   UNL A   1      31.588  28.418  24.202  1.00  0.00     0.096 A 
ATOM     11  N   UNL A   1      31.249  28.979  22.990  1.00  0.00    -0.236 NA
ATOM     12  C   UNL A   1      31.526  27.012  24.150  1.00  0.00     0.076 A 
ATOM     13  C   UNL A   1      31.078  27.974  22.174  1.00  0.00     0.201 A 
BRANCH  10  14
ATOM     14  C   UNL A   1      32.119  29.277  25.257  1.00  0.00     0.003 A 
ATOM     15  C   UNL A   1      33.268  30.824  27.329  1.00  0.00     0.118 A 
ATOM     16  C   UNL A   1      34.013  29.840  26.689  1.00  0.00     0.047 A 
ATOM     17  C   UNL A   1      31.977  31.100  26.871  1.00  0.00     0.047 A 
ATOM     18  C   UNL A   1      33.454  29.098  25.644  1.00  0.00     0.014 A 
ATOM     19  C   UNL A   1      31.403  30.329  25.838  1.00  0.00     0.014 A 
BRANCH  15  20
ATOM     20  O   UNL A   1      33.917  31.469  28.345  1.00  0.00    -0.497 OA
ATOM     21  C   UNL A   1      34.720  32.586  27.973  1.00  0.00     0.278 C 
ENDBRANCH  15  20
ENDBRANCH  10  14
BRANCH  12  22
ATOM     22  C   UNL A   1      31.762  25.973  25.191  1.00  0.00     0.001 A 
ATOM     23  C   UNL A   1      30.685  25.282  25.757  1.00  0.00     0.014 A 
ATOM     24  C   UNL A   1      33.037  25.602  25.638  1.00  0.00     0.014 A 
ATOM     25  C   UNL A   1      30.833  24.221  26.655  1.00  0.00     0.047 A 
ATOM     26  C   UNL A   1      33.204  24.565  26.584  1.00  0.00     0.047 A 
ATOM     27  C   UNL A   1      32.103  23.855  27.058  1.00  0.00     0.118 A 
BRANCH  27  28
ATOM     28  O   UNL A   1      32.282  22.882  27.997  1.00  0.00    -0.497 OA
ATOM     29  C   UNL A   1      33.415  22.055  27.722  1.00  0.00     0.278 C 
ENDBRANCH  27  28
ENDBRANCH  12  22
ENDBRANCH   8   9
ENDBRANCH   6   8
ENDBRANCH   5   6
ENDBRANCH   4   5
ENDBRANCH   3   4
ENDBRANCH   2   3
ENDBRANCH   1   2
BRANCH   1  30
ATOM     30  C   UNL A   1      37.215  21.877  25.381  1.00  0.00     0.188 C 
BRANCH  30  31
ATOM     31  O   UNL A   1      37.113  20.701  24.602  1.00  0.00    -0.376 OA
BRANCH  31  32
ATOM     32  C   UNL A   1      38.044  19.669  24.866  1.00  0.00     0.202 C 
BRANCH  32  33
ATOM     33  C   UNL A   1      39.226  20.067  25.734  1.00  0.00     0.261 C 
BRANCH  33  34
ATOM     34  O   UNL A   1      40.210  19.033  25.779  1.00  0.00    -0.460 OA
BRANCH  34  35
ATOM     35  C   UNL A   1      41.472  19.515  25.701  1.00  0.00     0.338 C 
ATOM     36  O   UNL A   1      42.445  18.956  25.269  1.00  0.00    -0.246 OA
BRANCH  35  37
ATOM     37  C   UNL A   1      41.584  20.782  26.385  1.00  0.00     0.060 A 
ATOM     38  C   UNL A   1      42.186  21.822  25.665  1.00  0.00     0.016 A 
ATOM     39  C   UNL A   1      41.256  20.864  27.737  1.00  0.00     0.016 A 
ATOM     40  C   UNL A   1      42.515  22.968  26.333  1.00  0.00     0.010 A 
ATOM     41  C   UNL A   1      41.594  22.001  28.405  1.00  0.00     0.010 A 
ATOM     42  C   UNL A   1      42.245  23.016  27.701  1.00  0.00    -0.014 A 
BRANCH  42  43
ATOM     43  C   UNL A   1      42.531  24.239  28.395  1.00  0.00     0.031 A 
ATOM     44  C   UNL A   1      41.457  25.253  28.241  1.00  0.00     0.074 A 
ATOM     45  C   UNL A   1      43.578  24.288  29.234  1.00  0.00     0.049 A 
ATOM     46  N   UNL A   1      41.521  26.398  27.650  1.00  0.00    -0.248 NA
ATOM     47  C   UNL A   1      40.082  24.843  28.588  1.00  0.00     0.031 C 
ATOM     48  C   UNL A   1      44.481  23.205  29.637  1.00  0.00     0.029 A 
ATOM     49  N   UNL A   1      43.953  25.316  30.024  1.00  0.00    -0.354 N 
ATOM     50  C   UNL A   1      40.254  26.961  27.785  1.00  0.00     0.074 A 
ATOM     51  C   UNL A   1      39.377  25.882  28.144  1.00  0.00     0.031 C 
ATOM     52  C   UNL A   1      45.121  23.565  30.771  1.00  0.00     0.029 A 
ATOM     53  C   UNL A   1      44.784  24.943  31.072  1.00  0.00     0.049 A 
ATOM     54  H   UNL A   1      43.663  26.245  29.872  1.00  0.00     0.167 HD
ATOM     55  C   UNL A   1      40.084  28.311  27.851  1.00  0.00     0.037 A 
ATOM     56  C   UNL A   1      45.030  25.723  32.152  1.00  0.00     0.037 A 
ATOM     57  C   UNL A   1      41.254  28.991  27.349  1.00  0.00     0.049 A 
ATOM     58  C   UNL A   1      44.691  27.123  31.744  1.00  0.00     0.074 A 
ATOM     59  C   UNL A   1      41.909  29.006  26.133  1.00  0.00     0.029 A 
ATOM     60  N   UNL A   1      42.162  29.465  28.269  1.00  0.00    -0.354 N 
ATOM     61  N   UNL A   1      45.326  27.764  30.793  1.00  0.00    -0.248 NA
ATOM     62  C   UNL A   1      43.339  27.600  32.008  1.00  0.00     0.031 C 
ATOM     63  C   UNL A   1      43.296  29.002  26.464  1.00  0.00     0.029 A 
ATOM     64  C   UNL A   1      43.409  29.070  27.854  1.00  0.00     0.049 A 
ATOM     65  H   UNL A   1      41.955  29.991  29.075  1.00  0.00     0.167 HD
ATOM     66  C   UNL A   1      44.340  28.440  30.081  1.00  0.00     0.074 A 
ATOM     67  C   UNL A   1      43.142  28.345  30.915  1.00  0.00     0.031 C 
ATOM     68  C   UNL A   1      44.497  28.753  28.757  1.00  0.00     0.037 A 
BRANCH  55  69
ATOM     69  C   UNL A   1      39.053  29.003  28.721  1.00  0.00     0.058 A 
ATOM     70  C   UNL A   1      38.215  29.977  28.135  1.00  0.00     0.135 A 
ATOM     71  C   UNL A   1      39.035  28.971  30.135  1.00  0.00     0.135 A 
ATOM     72  F   UNL A   1      38.125  30.091  26.801  1.00  0.00    -0.206 F 
ATOM     73  C   UNL A   1      37.510  30.913  28.892  1.00  0.00     0.059 A 
ATOM     74  C   UNL A   1      38.301  29.863  30.907  1.00  0.00     0.059 A 
ATOM     75  F   UNL A   1      39.791  28.137  30.855  1.00  0.00    -0.206 F 
ATOM     76  C   UNL A   1      37.581  30.863  30.279  1.00  0.00     0.060 A 
BRANCH  76  77
ATOM     77  S   UNL A   1      36.779  32.141  31.258  1.00  0.00     0.124 S 
ATOM     78  O   UNL A   1      35.414  31.633  31.333  1.00  0.00    -0.237 OA
ATOM     79  O   UNL A   1      37.549  32.099  32.496  1.00  0.00    -0.237 OA
ATOM     80  O   UNL A   1      36.962  33.345  30.452  1.00  0.00    -0.744 OA
ENDBRANCH  76  77
ENDBRANCH  55  69
BRANCH  56  81
ATOM     81  C   UNL A   1      45.099  25.255  33.560  1.00  0.00     0.058 A 
ATOM     82  C   UNL A   1      46.331  25.058  34.203  1.00  0.00     0.135 A 
ATOM     83  C   UNL A   1      43.955  25.223  34.388  1.00  0.00     0.135 A 
ATOM     84  F   UNL A   1      47.470  25.098  33.496  1.00  0.00    -0.206 F 
ATOM     85  C   UNL A   1      46.427  24.873  35.587  1.00  0.00     0.059 A 
ATOM     86  C   UNL A   1      44.024  25.027  35.764  1.00  0.00     0.059 A 
ATOM     87  F   UNL A   1      42.731  25.467  33.894  1.00  0.00    -0.206 F 
ATOM     88  C   UNL A   1      45.266  24.877  36.363  1.00  0.00     0.060 A 
BRANCH  88  89
ATOM     89  S   UNL A   1      45.395  24.804  38.165  1.00  0.00     0.124 S 
ATOM     90  O   UNL A   1      45.424  23.366  38.407  1.00  0.00    -0.237 OA
ATOM     91  O   UNL A   1      46.642  25.518  38.414  1.00  0.00    -0.237 OA
ATOM     92  O   UNL A   1      44.187  25.489  38.619  1.00  0.00    -0.744 OA
ENDBRANCH  88  89
ENDBRANCH  56  81
BRANCH  68  93
ATOM     93  C   UNL A   1      45.849  28.538  28.118  1.00  0.00     0.058 A 
ATOM     94  C   UNL A   1      46.252  27.339  27.503  1.00  0.00     0.135 A 
ATOM     95  C   UNL A   1      46.691  29.646  27.953  1.00  0.00     0.135 A 
ATOM     96  F   UNL A   1      45.457  26.263  27.507  1.00  0.00    -0.206 F 
ATOM     97  C   UNL A   1      47.452  27.232  26.795  1.00  0.00     0.059 A 
ATOM     98  C   UNL A   1      47.877  29.574  27.225  1.00  0.00     0.059 A 
ATOM     99  F   UNL A   1      46.331  30.841  28.450  1.00  0.00    -0.206 F 
ATOM    100  C   UNL A   1      48.258  28.359  26.660  1.00  0.00     0.060 A 
BRANCH 100 101
ATOM    101  S   UNL A   1      49.772  28.242  25.681  1.00  0.00     0.124 S 
ATOM    102  O   UNL A   1      50.419  27.070  26.259  1.00  0.00    -0.237 OA
ATOM    103  O   UNL A   1      49.258  28.078  24.323  1.00  0.00    -0.237 OA
ATOM    104  O   UNL A   1      50.441  29.516  25.935  1.00  0.00    -0.744 OA
ENDBRANCH 100 101
ENDBRANCH  68  93
ENDBRANCH  42  43
ENDBRANCH  35  37
ENDBRANCH  34  35
ENDBRANCH  33  34
ENDBRANCH  32  33
ENDBRANCH  31  32
ENDBRANCH  30  31
ENDBRANCH   1  30
TORSDOF 25
ENDMDL
