MODEL 1
REMARK VINA RESULT:     -10.7      0.000      0.000
REMARK SMILES O=C(C[NH+]1CCN(C(=O)c2ccc(F)c(F)c2F)CC1)OCCOCCOCCOC(=O)c1ccc(-c2c3nc(c(-c4c(F)cc(S(=O)(=O)[O-])cc4F)c4ccc([nH]4)c(-c4c(F)cc(S(=O)(=O)[O-])cc4F)c4nc(c(-c5c(F)cc(S(=O)(=O)[O-])cc5F)c5ccc2[nH]5)C=C4)C=C3)cc1
REMARK SMILES IDX 26 1 25 2 24 3 23 4 22 5 21 6 2 7 1 8 3 9 4 10 5 11 20 12
REMARK SMILES IDX 6 14 19 15 7 16 8 17 9 18 10 19 11 20 17 21 12 22 15 23
REMARK SMILES IDX 18 24 13 25 16 26 14 27 27 28 28 29 29 30 30 31 31 32 32 33
REMARK SMILES IDX 33 34 34 35 98 36 35 37 97 38 36 39 37 40 38 41 91 42 39 43
REMARK SMILES IDX 96 44 90 45 92 46 40 47 95 48 89 49 88 50 41 52 75 53 54 54
REMARK SMILES IDX 74 55 55 56 58 57 73 58 93 59 56 60 57 61 72 63 94 64 59 65
REMARK SMILES IDX 42 66 43 67 52 68 44 69 45 70 51 71 53 72 46 73 47 74 48 75
REMARK SMILES IDX 49 76 50 77 76 78 77 79 86 80 78 81 79 82 85 83 87 84 80 85
REMARK SMILES IDX 81 86 82 87 83 88 84 89 60 90 61 91 70 92 62 93 63 94 69 95
REMARK SMILES IDX 71 96 64 97 65 98 66 99 67 100 68 101
REMARK H PARENT 4 13 92 51 58 62
REMARK Flexibility Score: inf
ROOT
ATOM      1  C   UNL A   1      40.883  22.553  26.833  1.00  0.00     0.188 C 
ENDROOT
BRANCH   1   2
ATOM      2  C   UNL A   1      39.426  22.899  26.504  1.00  0.00     0.188 C 
BRANCH   2   3
ATOM      3  O   UNL A   1      38.684  21.761  26.108  1.00  0.00    -0.376 OA
BRANCH   3   4
ATOM      4  C   UNL A   1      37.654  21.998  25.171  1.00  0.00     0.202 C 
BRANCH   4   5
ATOM      5  C   UNL A   1      36.776  20.759  25.018  1.00  0.00     0.261 C 
BRANCH   5   6
ATOM      6  O   UNL A   1      35.472  20.809  25.645  1.00  0.00    -0.459 OA
BRANCH   6   7
ATOM      7  C   UNL A   1      34.267  20.581  25.075  1.00  0.00     0.361 C 
ATOM      8  O   UNL A   1      33.934  19.425  24.815  1.00  0.00    -0.245 OA
BRANCH   7   9
ATOM      9  C   UNL A   1      33.392  21.748  24.627  1.00  0.00     0.386 C 
BRANCH   9  10
ATOM     10  N   UNL A   1      34.129  23.006  24.426  1.00  0.00    -0.323 N 
ATOM     11  C   UNL A   1      34.412  23.230  22.979  1.00  0.00     0.284 C 
ATOM     12  C   UNL A   1      33.426  24.162  25.024  1.00  0.00     0.284 C 
ATOM     13  H   UNL A   1      35.021  22.919  24.913  1.00  0.00     0.348 HD
ATOM     14  C   UNL A   1      33.228  23.784  22.159  1.00  0.00     0.181 C 
ATOM     15  C   UNL A   1      32.227  24.666  24.204  1.00  0.00     0.181 C 
ATOM     16  N   UNL A   1      32.687  24.953  22.847  1.00  0.00    -0.327 N 
ATOM     17  C   UNL A   1      32.999  26.215  22.361  1.00  0.00     0.257 C 
ATOM     18  O   UNL A   1      33.636  26.436  21.339  1.00  0.00    -0.269 OA
BRANCH  17  19
ATOM     19  C   UNL A   1      32.656  27.369  23.197  1.00  0.00     0.079 A 
ATOM     20  C   UNL A   1      33.609  27.856  24.102  1.00  0.00     0.020 A 
ATOM     21  C   UNL A   1      31.394  27.947  23.101  1.00  0.00     0.174 A 
ATOM     22  C   UNL A   1      33.273  28.913  24.946  1.00  0.00     0.043 A 
ATOM     23  C   UNL A   1      31.073  29.012  23.930  1.00  0.00     0.195 A 
ATOM     24  F   UNL A   1      30.480  27.467  22.248  1.00  0.00    -0.203 F 
ATOM     25  C   UNL A   1      32.005  29.483  24.851  1.00  0.00     0.161 A 
ATOM     26  F   UNL A   1      29.858  29.575  23.865  1.00  0.00    -0.200 F 
ATOM     27  F   UNL A   1      31.687  30.495  25.671  1.00  0.00    -0.204 F 
ENDBRANCH  17  19
ENDBRANCH   9  10
ENDBRANCH   7   9
ENDBRANCH   6   7
ENDBRANCH   5   6
ENDBRANCH   4   5
ENDBRANCH   3   4
ENDBRANCH   2   3
ENDBRANCH   1   2
BRANCH   1  28
ATOM     28  O   UNL A   1      41.852  22.517  25.792  1.00  0.00    -0.376 OA
BRANCH  28  29
ATOM     29  C   UNL A   1      43.100  23.176  25.965  1.00  0.00     0.202 C 
BRANCH  29  30
ATOM     30  C   UNL A   1      43.489  24.262  24.956  1.00  0.00     0.261 C 
BRANCH  30  31
ATOM     31  O   UNL A   1      43.501  25.606  25.476  1.00  0.00    -0.460 OA
BRANCH  31  32
ATOM     32  C   UNL A   1      42.284  26.102  25.819  1.00  0.00     0.338 C 
ATOM     33  O   UNL A   1      41.261  26.050  25.161  1.00  0.00    -0.246 OA
BRANCH  32  34
ATOM     34  C   UNL A   1      42.298  26.626  27.202  1.00  0.00     0.060 A 
ATOM     35  C   UNL A   1      41.330  26.151  28.098  1.00  0.00     0.016 A 
ATOM     36  C   UNL A   1      43.152  27.665  27.575  1.00  0.00     0.016 A 
ATOM     37  C   UNL A   1      41.182  26.746  29.354  1.00  0.00     0.010 A 
ATOM     38  C   UNL A   1      42.989  28.273  28.828  1.00  0.00     0.010 A 
ATOM     39  C   UNL A   1      41.979  27.842  29.708  1.00  0.00    -0.014 A 
BRANCH  39  40
ATOM     40  C   UNL A   1      41.638  28.651  30.908  1.00  0.00     0.031 A 
ATOM     41  C   UNL A   1      40.472  29.605  30.833  1.00  0.00     0.074 A 
ATOM     42  C   UNL A   1      42.335  28.539  32.052  1.00  0.00     0.049 A 
ATOM     43  N   UNL A   1      40.034  30.452  31.727  1.00  0.00    -0.248 NA
ATOM     44  C   UNL A   1      39.700  29.597  29.580  1.00  0.00     0.031 C 
ATOM     45  C   UNL A   1      43.450  27.623  32.279  1.00  0.00     0.029 A 
ATOM     46  N   UNL A   1      42.209  29.217  33.241  1.00  0.00    -0.354 N 
ATOM     47  C   UNL A   1      38.939  31.083  31.147  1.00  0.00     0.074 A 
ATOM     48  C   UNL A   1      38.794  30.536  29.815  1.00  0.00     0.031 C 
ATOM     49  C   UNL A   1      43.920  27.807  33.526  1.00  0.00     0.029 A 
ATOM     50  C   UNL A   1      43.159  28.875  34.175  1.00  0.00     0.049 A 
ATOM     51  H   UNL A   1      41.506  29.884  33.408  1.00  0.00     0.167 HD
ATOM     52  C   UNL A   1      38.122  32.027  31.675  1.00  0.00     0.037 A 
ATOM     53  C   UNL A   1      43.401  29.383  35.400  1.00  0.00     0.037 A 
ATOM     54  C   UNL A   1      38.267  32.580  32.995  1.00  0.00     0.049 A 
ATOM     55  C   UNL A   1      42.534  30.495  35.936  1.00  0.00     0.074 A 
ATOM     56  C   UNL A   1      37.485  33.538  33.617  1.00  0.00     0.029 A 
ATOM     57  N   UNL A   1      39.262  32.232  33.895  1.00  0.00    -0.354 N 
ATOM     58  N   UNL A   1      41.496  31.073  35.380  1.00  0.00    -0.248 NA
ATOM     59  C   UNL A   1      42.872  31.023  37.267  1.00  0.00     0.031 C 
ATOM     60  C   UNL A   1      38.033  33.800  34.878  1.00  0.00     0.029 A 
ATOM     61  C   UNL A   1      39.128  32.972  35.060  1.00  0.00     0.049 A 
ATOM     62  H   UNL A   1      39.961  31.558  33.733  1.00  0.00     0.167 HD
ATOM     63  C   UNL A   1      41.042  32.011  36.304  1.00  0.00     0.074 A 
ATOM     64  C   UNL A   1      41.913  31.920  37.456  1.00  0.00     0.031 C 
ATOM     65  C   UNL A   1      39.994  32.867  36.207  1.00  0.00     0.037 A 
BRANCH  52  66
ATOM     66  C   UNL A   1      37.010  32.542  30.807  1.00  0.00     0.058 A 
ATOM     67  C   UNL A   1      37.208  33.601  29.907  1.00  0.00     0.135 A 
ATOM     68  C   UNL A   1      35.736  31.951  30.855  1.00  0.00     0.135 A 
ATOM     69  F   UNL A   1      38.401  34.212  29.834  1.00  0.00    -0.206 F 
ATOM     70  C   UNL A   1      36.175  34.075  29.105  1.00  0.00     0.059 A 
ATOM     71  C   UNL A   1      34.695  32.394  30.045  1.00  0.00     0.059 A 
ATOM     72  F   UNL A   1      35.494  30.936  31.700  1.00  0.00    -0.206 F 
ATOM     73  C   UNL A   1      34.921  33.466  29.182  1.00  0.00     0.060 A 
BRANCH  73  74
ATOM     74  S   UNL A   1      33.589  34.093  28.138  1.00  0.00     0.124 S 
ATOM     75  O   UNL A   1      33.012  32.852  27.629  1.00  0.00    -0.237 OA
ATOM     76  O   UNL A   1      32.765  34.830  29.090  1.00  0.00    -0.237 OA
ATOM     77  O   UNL A   1      34.287  34.911  27.152  1.00  0.00    -0.744 OA
ENDBRANCH  73  74
ENDBRANCH  52  66
BRANCH  53  78
ATOM     78  C   UNL A   1      44.532  28.858  36.213  1.00  0.00     0.058 A 
ATOM     79  C   UNL A   1      44.357  27.761  37.069  1.00  0.00     0.135 A 
ATOM     80  C   UNL A   1      45.803  29.452  36.160  1.00  0.00     0.135 A 
ATOM     81  F   UNL A   1      43.156  27.169  37.163  1.00  0.00    -0.206 F 
ATOM     82  C   UNL A   1      45.397  27.279  37.856  1.00  0.00     0.059 A 
ATOM     83  C   UNL A   1      46.866  28.972  36.920  1.00  0.00     0.059 A 
ATOM     84  F   UNL A   1      46.022  30.498  35.350  1.00  0.00    -0.206 F 
ATOM     85  C   UNL A   1      46.648  27.892  37.773  1.00  0.00     0.060 A 
BRANCH  85  86
ATOM     86  S   UNL A   1      47.999  27.230  38.773  1.00  0.00     0.124 S 
ATOM     87  O   UNL A   1      47.465  25.931  39.163  1.00  0.00    -0.237 OA
ATOM     88  O   UNL A   1      49.101  27.208  37.817  1.00  0.00    -0.237 OA
ATOM     89  O   UNL A   1      48.128  28.208  39.849  1.00  0.00    -0.744 OA
ENDBRANCH  85  86
ENDBRANCH  53  78
BRANCH  65  90
ATOM     90  C   UNL A   1      39.701  33.753  37.387  1.00  0.00     0.058 A 
ATOM     91  C   UNL A   1      38.880  33.329  38.444  1.00  0.00     0.135 A 
ATOM     92  C   UNL A   1      40.303  35.018  37.492  1.00  0.00     0.135 A 
ATOM     93  F   UNL A   1      38.276  32.131  38.391  1.00  0.00    -0.206 F 
ATOM     94  C   UNL A   1      38.654  34.134  39.556  1.00  0.00     0.059 A 
ATOM     95  C   UNL A   1      40.110  35.830  38.606  1.00  0.00     0.059 A 
ATOM     96  F   UNL A   1      41.106  35.468  36.515  1.00  0.00    -0.206 F 
ATOM     97  C   UNL A   1      39.274  35.383  39.629  1.00  0.00     0.060 A 
BRANCH  97  98
ATOM     98  S   UNL A   1      39.008  36.401  41.098  1.00  0.00     0.124 S 
ATOM     99  O   UNL A   1      38.702  37.698  40.504  1.00  0.00    -0.237 OA
ATOM    100  O   UNL A   1      37.891  35.724  41.750  1.00  0.00    -0.237 OA
ATOM    101  O   UNL A   1      40.283  36.318  41.805  1.00  0.00    -0.744 OA
ENDBRANCH  97  98
ENDBRANCH  65  90
ENDBRANCH  39  40
ENDBRANCH  32  34
ENDBRANCH  31  32
ENDBRANCH  30  31
ENDBRANCH  29  30
ENDBRANCH  28  29
ENDBRANCH   1  28
TORSDOF 22
ENDMDL
MODEL 2
REMARK VINA RESULT:     -10.7      1.612      2.786
REMARK SMILES O=C(C[NH+]1CCN(C(=O)c2ccc(F)c(F)c2F)CC1)OCCOCCOCCOC(=O)c1ccc(-c2c3nc(c(-c4c(F)cc(S(=O)(=O)[O-])cc4F)c4ccc([nH]4)c(-c4c(F)cc(S(=O)(=O)[O-])cc4F)c4nc(c(-c5c(F)cc(S(=O)(=O)[O-])cc5F)c5ccc2[nH]5)C=C4)C=C3)cc1
REMARK SMILES IDX 26 1 25 2 24 3 23 4 22 5 21 6 2 7 1 8 3 9 4 10 5 11 20 12
REMARK SMILES IDX 6 14 19 15 7 16 8 17 9 18 10 19 11 20 17 21 12 22 15 23
REMARK SMILES IDX 18 24 13 25 16 26 14 27 27 28 28 29 29 30 30 31 31 32 32 33
REMARK SMILES IDX 33 34 34 35 98 36 35 37 97 38 36 39 37 40 38 41 91 42 39 43
REMARK SMILES IDX 96 44 90 45 92 46 40 47 95 48 89 49 88 50 41 52 75 53 54 54
REMARK SMILES IDX 74 55 55 56 58 57 73 58 93 59 56 60 57 61 72 63 94 64 59 65
REMARK SMILES IDX 42 66 43 67 52 68 44 69 45 70 51 71 53 72 46 73 47 74 48 75
REMARK SMILES IDX 49 76 50 77 76 78 77 79 86 80 78 81 79 82 85 83 87 84 80 85
REMARK SMILES IDX 81 86 82 87 83 88 84 89 60 90 61 91 70 92 62 93 63 94 69 95
REMARK SMILES IDX 71 96 64 97 65 98 66 99 67 100 68 101
REMARK H PARENT 4 13 92 51 58 62
REMARK Flexibility Score: inf
ROOT
ATOM      1  C   UNL A   1      37.310  22.034  24.769  1.00  0.00     0.188 C 
ENDROOT
BRANCH   1   2
ATOM      2  C   UNL A   1      36.339  23.207  24.960  1.00  0.00     0.188 C 
BRANCH   2   3
ATOM      3  O   UNL A   1      35.064  22.778  25.399  1.00  0.00    -0.376 OA
BRANCH   3   4
ATOM      4  C   UNL A   1      34.843  22.843  26.792  1.00  0.00     0.202 C 
BRANCH   4   5
ATOM      5  C   UNL A   1      33.721  21.891  27.199  1.00  0.00     0.261 C 
BRANCH   5   6
ATOM      6  O   UNL A   1      32.369  22.332  26.929  1.00  0.00    -0.459 OA
BRANCH   6   7
ATOM      7  C   UNL A   1      31.668  22.204  25.780  1.00  0.00     0.361 C 
ATOM      8  O   UNL A   1      31.501  21.083  25.300  1.00  0.00    -0.245 OA
BRANCH   7   9
ATOM      9  C   UNL A   1      31.211  23.441  25.012  1.00  0.00     0.386 C 
BRANCH   9  10
ATOM     10  N   UNL A   1      32.281  24.420  24.762  1.00  0.00    -0.323 N 
ATOM     11  C   UNL A   1      32.108  25.068  23.430  1.00  0.00     0.284 C 
ATOM     12  C   UNL A   1      32.378  25.425  25.843  1.00  0.00     0.284 C 
ATOM     13  H   UNL A   1      33.165  23.910  24.753  1.00  0.00     0.348 HD
ATOM     14  C   UNL A   1      31.056  26.195  23.384  1.00  0.00     0.181 C 
ATOM     15  C   UNL A   1      31.292  26.512  25.793  1.00  0.00     0.181 C 
ATOM     16  N   UNL A   1      31.325  27.133  24.470  1.00  0.00    -0.327 N 
ATOM     17  C   UNL A   1      31.941  28.341  24.172  1.00  0.00     0.257 C 
ATOM     18  O   UNL A   1      32.211  28.729  23.042  1.00  0.00    -0.269 OA
BRANCH  17  19
ATOM     19  C   UNL A   1      32.421  29.154  25.292  1.00  0.00     0.079 A 
ATOM     20  C   UNL A   1      31.613  30.197  25.767  1.00  0.00     0.020 A 
ATOM     21  C   UNL A   1      33.670  28.901  25.850  1.00  0.00     0.174 A 
ATOM     22  C   UNL A   1      32.086  31.016  26.789  1.00  0.00     0.043 A 
ATOM     23  C   UNL A   1      34.126  29.708  26.881  1.00  0.00     0.195 A 
ATOM     24  F   UNL A   1      34.447  27.916  25.381  1.00  0.00    -0.203 F 
ATOM     25  C   UNL A   1      33.341  30.763  27.340  1.00  0.00     0.161 A 
ATOM     26  F   UNL A   1      35.333  29.492  27.425  1.00  0.00    -0.200 F 
ATOM     27  F   UNL A   1      33.792  31.561  28.318  1.00  0.00    -0.204 F 
ENDBRANCH  17  19
ENDBRANCH   9  10
ENDBRANCH   7   9
ENDBRANCH   6   7
ENDBRANCH   5   6
ENDBRANCH   4   5
ENDBRANCH   3   4
ENDBRANCH   2   3
ENDBRANCH   1   2
BRANCH   1  28
ATOM     28  O   UNL A   1      37.971  21.476  25.899  1.00  0.00    -0.376 OA
BRANCH  28  29
ATOM     29  C   UNL A   1      39.389  21.528  25.984  1.00  0.00     0.202 C 
BRANCH  29  30
ATOM     30  C   UNL A   1      40.017  22.499  26.989  1.00  0.00     0.261 C 
BRANCH  30  31
ATOM     31  O   UNL A   1      39.928  23.893  26.632  1.00  0.00    -0.460 OA
BRANCH  31  32
ATOM     32  C   UNL A   1      41.036  24.628  26.903  1.00  0.00     0.338 C 
ATOM     33  O   UNL A   1      42.147  24.481  26.426  1.00  0.00    -0.246 OA
BRANCH  32  34
ATOM     34  C   UNL A   1      40.710  25.769  27.786  1.00  0.00     0.060 A 
ATOM     35  C   UNL A   1      41.645  26.808  27.896  1.00  0.00     0.016 A 
ATOM     36  C   UNL A   1      39.575  25.755  28.600  1.00  0.00     0.016 A 
ATOM     37  C   UNL A   1      41.472  27.813  28.851  1.00  0.00     0.010 A 
ATOM     38  C   UNL A   1      39.414  26.753  29.571  1.00  0.00     0.010 A 
ATOM     39  C   UNL A   1      40.380  27.765  29.728  1.00  0.00    -0.014 A 
BRANCH  39  40
ATOM     40  C   UNL A   1      40.343  28.655  30.918  1.00  0.00     0.031 A 
ATOM     41  C   UNL A   1      39.367  29.804  30.934  1.00  0.00     0.074 A 
ATOM     42  C   UNL A   1      41.148  28.448  31.976  1.00  0.00     0.049 A 
ATOM     43  N   UNL A   1      39.203  30.741  31.831  1.00  0.00    -0.248 NA
ATOM     44  C   UNL A   1      38.454  29.904  29.784  1.00  0.00     0.031 C 
ATOM     45  C   UNL A   1      42.100  27.349  32.114  1.00  0.00     0.029 A 
ATOM     46  N   UNL A   1      41.295  29.170  33.136  1.00  0.00    -0.354 N 
ATOM     47  C   UNL A   1      38.174  31.546  31.354  1.00  0.00     0.074 A 
ATOM     48  C   UNL A   1      37.767  30.999  30.078  1.00  0.00     0.031 C 
ATOM     49  C   UNL A   1      42.748  27.478  33.286  1.00  0.00     0.029 A 
ATOM     50  C   UNL A   1      42.278  28.685  33.966  1.00  0.00     0.049 A 
ATOM     51  H   UNL A   1      40.749  29.959  33.352  1.00  0.00     0.167 HD
ATOM     52  C   UNL A   1      37.612  32.638  31.929  1.00  0.00     0.037 A 
ATOM     53  C   UNL A   1      42.759  29.173  35.127  1.00  0.00     0.037 A 
ATOM     54  C   UNL A   1      38.018  33.191  33.193  1.00  0.00     0.049 A 
ATOM     55  C   UNL A   1      42.179  30.439  35.707  1.00  0.00     0.074 A 
ATOM     56  C   UNL A   1      37.505  34.293  33.856  1.00  0.00     0.029 A 
ATOM     57  N   UNL A   1      39.040  32.691  33.985  1.00  0.00    -0.354 N 
ATOM     58  N   UNL A   1      41.200  31.182  35.250  1.00  0.00    -0.248 NA
ATOM     59  C   UNL A   1      42.771  30.932  36.961  1.00  0.00     0.031 C 
ATOM     60  C   UNL A   1      38.244  34.484  35.028  1.00  0.00     0.029 A 
ATOM     61  C   UNL A   1      39.188  33.475  35.119  1.00  0.00     0.049 A 
ATOM     62  H   UNL A   1      39.581  31.896  33.775  1.00  0.00     0.167 HD
ATOM     63  C   UNL A   1      41.040  32.213  36.174  1.00  0.00     0.074 A 
ATOM     64  C   UNL A   1      42.019  31.995  37.217  1.00  0.00     0.031 C 
ATOM     65  C   UNL A   1      40.158  33.244  36.159  1.00  0.00     0.037 A 
BRANCH  52  66
ATOM     66  C   UNL A   1      36.510  33.325  31.174  1.00  0.00     0.058 A 
ATOM     67  C   UNL A   1      35.173  33.260  31.600  1.00  0.00     0.135 A 
ATOM     68  C   UNL A   1      36.796  34.080  30.025  1.00  0.00     0.135 A 
ATOM     69  F   UNL A   1      34.844  32.536  32.681  1.00  0.00    -0.206 F 
ATOM     70  C   UNL A   1      34.156  33.897  30.898  1.00  0.00     0.059 A 
ATOM     71  C   UNL A   1      35.797  34.745  29.321  1.00  0.00     0.059 A 
ATOM     72  F   UNL A   1      38.058  34.173  29.574  1.00  0.00    -0.206 F 
ATOM     73  C   UNL A   1      34.477  34.636  29.757  1.00  0.00     0.060 A 
BRANCH  73  74
ATOM     74  S   UNL A   1      33.146  35.455  28.854  1.00  0.00     0.124 S 
ATOM     75  O   UNL A   1      33.892  36.425  28.057  1.00  0.00    -0.237 OA
ATOM     76  O   UNL A   1      32.547  34.352  28.112  1.00  0.00    -0.237 OA
ATOM     77  O   UNL A   1      32.315  36.020  29.912  1.00  0.00    -0.744 OA
ENDBRANCH  73  74
ENDBRANCH  52  66
BRANCH  53  78
ATOM     78  C   UNL A   1      43.871  28.472  35.825  1.00  0.00     0.058 A 
ATOM     79  C   UNL A   1      45.208  28.816  35.581  1.00  0.00     0.135 A 
ATOM     80  C   UNL A   1      43.617  27.435  36.737  1.00  0.00     0.135 A 
ATOM     81  F   UNL A   1      45.500  29.792  34.707  1.00  0.00    -0.206 F 
ATOM     82  C   UNL A   1      46.257  28.149  36.204  1.00  0.00     0.059 A 
ATOM     83  C   UNL A   1      44.649  26.768  37.391  1.00  0.00     0.059 A 
ATOM     84  F   UNL A   1      42.355  27.074  37.010  1.00  0.00    -0.206 F 
ATOM     85  C   UNL A   1      45.966  27.126  37.109  1.00  0.00     0.060 A 
BRANCH  85  86
ATOM     86  S   UNL A   1      47.338  26.295  37.938  1.00  0.00     0.124 S 
ATOM     87  O   UNL A   1      48.487  26.850  37.232  1.00  0.00    -0.237 OA
ATOM     88  O   UNL A   1      47.165  26.731  39.320  1.00  0.00    -0.237 OA
ATOM     89  O   UNL A   1      47.069  24.881  37.693  1.00  0.00    -0.744 OA
ENDBRANCH  85  86
ENDBRANCH  53  78
BRANCH  65  90
ATOM     90  C   UNL A   1      40.179  34.200  37.320  1.00  0.00     0.058 A 
ATOM     91  C   UNL A   1      40.961  35.365  37.304  1.00  0.00     0.135 A 
ATOM     92  C   UNL A   1      39.355  33.980  38.436  1.00  0.00     0.135 A 
ATOM     93  F   UNL A   1      41.771  35.621  36.265  1.00  0.00    -0.206 F 
ATOM     94  C   UNL A   1      40.937  36.271  38.361  1.00  0.00     0.059 A 
ATOM     95  C   UNL A   1      39.297  34.883  39.493  1.00  0.00     0.059 A 
ATOM     96  F   UNL A   1      38.578  32.886  38.497  1.00  0.00    -0.206 F 
ATOM     97  C   UNL A   1      40.100  36.022  39.451  1.00  0.00     0.060 A 
BRANCH  97  98
ATOM     98  S   UNL A   1      40.045  37.226  40.796  1.00  0.00     0.124 S 
ATOM     99  O   UNL A   1      39.884  38.478  40.064  1.00  0.00    -0.237 OA
ATOM    100  O   UNL A   1      38.883  36.787  41.564  1.00  0.00    -0.237 OA
ATOM    101  O   UNL A   1      41.332  37.049  41.463  1.00  0.00    -0.744 OA
ENDBRANCH  97  98
ENDBRANCH  65  90
ENDBRANCH  39  40
ENDBRANCH  32  34
ENDBRANCH  31  32
ENDBRANCH  30  31
ENDBRANCH  29  30
ENDBRANCH  28  29
ENDBRANCH   1  28
TORSDOF 22
ENDMDL
MODEL 3
REMARK VINA RESULT:     -10.6      6.243     11.947
REMARK SMILES O=C(C[NH+]1CCN(C(=O)c2ccc(F)c(F)c2F)CC1)OCCOCCOCCOC(=O)c1ccc(-c2c3nc(c(-c4c(F)cc(S(=O)(=O)[O-])cc4F)c4ccc([nH]4)c(-c4c(F)cc(S(=O)(=O)[O-])cc4F)c4nc(c(-c5c(F)cc(S(=O)(=O)[O-])cc5F)c5ccc2[nH]5)C=C4)C=C3)cc1
REMARK SMILES IDX 26 1 25 2 24 3 23 4 22 5 21 6 2 7 1 8 3 9 4 10 5 11 20 12
REMARK SMILES IDX 6 14 19 15 7 16 8 17 9 18 10 19 11 20 17 21 12 22 15 23
REMARK SMILES IDX 18 24 13 25 16 26 14 27 27 28 28 29 29 30 30 31 31 32 32 33
REMARK SMILES IDX 33 34 34 35 98 36 35 37 97 38 36 39 37 40 38 41 91 42 39 43
REMARK SMILES IDX 96 44 90 45 92 46 40 47 95 48 89 49 88 50 41 52 75 53 54 54
REMARK SMILES IDX 74 55 55 56 58 57 73 58 93 59 56 60 57 61 72 63 94 64 59 65
REMARK SMILES IDX 42 66 43 67 52 68 44 69 45 70 51 71 53 72 46 73 47 74 48 75
REMARK SMILES IDX 49 76 50 77 76 78 77 79 86 80 78 81 79 82 85 83 87 84 80 85
REMARK SMILES IDX 81 86 82 87 83 88 84 89 60 90 61 91 70 92 62 93 63 94 69 95
REMARK SMILES IDX 71 96 64 97 65 98 66 99 67 100 68 101
REMARK H PARENT 4 13 92 51 58 62
REMARK Flexibility Score: inf
ROOT
ATOM      1  C   UNL A   1      34.723  33.689  29.098  1.00  0.00     0.188 C 
ENDROOT
BRANCH   1   2
ATOM      2  C   UNL A   1      33.811  32.876  28.171  1.00  0.00     0.188 C 
BRANCH   2   3
ATOM      3  O   UNL A   1      34.144  31.501  28.167  1.00  0.00    -0.376 OA
BRANCH   3   4
ATOM      4  C   UNL A   1      33.640  30.753  27.080  1.00  0.00     0.202 C 
BRANCH   4   5
ATOM      5  C   UNL A   1      34.219  29.340  27.091  1.00  0.00     0.261 C 
BRANCH   5   6
ATOM      6  O   UNL A   1      33.339  28.284  27.544  1.00  0.00    -0.459 OA
BRANCH   6   7
ATOM      7  C   UNL A   1      32.100  27.985  27.094  1.00  0.00     0.361 C 
ATOM      8  O   UNL A   1      31.206  27.748  27.906  1.00  0.00    -0.245 OA
BRANCH   7   9
ATOM      9  C   UNL A   1      31.844  27.802  25.601  1.00  0.00     0.386 C 
BRANCH   9  10
ATOM     10  N   UNL A   1      31.653  26.400  25.194  1.00  0.00    -0.323 N 
ATOM     11  C   UNL A   1      31.495  26.293  23.714  1.00  0.00     0.284 C 
ATOM     12  C   UNL A   1      32.740  25.526  25.685  1.00  0.00     0.284 C 
ATOM     13  H   UNL A   1      30.791  26.071  25.628  1.00  0.00     0.348 HD
ATOM     14  C   UNL A   1      32.811  26.355  22.911  1.00  0.00     0.181 C 
ATOM     15  C   UNL A   1      34.051  25.639  24.889  1.00  0.00     0.181 C 
ATOM     16  N   UNL A   1      33.753  25.395  23.479  1.00  0.00    -0.327 N 
ATOM     17  C   UNL A   1      33.959  24.192  22.818  1.00  0.00     0.257 C 
ATOM     18  O   UNL A   1      33.468  23.893  21.736  1.00  0.00    -0.269 OA
BRANCH  17  19
ATOM     19  C   UNL A   1      34.711  23.149  23.521  1.00  0.00     0.079 A 
ATOM     20  C   UNL A   1      36.111  23.155  23.444  1.00  0.00     0.020 A 
ATOM     21  C   UNL A   1      34.034  22.163  24.232  1.00  0.00     0.174 A 
ATOM     22  C   UNL A   1      36.833  22.133  24.056  1.00  0.00     0.043 A 
ATOM     23  C   UNL A   1      34.761  21.160  24.857  1.00  0.00     0.195 A 
ATOM     24  F   UNL A   1      32.696  22.151  24.289  1.00  0.00    -0.203 F 
ATOM     25  C   UNL A   1      36.150  21.143  24.760  1.00  0.00     0.161 A 
ATOM     26  F   UNL A   1      34.129  20.191  25.535  1.00  0.00    -0.200 F 
ATOM     27  F   UNL A   1      36.852  20.160  25.340  1.00  0.00    -0.204 F 
ENDBRANCH  17  19
ENDBRANCH   9  10
ENDBRANCH   7   9
ENDBRANCH   6   7
ENDBRANCH   5   6
ENDBRANCH   4   5
ENDBRANCH   3   4
ENDBRANCH   2   3
ENDBRANCH   1   2
BRANCH   1  28
ATOM     28  O   UNL A   1      34.736  33.413  30.494  1.00  0.00    -0.376 OA
BRANCH  28  29
ATOM     29  C   UNL A   1      35.886  32.824  31.087  1.00  0.00     0.202 C 
BRANCH  29  30
ATOM     30  C   UNL A   1      35.676  31.761  32.170  1.00  0.00     0.261 C 
BRANCH  30  31
ATOM     31  O   UNL A   1      36.749  30.809  32.310  1.00  0.00    -0.460 OA
BRANCH  31  32
ATOM     32  C   UNL A   1      36.940  29.995  31.240  1.00  0.00     0.338 C 
ATOM     33  O   UNL A   1      36.099  29.316  30.678  1.00  0.00    -0.246 OA
BRANCH  32  34
ATOM     34  C   UNL A   1      38.318  30.121  30.720  1.00  0.00     0.060 A 
ATOM     35  C   UNL A   1      38.498  30.166  29.330  1.00  0.00     0.016 A 
ATOM     36  C   UNL A   1      39.424  30.056  31.570  1.00  0.00     0.016 A 
ATOM     37  C   UNL A   1      39.783  30.098  28.784  1.00  0.00     0.010 A 
ATOM     38  C   UNL A   1      40.710  29.969  31.020  1.00  0.00     0.010 A 
ATOM     39  C   UNL A   1      40.894  29.950  29.625  1.00  0.00    -0.014 A 
BRANCH  39  40
ATOM     40  C   UNL A   1      42.217  29.592  29.050  1.00  0.00     0.031 A 
ATOM     41  C   UNL A   1      42.444  28.180  28.573  1.00  0.00     0.074 A 
ATOM     42  C   UNL A   1      43.203  30.501  28.937  1.00  0.00     0.049 A 
ATOM     43  N   UNL A   1      43.530  27.628  28.099  1.00  0.00    -0.248 NA
ATOM     44  C   UNL A   1      41.286  27.274  28.639  1.00  0.00     0.031 C 
ATOM     45  C   UNL A   1      43.104  31.909  29.311  1.00  0.00     0.029 A 
ATOM     46  N   UNL A   1      44.492  30.363  28.481  1.00  0.00    -0.354 N 
ATOM     47  C   UNL A   1      43.192  26.309  27.815  1.00  0.00     0.074 A 
ATOM     48  C   UNL A   1      41.805  26.139  28.191  1.00  0.00     0.031 C 
ATOM     49  C   UNL A   1      44.290  32.504  29.086  1.00  0.00     0.029 A 
ATOM     50  C   UNL A   1      45.239  31.513  28.581  1.00  0.00     0.049 A 
ATOM     51  H   UNL A   1      44.847  29.521  28.117  1.00  0.00     0.167 HD
ATOM     52  C   UNL A   1      43.962  25.330  27.282  1.00  0.00     0.037 A 
ATOM     53  C   UNL A   1      46.544  31.732  28.319  1.00  0.00     0.037 A 
ATOM     54  C   UNL A   1      45.344  25.491  26.914  1.00  0.00     0.049 A 
ATOM     55  C   UNL A   1      47.406  30.605  27.809  1.00  0.00     0.074 A 
ATOM     56  C   UNL A   1      46.203  24.555  26.365  1.00  0.00     0.029 A 
ATOM     57  N   UNL A   1      46.072  26.661  27.064  1.00  0.00    -0.354 N 
ATOM     58  N   UNL A   1      47.070  29.367  27.535  1.00  0.00    -0.248 NA
ATOM     59  C   UNL A   1      48.827  30.905  27.573  1.00  0.00     0.031 C 
ATOM     60  C   UNL A   1      47.463  25.147  26.222  1.00  0.00     0.029 A 
ATOM     61  C   UNL A   1      47.377  26.465  26.639  1.00  0.00     0.049 A 
ATOM     62  H   UNL A   1      45.715  27.507  27.420  1.00  0.00     0.167 HD
ATOM     63  C   UNL A   1      48.228  28.751  27.069  1.00  0.00     0.074 A 
ATOM     64  C   UNL A   1      49.273  29.752  27.092  1.00  0.00     0.031 C 
ATOM     65  C   UNL A   1      48.408  27.471  26.655  1.00  0.00     0.037 A 
BRANCH  52  66
ATOM     66  C   UNL A   1      43.329  23.981  27.092  1.00  0.00     0.058 A 
ATOM     67  C   UNL A   1      43.138  23.097  28.166  1.00  0.00     0.135 A 
ATOM     68  C   UNL A   1      42.882  23.576  25.823  1.00  0.00     0.135 A 
ATOM     69  F   UNL A   1      43.563  23.428  29.396  1.00  0.00    -0.206 F 
ATOM     70  C   UNL A   1      42.552  21.850  27.984  1.00  0.00     0.059 A 
ATOM     71  C   UNL A   1      42.272  22.342  25.623  1.00  0.00     0.059 A 
ATOM     72  F   UNL A   1      43.043  24.383  24.761  1.00  0.00    -0.206 F 
ATOM     73  C   UNL A   1      42.123  21.479  26.708  1.00  0.00     0.060 A 
BRANCH  73  74
ATOM     74  S   UNL A   1      41.367  19.856  26.487  1.00  0.00     0.124 S 
ATOM     75  O   UNL A   1      41.650  19.227  27.774  1.00  0.00    -0.237 OA
ATOM     76  O   UNL A   1      39.969  20.192  26.241  1.00  0.00    -0.237 OA
ATOM     77  O   UNL A   1      42.085  19.299  25.345  1.00  0.00    -0.744 OA
ENDBRANCH  73  74
ENDBRANCH  52  66
BRANCH  53  78
ATOM     78  C   UNL A   1      47.132  33.079  28.549  1.00  0.00     0.058 A 
ATOM     79  C   UNL A   1      47.180  34.031  27.521  1.00  0.00     0.135 A 
ATOM     80  C   UNL A   1      47.670  33.435  29.796  1.00  0.00     0.135 A 
ATOM     81  F   UNL A   1      46.690  33.732  26.307  1.00  0.00    -0.206 F 
ATOM     82  C   UNL A   1      47.754  35.283  27.713  1.00  0.00     0.059 A 
ATOM     83  C   UNL A   1      48.227  34.690  30.021  1.00  0.00     0.059 A 
ATOM     84  F   UNL A   1      47.639  32.562  30.814  1.00  0.00    -0.206 F 
ATOM     85  C   UNL A   1      48.274  35.603  28.969  1.00  0.00     0.060 A 
BRANCH  85  86
ATOM     86  S   UNL A   1      48.981  37.246  29.214  1.00  0.00     0.124 S 
ATOM     87  O   UNL A   1      48.029  37.839  30.145  1.00  0.00    -0.237 OA
ATOM     88  O   UNL A   1      50.298  36.931  29.759  1.00  0.00    -0.237 OA
ATOM     89  O   UNL A   1      48.985  37.812  27.869  1.00  0.00    -0.744 OA
ENDBRANCH  85  86
ENDBRANCH  53  78
BRANCH  65  90
ATOM     90  C   UNL A   1      49.772  27.081  26.157  1.00  0.00     0.058 A 
ATOM     91  C   UNL A   1      50.744  26.536  27.011  1.00  0.00     0.135 A 
ATOM     92  C   UNL A   1      50.089  27.193  24.792  1.00  0.00     0.135 A 
ATOM     93  F   UNL A   1      50.495  26.412  28.324  1.00  0.00    -0.206 F 
ATOM     94  C   UNL A   1      51.987  26.131  26.533  1.00  0.00     0.059 A 
ATOM     95  C   UNL A   1      51.317  26.773  24.289  1.00  0.00     0.059 A 
ATOM     96  F   UNL A   1      49.192  27.698  23.930  1.00  0.00    -0.206 F 
ATOM     97  C   UNL A   1      52.263  26.252  25.170  1.00  0.00     0.060 A 
BRANCH  97  98
ATOM     98  S   UNL A   1      53.864  25.683  24.554  1.00  0.00     0.124 S 
ATOM     99  O   UNL A   1      54.780  26.288  25.515  1.00  0.00    -0.237 OA
ATOM    100  O   UNL A   1      53.732  24.231  24.633  1.00  0.00    -0.237 OA
ATOM    101  O   UNL A   1      53.921  26.229  23.201  1.00  0.00    -0.744 OA
ENDBRANCH  97  98
ENDBRANCH  65  90
ENDBRANCH  39  40
ENDBRANCH  32  34
ENDBRANCH  31  32
ENDBRANCH  30  31
ENDBRANCH  29  30
ENDBRANCH  28  29
ENDBRANCH   1  28
TORSDOF 22
ENDMDL
