MODEL 1
REMARK VINA RESULT:      -9.9      0.000      0.000
REMARK SMILES CCOc1ccccc1Nc1ccc(C(=O)OCCOCCOCCOC(=O)c2ccc(-c3c4nc(c(-c5c(F)cc(S(=O)(=O)[O-])cc5F)c5ccc([nH]5)c(-c5c(F)cc(S(=O)(=O)[O-])cc5F)c5nc(c(-c6c(F)cc(S(=O)(=O)[O-])cc6F)c6ccc3[nH]6)C=C5)C=C4)cc2)cc1N
REMARK SMILES IDX 21 1 20 2 19 3 18 4 17 5 15 6 16 7 14 8 11 9 12 10 96 11
REMARK SMILES IDX 13 12 95 13 10 14 9 16 4 17 5 18 6 19 8 20 7 21 3 22 2 23
REMARK SMILES IDX 1 24 97 25 22 28 23 29 24 30 25 31 26 32 27 33 28 34 29 35
REMARK SMILES IDX 30 36 94 37 31 38 93 39 32 40 33 41 34 42 87 43 35 44 92 45
REMARK SMILES IDX 86 46 88 47 36 48 91 49 85 50 84 51 37 53 71 54 50 55 70 56
REMARK SMILES IDX 51 57 54 58 69 59 89 60 52 61 53 62 68 64 90 65 55 66 38 67
REMARK SMILES IDX 39 68 48 69 40 70 41 71 47 72 49 73 42 74 43 75 44 76 45 77
REMARK SMILES IDX 46 78 72 79 73 80 82 81 74 82 75 83 81 84 83 85 76 86 77 87
REMARK SMILES IDX 78 88 79 89 80 90 56 91 57 92 66 93 58 94 59 95 65 96 67 97
REMARK SMILES IDX 60 98 61 99 62 100 63 101 64 102
REMARK H PARENT 10 15 97 26 97 27 88 52 54 63
REMARK Flexibility Score: inf
ROOT
ATOM      1  C   UNL A   1      33.386  28.785  27.037  1.00  0.00     0.188 C 
ENDROOT
BRANCH   1   2
ATOM      2  O   UNL A   1      33.355  28.312  25.710  1.00  0.00    -0.376 OA
BRANCH   2   3
ATOM      3  C   UNL A   1      33.143  29.211  24.636  1.00  0.00     0.202 C 
BRANCH   3   4
ATOM      4  C   UNL A   1      31.813  29.402  23.878  1.00  0.00     0.261 C 
BRANCH   4   5
ATOM      5  O   UNL A   1      30.712  28.575  24.246  1.00  0.00    -0.460 OA
BRANCH   5   6
ATOM      6  C   UNL A   1      30.201  27.810  23.248  1.00  0.00     0.338 C 
ATOM      7  O   UNL A   1      29.346  28.127  22.453  1.00  0.00    -0.246 OA
BRANCH   6   8
ATOM      8  C   UNL A   1      30.975  26.552  23.156  1.00  0.00     0.062 A 
ATOM      9  C   UNL A   1      32.599  24.287  23.154  1.00  0.00     0.062 A 
ATOM     10  C   UNL A   1      31.907  24.654  24.314  1.00  0.00     0.029 A 
ATOM     11  C   UNL A   1      32.376  24.998  21.946  1.00  0.00     0.056 A 
ATOM     12  C   UNL A   1      31.106  25.791  24.321  1.00  0.00     0.018 A 
ATOM     13  C   UNL A   1      31.553  26.125  21.956  1.00  0.00     0.043 A 
BRANCH   9  14
ATOM     14  N   UNL A   1      33.623  23.327  23.282  1.00  0.00    -0.351 N 
ATOM     15  H   UNL A   1      34.521  23.633  23.021  1.00  0.00     0.167 HD
BRANCH  14  16
ATOM     16  C   UNL A   1      33.547  21.993  23.732  1.00  0.00     0.081 A 
ATOM     17  C   UNL A   1      34.643  21.421  24.397  1.00  0.00     0.142 A 
ATOM     18  C   UNL A   1      34.592  20.109  24.872  1.00  0.00     0.048 A 
ATOM     19  C   UNL A   1      33.426  19.356  24.713  1.00  0.00     0.004 A 
ATOM     20  C   UNL A   1      32.388  21.216  23.582  1.00  0.00     0.030 A 
ATOM     21  C   UNL A   1      32.325  19.910  24.064  1.00  0.00     0.002 A 
BRANCH  17  22
ATOM     22  O   UNL A   1      35.834  22.100  24.461  1.00  0.00    -0.492 OA
BRANCH  22  23
ATOM     23  C   UNL A   1      36.148  22.547  25.786  1.00  0.00     0.226 C 
ATOM     24  C   UNL A   1      36.310  24.060  25.810  1.00  0.00     0.049 C 
ENDBRANCH  22  23
ENDBRANCH  17  22
ENDBRANCH  14  16
ENDBRANCH   9  14
BRANCH  11  25
ATOM     25  N   UNL A   1      32.876  24.522  20.736  1.00  0.00    -0.397 N 
ATOM     26  H   UNL A   1      32.353  23.879  20.205  1.00  0.00     0.156 HD
ATOM     27  H   UNL A   1      33.754  24.828  20.412  1.00  0.00     0.156 HD
ENDBRANCH  11  25
ENDBRANCH   6   8
ENDBRANCH   5   6
ENDBRANCH   4   5
ENDBRANCH   3   4
ENDBRANCH   2   3
ENDBRANCH   1   2
BRANCH   1  28
ATOM     28  C   UNL A   1      32.735  30.174  27.220  1.00  0.00     0.188 C 
BRANCH  28  29
ATOM     29  O   UNL A   1      33.537  31.343  27.157  1.00  0.00    -0.376 OA
BRANCH  29  30
ATOM     30  C   UNL A   1      33.955  31.973  28.359  1.00  0.00     0.202 C 
BRANCH  30  31
ATOM     31  C   UNL A   1      35.351  31.758  28.983  1.00  0.00     0.261 C 
BRANCH  31  32
ATOM     32  O   UNL A   1      35.835  30.412  29.063  1.00  0.00    -0.460 OA
BRANCH  32  33
ATOM     33  C   UNL A   1      36.512  30.101  30.195  1.00  0.00     0.338 C 
ATOM     34  O   UNL A   1      36.042  29.852  31.292  1.00  0.00    -0.246 OA
BRANCH  33  35
ATOM     35  C   UNL A   1      37.942  29.936  29.875  1.00  0.00     0.060 A 
ATOM     36  C   UNL A   1      38.319  29.786  28.532  1.00  0.00     0.016 A 
ATOM     37  C   UNL A   1      38.897  29.878  30.890  1.00  0.00     0.016 A 
ATOM     38  C   UNL A   1      39.654  29.557  28.202  1.00  0.00     0.010 A 
ATOM     39  C   UNL A   1      40.232  29.623  30.557  1.00  0.00     0.010 A 
ATOM     40  C   UNL A   1      40.611  29.435  29.216  1.00  0.00    -0.014 A 
BRANCH  40  41
ATOM     41  C   UNL A   1      41.974  28.945  28.890  1.00  0.00     0.031 A 
ATOM     42  C   UNL A   1      43.118  29.920  28.923  1.00  0.00     0.074 A 
ATOM     43  C   UNL A   1      42.192  27.656  28.573  1.00  0.00     0.049 A 
ATOM     44  N   UNL A   1      44.374  29.737  28.614  1.00  0.00    -0.248 NA
ATOM     45  C   UNL A   1      42.796  31.289  29.358  1.00  0.00     0.031 C 
ATOM     46  C   UNL A   1      41.171  26.610  28.540  1.00  0.00     0.029 A 
ATOM     47  N   UNL A   1      43.346  27.015  28.199  1.00  0.00    -0.354 N 
ATOM     48  C   UNL A   1      44.992  30.968  28.800  1.00  0.00     0.074 A 
ATOM     49  C   UNL A   1      43.966  31.896  29.225  1.00  0.00     0.031 C 
ATOM     50  C   UNL A   1      41.743  25.460  28.144  1.00  0.00     0.029 A 
ATOM     51  C   UNL A   1      43.158  25.696  27.864  1.00  0.00     0.049 A 
ATOM     52  H   UNL A   1      44.225  27.458  28.174  1.00  0.00     0.167 HD
ATOM     53  C   UNL A   1      46.297  31.295  28.634  1.00  0.00     0.037 A 
ATOM     54  C   UNL A   1      44.023  24.792  27.359  1.00  0.00     0.037 A 
ATOM     55  C   UNL A   1      47.311  30.367  28.206  1.00  0.00     0.049 A 
ATOM     56  C   UNL A   1      45.458  25.190  27.125  1.00  0.00     0.074 A 
ATOM     57  C   UNL A   1      48.666  30.590  28.038  1.00  0.00     0.029 A 
ATOM     58  N   UNL A   1      47.080  29.042  27.860  1.00  0.00    -0.354 N 
ATOM     59  N   UNL A   1      46.039  26.346  27.338  1.00  0.00    -0.248 NA
ATOM     60  C   UNL A   1      46.356  24.158  26.587  1.00  0.00     0.031 C 
ATOM     61  C   UNL A   1      49.243  29.421  27.532  1.00  0.00     0.029 A 
ATOM     62  C   UNL A   1      48.261  28.446  27.448  1.00  0.00     0.049 A 
ATOM     63  H   UNL A   1      46.205  28.593  27.901  1.00  0.00     0.167 HD
ATOM     64  C   UNL A   1      47.375  26.174  26.985  1.00  0.00     0.074 A 
ATOM     65  C   UNL A   1      47.517  24.799  26.555  1.00  0.00     0.031 C 
ATOM     66  C   UNL A   1      48.391  27.073  27.021  1.00  0.00     0.037 A 
BRANCH  53  67
ATOM     67  C   UNL A   1      46.690  32.726  28.879  1.00  0.00     0.058 A 
ATOM     68  C   UNL A   1      46.679  33.688  27.855  1.00  0.00     0.135 A 
ATOM     69  C   UNL A   1      47.077  33.145  30.163  1.00  0.00     0.135 A 
ATOM     70  F   UNL A   1      46.334  33.342  26.605  1.00  0.00    -0.206 F 
ATOM     71  C   UNL A   1      47.072  35.002  28.088  1.00  0.00     0.059 A 
ATOM     72  C   UNL A   1      47.444  34.461  30.426  1.00  0.00     0.059 A 
ATOM     73  F   UNL A   1      47.107  32.268  31.179  1.00  0.00    -0.206 F 
ATOM     74  C   UNL A   1      47.457  35.378  29.377  1.00  0.00     0.060 A 
BRANCH  74  75
ATOM     75  S   UNL A   1      47.979  37.083  29.659  1.00  0.00     0.124 S 
ATOM     76  O   UNL A   1      46.762  37.818  29.328  1.00  0.00    -0.237 OA
ATOM     77  O   UNL A   1      48.344  37.068  31.072  1.00  0.00    -0.237 OA
ATOM     78  O   UNL A   1      49.089  37.258  28.728  1.00  0.00    -0.744 OA
ENDBRANCH  74  75
ENDBRANCH  53  67
BRANCH  54  79
ATOM     79  C   UNL A   1      43.545  23.422  27.029  1.00  0.00     0.058 A 
ATOM     80  C   UNL A   1      43.389  23.008  25.699  1.00  0.00     0.135 A 
ATOM     81  C   UNL A   1      43.260  22.492  28.041  1.00  0.00     0.135 A 
ATOM     82  F   UNL A   1      43.635  23.865  24.696  1.00  0.00    -0.206 F 
ATOM     83  C   UNL A   1      42.967  21.720  25.382  1.00  0.00     0.059 A 
ATOM     84  C   UNL A   1      42.862  21.191  27.750  1.00  0.00     0.059 A 
ATOM     85  F   UNL A   1      43.399  22.837  29.330  1.00  0.00    -0.206 F 
ATOM     86  C   UNL A   1      42.715  20.816  26.415  1.00  0.00     0.060 A 
BRANCH  86  87
ATOM     87  S   UNL A   1      42.243  19.125  25.988  1.00  0.00     0.124 S 
ATOM     88  O   UNL A   1      40.796  19.245  25.865  1.00  0.00    -0.237 OA
ATOM     89  O   UNL A   1      42.976  18.910  24.744  1.00  0.00    -0.237 OA
ATOM     90  O   UNL A   1      42.717  18.346  27.128  1.00  0.00    -0.744 OA
ENDBRANCH  86  87
ENDBRANCH  54  79
BRANCH  66  91
ATOM     91  C   UNL A   1      49.762  26.596  26.617  1.00  0.00     0.058 A 
ATOM     92  C   UNL A   1      50.660  26.040  27.543  1.00  0.00     0.135 A 
ATOM     93  C   UNL A   1      50.160  26.641  25.270  1.00  0.00     0.135 A 
ATOM     94  F   UNL A   1      50.335  25.976  28.843  1.00  0.00    -0.206 F 
ATOM     95  C   UNL A   1      51.909  25.568  27.152  1.00  0.00     0.059 A 
ATOM     96  C   UNL A   1      51.392  26.146  24.852  1.00  0.00     0.059 A 
ATOM     97  F   UNL A   1      49.338  27.152  24.339  1.00  0.00    -0.206 F 
ATOM     98  C   UNL A   1      52.265  25.622  25.802  1.00  0.00     0.060 A 
BRANCH  98  99
ATOM     99  S   UNL A   1      53.875  24.974  25.304  1.00  0.00     0.124 S 
ATOM    100  O   UNL A   1      54.604  24.991  26.568  1.00  0.00    -0.237 OA
ATOM    101  O   UNL A   1      53.533  23.653  24.787  1.00  0.00    -0.237 OA
ATOM    102  O   UNL A   1      54.332  25.933  24.303  1.00  0.00    -0.744 OA
ENDBRANCH  98  99
ENDBRANCH  66  91
ENDBRANCH  40  41
ENDBRANCH  33  35
ENDBRANCH  32  33
ENDBRANCH  31  32
ENDBRANCH  30  31
ENDBRANCH  29  30
ENDBRANCH  28  29
ENDBRANCH   1  28
TORSDOF 25
ENDMDL
MODEL 2
REMARK VINA RESULT:      -9.2      6.279     12.095
REMARK SMILES CCOc1ccccc1Nc1ccc(C(=O)OCCOCCOCCOC(=O)c2ccc(-c3c4nc(c(-c5c(F)cc(S(=O)(=O)[O-])cc5F)c5ccc([nH]5)c(-c5c(F)cc(S(=O)(=O)[O-])cc5F)c5nc(c(-c6c(F)cc(S(=O)(=O)[O-])cc6F)c6ccc3[nH]6)C=C5)C=C4)cc2)cc1N
REMARK SMILES IDX 21 1 20 2 19 3 18 4 17 5 15 6 16 7 14 8 11 9 12 10 96 11
REMARK SMILES IDX 13 12 95 13 10 14 9 16 4 17 5 18 6 19 8 20 7 21 3 22 2 23
REMARK SMILES IDX 1 24 97 25 22 28 23 29 24 30 25 31 26 32 27 33 28 34 29 35
REMARK SMILES IDX 30 36 94 37 31 38 93 39 32 40 33 41 34 42 87 43 35 44 92 45
REMARK SMILES IDX 86 46 88 47 36 48 91 49 85 50 84 51 37 53 71 54 50 55 70 56
REMARK SMILES IDX 51 57 54 58 69 59 89 60 52 61 53 62 68 64 90 65 55 66 38 67
REMARK SMILES IDX 39 68 48 69 40 70 41 71 47 72 49 73 42 74 43 75 44 76 45 77
REMARK SMILES IDX 46 78 72 79 73 80 82 81 74 82 75 83 81 84 83 85 76 86 77 87
REMARK SMILES IDX 78 88 79 89 80 90 56 91 57 92 66 93 58 94 59 95 65 96 67 97
REMARK SMILES IDX 60 98 61 99 62 100 63 101 64 102
REMARK H PARENT 10 15 97 26 97 27 88 52 54 63
REMARK Flexibility Score: inf
ROOT
ATOM      1  C   UNL A   1      43.657  20.481  25.743  1.00  0.00     0.188 C 
ENDROOT
BRANCH   1   2
ATOM      2  O   UNL A   1      42.300  20.636  25.399  1.00  0.00    -0.376 OA
BRANCH   2   3
ATOM      3  C   UNL A   1      41.457  21.470  26.174  1.00  0.00     0.202 C 
BRANCH   3   4
ATOM      4  C   UNL A   1      39.969  21.201  26.481  1.00  0.00     0.261 C 
BRANCH   4   5
ATOM      5  O   UNL A   1      38.994  21.924  25.734  1.00  0.00    -0.460 OA
BRANCH   5   6
ATOM      6  C   UNL A   1      37.935  21.194  25.301  1.00  0.00     0.338 C 
ATOM      7  O   UNL A   1      37.945  20.038  24.946  1.00  0.00    -0.246 OA
BRANCH   6   8
ATOM      8  C   UNL A   1      36.695  21.979  25.486  1.00  0.00     0.062 A 
ATOM      9  C   UNL A   1      34.493  23.609  26.000  1.00  0.00     0.062 A 
ATOM     10  C   UNL A   1      35.620  24.134  25.358  1.00  0.00     0.029 A 
ATOM     11  C   UNL A   1      34.423  22.218  26.277  1.00  0.00     0.056 A 
ATOM     12  C   UNL A   1      36.725  23.326  25.112  1.00  0.00     0.018 A 
ATOM     13  C   UNL A   1      35.528  21.410  26.006  1.00  0.00     0.043 A 
BRANCH   9  14
ATOM     14  N   UNL A   1      33.543  24.522  26.501  1.00  0.00    -0.351 N 
ATOM     15  H   UNL A   1      33.634  24.743  27.456  1.00  0.00     0.167 HD
BRANCH  14  16
ATOM     16  C   UNL A   1      32.482  25.166  25.831  1.00  0.00     0.081 A 
ATOM     17  C   UNL A   1      31.165  24.979  26.277  1.00  0.00     0.142 A 
ATOM     18  C   UNL A   1      30.094  25.618  25.649  1.00  0.00     0.048 A 
ATOM     19  C   UNL A   1      30.332  26.481  24.577  1.00  0.00     0.004 A 
ATOM     20  C   UNL A   1      32.696  26.036  24.751  1.00  0.00     0.030 A 
ATOM     21  C   UNL A   1      31.633  26.688  24.126  1.00  0.00     0.002 A 
BRANCH  17  22
ATOM     22  O   UNL A   1      30.898  24.049  27.251  1.00  0.00    -0.492 OA
BRANCH  22  23
ATOM     23  C   UNL A   1      30.208  22.899  26.747  1.00  0.00     0.226 C 
ATOM     24  C   UNL A   1      29.004  22.579  27.621  1.00  0.00     0.049 C 
ENDBRANCH  22  23
ENDBRANCH  17  22
ENDBRANCH  14  16
ENDBRANCH   9  14
BRANCH  11  25
ATOM     25  N   UNL A   1      33.234  21.636  26.710  1.00  0.00    -0.397 N 
ATOM     26  H   UNL A   1      32.816  21.934  27.550  1.00  0.00     0.156 HD
ATOM     27  H   UNL A   1      32.811  20.926  26.175  1.00  0.00     0.156 HD
ENDBRANCH  11  25
ENDBRANCH   6   8
ENDBRANCH   5   6
ENDBRANCH   4   5
ENDBRANCH   3   4
ENDBRANCH   2   3
ENDBRANCH   1   2
BRANCH   1  28
ATOM     28  C   UNL A   1      44.636  21.070  24.703  1.00  0.00     0.188 C 
BRANCH  28  29
ATOM     29  O   UNL A   1      44.966  22.450  24.747  1.00  0.00    -0.376 OA
BRANCH  29  30
ATOM     30  C   UNL A   1      44.039  23.409  24.261  1.00  0.00     0.202 C 
BRANCH  30  31
ATOM     31  C   UNL A   1      43.701  24.713  25.015  1.00  0.00     0.261 C 
BRANCH  31  32
ATOM     32  O   UNL A   1      43.118  24.587  26.319  1.00  0.00    -0.460 OA
BRANCH  32  33
ATOM     33  C   UNL A   1      43.949  24.847  27.357  1.00  0.00     0.338 C 
ATOM     34  O   UNL A   1      45.072  24.404  27.533  1.00  0.00    -0.246 OA
BRANCH  33  35
ATOM     35  C   UNL A   1      43.360  25.907  28.197  1.00  0.00     0.060 A 
ATOM     36  C   UNL A   1      43.791  27.229  28.015  1.00  0.00     0.016 A 
ATOM     37  C   UNL A   1      42.430  25.594  29.189  1.00  0.00     0.016 A 
ATOM     38  C   UNL A   1      43.307  28.242  28.840  1.00  0.00     0.010 A 
ATOM     39  C   UNL A   1      41.964  26.610  30.031  1.00  0.00     0.010 A 
ATOM     40  C   UNL A   1      42.420  27.931  29.878  1.00  0.00    -0.014 A 
BRANCH  40  41
ATOM     41  C   UNL A   1      42.101  28.952  30.907  1.00  0.00     0.031 A 
ATOM     42  C   UNL A   1      42.937  29.002  32.156  1.00  0.00     0.074 A 
ATOM     43  C   UNL A   1      41.088  29.820  30.735  1.00  0.00     0.049 A 
ATOM     44  N   UNL A   1      42.805  29.758  33.214  1.00  0.00    -0.248 NA
ATOM     45  C   UNL A   1      44.071  28.067  32.221  1.00  0.00     0.031 C 
ATOM     46  C   UNL A   1      40.229  29.892  29.554  1.00  0.00     0.029 A 
ATOM     47  N   UNL A   1      40.602  30.796  31.568  1.00  0.00    -0.354 N 
ATOM     48  C   UNL A   1      43.827  29.382  34.077  1.00  0.00     0.074 A 
ATOM     49  C   UNL A   1      44.554  28.312  33.429  1.00  0.00     0.031 C 
ATOM     50  C   UNL A   1      39.305  30.849  29.749  1.00  0.00     0.029 A 
ATOM     51  C   UNL A   1      39.486  31.431  31.078  1.00  0.00     0.049 A 
ATOM     52  H   UNL A   1      41.013  31.020  32.434  1.00  0.00     0.167 HD
ATOM     53  C   UNL A   1      44.132  29.884  35.298  1.00  0.00     0.037 A 
ATOM     54  C   UNL A   1      38.685  32.353  31.650  1.00  0.00     0.037 A 
ATOM     55  C   UNL A   1      43.400  30.945  35.938  1.00  0.00     0.049 A 
ATOM     56  C   UNL A   1      39.005  32.858  33.034  1.00  0.00     0.074 A 
ATOM     57  C   UNL A   1      43.647  31.547  37.159  1.00  0.00     0.029 A 
ATOM     58  N   UNL A   1      42.265  31.553  35.418  1.00  0.00    -0.354 N 
ATOM     59  N   UNL A   1      39.995  32.520  33.826  1.00  0.00    -0.248 NA
ATOM     60  C   UNL A   1      38.105  33.872  33.598  1.00  0.00     0.031 C 
ATOM     61  C   UNL A   1      42.629  32.473  37.406  1.00  0.00     0.029 A 
ATOM     62  C   UNL A   1      41.783  32.499  36.308  1.00  0.00     0.049 A 
ATOM     63  H   UNL A   1      41.862  31.342  34.544  1.00  0.00     0.167 HD
ATOM     64  C   UNL A   1      39.850  33.298  34.971  1.00  0.00     0.074 A 
ATOM     65  C   UNL A   1      38.684  34.131  34.763  1.00  0.00     0.031 C 
ATOM     66  C   UNL A   1      40.618  33.325  36.090  1.00  0.00     0.037 A 
BRANCH  53  67
ATOM     67  C   UNL A   1      45.285  29.260  36.036  1.00  0.00     0.058 A 
ATOM     68  C   UNL A   1      45.130  28.110  36.828  1.00  0.00     0.135 A 
ATOM     69  C   UNL A   1      46.571  29.818  35.942  1.00  0.00     0.135 A 
ATOM     70  F   UNL A   1      43.921  27.544  36.968  1.00  0.00    -0.206 F 
ATOM     71  C   UNL A   1      46.198  27.560  37.528  1.00  0.00     0.059 A 
ATOM     72  C   UNL A   1      47.661  29.266  36.609  1.00  0.00     0.059 A 
ATOM     73  F   UNL A   1      46.778  30.918  35.200  1.00  0.00    -0.206 F 
ATOM     74  C   UNL A   1      47.460  28.148  37.415  1.00  0.00     0.060 A 
BRANCH  74  75
ATOM     75  S   UNL A   1      48.833  27.430  38.342  1.00  0.00     0.124 S 
ATOM     76  O   UNL A   1      49.969  27.773  37.491  1.00  0.00    -0.237 OA
ATOM     77  O   UNL A   1      48.758  28.142  39.613  1.00  0.00    -0.237 OA
ATOM     78  O   UNL A   1      48.499  26.011  38.400  1.00  0.00    -0.744 OA
ENDBRANCH  74  75
ENDBRANCH  53  67
BRANCH  54  79
ATOM     79  C   UNL A   1      37.491  32.848  30.912  1.00  0.00     0.058 A 
ATOM     80  C   UNL A   1      37.616  33.770  29.863  1.00  0.00     0.135 A 
ATOM     81  C   UNL A   1      36.203  32.386  31.227  1.00  0.00     0.135 A 
ATOM     82  F   UNL A   1      38.824  34.252  29.534  1.00  0.00    -0.206 F 
ATOM     83  C   UNL A   1      36.507  34.217  29.152  1.00  0.00     0.059 A 
ATOM     84  C   UNL A   1      35.082  32.799  30.514  1.00  0.00     0.059 A 
ATOM     85  F   UNL A   1      36.031  31.499  32.219  1.00  0.00    -0.206 F 
ATOM     86  C   UNL A   1      35.244  33.718  29.479  1.00  0.00     0.060 A 
BRANCH  86  87
ATOM     87  S   UNL A   1      33.824  34.248  28.497  1.00  0.00     0.124 S 
ATOM     88  O   UNL A   1      34.304  35.506  27.939  1.00  0.00    -0.237 OA
ATOM     89  O   UNL A   1      33.678  33.145  27.553  1.00  0.00    -0.237 OA
ATOM     90  O   UNL A   1      32.755  34.362  29.485  1.00  0.00    -0.744 OA
ENDBRANCH  86  87
ENDBRANCH  54  79
BRANCH  66  91
ATOM     91  C   UNL A   1      40.250  34.309  37.170  1.00  0.00     0.058 A 
ATOM     92  C   UNL A   1      40.679  35.646  37.137  1.00  0.00     0.135 A 
ATOM     93  C   UNL A   1      39.403  33.922  38.222  1.00  0.00     0.135 A 
ATOM     94  F   UNL A   1      41.492  36.069  36.157  1.00  0.00    -0.206 F 
ATOM     95  C   UNL A   1      40.300  36.556  38.119  1.00  0.00     0.059 A 
ATOM     96  C   UNL A   1      38.987  34.823  39.199  1.00  0.00     0.059 A 
ATOM     97  F   UNL A   1      38.953  32.659  38.299  1.00  0.00    -0.206 F 
ATOM     98  C   UNL A   1      39.451  36.135  39.145  1.00  0.00     0.060 A 
BRANCH  98  99
ATOM     99  S   UNL A   1      38.941  37.335  40.394  1.00  0.00     0.124 S 
ATOM    100  O   UNL A   1      38.145  36.507  41.292  1.00  0.00    -0.237 OA
ATOM    101  O   UNL A   1      40.220  37.796  40.924  1.00  0.00    -0.237 OA
ATOM    102  O   UNL A   1      38.193  38.328  39.627  1.00  0.00    -0.744 OA
ENDBRANCH  98  99
ENDBRANCH  66  91
ENDBRANCH  40  41
ENDBRANCH  33  35
ENDBRANCH  32  33
ENDBRANCH  31  32
ENDBRANCH  30  31
ENDBRANCH  29  30
ENDBRANCH  28  29
ENDBRANCH   1  28
TORSDOF 25
ENDMDL
MODEL 3
REMARK VINA RESULT:      -9.0      1.295      2.063
REMARK SMILES CCOc1ccccc1Nc1ccc(C(=O)OCCOCCOCCOC(=O)c2ccc(-c3c4nc(c(-c5c(F)cc(S(=O)(=O)[O-])cc5F)c5ccc([nH]5)c(-c5c(F)cc(S(=O)(=O)[O-])cc5F)c5nc(c(-c6c(F)cc(S(=O)(=O)[O-])cc6F)c6ccc3[nH]6)C=C5)C=C4)cc2)cc1N
REMARK SMILES IDX 21 1 20 2 19 3 18 4 17 5 15 6 16 7 14 8 11 9 12 10 96 11
REMARK SMILES IDX 13 12 95 13 10 14 9 16 4 17 5 18 6 19 8 20 7 21 3 22 2 23
REMARK SMILES IDX 1 24 97 25 22 28 23 29 24 30 25 31 26 32 27 33 28 34 29 35
REMARK SMILES IDX 30 36 94 37 31 38 93 39 32 40 33 41 34 42 87 43 35 44 92 45
REMARK SMILES IDX 86 46 88 47 36 48 91 49 85 50 84 51 37 53 71 54 50 55 70 56
REMARK SMILES IDX 51 57 54 58 69 59 89 60 52 61 53 62 68 64 90 65 55 66 38 67
REMARK SMILES IDX 39 68 48 69 40 70 41 71 47 72 49 73 42 74 43 75 44 76 45 77
REMARK SMILES IDX 46 78 72 79 73 80 82 81 74 82 75 83 81 84 83 85 76 86 77 87
REMARK SMILES IDX 78 88 79 89 80 90 56 91 57 92 66 93 58 94 59 95 65 96 67 97
REMARK SMILES IDX 60 98 61 99 62 100 63 101 64 102
REMARK H PARENT 10 15 97 26 97 27 88 52 54 63
REMARK Flexibility Score: inf
ROOT
ATOM      1  C   UNL A   1      34.008  27.941  25.803  1.00  0.00     0.188 C 
ENDROOT
BRANCH   1   2
ATOM      2  O   UNL A   1      33.798  27.886  24.411  1.00  0.00    -0.376 OA
BRANCH   2   3
ATOM      3  C   UNL A   1      33.021  28.880  23.767  1.00  0.00     0.202 C 
BRANCH   3   4
ATOM      4  C   UNL A   1      31.687  28.636  23.032  1.00  0.00     0.261 C 
BRANCH   4   5
ATOM      5  O   UNL A   1      30.478  28.826  23.765  1.00  0.00    -0.460 OA
BRANCH   5   6
ATOM      6  C   UNL A   1      29.570  27.824  23.656  1.00  0.00     0.338 C 
ATOM      7  O   UNL A   1      28.491  27.876  23.111  1.00  0.00    -0.246 OA
BRANCH   6   8
ATOM      8  C   UNL A   1      30.166  26.569  24.166  1.00  0.00     0.062 A 
ATOM      9  C   UNL A   1      31.507  24.343  25.172  1.00  0.00     0.062 A 
ATOM     10  C   UNL A   1      31.218  25.426  26.010  1.00  0.00     0.029 A 
ATOM     11  C   UNL A   1      31.009  24.327  23.843  1.00  0.00     0.056 A 
ATOM     12  C   UNL A   1      30.560  26.543  25.507  1.00  0.00     0.018 A 
ATOM     13  C   UNL A   1      30.330  25.444  23.353  1.00  0.00     0.043 A 
BRANCH   9  14
ATOM     14  N   UNL A   1      32.434  23.389  25.638  1.00  0.00    -0.351 N 
ATOM     15  H   UNL A   1      32.067  22.708  26.247  1.00  0.00     0.167 HD
BRANCH  14  16
ATOM     16  C   UNL A   1      33.810  23.268  25.357  1.00  0.00     0.081 A 
ATOM     17  C   UNL A   1      34.268  22.199  24.572  1.00  0.00     0.142 A 
ATOM     18  C   UNL A   1      35.622  22.062  24.259  1.00  0.00     0.048 A 
ATOM     19  C   UNL A   1      36.539  23.016  24.707  1.00  0.00     0.004 A 
ATOM     20  C   UNL A   1      34.751  24.212  25.798  1.00  0.00     0.030 A 
ATOM     21  C   UNL A   1      36.103  24.089  25.479  1.00  0.00     0.002 A 
BRANCH  17  22
ATOM     22  O   UNL A   1      33.405  21.191  24.219  1.00  0.00    -0.492 OA
BRANCH  22  23
ATOM     23  C   UNL A   1      33.419  20.097  25.145  1.00  0.00     0.226 C 
ATOM     24  C   UNL A   1      33.635  18.783  24.408  1.00  0.00     0.049 C 
ENDBRANCH  22  23
ENDBRANCH  17  22
ENDBRANCH  14  16
ENDBRANCH   9  14
BRANCH  11  25
ATOM     25  N   UNL A   1      31.091  23.175  23.065  1.00  0.00    -0.397 N 
ATOM     26  H   UNL A   1      30.776  22.314  23.424  1.00  0.00     0.156 HD
ATOM     27  H   UNL A   1      31.466  23.221  22.155  1.00  0.00     0.156 HD
ENDBRANCH  11  25
ENDBRANCH   6   8
ENDBRANCH   5   6
ENDBRANCH   4   5
ENDBRANCH   3   4
ENDBRANCH   2   3
ENDBRANCH   1   2
BRANCH   1  28
ATOM     28  C   UNL A   1      33.265  29.101  26.502  1.00  0.00     0.188 C 
BRANCH  28  29
ATOM     29  O   UNL A   1      33.859  30.389  26.556  1.00  0.00    -0.376 OA
BRANCH  29  30
ATOM     30  C   UNL A   1      34.515  30.810  27.744  1.00  0.00     0.202 C 
BRANCH  30  31
ATOM     31  C   UNL A   1      35.707  30.049  28.364  1.00  0.00     0.261 C 
BRANCH  31  32
ATOM     32  O   UNL A   1      36.356  30.651  29.491  1.00  0.00    -0.460 OA
BRANCH  32  33
ATOM     33  C   UNL A   1      37.063  29.804  30.278  1.00  0.00     0.338 C 
ATOM     34  O   UNL A   1      36.626  29.051  31.132  1.00  0.00    -0.246 OA
BRANCH  33  35
ATOM     35  C   UNL A   1      38.470  29.791  29.836  1.00  0.00     0.060 A 
ATOM     36  C   UNL A   1      38.749  29.540  28.485  1.00  0.00     0.016 A 
ATOM     37  C   UNL A   1      39.506  29.972  30.753  1.00  0.00     0.016 A 
ATOM     38  C   UNL A   1      40.070  29.450  28.049  1.00  0.00     0.010 A 
ATOM     39  C   UNL A   1      40.830  29.858  30.316  1.00  0.00     0.010 A 
ATOM     40  C   UNL A   1      41.118  29.569  28.970  1.00  0.00    -0.014 A 
BRANCH  40  41
ATOM     41  C   UNL A   1      42.503  29.227  28.562  1.00  0.00     0.031 A 
ATOM     42  C   UNL A   1      43.551  30.305  28.593  1.00  0.00     0.074 A 
ATOM     43  C   UNL A   1      42.825  27.981  28.173  1.00  0.00     0.049 A 
ATOM     44  N   UNL A   1      44.803  30.257  28.221  1.00  0.00    -0.248 NA
ATOM     45  C   UNL A   1      43.124  31.616  29.108  1.00  0.00     0.031 C 
ATOM     46  C   UNL A   1      41.906  26.845  28.133  1.00  0.00     0.029 A 
ATOM     47  N   UNL A   1      44.015  27.470  27.719  1.00  0.00    -0.354 N 
ATOM     48  C   UNL A   1      45.311  31.531  28.441  1.00  0.00     0.074 A 
ATOM     49  C   UNL A   1      44.225  32.337  28.955  1.00  0.00     0.031 C 
ATOM     50  C   UNL A   1      42.563  25.773  27.657  1.00  0.00     0.029 A 
ATOM     51  C   UNL A   1      43.935  26.155  27.327  1.00  0.00     0.049 A 
ATOM     52  H   UNL A   1      44.847  27.996  27.677  1.00  0.00     0.167 HD
ATOM     53  C   UNL A   1      46.571  31.988  28.235  1.00  0.00     0.037 A 
ATOM     54  C   UNL A   1      44.856  25.362  26.742  1.00  0.00     0.037 A 
ATOM     55  C   UNL A   1      47.645  31.181  27.718  1.00  0.00     0.049 A 
ATOM     56  C   UNL A   1      46.235  25.904  26.465  1.00  0.00     0.074 A 
ATOM     57  C   UNL A   1      48.963  31.540  27.503  1.00  0.00     0.029 A 
ATOM     58  N   UNL A   1      47.522  29.858  27.318  1.00  0.00    -0.354 N 
ATOM     59  N   UNL A   1      46.715  27.101  26.710  1.00  0.00    -0.248 NA
ATOM     60  C   UNL A   1      47.198  24.989  25.839  1.00  0.00     0.031 C 
ATOM     61  C   UNL A   1      49.623  30.455  26.916  1.00  0.00     0.029 A 
ATOM     62  C   UNL A   1      48.733  29.396  26.827  1.00  0.00     0.049 A 
ATOM     63  H   UNL A   1      46.696  29.325  27.375  1.00  0.00     0.167 HD
ATOM     64  C   UNL A   1      48.042  27.073  26.291  1.00  0.00     0.074 A 
ATOM     65  C   UNL A   1      48.291  25.738  25.788  1.00  0.00     0.031 C 
ATOM     66  C   UNL A   1      48.971  28.062  26.328  1.00  0.00     0.037 A 
BRANCH  53  67
ATOM     67  C   UNL A   1      46.839  33.438  28.532  1.00  0.00     0.058 A 
ATOM     68  C   UNL A   1      47.279  33.872  29.793  1.00  0.00     0.135 A 
ATOM     69  C   UNL A   1      46.661  34.411  27.533  1.00  0.00     0.135 A 
ATOM     70  F   UNL A   1      47.451  32.990  30.791  1.00  0.00    -0.206 F 
ATOM     71  C   UNL A   1      47.496  35.219  30.064  1.00  0.00     0.059 A 
ATOM     72  C   UNL A   1      46.902  35.760  27.773  1.00  0.00     0.059 A 
ATOM     73  F   UNL A   1      46.241  34.053  26.310  1.00  0.00    -0.206 F 
ATOM     74  C   UNL A   1      47.301  36.157  29.047  1.00  0.00     0.060 A 
BRANCH  74  75
ATOM     75  S   UNL A   1      47.572  37.902  29.418  1.00  0.00     0.124 S 
ATOM     76  O   UNL A   1      48.310  38.340  28.236  1.00  0.00    -0.237 OA
ATOM     77  O   UNL A   1      46.210  38.411  29.539  1.00  0.00    -0.237 OA
ATOM     78  O   UNL A   1      48.340  37.871  30.659  1.00  0.00    -0.744 OA
ENDBRANCH  74  75
ENDBRANCH  53  67
BRANCH  54  79
ATOM     79  C   UNL A   1      44.492  23.968  26.366  1.00  0.00     0.058 A 
ATOM     80  C   UNL A   1      43.924  23.677  25.117  1.00  0.00     0.135 A 
ATOM     81  C   UNL A   1      44.732  22.897  27.241  1.00  0.00     0.135 A 
ATOM     82  F   UNL A   1      43.662  24.669  24.252  1.00  0.00    -0.206 F 
ATOM     83  C   UNL A   1      43.606  22.374  24.749  1.00  0.00     0.059 A 
ATOM     84  C   UNL A   1      44.446  21.583  26.885  1.00  0.00     0.059 A 
ATOM     85  F   UNL A   1      45.279  23.122  28.445  1.00  0.00    -0.206 F 
ATOM     86  C   UNL A   1      43.880  21.332  25.637  1.00  0.00     0.060 A 
BRANCH  86  87
ATOM     87  S   UNL A   1      43.533  19.638  25.114  1.00  0.00     0.124 S 
ATOM     88  O   UNL A   1      44.073  19.630  23.760  1.00  0.00    -0.237 OA
ATOM     89  O   UNL A   1      44.272  18.858  26.102  1.00  0.00    -0.237 OA
ATOM     90  O   UNL A   1      42.079  19.545  25.214  1.00  0.00    -0.744 OA
ENDBRANCH  86  87
ENDBRANCH  54  79
BRANCH  66  91
ATOM     91  C   UNL A   1      50.360  27.737  25.842  1.00  0.00     0.058 A 
ATOM     92  C   UNL A   1      51.372  27.307  26.715  1.00  0.00     0.135 A 
ATOM     93  C   UNL A   1      50.664  27.799  24.471  1.00  0.00     0.135 A 
ATOM     94  F   UNL A   1      51.139  27.233  28.034  1.00  0.00    -0.206 F 
ATOM     95  C   UNL A   1      52.640  26.972  26.250  1.00  0.00     0.059 A 
ATOM     96  C   UNL A   1      51.916  27.441  23.980  1.00  0.00     0.059 A 
ATOM     97  F   UNL A   1      49.731  28.194  23.589  1.00  0.00    -0.206 F 
ATOM     98  C   UNL A   1      52.902  27.039  24.879  1.00  0.00     0.060 A 
BRANCH  98  99
ATOM     99  S   UNL A   1      54.541  26.570  24.286  1.00  0.00     0.124 S 
ATOM    100  O   UNL A   1      55.349  27.703  24.723  1.00  0.00    -0.237 OA
ATOM    101  O   UNL A   1      54.779  25.313  24.990  1.00  0.00    -0.237 OA
ATOM    102  O   UNL A   1      54.359  26.448  22.843  1.00  0.00    -0.744 OA
ENDBRANCH  98  99
ENDBRANCH  66  91
ENDBRANCH  40  41
ENDBRANCH  33  35
ENDBRANCH  32  33
ENDBRANCH  31  32
ENDBRANCH  30  31
ENDBRANCH  29  30
ENDBRANCH  28  29
ENDBRANCH   1  28
TORSDOF 25
ENDMDL
