MODEL 1
REMARK VINA RESULT:      -9.8      0.000      0.000
REMARK SMILES O=C(OCCOCCOCCOC(=O)c1ccc(-n2cc(CSc3nc4ccccc4c(=O)n3-c3ccc(Br)cc3)nn2)cc1)c1ccc(-c2c3nc(c(-c4c(F)cc(S(=O)(=O)[O-])cc4F)c4ccc([nH]4)c(-c4c(F)cc(S(=O)(=O)[O-])cc4F)c4nc(c(-c5c(F)cc(S(=O)(=O)[O-])cc5F)c5ccc2[nH]5)C=C4)C=C3)cc1
REMARK SMILES IDX 8 1 7 2 6 3 5 4 4 5 3 6 2 7 1 8 46 9 47 10 111 11 48 12
REMARK SMILES IDX 110 13 49 14 50 15 51 16 104 17 52 18 109 19 103 20 105 21
REMARK SMILES IDX 53 22 108 23 102 24 101 25 54 27 88 28 67 29 87 30 68 31
REMARK SMILES IDX 71 32 86 33 106 34 69 35 70 36 85 38 107 39 72 40 55 41
REMARK SMILES IDX 56 42 65 43 57 44 58 45 64 46 66 47 59 48 60 49 61 50 62 51
REMARK SMILES IDX 63 52 89 53 90 54 99 55 91 56 92 57 98 58 100 59 93 60 94 61
REMARK SMILES IDX 95 62 96 63 97 64 73 65 74 66 83 67 75 68 76 69 82 70 84 71
REMARK SMILES IDX 77 72 78 73 79 74 80 75 81 76 9 77 10 78 11 79 12 80 13 81
REMARK SMILES IDX 14 82 15 83 16 84 45 85 17 86 44 87 18 88 19 89 20 90 43 91
REMARK SMILES IDX 21 92 42 93 22 94 23 95 24 96 25 97 34 98 26 99 32 100
REMARK SMILES IDX 27 101 31 102 33 103 28 104 30 105 29 106 35 107 36 108
REMARK SMILES IDX 41 109 37 110 40 111 38 112 39 113
REMARK H PARENT 105 26 71 37
REMARK Flexibility Score: inf
ROOT
ATOM      1  C   UNL A   1      50.154  20.462  33.920  1.00  0.00     0.188 C 
ENDROOT
BRANCH   1   2
ATOM      2  C   UNL A   1      51.597  20.252  34.451  1.00  0.00     0.188 C 
BRANCH   2   3
ATOM      3  O   UNL A   1      51.841  20.782  35.733  1.00  0.00    -0.376 OA
BRANCH   3   4
ATOM      4  C   UNL A   1      52.508  22.017  35.911  1.00  0.00     0.202 C 
BRANCH   4   5
ATOM      5  C   UNL A   1      53.052  22.863  34.750  1.00  0.00     0.261 C 
BRANCH   5   6
ATOM      6  O   UNL A   1      52.110  23.689  34.068  1.00  0.00    -0.460 OA
BRANCH   6   7
ATOM      7  C   UNL A   1      52.280  24.677  33.170  1.00  0.00     0.338 C 
ATOM      8  O   UNL A   1      53.400  25.180  33.077  1.00  0.00    -0.246 OA
BRANCH   7   9
ATOM      9  C   UNL A   1      51.192  25.278  32.346  1.00  0.00     0.060 A 
ATOM     10  C   UNL A   1      49.858  24.872  32.291  1.00  0.00     0.016 A 
ATOM     11  C   UNL A   1      51.609  26.340  31.517  1.00  0.00     0.016 A 
ATOM     12  C   UNL A   1      49.047  25.317  31.259  1.00  0.00     0.010 A 
ATOM     13  C   UNL A   1      50.794  26.815  30.510  1.00  0.00     0.010 A 
ATOM     14  C   UNL A   1      49.558  26.217  30.326  1.00  0.00    -0.014 A 
BRANCH  14  15
ATOM     15  C   UNL A   1      48.722  26.605  29.205  1.00  0.00     0.031 A 
ATOM     16  C   UNL A   1      47.601  27.486  29.610  1.00  0.00     0.074 A 
ATOM     17  C   UNL A   1      49.032  26.253  27.940  1.00  0.00     0.049 A 
ATOM     18  N   UNL A   1      46.343  27.196  29.633  1.00  0.00    -0.248 NA
ATOM     19  C   UNL A   1      47.929  28.759  30.276  1.00  0.00     0.031 C 
ATOM     20  C   UNL A   1      50.248  25.579  27.474  1.00  0.00     0.029 A 
ATOM     21  N   UNL A   1      48.373  26.508  26.776  1.00  0.00    -0.354 N 
ATOM     22  C   UNL A   1      45.708  28.372  30.025  1.00  0.00     0.074 A 
ATOM     23  C   UNL A   1      46.719  29.186  30.640  1.00  0.00     0.031 C 
ATOM     24  C   UNL A   1      50.345  25.700  26.131  1.00  0.00     0.029 A 
ATOM     25  C   UNL A   1      49.145  26.340  25.625  1.00  0.00     0.049 A 
ATOM     26  H   UNL A   1      47.430  26.788  26.748  1.00  0.00     0.167 HD
ATOM     27  C   UNL A   1      44.501  28.704  29.487  1.00  0.00     0.037 A 
ATOM     28  C   UNL A   1      48.835  26.765  24.369  1.00  0.00     0.037 A 
ATOM     29  C   UNL A   1      43.836  27.533  28.963  1.00  0.00     0.049 A 
ATOM     30  C   UNL A   1      47.362  26.977  24.339  1.00  0.00     0.074 A 
ATOM     31  C   UNL A   1      43.469  26.308  29.488  1.00  0.00     0.029 A 
ATOM     32  N   UNL A   1      43.807  27.378  27.599  1.00  0.00    -0.354 N 
ATOM     33  N   UNL A   1      46.493  26.008  24.446  1.00  0.00    -0.248 NA
ATOM     34  C   UNL A   1      46.869  28.298  24.699  1.00  0.00     0.031 C 
ATOM     35  C   UNL A   1      43.714  25.369  28.443  1.00  0.00     0.029 A 
ATOM     36  C   UNL A   1      44.124  26.077  27.313  1.00  0.00     0.049 A 
ATOM     37  H   UNL A   1      43.596  28.080  26.941  1.00  0.00     0.167 HD
ATOM     38  C   UNL A   1      45.516  26.504  25.298  1.00  0.00     0.074 A 
ATOM     39  C   UNL A   1      45.767  27.944  25.365  1.00  0.00     0.031 C 
ATOM     40  C   UNL A   1      44.791  25.667  26.098  1.00  0.00     0.037 A 
BRANCH  27  41
ATOM     41  C   UNL A   1      44.157  30.108  29.024  1.00  0.00     0.058 A 
ATOM     42  C   UNL A   1      45.009  30.743  28.096  1.00  0.00     0.135 A 
ATOM     43  C   UNL A   1      43.226  30.960  29.664  1.00  0.00     0.135 A 
ATOM     44  F   UNL A   1      45.936  30.039  27.427  1.00  0.00    -0.206 F 
ATOM     45  C   UNL A   1      45.002  32.123  27.895  1.00  0.00     0.059 A 
ATOM     46  C   UNL A   1      43.167  32.329  29.438  1.00  0.00     0.059 A 
ATOM     47  F   UNL A   1      42.385  30.538  30.613  1.00  0.00    -0.206 F 
ATOM     48  C   UNL A   1      44.086  32.909  28.584  1.00  0.00     0.060 A 
BRANCH  48  49
ATOM     49  S   UNL A   1      44.124  34.696  28.390  1.00  0.00     0.124 S 
ATOM     50  O   UNL A   1      45.274  35.052  29.210  1.00  0.00    -0.237 OA
ATOM     51  O   UNL A   1      44.297  34.836  26.947  1.00  0.00    -0.237 OA
ATOM     52  O   UNL A   1      42.823  35.118  28.902  1.00  0.00    -0.744 OA
ENDBRANCH  48  49
ENDBRANCH  27  41
BRANCH  28  53
ATOM     53  C   UNL A   1      49.744  27.354  23.341  1.00  0.00     0.058 A 
ATOM     54  C   UNL A   1      49.363  27.443  21.987  1.00  0.00     0.135 A 
ATOM     55  C   UNL A   1      50.880  28.106  23.705  1.00  0.00     0.135 A 
ATOM     56  F   UNL A   1      48.285  26.777  21.545  1.00  0.00    -0.206 F 
ATOM     57  C   UNL A   1      50.031  28.266  21.069  1.00  0.00     0.059 A 
ATOM     58  C   UNL A   1      51.566  28.925  22.808  1.00  0.00     0.059 A 
ATOM     59  F   UNL A   1      51.308  28.144  24.975  1.00  0.00    -0.206 F 
ATOM     60  C   UNL A   1      51.121  29.023  21.496  1.00  0.00     0.060 A 
BRANCH  60  61
ATOM     61  S   UNL A   1      51.878  30.225  20.374  1.00  0.00     0.124 S 
ATOM     62  O   UNL A   1      51.751  29.557  19.083  1.00  0.00    -0.237 OA
ATOM     63  O   UNL A   1      51.039  31.404  20.567  1.00  0.00    -0.237 OA
ATOM     64  O   UNL A   1      53.243  30.348  20.879  1.00  0.00    -0.744 OA
ENDBRANCH  60  61
ENDBRANCH  28  53
BRANCH  40  65
ATOM     65  C   UNL A   1      44.828  24.188  25.811  1.00  0.00     0.058 A 
ATOM     66  C   UNL A   1      43.912  23.496  24.998  1.00  0.00     0.135 A 
ATOM     67  C   UNL A   1      45.936  23.467  26.281  1.00  0.00     0.135 A 
ATOM     68  F   UNL A   1      42.884  24.133  24.418  1.00  0.00    -0.206 F 
ATOM     69  C   UNL A   1      44.068  22.137  24.709  1.00  0.00     0.059 A 
ATOM     70  C   UNL A   1      46.130  22.124  25.978  1.00  0.00     0.059 A 
ATOM     71  F   UNL A   1      46.880  24.086  27.009  1.00  0.00    -0.206 F 
ATOM     72  C   UNL A   1      45.182  21.459  25.206  1.00  0.00     0.060 A 
BRANCH  72  73
ATOM     73  S   UNL A   1      45.415  19.716  24.798  1.00  0.00     0.124 S 
ATOM     74  O   UNL A   1      46.864  19.569  24.896  1.00  0.00    -0.237 OA
ATOM     75  O   UNL A   1      44.637  19.041  25.833  1.00  0.00    -0.237 OA
ATOM     76  O   UNL A   1      44.868  19.604  23.448  1.00  0.00    -0.744 OA
ENDBRANCH  72  73
ENDBRANCH  40  65
ENDBRANCH  14  15
ENDBRANCH   7   9
ENDBRANCH   6   7
ENDBRANCH   5   6
ENDBRANCH   4   5
ENDBRANCH   3   4
ENDBRANCH   2   3
ENDBRANCH   1   2
BRANCH   1  77
ATOM     77  O   UNL A   1      49.056  19.750  34.477  1.00  0.00    -0.376 OA
BRANCH  77  78
ATOM     78  C   UNL A   1      48.064  20.460  35.197  1.00  0.00     0.202 C 
BRANCH  78  79
ATOM     79  C   UNL A   1      46.592  20.019  35.095  1.00  0.00     0.261 C 
BRANCH  79  80
ATOM     80  O   UNL A   1      45.602  21.058  35.227  1.00  0.00    -0.460 OA
BRANCH  80  81
ATOM     81  C   UNL A   1      45.651  21.820  36.345  1.00  0.00     0.338 C 
ATOM     82  O   UNL A   1      46.348  21.639  37.339  1.00  0.00    -0.246 OA
BRANCH  81  83
ATOM     83  C   UNL A   1      44.804  23.019  36.165  1.00  0.00     0.060 A 
ATOM     84  C   UNL A   1      44.940  24.092  37.061  1.00  0.00     0.018 A 
ATOM     85  C   UNL A   1      43.861  23.081  35.134  1.00  0.00     0.018 A 
ATOM     86  C   UNL A   1      44.167  25.242  36.910  1.00  0.00     0.029 A 
ATOM     87  C   UNL A   1      43.070  24.230  34.983  1.00  0.00     0.029 A 
ATOM     88  C   UNL A   1      43.241  25.306  35.869  1.00  0.00     0.066 A 
BRANCH  88  89
ATOM     89  N   UNL A   1      42.349  26.392  35.847  1.00  0.00    -0.220 N 
ATOM     90  C   UNL A   1      41.885  26.992  34.700  1.00  0.00     0.141 A 
ATOM     91  N   UNL A   1      42.075  27.160  36.912  1.00  0.00    -0.062 NA
ATOM     92  C   UNL A   1      41.324  28.181  35.101  1.00  0.00     0.093 A 
ATOM     93  N   UNL A   1      41.383  28.210  36.482  1.00  0.00    -0.134 NA
BRANCH  92  94
ATOM     94  C   UNL A   1      41.032  29.461  34.399  1.00  0.00     0.138 C 
BRANCH  94  95
ATOM     95  S   UNL A   1      39.461  30.077  33.822  1.00  0.00    -0.081 SA
BRANCH  95  96
ATOM     96  C   UNL A   1      39.164  29.930  32.118  1.00  0.00     0.176 A 
ATOM     97  N   UNL A   1      39.527  28.764  31.668  1.00  0.00    -0.223 NA
ATOM     98  N   UNL A   1      38.604  30.880  31.281  1.00  0.00    -0.255 N 
ATOM     99  C   UNL A   1      39.519  28.543  30.288  1.00  0.00     0.079 A 
ATOM    100  C   UNL A   1      39.190  30.922  30.005  1.00  0.00     0.266 A 
ATOM    101  C   UNL A   1      39.621  27.256  29.761  1.00  0.00     0.029 A 
ATOM    102  C   UNL A   1      39.557  29.624  29.422  1.00  0.00     0.066 A 
ATOM    103  O   UNL A   1      39.428  31.939  29.356  1.00  0.00    -0.268 OA
ATOM    104  C   UNL A   1      39.844  27.074  28.392  1.00  0.00     0.002 A 
ATOM    105  C   UNL A   1      39.847  29.466  28.064  1.00  0.00     0.016 A 
ATOM    106  C   UNL A   1      40.002  28.179  27.553  1.00  0.00     0.001 A 
BRANCH  98 107
ATOM    107  C   UNL A   1      37.573  31.852  31.600  1.00  0.00     0.051 A 
ATOM    108  C   UNL A   1      36.230  31.434  31.729  1.00  0.00     0.028 A 
ATOM    109  C   UNL A   1      37.797  33.223  31.756  1.00  0.00     0.028 A 
ATOM    110  C   UNL A   1      35.166  32.340  31.733  1.00  0.00     0.018 A 
ATOM    111  C   UNL A   1      36.740  34.143  31.683  1.00  0.00     0.018 A 
ATOM    112  C   UNL A   1      35.429  33.695  31.627  1.00  0.00     0.018 A 
ATOM    113  Br  UNL A   1      34.013  34.919  31.396  1.00  0.00    -0.051 Br
ENDBRANCH  98 107
ENDBRANCH  95  96
ENDBRANCH  94  95
ENDBRANCH  92  94
ENDBRANCH  88  89
ENDBRANCH  81  83
ENDBRANCH  80  81
ENDBRANCH  79  80
ENDBRANCH  78  79
ENDBRANCH  77  78
ENDBRANCH   1  77
TORSDOF 25
ENDMDL
MODEL 2
REMARK VINA RESULT:      -9.6      4.654     13.060
REMARK SMILES O=C(OCCOCCOCCOC(=O)c1ccc(-n2cc(CSc3nc4ccccc4c(=O)n3-c3ccc(Br)cc3)nn2)cc1)c1ccc(-c2c3nc(c(-c4c(F)cc(S(=O)(=O)[O-])cc4F)c4ccc([nH]4)c(-c4c(F)cc(S(=O)(=O)[O-])cc4F)c4nc(c(-c5c(F)cc(S(=O)(=O)[O-])cc5F)c5ccc2[nH]5)C=C4)C=C3)cc1
REMARK SMILES IDX 8 1 7 2 6 3 5 4 4 5 3 6 2 7 1 8 46 9 47 10 111 11 48 12
REMARK SMILES IDX 110 13 49 14 50 15 51 16 104 17 52 18 109 19 103 20 105 21
REMARK SMILES IDX 53 22 108 23 102 24 101 25 54 27 88 28 67 29 87 30 68 31
REMARK SMILES IDX 71 32 86 33 106 34 69 35 70 36 85 38 107 39 72 40 55 41
REMARK SMILES IDX 56 42 65 43 57 44 58 45 64 46 66 47 59 48 60 49 61 50 62 51
REMARK SMILES IDX 63 52 89 53 90 54 99 55 91 56 92 57 98 58 100 59 93 60 94 61
REMARK SMILES IDX 95 62 96 63 97 64 73 65 74 66 83 67 75 68 76 69 82 70 84 71
REMARK SMILES IDX 77 72 78 73 79 74 80 75 81 76 9 77 10 78 11 79 12 80 13 81
REMARK SMILES IDX 14 82 15 83 16 84 45 85 17 86 44 87 18 88 19 89 20 90 43 91
REMARK SMILES IDX 21 92 42 93 22 94 23 95 24 96 25 97 34 98 26 99 32 100
REMARK SMILES IDX 27 101 31 102 33 103 28 104 30 105 29 106 35 107 36 108
REMARK SMILES IDX 41 109 37 110 40 111 38 112 39 113
REMARK H PARENT 105 26 71 37
REMARK Flexibility Score: inf
ROOT
ATOM      1  C   UNL A   1      35.592  32.989  32.855  1.00  0.00     0.188 C 
ENDROOT
BRANCH   1   2
ATOM      2  C   UNL A   1      34.077  33.205  32.599  1.00  0.00     0.188 C 
BRANCH   2   3
ATOM      3  O   UNL A   1      33.686  34.551  32.453  1.00  0.00    -0.376 OA
BRANCH   3   4
ATOM      4  C   UNL A   1      33.960  35.279  31.272  1.00  0.00     0.202 C 
BRANCH   4   5
ATOM      5  C   UNL A   1      33.832  34.686  29.860  1.00  0.00     0.261 C 
BRANCH   5   6
ATOM      6  O   UNL A   1      35.050  34.454  29.154  1.00  0.00    -0.460 OA
BRANCH   6   7
ATOM      7  C   UNL A   1      35.764  33.331  28.958  1.00  0.00     0.338 C 
ATOM      8  O   UNL A   1      35.166  32.338  28.543  1.00  0.00    -0.246 OA
BRANCH   7   9
ATOM      9  C   UNL A   1      37.207  33.166  29.297  1.00  0.00     0.060 A 
ATOM     10  C   UNL A   1      37.934  31.975  29.315  1.00  0.00     0.016 A 
ATOM     11  C   UNL A   1      37.856  34.359  29.672  1.00  0.00     0.016 A 
ATOM     12  C   UNL A   1      39.168  31.934  29.945  1.00  0.00     0.010 A 
ATOM     13  C   UNL A   1      39.101  34.332  30.266  1.00  0.00     0.010 A 
ATOM     14  C   UNL A   1      39.695  33.101  30.495  1.00  0.00    -0.014 A 
BRANCH  14  15
ATOM     15  C   UNL A   1      40.947  33.021  31.224  1.00  0.00     0.031 A 
ATOM     16  C   UNL A   1      42.121  32.902  30.328  1.00  0.00     0.074 A 
ATOM     17  C   UNL A   1      40.989  33.145  32.567  1.00  0.00     0.049 A 
ATOM     18  N   UNL A   1      42.881  31.871  30.162  1.00  0.00    -0.248 NA
ATOM     19  C   UNL A   1      42.345  33.970  29.337  1.00  0.00     0.031 C 
ATOM     20  C   UNL A   1      39.883  33.490  33.466  1.00  0.00     0.029 A 
ATOM     21  N   UNL A   1      42.051  33.086  33.417  1.00  0.00    -0.354 N 
ATOM     22  C   UNL A   1      43.866  32.287  29.270  1.00  0.00     0.074 A 
ATOM     23  C   UNL A   1      43.346  33.457  28.619  1.00  0.00     0.031 C 
ATOM     24  C   UNL A   1      40.377  33.844  34.675  1.00  0.00     0.029 A 
ATOM     25  C   UNL A   1      41.811  33.628  34.681  1.00  0.00     0.049 A 
ATOM     26  H   UNL A   1      42.917  32.693  33.162  1.00  0.00     0.167 HD
ATOM     27  C   UNL A   1      45.145  31.841  29.412  1.00  0.00     0.037 A 
ATOM     28  C   UNL A   1      42.745  33.934  35.624  1.00  0.00     0.037 A 
ATOM     29  C   UNL A   1      45.175  30.611  30.171  1.00  0.00     0.049 A 
ATOM     30  C   UNL A   1      43.965  33.150  35.291  1.00  0.00     0.074 A 
ATOM     31  C   UNL A   1      44.565  29.377  30.045  1.00  0.00     0.029 A 
ATOM     32  N   UNL A   1      45.615  30.679  31.471  1.00  0.00    -0.354 N 
ATOM     33  N   UNL A   1      44.026  31.848  35.362  1.00  0.00    -0.248 NA
ATOM     34  C   UNL A   1      44.938  33.772  34.404  1.00  0.00     0.031 C 
ATOM     35  C   UNL A   1      44.244  28.985  31.378  1.00  0.00     0.029 A 
ATOM     36  C   UNL A   1      44.756  29.949  32.247  1.00  0.00     0.049 A 
ATOM     37  H   UNL A   1      46.409  31.168  31.787  1.00  0.00     0.167 HD
ATOM     38  C   UNL A   1      44.711  31.465  34.218  1.00  0.00     0.074 A 
ATOM     39  C   UNL A   1      45.309  32.697  33.703  1.00  0.00     0.031 C 
ATOM     40  C   UNL A   1      44.483  30.250  33.634  1.00  0.00     0.037 A 
BRANCH  27  41
ATOM     41  C   UNL A   1      46.359  32.742  29.280  1.00  0.00     0.058 A 
ATOM     42  C   UNL A   1      46.403  33.932  30.036  1.00  0.00     0.135 A 
ATOM     43  C   UNL A   1      47.316  32.655  28.241  1.00  0.00     0.135 A 
ATOM     44  F   UNL A   1      45.543  34.132  31.047  1.00  0.00    -0.206 F 
ATOM     45  C   UNL A   1      47.261  34.987  29.723  1.00  0.00     0.059 A 
ATOM     46  C   UNL A   1      48.215  33.672  27.948  1.00  0.00     0.059 A 
ATOM     47  F   UNL A   1      47.377  31.625  27.391  1.00  0.00    -0.206 F 
ATOM     48  C   UNL A   1      48.153  34.852  28.666  1.00  0.00     0.060 A 
BRANCH  48  49
ATOM     49  S   UNL A   1      49.205  36.235  28.207  1.00  0.00     0.124 S 
ATOM     50  O   UNL A   1      48.472  37.358  28.776  1.00  0.00    -0.237 OA
ATOM     51  O   UNL A   1      50.460  35.888  28.868  1.00  0.00    -0.237 OA
ATOM     52  O   UNL A   1      49.233  36.168  26.749  1.00  0.00    -0.744 OA
ENDBRANCH  48  49
ENDBRANCH  27  41
BRANCH  28  53
ATOM     53  C   UNL A   1      42.783  35.115  36.538  1.00  0.00     0.058 A 
ATOM     54  C   UNL A   1      42.910  34.960  37.934  1.00  0.00     0.135 A 
ATOM     55  C   UNL A   1      42.990  36.420  36.048  1.00  0.00     0.135 A 
ATOM     56  F   UNL A   1      42.749  33.752  38.496  1.00  0.00    -0.206 F 
ATOM     57  C   UNL A   1      43.274  36.019  38.778  1.00  0.00     0.059 A 
ATOM     58  C   UNL A   1      43.343  37.491  36.870  1.00  0.00     0.059 A 
ATOM     59  F   UNL A   1      42.948  36.682  34.734  1.00  0.00    -0.206 F 
ATOM     60  C   UNL A   1      43.511  37.279  38.233  1.00  0.00     0.060 A 
BRANCH  60  61
ATOM     61  S   UNL A   1      44.155  38.608  39.280  1.00  0.00     0.124 S 
ATOM     62  O   UNL A   1      45.260  39.119  38.476  1.00  0.00    -0.237 OA
ATOM     63  O   UNL A   1      43.000  39.491  39.408  1.00  0.00    -0.237 OA
ATOM     64  O   UNL A   1      44.544  37.915  40.506  1.00  0.00    -0.744 OA
ENDBRANCH  60  61
ENDBRANCH  28  53
BRANCH  40  65
ATOM     65  C   UNL A   1      43.732  29.206  34.420  1.00  0.00     0.058 A 
ATOM     66  C   UNL A   1      42.347  28.972  34.340  1.00  0.00     0.135 A 
ATOM     67  C   UNL A   1      44.488  28.310  35.189  1.00  0.00     0.135 A 
ATOM     68  F   UNL A   1      41.565  29.714  33.541  1.00  0.00    -0.206 F 
ATOM     69  C   UNL A   1      41.739  27.923  35.036  1.00  0.00     0.059 A 
ATOM     70  C   UNL A   1      43.910  27.239  35.862  1.00  0.00     0.059 A 
ATOM     71  F   UNL A   1      45.823  28.441  35.255  1.00  0.00    -0.206 F 
ATOM     72  C   UNL A   1      42.530  27.062  35.796  1.00  0.00     0.060 A 
BRANCH  72  73
ATOM     73  S   UNL A   1      41.759  25.677  36.660  1.00  0.00     0.124 S 
ATOM     74  O   UNL A   1      40.683  26.333  37.395  1.00  0.00    -0.237 OA
ATOM     75  O   UNL A   1      41.341  24.810  35.561  1.00  0.00    -0.237 OA
ATOM     76  O   UNL A   1      42.841  25.142  37.485  1.00  0.00    -0.744 OA
ENDBRANCH  72  73
ENDBRANCH  40  65
ENDBRANCH  14  15
ENDBRANCH   7   9
ENDBRANCH   6   7
ENDBRANCH   5   6
ENDBRANCH   4   5
ENDBRANCH   3   4
ENDBRANCH   2   3
ENDBRANCH   1   2
BRANCH   1  77
ATOM     77  O   UNL A   1      36.207  31.731  32.606  1.00  0.00    -0.376 OA
BRANCH  77  78
ATOM     78  C   UNL A   1      37.333  31.346  33.374  1.00  0.00     0.202 C 
BRANCH  78  79
ATOM     79  C   UNL A   1      37.795  29.878  33.357  1.00  0.00     0.261 C 
BRANCH  79  80
ATOM     80  O   UNL A   1      38.338  29.392  32.114  1.00  0.00    -0.460 OA
BRANCH  80  81
ATOM     81  C   UNL A   1      38.627  28.071  32.039  1.00  0.00     0.338 C 
ATOM     82  O   UNL A   1      38.268  27.187  32.811  1.00  0.00    -0.246 OA
BRANCH  81  83
ATOM     83  C   UNL A   1      39.367  27.795  30.788  1.00  0.00     0.060 A 
ATOM     84  C   UNL A   1      38.943  26.742  29.963  1.00  0.00     0.018 A 
ATOM     85  C   UNL A   1      40.490  28.553  30.439  1.00  0.00     0.018 A 
ATOM     86  C   UNL A   1      39.611  26.465  28.771  1.00  0.00     0.029 A 
ATOM     87  C   UNL A   1      41.175  28.272  29.248  1.00  0.00     0.029 A 
ATOM     88  C   UNL A   1      40.719  27.235  28.418  1.00  0.00     0.066 A 
BRANCH  88  89
ATOM     89  N   UNL A   1      41.482  26.822  27.313  1.00  0.00    -0.220 N 
ATOM     90  C   UNL A   1      42.812  26.475  27.373  1.00  0.00     0.141 A 
ATOM     91  N   UNL A   1      41.110  26.997  26.036  1.00  0.00    -0.062 NA
ATOM     92  C   UNL A   1      43.254  26.460  26.072  1.00  0.00     0.093 A 
ATOM     93  N   UNL A   1      42.154  26.702  25.269  1.00  0.00    -0.134 NA
BRANCH  92  94
ATOM     94  C   UNL A   1      44.600  26.584  25.448  1.00  0.00     0.138 C 
BRANCH  94  95
ATOM     95  S   UNL A   1      45.819  25.310  25.178  1.00  0.00    -0.081 SA
BRANCH  95  96
ATOM     96  C   UNL A   1      47.436  25.683  25.687  1.00  0.00     0.176 A 
ATOM     97  N   UNL A   1      48.166  26.100  24.694  1.00  0.00    -0.223 NA
ATOM     98  N   UNL A   1      47.953  25.590  26.968  1.00  0.00    -0.255 N 
ATOM     99  C   UNL A   1      49.538  26.276  24.893  1.00  0.00     0.079 A 
ATOM    100  C   UNL A   1      49.280  25.131  27.007  1.00  0.00     0.266 A 
ATOM    101  C   UNL A   1      50.319  26.976  23.974  1.00  0.00     0.029 A 
ATOM    102  C   UNL A   1      50.165  25.625  25.943  1.00  0.00     0.066 A 
ATOM    103  O   UNL A   1      49.747  24.351  27.836  1.00  0.00    -0.268 OA
ATOM    104  C   UNL A   1      51.714  26.944  24.071  1.00  0.00     0.002 A 
ATOM    105  C   UNL A   1      51.556  25.525  26.017  1.00  0.00     0.016 A 
ATOM    106  C   UNL A   1      52.332  26.182  25.064  1.00  0.00     0.001 A 
BRANCH  98 107
ATOM    107  C   UNL A   1      47.267  25.829  28.225  1.00  0.00     0.051 A 
ATOM    108  C   UNL A   1      47.771  26.791  29.127  1.00  0.00     0.028 A 
ATOM    109  C   UNL A   1      46.133  25.134  28.654  1.00  0.00     0.028 A 
ATOM    110  C   UNL A   1      47.348  26.858  30.458  1.00  0.00     0.018 A 
ATOM    111  C   UNL A   1      45.749  25.134  30.004  1.00  0.00     0.018 A 
ATOM    112  C   UNL A   1      46.391  25.966  30.910  1.00  0.00     0.018 A 
ATOM    113  Br  UNL A   1      45.972  25.877  32.747  1.00  0.00    -0.051 Br
ENDBRANCH  98 107
ENDBRANCH  95  96
ENDBRANCH  94  95
ENDBRANCH  92  94
ENDBRANCH  88  89
ENDBRANCH  81  83
ENDBRANCH  80  81
ENDBRANCH  79  80
ENDBRANCH  78  79
ENDBRANCH  77  78
ENDBRANCH   1  77
TORSDOF 25
ENDMDL
MODEL 3
REMARK VINA RESULT:      -9.2      3.804      8.817
REMARK SMILES O=C(OCCOCCOCCOC(=O)c1ccc(-n2cc(CSc3nc4ccccc4c(=O)n3-c3ccc(Br)cc3)nn2)cc1)c1ccc(-c2c3nc(c(-c4c(F)cc(S(=O)(=O)[O-])cc4F)c4ccc([nH]4)c(-c4c(F)cc(S(=O)(=O)[O-])cc4F)c4nc(c(-c5c(F)cc(S(=O)(=O)[O-])cc5F)c5ccc2[nH]5)C=C4)C=C3)cc1
REMARK SMILES IDX 8 1 7 2 6 3 5 4 4 5 3 6 2 7 1 8 46 9 47 10 111 11 48 12
REMARK SMILES IDX 110 13 49 14 50 15 51 16 104 17 52 18 109 19 103 20 105 21
REMARK SMILES IDX 53 22 108 23 102 24 101 25 54 27 88 28 67 29 87 30 68 31
REMARK SMILES IDX 71 32 86 33 106 34 69 35 70 36 85 38 107 39 72 40 55 41
REMARK SMILES IDX 56 42 65 43 57 44 58 45 64 46 66 47 59 48 60 49 61 50 62 51
REMARK SMILES IDX 63 52 89 53 90 54 99 55 91 56 92 57 98 58 100 59 93 60 94 61
REMARK SMILES IDX 95 62 96 63 97 64 73 65 74 66 83 67 75 68 76 69 82 70 84 71
REMARK SMILES IDX 77 72 78 73 79 74 80 75 81 76 9 77 10 78 11 79 12 80 13 81
REMARK SMILES IDX 14 82 15 83 16 84 45 85 17 86 44 87 18 88 19 89 20 90 43 91
REMARK SMILES IDX 21 92 42 93 22 94 23 95 24 96 25 97 34 98 26 99 32 100
REMARK SMILES IDX 27 101 31 102 33 103 28 104 30 105 29 106 35 107 36 108
REMARK SMILES IDX 41 109 37 110 40 111 38 112 39 113
REMARK H PARENT 105 26 71 37
REMARK Flexibility Score: inf
ROOT
ATOM      1  C   UNL A   1      41.186  20.119  27.739  1.00  0.00     0.188 C 
ENDROOT
BRANCH   1   2
ATOM      2  C   UNL A   1      41.552  19.259  26.501  1.00  0.00     0.188 C 
BRANCH   2   3
ATOM      3  O   UNL A   1      42.856  18.726  26.513  1.00  0.00    -0.376 OA
BRANCH   3   4
ATOM      4  C   UNL A   1      43.769  18.973  25.461  1.00  0.00     0.202 C 
BRANCH   4   5
ATOM      5  C   UNL A   1      44.589  20.266  25.335  1.00  0.00     0.261 C 
BRANCH   5   6
ATOM      6  O   UNL A   1      44.570  20.911  24.063  1.00  0.00    -0.460 OA
BRANCH   6   7
ATOM      7  C   UNL A   1      44.593  22.213  23.725  1.00  0.00     0.338 C 
ATOM      8  O   UNL A   1      44.131  22.528  22.628  1.00  0.00    -0.246 OA
BRANCH   7   9
ATOM      9  C   UNL A   1      45.224  23.295  24.535  1.00  0.00     0.060 A 
ATOM     10  C   UNL A   1      46.490  23.274  25.123  1.00  0.00     0.016 A 
ATOM     11  C   UNL A   1      44.404  24.423  24.738  1.00  0.00     0.016 A 
ATOM     12  C   UNL A   1      46.811  24.209  26.095  1.00  0.00     0.010 A 
ATOM     13  C   UNL A   1      44.733  25.379  25.677  1.00  0.00     0.010 A 
ATOM     14  C   UNL A   1      45.887  25.198  26.424  1.00  0.00    -0.014 A 
BRANCH  14  15
ATOM     15  C   UNL A   1      46.206  26.115  27.502  1.00  0.00     0.031 A 
ATOM     16  C   UNL A   1      45.515  25.769  28.767  1.00  0.00     0.074 A 
ATOM     17  C   UNL A   1      47.114  27.101  27.344  1.00  0.00     0.049 A 
ATOM     18  N   UNL A   1      44.560  26.419  29.344  1.00  0.00    -0.248 NA
ATOM     19  C   UNL A   1      45.756  24.433  29.342  1.00  0.00     0.031 C 
ATOM     20  C   UNL A   1      47.983  27.335  26.186  1.00  0.00     0.029 A 
ATOM     21  N   UNL A   1      47.532  28.053  28.222  1.00  0.00    -0.354 N 
ATOM     22  C   UNL A   1      44.306  25.720  30.521  1.00  0.00     0.074 A 
ATOM     23  C   UNL A   1      44.868  24.411  30.338  1.00  0.00     0.031 C 
ATOM     24  C   UNL A   1      48.971  28.192  26.529  1.00  0.00     0.029 A 
ATOM     25  C   UNL A   1      48.737  28.668  27.880  1.00  0.00     0.049 A 
ATOM     26  H   UNL A   1      47.025  28.290  29.032  1.00  0.00     0.167 HD
ATOM     27  C   UNL A   1      43.977  26.397  31.657  1.00  0.00     0.037 A 
ATOM     28  C   UNL A   1      49.508  29.451  28.684  1.00  0.00     0.037 A 
ATOM     29  C   UNL A   1      43.457  27.707  31.336  1.00  0.00     0.049 A 
ATOM     30  C   UNL A   1      48.626  29.939  29.780  1.00  0.00     0.074 A 
ATOM     31  C   UNL A   1      42.427  28.175  30.542  1.00  0.00     0.029 A 
ATOM     32  N   UNL A   1      44.276  28.787  31.561  1.00  0.00    -0.354 N 
ATOM     33  N   UNL A   1      47.630  30.761  29.590  1.00  0.00    -0.248 NA
ATOM     34  C   UNL A   1      48.540  29.123  30.983  1.00  0.00     0.031 C 
ATOM     35  C   UNL A   1      42.936  29.363  29.939  1.00  0.00     0.029 A 
ATOM     36  C   UNL A   1      44.204  29.608  30.467  1.00  0.00     0.049 A 
ATOM     37  H   UNL A   1      44.819  28.943  32.367  1.00  0.00     0.167 HD
ATOM     38  C   UNL A   1      46.602  30.257  30.374  1.00  0.00     0.074 A 
ATOM     39  C   UNL A   1      47.244  29.287  31.262  1.00  0.00     0.031 C 
ATOM     40  C   UNL A   1      45.294  30.449  30.028  1.00  0.00     0.037 A 
BRANCH  27  41
ATOM     41  C   UNL A   1      44.559  26.066  33.019  1.00  0.00     0.058 A 
ATOM     42  C   UNL A   1      45.949  25.854  33.128  1.00  0.00     0.135 A 
ATOM     43  C   UNL A   1      43.799  25.652  34.138  1.00  0.00     0.135 A 
ATOM     44  F   UNL A   1      46.775  26.205  32.129  1.00  0.00    -0.206 F 
ATOM     45  C   UNL A   1      46.524  25.195  34.215  1.00  0.00     0.059 A 
ATOM     46  C   UNL A   1      44.358  25.042  35.254  1.00  0.00     0.059 A 
ATOM     47  F   UNL A   1      42.465  25.723  34.180  1.00  0.00    -0.206 F 
ATOM     48  C   UNL A   1      45.715  24.780  35.267  1.00  0.00     0.060 A 
BRANCH  48  49
ATOM     49  S   UNL A   1      46.436  23.861  36.634  1.00  0.00     0.124 S 
ATOM     50  O   UNL A   1      47.648  23.333  36.021  1.00  0.00    -0.237 OA
ATOM     51  O   UNL A   1      46.625  24.909  37.631  1.00  0.00    -0.237 OA
ATOM     52  O   UNL A   1      45.408  22.876  36.957  1.00  0.00    -0.744 OA
ENDBRANCH  48  49
ENDBRANCH  27  41
BRANCH  28  53
ATOM     53  C   UNL A   1      50.997  29.491  28.785  1.00  0.00     0.058 A 
ATOM     54  C   UNL A   1      51.740  28.348  29.146  1.00  0.00     0.135 A 
ATOM     55  C   UNL A   1      51.744  30.560  28.250  1.00  0.00     0.135 A 
ATOM     56  F   UNL A   1      51.118  27.271  29.648  1.00  0.00    -0.206 F 
ATOM     57  C   UNL A   1      53.123  28.253  28.937  1.00  0.00     0.059 A 
ATOM     58  C   UNL A   1      53.122  30.492  28.042  1.00  0.00     0.059 A 
ATOM     59  F   UNL A   1      51.144  31.679  27.822  1.00  0.00    -0.206 F 
ATOM     60  C   UNL A   1      53.804  29.325  28.362  1.00  0.00     0.060 A 
BRANCH  60  61
ATOM     61  S   UNL A   1      55.551  29.151  27.920  1.00  0.00     0.124 S 
ATOM     62  O   UNL A   1      56.145  28.738  29.186  1.00  0.00    -0.237 OA
ATOM     63  O   UNL A   1      55.508  28.133  26.874  1.00  0.00    -0.237 OA
ATOM     64  O   UNL A   1      55.921  30.489  27.465  1.00  0.00    -0.744 OA
ENDBRANCH  60  61
ENDBRANCH  28  53
BRANCH  40  65
ATOM     65  C   UNL A   1      44.973  31.483  28.980  1.00  0.00     0.058 A 
ATOM     66  C   UNL A   1      44.937  32.873  29.197  1.00  0.00     0.135 A 
ATOM     67  C   UNL A   1      44.831  31.039  27.657  1.00  0.00     0.135 A 
ATOM     68  F   UNL A   1      45.172  33.389  30.413  1.00  0.00    -0.206 F 
ATOM     69  C   UNL A   1      44.719  33.773  28.150  1.00  0.00     0.059 A 
ATOM     70  C   UNL A   1      44.647  31.918  26.596  1.00  0.00     0.059 A 
ATOM     71  F   UNL A   1      44.920  29.729  27.375  1.00  0.00    -0.206 F 
ATOM     72  C   UNL A   1      44.573  33.285  26.852  1.00  0.00     0.060 A 
BRANCH  72  73
ATOM     73  S   UNL A   1      44.338  34.444  25.488  1.00  0.00     0.124 S 
ATOM     74  O   UNL A   1      45.653  34.448  24.857  1.00  0.00    -0.237 OA
ATOM     75  O   UNL A   1      43.266  33.817  24.719  1.00  0.00    -0.237 OA
ATOM     76  O   UNL A   1      43.965  35.689  26.157  1.00  0.00    -0.744 OA
ENDBRANCH  72  73
ENDBRANCH  40  65
ENDBRANCH  14  15
ENDBRANCH   7   9
ENDBRANCH   6   7
ENDBRANCH   5   6
ENDBRANCH   4   5
ENDBRANCH   3   4
ENDBRANCH   2   3
ENDBRANCH   1   2
BRANCH   1  77
ATOM     77  O   UNL A   1      41.009  21.526  27.631  1.00  0.00    -0.376 OA
BRANCH  77  78
ATOM     78  C   UNL A   1      41.117  22.142  26.360  1.00  0.00     0.202 C 
BRANCH  78  79
ATOM     79  C   UNL A   1      41.601  23.601  26.263  1.00  0.00     0.261 C 
BRANCH  79  80
ATOM     80  O   UNL A   1      40.679  24.613  26.713  1.00  0.00    -0.460 OA
BRANCH  80  81
ATOM     81  C   UNL A   1      40.848  25.865  26.226  1.00  0.00     0.338 C 
ATOM     82  O   UNL A   1      41.310  26.181  25.134  1.00  0.00    -0.246 OA
BRANCH  81  83
ATOM     83  C   UNL A   1      40.274  26.846  27.172  1.00  0.00     0.060 A 
ATOM     84  C   UNL A   1      39.620  26.383  28.324  1.00  0.00     0.018 A 
ATOM     85  C   UNL A   1      40.356  28.219  26.915  1.00  0.00     0.018 A 
ATOM     86  C   UNL A   1      39.081  27.283  29.241  1.00  0.00     0.029 A 
ATOM     87  C   UNL A   1      39.804  29.131  27.828  1.00  0.00     0.029 A 
ATOM     88  C   UNL A   1      39.180  28.651  28.991  1.00  0.00     0.066 A 
BRANCH  88  89
ATOM     89  N   UNL A   1      38.473  29.528  29.831  1.00  0.00    -0.220 N 
ATOM     90  C   UNL A   1      38.924  29.961  31.056  1.00  0.00     0.141 A 
ATOM     91  N   UNL A   1      37.170  29.812  29.692  1.00  0.00    -0.062 NA
ATOM     92  C   UNL A   1      37.832  30.514  31.681  1.00  0.00     0.093 A 
ATOM     93  N   UNL A   1      36.788  30.482  30.774  1.00  0.00    -0.134 NA
BRANCH  92  94
ATOM     94  C   UNL A   1      37.494  30.775  33.107  1.00  0.00     0.138 C 
BRANCH  94  95
ATOM     95  S   UNL A   1      38.539  30.610  34.543  1.00  0.00    -0.081 SA
BRANCH  95  96
ATOM     96  C   UNL A   1      39.230  32.080  35.156  1.00  0.00     0.176 A 
ATOM     97  N   UNL A   1      39.594  31.956  36.399  1.00  0.00    -0.223 NA
ATOM     98  N   UNL A   1      39.418  33.267  34.468  1.00  0.00    -0.255 N 
ATOM     99  C   UNL A   1      40.007  33.093  37.097  1.00  0.00     0.079 A 
ATOM    100  C   UNL A   1      39.180  34.412  35.247  1.00  0.00     0.266 A 
ATOM    101  C   UNL A   1      40.667  32.991  38.321  1.00  0.00     0.029 A 
ATOM    102  C   UNL A   1      39.632  34.347  36.643  1.00  0.00     0.066 A 
ATOM    103  O   UNL A   1      38.619  35.438  34.864  1.00  0.00    -0.268 OA
ATOM    104  C   UNL A   1      40.865  34.130  39.109  1.00  0.00     0.002 A 
ATOM    105  C   UNL A   1      39.759  35.485  37.444  1.00  0.00     0.016 A 
ATOM    106  C   UNL A   1      40.371  35.368  38.691  1.00  0.00     0.001 A 
BRANCH  98 107
ATOM    107  C   UNL A   1      39.742  33.441  33.063  1.00  0.00     0.051 A 
ATOM    108  C   UNL A   1      41.044  33.147  32.602  1.00  0.00     0.028 A 
ATOM    109  C   UNL A   1      38.856  33.933  32.101  1.00  0.00     0.028 A 
ATOM    110  C   UNL A   1      41.504  33.571  31.352  1.00  0.00     0.018 A 
ATOM    111  C   UNL A   1      39.321  34.432  30.875  1.00  0.00     0.018 A 
ATOM    112  C   UNL A   1      40.656  34.288  30.526  1.00  0.00     0.018 A 
ATOM    113  Br  UNL A   1      41.316  35.070  28.941  1.00  0.00    -0.051 Br
ENDBRANCH  98 107
ENDBRANCH  95  96
ENDBRANCH  94  95
ENDBRANCH  92  94
ENDBRANCH  88  89
ENDBRANCH  81  83
ENDBRANCH  80  81
ENDBRANCH  79  80
ENDBRANCH  78  79
ENDBRANCH  77  78
ENDBRANCH   1  77
TORSDOF 25
ENDMDL
