MODEL 1
REMARK VINA RESULT:     -10.5      0.000      0.000
REMARK SMILES Cc1ccc(C#N)cc1S(=O)(=O)Nc1cccc(C(=O)OCCOCCOCCOC(=O)c2ccc(-c3c4nc(c(-c5c(F)cc(S(=O)(=O)[O-])cc5F)c5ccc([nH]5)c(-c5c(F)cc(S(=O)(=O)[O-])cc5F)c5nc(c(-c6c(F)cc(S(=O)(=O)[O-])cc6F)c6ccc3[nH]6)C=C5)C=C4)cc2)c1
REMARK SMILES IDX 25 1 24 2 23 3 22 4 21 5 19 6 20 7 18 8 14 9 15 10 99 11
REMARK SMILES IDX 16 12 17 13 13 14 10 16 11 17 12 18 9 19 1 20 2 21 3 22 4 23
REMARK SMILES IDX 8 24 5 25 6 26 7 27 26 28 27 29 28 30 29 31 30 32 31 33
REMARK SMILES IDX 32 34 33 35 34 36 98 37 35 38 97 39 36 40 37 41 38 42 91 43
REMARK SMILES IDX 39 44 96 45 90 46 92 47 40 48 95 49 89 50 88 51 41 53 75 54
REMARK SMILES IDX 54 55 74 56 55 57 58 58 73 59 93 60 56 61 57 62 72 64 94 65
REMARK SMILES IDX 59 66 42 67 43 68 52 69 44 70 45 71 51 72 53 73 46 74 47 75
REMARK SMILES IDX 48 76 49 77 50 78 76 79 77 80 86 81 78 82 79 83 85 84 87 85
REMARK SMILES IDX 80 86 81 87 82 88 83 89 84 90 60 91 61 92 70 93 62 94 63 95
REMARK SMILES IDX 69 96 71 97 64 98 65 99 66 100 67 101 68 102
REMARK H PARENT 13 15 92 52 58 63
REMARK Flexibility Score: inf
ROOT
ATOM      1  C   UNL A   1      43.068  20.606  25.794  1.00  0.00     0.188 C 
ENDROOT
BRANCH   1   2
ATOM      2  O   UNL A   1      41.916  21.334  25.440  1.00  0.00    -0.376 OA
BRANCH   2   3
ATOM      3  C   UNL A   1      41.148  21.962  26.451  1.00  0.00     0.202 C 
BRANCH   3   4
ATOM      4  C   UNL A   1      39.752  22.586  26.222  1.00  0.00     0.261 C 
BRANCH   4   5
ATOM      5  O   UNL A   1      38.588  21.765  26.438  1.00  0.00    -0.460 OA
BRANCH   5   6
ATOM      6  C   UNL A   1      38.094  21.146  25.332  1.00  0.00     0.338 C 
ATOM      7  O   UNL A   1      38.451  20.060  24.905  1.00  0.00    -0.246 OA
BRANCH   6   8
ATOM      8  C   UNL A   1      36.924  21.869  24.756  1.00  0.00     0.062 A 
ATOM      9  C   UNL A   1      34.604  22.626  24.777  1.00  0.00     0.050 A 
ATOM     10  C   UNL A   1      34.778  23.233  23.537  1.00  0.00     0.027 A 
ATOM     11  C   UNL A   1      35.700  22.006  25.419  1.00  0.00     0.042 A 
ATOM     12  C   UNL A   1      35.998  23.085  22.868  1.00  0.00     0.003 A 
ATOM     13  C   UNL A   1      37.055  22.386  23.462  1.00  0.00     0.016 A 
BRANCH   9  14
ATOM     14  N   UNL A   1      33.343  22.453  25.405  1.00  0.00    -0.280 N 
ATOM     15  H   UNL A   1      32.915  23.282  25.721  1.00  0.00     0.180 HD
BRANCH  14  16
ATOM     16  S   UNL A   1      32.477  21.055  25.688  1.00  0.00     0.262 S 
ATOM     17  O   UNL A   1      31.071  21.394  25.605  1.00  0.00    -0.201 OA
ATOM     18  O   UNL A   1      33.030  20.554  26.932  1.00  0.00    -0.201 OA
BRANCH  16  19
ATOM     19  C   UNL A   1      32.736  19.740  24.499  1.00  0.00     0.092 A 
ATOM     20  C   UNL A   1      32.025  20.892  22.323  1.00  0.00     0.046 C 
ATOM     21  C   UNL A   1      32.336  19.702  23.161  1.00  0.00    -0.030 A 
ATOM     22  C   UNL A   1      32.393  18.477  22.460  1.00  0.00     0.006 A 
ATOM     23  C   UNL A   1      33.017  17.361  23.006  1.00  0.00     0.020 A 
ATOM     24  C   UNL A   1      33.409  18.616  25.027  1.00  0.00     0.042 A 
ATOM     25  C   UNL A   1      33.594  17.453  24.269  1.00  0.00     0.053 A 
BRANCH  25  26
ATOM     26  C   UNL A   1      34.406  16.382  24.761  1.00  0.00     0.099 C 
ATOM     27  N   UNL A   1      35.082  15.536  25.188  1.00  0.00    -0.192 NA
ENDBRANCH  25  26
ENDBRANCH  16  19
ENDBRANCH  14  16
ENDBRANCH   9  14
ENDBRANCH   6   8
ENDBRANCH   5   6
ENDBRANCH   4   5
ENDBRANCH   3   4
ENDBRANCH   2   3
ENDBRANCH   1   2
BRANCH   1  28
ATOM     28  C   UNL A   1      44.415  21.007  25.170  1.00  0.00     0.188 C 
BRANCH  28  29
ATOM     29  O   UNL A   1      44.434  22.045  24.223  1.00  0.00    -0.376 OA
BRANCH  29  30
ATOM     30  C   UNL A   1      44.767  23.368  24.605  1.00  0.00     0.202 C 
BRANCH  30  31
ATOM     31  C   UNL A   1      44.139  24.181  25.757  1.00  0.00     0.261 C 
BRANCH  31  32
ATOM     32  O   UNL A   1      43.750  25.533  25.520  1.00  0.00    -0.460 OA
BRANCH  32  33
ATOM     33  C   UNL A   1      42.426  25.805  25.650  1.00  0.00     0.338 C 
ATOM     34  O   UNL A   1      41.517  25.378  24.962  1.00  0.00    -0.246 OA
BRANCH  33  35
ATOM     35  C   UNL A   1      42.238  26.547  26.911  1.00  0.00     0.060 A 
ATOM     36  C   UNL A   1      42.988  27.689  27.177  1.00  0.00     0.016 A 
ATOM     37  C   UNL A   1      41.313  26.073  27.850  1.00  0.00     0.016 A 
ATOM     38  C   UNL A   1      42.806  28.356  28.391  1.00  0.00     0.010 A 
ATOM     39  C   UNL A   1      41.143  26.729  29.070  1.00  0.00     0.010 A 
ATOM     40  C   UNL A   1      41.880  27.886  29.343  1.00  0.00    -0.014 A 
BRANCH  40  41
ATOM     41  C   UNL A   1      41.587  28.695  30.552  1.00  0.00     0.031 A 
ATOM     42  C   UNL A   1      42.413  28.590  31.799  1.00  0.00     0.074 A 
ATOM     43  C   UNL A   1      40.538  29.539  30.503  1.00  0.00     0.049 A 
ATOM     44  N   UNL A   1      42.330  29.300  32.896  1.00  0.00    -0.248 NA
ATOM     45  C   UNL A   1      43.456  27.556  31.829  1.00  0.00     0.031 C 
ATOM     46  C   UNL A   1      39.637  29.684  29.358  1.00  0.00     0.029 A 
ATOM     47  N   UNL A   1      40.061  30.437  31.422  1.00  0.00    -0.354 N 
ATOM     48  C   UNL A   1      43.320  28.818  33.742  1.00  0.00     0.074 A 
ATOM     49  C   UNL A   1      43.958  27.716  33.048  1.00  0.00     0.031 C 
ATOM     50  C   UNL A   1      38.742  30.646  29.627  1.00  0.00     0.029 A 
ATOM     51  C   UNL A   1      38.980  31.157  30.974  1.00  0.00     0.049 A 
ATOM     52  H   UNL A   1      40.455  30.555  32.317  1.00  0.00     0.167 HD
ATOM     53  C   UNL A   1      43.672  29.269  34.971  1.00  0.00     0.037 A 
ATOM     54  C   UNL A   1      38.258  32.123  31.574  1.00  0.00     0.037 A 
ATOM     55  C   UNL A   1      43.019  30.362  35.651  1.00  0.00     0.049 A 
ATOM     56  C   UNL A   1      38.650  32.585  32.949  1.00  0.00     0.074 A 
ATOM     57  C   UNL A   1      43.338  30.923  36.876  1.00  0.00     0.029 A 
ATOM     58  N   UNL A   1      41.904  31.046  35.183  1.00  0.00    -0.354 N 
ATOM     59  N   UNL A   1      39.646  32.179  33.700  1.00  0.00    -0.248 NA
ATOM     60  C   UNL A   1      37.827  33.637  33.558  1.00  0.00     0.031 C 
ATOM     61  C   UNL A   1      42.377  31.892  37.182  1.00  0.00     0.029 A 
ATOM     62  C   UNL A   1      41.501  31.992  36.115  1.00  0.00     0.049 A 
ATOM     63  H   UNL A   1      41.466  30.885  34.317  1.00  0.00     0.167 HD
ATOM     64  C   UNL A   1      39.580  32.937  34.863  1.00  0.00     0.074 A 
ATOM     65  C   UNL A   1      38.459  33.842  34.706  1.00  0.00     0.031 C 
ATOM     66  C   UNL A   1      40.375  32.885  35.961  1.00  0.00     0.037 A 
BRANCH  53  67
ATOM     67  C   UNL A   1      44.816  28.587  35.677  1.00  0.00     0.058 A 
ATOM     68  C   UNL A   1      44.616  27.464  36.496  1.00  0.00     0.135 A 
ATOM     69  C   UNL A   1      46.140  29.009  35.466  1.00  0.00     0.135 A 
ATOM     70  F   UNL A   1      43.373  27.017  36.738  1.00  0.00    -0.206 F 
ATOM     71  C   UNL A   1      45.681  26.803  37.101  1.00  0.00     0.059 A 
ATOM     72  C   UNL A   1      47.223  28.344  36.034  1.00  0.00     0.059 A 
ATOM     73  F   UNL A   1      46.394  30.073  34.687  1.00  0.00    -0.206 F 
ATOM     74  C   UNL A   1      46.982  27.248  36.860  1.00  0.00     0.060 A 
BRANCH  74  75
ATOM     75  S   UNL A   1      48.349  26.375  37.652  1.00  0.00     0.124 S 
ATOM     76  O   UNL A   1      47.648  25.591  38.664  1.00  0.00    -0.237 OA
ATOM     77  O   UNL A   1      48.915  25.615  36.542  1.00  0.00    -0.237 OA
ATOM     78  O   UNL A   1      49.190  27.450  38.167  1.00  0.00    -0.744 OA
ENDBRANCH  74  75
ENDBRANCH  53  67
BRANCH  54  79
ATOM     79  C   UNL A   1      37.105  32.725  30.851  1.00  0.00     0.058 A 
ATOM     80  C   UNL A   1      35.791  32.307  31.103  1.00  0.00     0.135 A 
ATOM     81  C   UNL A   1      37.295  33.773  29.936  1.00  0.00     0.135 A 
ATOM     82  F   UNL A   1      35.558  31.306  31.964  1.00  0.00    -0.206 F 
ATOM     83  C   UNL A   1      34.704  32.907  30.475  1.00  0.00     0.059 A 
ATOM     84  C   UNL A   1      36.224  34.409  29.320  1.00  0.00     0.059 A 
ATOM     85  F   UNL A   1      38.534  34.220  29.673  1.00  0.00    -0.206 F 
ATOM     86  C   UNL A   1      34.932  33.967  29.594  1.00  0.00     0.060 A 
BRANCH  86  87
ATOM     87  S   UNL A   1      33.507  34.786  28.846  1.00  0.00     0.124 S 
ATOM     88  O   UNL A   1      34.109  36.008  28.326  1.00  0.00    -0.237 OA
ATOM     89  O   UNL A   1      33.086  33.807  27.850  1.00  0.00    -0.237 OA
ATOM     90  O   UNL A   1      32.592  34.963  29.970  1.00  0.00    -0.744 OA
ENDBRANCH  86  87
ENDBRANCH  54  79
BRANCH  66  91
ATOM     91  C   UNL A   1      40.074  33.835  37.091  1.00  0.00     0.058 A 
ATOM     92  C   UNL A   1      40.661  35.109  37.160  1.00  0.00     0.135 A 
ATOM     93  C   UNL A   1      39.137  33.496  38.082  1.00  0.00     0.135 A 
ATOM     94  F   UNL A   1      41.568  35.486  36.246  1.00  0.00    -0.206 F 
ATOM     95  C   UNL A   1      40.346  36.002  38.180  1.00  0.00     0.059 A 
ATOM     96  C   UNL A   1      38.780  34.387  39.090  1.00  0.00     0.059 A 
ATOM     97  F   UNL A   1      38.535  32.296  38.062  1.00  0.00    -0.206 F 
ATOM     98  C   UNL A   1      39.397  35.635  39.137  1.00  0.00     0.060 A 
BRANCH  98  99
ATOM     99  S   UNL A   1      38.976  36.821  40.431  1.00  0.00     0.124 S 
ATOM    100  O   UNL A   1      38.386  37.907  39.655  1.00  0.00    -0.237 OA
ATOM    101  O   UNL A   1      38.048  36.057  41.260  1.00  0.00    -0.237 OA
ATOM    102  O   UNL A   1      40.262  37.121  41.052  1.00  0.00    -0.744 OA
ENDBRANCH  98  99
ENDBRANCH  66  91
ENDBRANCH  40  41
ENDBRANCH  33  35
ENDBRANCH  32  33
ENDBRANCH  31  32
ENDBRANCH  30  31
ENDBRANCH  29  30
ENDBRANCH  28  29
ENDBRANCH   1  28
TORSDOF 24
ENDMDL
MODEL 2
REMARK VINA RESULT:      -9.0      6.150     11.081
REMARK SMILES Cc1ccc(C#N)cc1S(=O)(=O)Nc1cccc(C(=O)OCCOCCOCCOC(=O)c2ccc(-c3c4nc(c(-c5c(F)cc(S(=O)(=O)[O-])cc5F)c5ccc([nH]5)c(-c5c(F)cc(S(=O)(=O)[O-])cc5F)c5nc(c(-c6c(F)cc(S(=O)(=O)[O-])cc6F)c6ccc3[nH]6)C=C5)C=C4)cc2)c1
REMARK SMILES IDX 25 1 24 2 23 3 22 4 21 5 19 6 20 7 18 8 14 9 15 10 99 11
REMARK SMILES IDX 16 12 17 13 13 14 10 16 11 17 12 18 9 19 1 20 2 21 3 22 4 23
REMARK SMILES IDX 8 24 5 25 6 26 7 27 26 28 27 29 28 30 29 31 30 32 31 33
REMARK SMILES IDX 32 34 33 35 34 36 98 37 35 38 97 39 36 40 37 41 38 42 91 43
REMARK SMILES IDX 39 44 96 45 90 46 92 47 40 48 95 49 89 50 88 51 41 53 75 54
REMARK SMILES IDX 54 55 74 56 55 57 58 58 73 59 93 60 56 61 57 62 72 64 94 65
REMARK SMILES IDX 59 66 42 67 43 68 52 69 44 70 45 71 51 72 53 73 46 74 47 75
REMARK SMILES IDX 48 76 49 77 50 78 76 79 77 80 86 81 78 82 79 83 85 84 87 85
REMARK SMILES IDX 80 86 81 87 82 88 83 89 84 90 60 91 61 92 70 93 62 94 63 95
REMARK SMILES IDX 69 96 71 97 64 98 65 99 66 100 67 101 68 102
REMARK H PARENT 13 15 92 52 58 63
REMARK Flexibility Score: inf
ROOT
ATOM      1  C   UNL A   1      35.004  33.547  29.824  1.00  0.00     0.188 C 
ENDROOT
BRANCH   1   2
ATOM      2  O   UNL A   1      34.453  32.282  29.545  1.00  0.00    -0.376 OA
BRANCH   2   3
ATOM      3  C   UNL A   1      34.754  31.643  28.317  1.00  0.00     0.202 C 
BRANCH   3   4
ATOM      4  C   UNL A   1      36.080  30.905  28.021  1.00  0.00     0.261 C 
BRANCH   4   5
ATOM      5  O   UNL A   1      36.207  29.529  28.430  1.00  0.00    -0.460 OA
BRANCH   5   6
ATOM      6  C   UNL A   1      36.855  29.327  29.609  1.00  0.00     0.338 C 
ATOM      7  O   UNL A   1      36.343  29.356  30.716  1.00  0.00    -0.246 OA
BRANCH   6   8
ATOM      8  C   UNL A   1      38.268  28.896  29.410  1.00  0.00     0.062 A 
ATOM      9  C   UNL A   1      40.151  28.168  28.039  1.00  0.00     0.050 A 
ATOM     10  C   UNL A   1      40.947  28.048  29.175  1.00  0.00     0.027 A 
ATOM     11  C   UNL A   1      38.833  28.662  28.151  1.00  0.00     0.042 A 
ATOM     12  C   UNL A   1      40.380  28.268  30.434  1.00  0.00     0.003 A 
ATOM     13  C   UNL A   1      39.042  28.664  30.552  1.00  0.00     0.016 A 
BRANCH   9  14
ATOM     14  N   UNL A   1      40.523  27.688  26.756  1.00  0.00    -0.280 N 
ATOM     15  H   UNL A   1      39.797  27.265  26.241  1.00  0.00     0.180 HD
BRANCH  14  16
ATOM     16  S   UNL A   1      42.005  27.732  25.991  1.00  0.00     0.262 S 
ATOM     17  O   UNL A   1      42.276  29.114  25.654  1.00  0.00    -0.201 OA
ATOM     18  O   UNL A   1      41.877  26.740  24.939  1.00  0.00    -0.201 OA
BRANCH  16  19
ATOM     19  C   UNL A   1      43.395  27.186  26.980  1.00  0.00     0.092 A 
ATOM     20  C   UNL A   1      44.653  29.391  27.325  1.00  0.00     0.046 C 
ATOM     21  C   UNL A   1      44.542  27.907  27.320  1.00  0.00    -0.030 A 
ATOM     22  C   UNL A   1      45.644  27.224  27.879  1.00  0.00     0.006 A 
ATOM     23  C   UNL A   1      45.543  25.896  28.279  1.00  0.00     0.020 A 
ATOM     24  C   UNL A   1      43.287  25.853  27.432  1.00  0.00     0.042 A 
ATOM     25  C   UNL A   1      44.333  25.227  28.122  1.00  0.00     0.053 A 
BRANCH  25  26
ATOM     26  C   UNL A   1      44.154  23.932  28.704  1.00  0.00     0.099 C 
ATOM     27  N   UNL A   1      44.033  22.890  29.208  1.00  0.00    -0.192 NA
ENDBRANCH  25  26
ENDBRANCH  16  19
ENDBRANCH  14  16
ENDBRANCH   9  14
ENDBRANCH   6   8
ENDBRANCH   5   6
ENDBRANCH   4   5
ENDBRANCH   3   4
ENDBRANCH   2   3
ENDBRANCH   1   2
BRANCH   1  28
ATOM     28  C   UNL A   1      34.053  34.708  30.157  1.00  0.00     0.188 C 
BRANCH  28  29
ATOM     29  O   UNL A   1      34.140  35.304  31.428  1.00  0.00    -0.376 OA
BRANCH  29  30
ATOM     30  C   UNL A   1      33.508  34.712  32.549  1.00  0.00     0.202 C 
BRANCH  30  31
ATOM     31  C   UNL A   1      33.954  33.435  33.292  1.00  0.00     0.261 C 
BRANCH  31  32
ATOM     32  O   UNL A   1      35.278  32.942  33.091  1.00  0.00    -0.460 OA
BRANCH  32  33
ATOM     33  C   UNL A   1      36.156  33.162  34.103  1.00  0.00     0.338 C 
ATOM     34  O   UNL A   1      35.890  33.401  35.267  1.00  0.00    -0.246 OA
BRANCH  33  35
ATOM     35  C   UNL A   1      37.509  32.848  33.606  1.00  0.00     0.060 A 
ATOM     36  C   UNL A   1      37.678  32.133  32.424  1.00  0.00     0.016 A 
ATOM     37  C   UNL A   1      38.622  33.259  34.350  1.00  0.00     0.016 A 
ATOM     38  C   UNL A   1      38.971  31.828  31.991  1.00  0.00     0.010 A 
ATOM     39  C   UNL A   1      39.913  32.941  33.927  1.00  0.00     0.010 A 
ATOM     40  C   UNL A   1      40.097  32.235  32.734  1.00  0.00    -0.014 A 
BRANCH  40  41
ATOM     41  C   UNL A   1      41.459  32.042  32.177  1.00  0.00     0.031 A 
ATOM     42  C   UNL A   1      42.271  30.815  32.464  1.00  0.00     0.074 A 
ATOM     43  C   UNL A   1      41.961  33.018  31.396  1.00  0.00     0.049 A 
ATOM     44  N   UNL A   1      43.434  30.471  31.973  1.00  0.00    -0.248 NA
ATOM     45  C   UNL A   1      41.718  29.855  33.429  1.00  0.00     0.031 C 
ATOM     46  C   UNL A   1      41.278  34.277  31.091  1.00  0.00     0.029 A 
ATOM     47  N   UNL A   1      43.144  33.103  30.708  1.00  0.00    -0.354 N 
ATOM     48  C   UNL A   1      43.749  29.247  32.549  1.00  0.00     0.074 A 
ATOM     49  C   UNL A   1      42.673  28.933  33.469  1.00  0.00     0.031 C 
ATOM     50  C   UNL A   1      42.034  34.990  30.245  1.00  0.00     0.029 A 
ATOM     51  C   UNL A   1      43.270  34.260  29.977  1.00  0.00     0.049 A 
ATOM     52  H   UNL A   1      43.836  32.404  30.735  1.00  0.00     0.167 HD
ATOM     53  C   UNL A   1      44.824  28.455  32.313  1.00  0.00     0.037 A 
ATOM     54  C   UNL A   1      44.265  34.689  29.177  1.00  0.00     0.037 A 
ATOM     55  C   UNL A   1      45.891  28.789  31.399  1.00  0.00     0.049 A 
ATOM     56  C   UNL A   1      45.461  33.806  28.956  1.00  0.00     0.074 A 
ATOM     57  C   UNL A   1      46.995  28.027  31.056  1.00  0.00     0.029 A 
ATOM     58  N   UNL A   1      46.005  29.985  30.702  1.00  0.00    -0.354 N 
ATOM     59  N   UNL A   1      45.700  32.610  29.438  1.00  0.00    -0.248 NA
ATOM     60  C   UNL A   1      46.517  34.325  28.078  1.00  0.00     0.031 C 
ATOM     61  C   UNL A   1      47.811  28.788  30.213  1.00  0.00     0.029 A 
ATOM     62  C   UNL A   1      47.181  29.996  29.965  1.00  0.00     0.049 A 
ATOM     63  H   UNL A   1      45.347  30.716  30.725  1.00  0.00     0.167 HD
ATOM     64  C   UNL A   1      46.928  32.226  28.911  1.00  0.00     0.074 A 
ATOM     65  C   UNL A   1      47.369  33.307  28.054  1.00  0.00     0.031 C 
ATOM     66  C   UNL A   1      47.624  31.081  29.121  1.00  0.00     0.037 A 
BRANCH  53  67
ATOM     67  C   UNL A   1      44.916  27.144  33.051  1.00  0.00     0.058 A 
ATOM     68  C   UNL A   1      45.514  27.048  34.318  1.00  0.00     0.135 A 
ATOM     69  C   UNL A   1      44.324  25.984  32.522  1.00  0.00     0.135 A 
ATOM     70  F   UNL A   1      46.099  28.123  34.871  1.00  0.00    -0.206 F 
ATOM     71  C   UNL A   1      45.547  25.848  35.020  1.00  0.00     0.059 A 
ATOM     72  C   UNL A   1      44.316  24.779  33.221  1.00  0.00     0.059 A 
ATOM     73  F   UNL A   1      43.732  26.015  31.317  1.00  0.00    -0.206 F 
ATOM     74  C   UNL A   1      44.941  24.719  34.464  1.00  0.00     0.060 A 
BRANCH  74  75
ATOM     75  S   UNL A   1      44.992  23.172  35.394  1.00  0.00     0.124 S 
ATOM     76  O   UNL A   1      43.746  22.539  34.974  1.00  0.00    -0.237 OA
ATOM     77  O   UNL A   1      46.216  22.552  34.895  1.00  0.00    -0.237 OA
ATOM     78  O   UNL A   1      45.034  23.609  36.785  1.00  0.00    -0.744 OA
ENDBRANCH  74  75
ENDBRANCH  53  67
BRANCH  54  79
ATOM     79  C   UNL A   1      44.146  36.016  28.516  1.00  0.00     0.058 A 
ATOM     80  C   UNL A   1      43.384  36.181  27.351  1.00  0.00     0.135 A 
ATOM     81  C   UNL A   1      44.745  37.158  29.074  1.00  0.00     0.135 A 
ATOM     82  F   UNL A   1      42.797  35.121  26.775  1.00  0.00    -0.206 F 
ATOM     83  C   UNL A   1      43.219  37.431  26.761  1.00  0.00     0.059 A 
ATOM     84  C   UNL A   1      44.569  38.421  28.521  1.00  0.00     0.059 A 
ATOM     85  F   UNL A   1      45.471  37.054  30.199  1.00  0.00    -0.206 F 
ATOM     86  C   UNL A   1      43.806  38.547  27.362  1.00  0.00     0.060 A 
BRANCH  86  87
ATOM     87  S   UNL A   1      43.518  40.171  26.630  1.00  0.00     0.124 S 
ATOM     88  O   UNL A   1      43.650  41.045  27.789  1.00  0.00    -0.237 OA
ATOM     89  O   UNL A   1      44.590  40.250  25.643  1.00  0.00    -0.237 OA
ATOM     90  O   UNL A   1      42.172  40.058  26.076  1.00  0.00    -0.744 OA
ENDBRANCH  86  87
ENDBRANCH  54  79
BRANCH  66  91
ATOM     91  C   UNL A   1      48.945  30.923  28.411  1.00  0.00     0.058 A 
ATOM     92  C   UNL A   1      50.134  31.451  28.938  1.00  0.00     0.135 A 
ATOM     93  C   UNL A   1      49.035  30.175  27.224  1.00  0.00     0.135 A 
ATOM     94  F   UNL A   1      50.109  32.179  30.065  1.00  0.00    -0.206 F 
ATOM     95  C   UNL A   1      51.359  31.263  28.305  1.00  0.00     0.059 A 
ATOM     96  C   UNL A   1      50.254  29.944  26.594  1.00  0.00     0.059 A 
ATOM     97  F   UNL A   1      47.933  29.636  26.679  1.00  0.00    -0.206 F 
ATOM     98  C   UNL A   1      51.410  30.500  27.136  1.00  0.00     0.060 A 
BRANCH  98  99
ATOM     99  S   UNL A   1      53.013  30.238  26.349  1.00  0.00     0.124 S 
ATOM    100  O   UNL A   1      53.932  30.667  27.399  1.00  0.00    -0.237 OA
ATOM    101  O   UNL A   1      52.991  28.804  26.073  1.00  0.00    -0.237 OA
ATOM    102  O   UNL A   1      52.961  31.099  25.171  1.00  0.00    -0.744 OA
ENDBRANCH  98  99
ENDBRANCH  66  91
ENDBRANCH  40  41
ENDBRANCH  33  35
ENDBRANCH  32  33
ENDBRANCH  31  32
ENDBRANCH  30  31
ENDBRANCH  29  30
ENDBRANCH  28  29
ENDBRANCH   1  28
TORSDOF 24
ENDMDL
MODEL 3
REMARK VINA RESULT:      -8.7      3.679     10.044
REMARK SMILES Cc1ccc(C#N)cc1S(=O)(=O)Nc1cccc(C(=O)OCCOCCOCCOC(=O)c2ccc(-c3c4nc(c(-c5c(F)cc(S(=O)(=O)[O-])cc5F)c5ccc([nH]5)c(-c5c(F)cc(S(=O)(=O)[O-])cc5F)c5nc(c(-c6c(F)cc(S(=O)(=O)[O-])cc6F)c6ccc3[nH]6)C=C5)C=C4)cc2)c1
REMARK SMILES IDX 25 1 24 2 23 3 22 4 21 5 19 6 20 7 18 8 14 9 15 10 99 11
REMARK SMILES IDX 16 12 17 13 13 14 10 16 11 17 12 18 9 19 1 20 2 21 3 22 4 23
REMARK SMILES IDX 8 24 5 25 6 26 7 27 26 28 27 29 28 30 29 31 30 32 31 33
REMARK SMILES IDX 32 34 33 35 34 36 98 37 35 38 97 39 36 40 37 41 38 42 91 43
REMARK SMILES IDX 39 44 96 45 90 46 92 47 40 48 95 49 89 50 88 51 41 53 75 54
REMARK SMILES IDX 54 55 74 56 55 57 58 58 73 59 93 60 56 61 57 62 72 64 94 65
REMARK SMILES IDX 59 66 42 67 43 68 52 69 44 70 45 71 51 72 53 73 46 74 47 75
REMARK SMILES IDX 48 76 49 77 50 78 76 79 77 80 86 81 78 82 79 83 85 84 87 85
REMARK SMILES IDX 80 86 81 87 82 88 83 89 84 90 60 91 61 92 70 93 62 94 63 95
REMARK SMILES IDX 69 96 71 97 64 98 65 99 66 100 67 101 68 102
REMARK H PARENT 13 15 92 52 58 63
REMARK Flexibility Score: inf
ROOT
ATOM      1  C   UNL A   1      31.074  27.663  26.551  1.00  0.00     0.188 C 
ENDROOT
BRANCH   1   2
ATOM      2  O   UNL A   1      31.376  26.335  26.190  1.00  0.00    -0.376 OA
BRANCH   2   3
ATOM      3  C   UNL A   1      30.889  25.816  24.966  1.00  0.00     0.202 C 
BRANCH   3   4
ATOM      4  C   UNL A   1      31.485  24.586  24.242  1.00  0.00     0.261 C 
BRANCH   4   5
ATOM      5  O   UNL A   1      30.871  23.300  24.451  1.00  0.00    -0.460 OA
BRANCH   5   6
ATOM      6  C   UNL A   1      31.226  22.661  25.598  1.00  0.00     0.338 C 
ATOM      7  O   UNL A   1      30.620  22.708  26.656  1.00  0.00    -0.246 OA
BRANCH   6   8
ATOM      8  C   UNL A   1      32.378  21.737  25.395  1.00  0.00     0.062 A 
ATOM      9  C   UNL A   1      34.711  21.073  25.661  1.00  0.00     0.050 A 
ATOM     10  C   UNL A   1      34.485  19.929  24.902  1.00  0.00     0.027 A 
ATOM     11  C   UNL A   1      33.639  21.940  25.968  1.00  0.00     0.042 A 
ATOM     12  C   UNL A   1      33.229  19.733  24.318  1.00  0.00     0.003 A 
ATOM     13  C   UNL A   1      32.191  20.644  24.543  1.00  0.00     0.016 A 
BRANCH   9  14
ATOM     14  N   UNL A   1      36.000  21.527  26.047  1.00  0.00    -0.280 N 
ATOM     15  H   UNL A   1      36.065  21.868  26.969  1.00  0.00     0.180 HD
BRANCH  14  16
ATOM     16  S   UNL A   1      37.421  21.567  25.173  1.00  0.00     0.262 S 
ATOM     17  O   UNL A   1      37.278  22.599  24.166  1.00  0.00    -0.201 OA
ATOM     18  O   UNL A   1      37.619  20.187  24.775  1.00  0.00    -0.201 OA
BRANCH  16  19
ATOM     19  C   UNL A   1      38.885  21.997  26.111  1.00  0.00     0.092 A 
ATOM     20  C   UNL A   1      38.340  24.403  26.806  1.00  0.00     0.046 C 
ATOM     21  C   UNL A   1      39.263  23.257  26.582  1.00  0.00    -0.030 A 
ATOM     22  C   UNL A   1      40.576  23.445  27.067  1.00  0.00     0.006 A 
ATOM     23  C   UNL A   1      41.433  22.368  27.268  1.00  0.00     0.020 A 
ATOM     24  C   UNL A   1      39.744  20.905  26.362  1.00  0.00     0.042 A 
ATOM     25  C   UNL A   1      40.988  21.081  26.983  1.00  0.00     0.053 A 
BRANCH  25  26
ATOM     26  C   UNL A   1      41.779  19.952  27.366  1.00  0.00     0.099 C 
ATOM     27  N   UNL A   1      42.446  19.040  27.646  1.00  0.00    -0.192 NA
ENDBRANCH  25  26
ENDBRANCH  16  19
ENDBRANCH  14  16
ENDBRANCH   9  14
ENDBRANCH   6   8
ENDBRANCH   5   6
ENDBRANCH   4   5
ENDBRANCH   3   4
ENDBRANCH   2   3
ENDBRANCH   1   2
BRANCH   1  28
ATOM     28  C   UNL A   1      31.944  28.353  27.614  1.00  0.00     0.188 C 
BRANCH  28  29
ATOM     29  O   UNL A   1      32.447  29.637  27.339  1.00  0.00    -0.376 OA
BRANCH  29  30
ATOM     30  C   UNL A   1      33.667  29.801  26.637  1.00  0.00     0.202 C 
BRANCH  30  31
ATOM     31  C   UNL A   1      35.056  29.287  27.070  1.00  0.00     0.261 C 
BRANCH  31  32
ATOM     32  O   UNL A   1      35.391  29.276  28.458  1.00  0.00    -0.460 OA
BRANCH  32  33
ATOM     33  C   UNL A   1      35.935  30.419  28.949  1.00  0.00     0.338 C 
ATOM     34  O   UNL A   1      35.385  31.497  29.081  1.00  0.00    -0.246 OA
BRANCH  33  35
ATOM     35  C   UNL A   1      37.261  30.088  29.504  1.00  0.00     0.060 A 
ATOM     36  C   UNL A   1      37.426  28.971  30.318  1.00  0.00     0.016 A 
ATOM     37  C   UNL A   1      38.347  30.925  29.222  1.00  0.00     0.016 A 
ATOM     38  C   UNL A   1      38.689  28.697  30.850  1.00  0.00     0.010 A 
ATOM     39  C   UNL A   1      39.605  30.661  29.767  1.00  0.00     0.010 A 
ATOM     40  C   UNL A   1      39.787  29.534  30.574  1.00  0.00    -0.014 A 
BRANCH  40  41
ATOM     41  C   UNL A   1      41.147  29.139  31.016  1.00  0.00     0.031 A 
ATOM     42  C   UNL A   1      41.962  28.121  30.275  1.00  0.00     0.074 A 
ATOM     43  C   UNL A   1      41.642  29.725  32.124  1.00  0.00     0.049 A 
ATOM     44  N   UNL A   1      43.197  27.748  30.492  1.00  0.00    -0.248 NA
ATOM     45  C   UNL A   1      41.311  27.426  29.156  1.00  0.00     0.031 C 
ATOM     46  C   UNL A   1      40.917  30.691  32.951  1.00  0.00     0.029 A 
ATOM     47  N   UNL A   1      42.863  29.609  32.736  1.00  0.00    -0.354 N 
ATOM     48  C   UNL A   1      43.484  26.790  29.528  1.00  0.00     0.074 A 
ATOM     49  C   UNL A   1      42.272  26.602  28.756  1.00  0.00     0.031 C 
ATOM     50  C   UNL A   1      41.721  31.112  33.938  1.00  0.00     0.029 A 
ATOM     51  C   UNL A   1      43.003  30.419  33.837  1.00  0.00     0.049 A 
ATOM     52  H   UNL A   1      43.572  29.004  32.417  1.00  0.00     0.167 HD
ATOM     53  C   UNL A   1      44.656  26.147  29.301  1.00  0.00     0.037 A 
ATOM     54  C   UNL A   1      44.043  30.590  34.676  1.00  0.00     0.037 A 
ATOM     55  C   UNL A   1      45.852  26.340  30.088  1.00  0.00     0.049 A 
ATOM     56  C   UNL A   1      45.321  29.842  34.421  1.00  0.00     0.074 A 
ATOM     57  C   UNL A   1      47.101  25.771  29.901  1.00  0.00     0.029 A 
ATOM     58  N   UNL A   1      45.948  27.141  31.218  1.00  0.00    -0.354 N 
ATOM     59  N   UNL A   1      45.605  29.007  33.450  1.00  0.00    -0.248 NA
ATOM     60  C   UNL A   1      46.422  30.063  35.367  1.00  0.00     0.031 C 
ATOM     61  C   UNL A   1      47.928  26.168  30.957  1.00  0.00     0.029 A 
ATOM     62  C   UNL A   1      47.221  27.046  31.762  1.00  0.00     0.049 A 
ATOM     63  H   UNL A   1      45.220  27.696  31.580  1.00  0.00     0.167 HD
ATOM     64  C   UNL A   1      46.922  28.614  33.660  1.00  0.00     0.074 A 
ATOM     65  C   UNL A   1      47.385  29.321  34.836  1.00  0.00     0.031 C 
ATOM     66  C   UNL A   1      47.676  27.744  32.942  1.00  0.00     0.037 A 
BRANCH  53  67
ATOM     67  C   UNL A   1      44.719  25.166  28.158  1.00  0.00     0.058 A 
ATOM     68  C   UNL A   1      44.890  25.588  26.830  1.00  0.00     0.135 A 
ATOM     69  C   UNL A   1      44.691  23.782  28.403  1.00  0.00     0.135 A 
ATOM     70  F   UNL A   1      44.919  26.897  26.535  1.00  0.00    -0.206 F 
ATOM     71  C   UNL A   1      45.003  24.677  25.785  1.00  0.00     0.059 A 
ATOM     72  C   UNL A   1      44.836  22.852  27.376  1.00  0.00     0.059 A 
ATOM     73  F   UNL A   1      44.537  23.319  29.653  1.00  0.00    -0.206 F 
ATOM     74  C   UNL A   1      44.980  23.310  26.069  1.00  0.00     0.060 A 
BRANCH  74  75
ATOM     75  S   UNL A   1      45.132  22.145  24.698  1.00  0.00     0.124 S 
ATOM     76  O   UNL A   1      45.359  23.047  23.573  1.00  0.00    -0.237 OA
ATOM     77  O   UNL A   1      46.277  21.337  25.104  1.00  0.00    -0.237 OA
ATOM     78  O   UNL A   1      43.848  21.452  24.693  1.00  0.00    -0.744 OA
ENDBRANCH  74  75
ENDBRANCH  53  67
BRANCH  54  79
ATOM     79  C   UNL A   1      43.908  31.531  35.820  1.00  0.00     0.058 A 
ATOM     80  C   UNL A   1      43.362  31.116  37.042  1.00  0.00     0.135 A 
ATOM     81  C   UNL A   1      44.380  32.851  35.728  1.00  0.00     0.135 A 
ATOM     82  F   UNL A   1      42.892  29.868  37.179  1.00  0.00    -0.206 F 
ATOM     83  C   UNL A   1      43.289  31.975  38.135  1.00  0.00     0.059 A 
ATOM     84  C   UNL A   1      44.346  33.718  36.814  1.00  0.00     0.059 A 
ATOM     85  F   UNL A   1      44.926  33.291  34.583  1.00  0.00    -0.206 F 
ATOM     86  C   UNL A   1      43.796  33.271  38.013  1.00  0.00     0.060 A 
BRANCH  86  87
ATOM     87  S   UNL A   1      43.764  34.348  39.461  1.00  0.00     0.124 S 
ATOM     88  O   UNL A   1      42.918  35.441  38.998  1.00  0.00    -0.237 OA
ATOM     89  O   UNL A   1      43.181  33.473  40.474  1.00  0.00    -0.237 OA
ATOM     90  O   UNL A   1      45.171  34.682  39.664  1.00  0.00    -0.744 OA
ENDBRANCH  86  87
ENDBRANCH  54  79
BRANCH  66  91
ATOM     91  C   UNL A   1      49.092  27.500  33.398  1.00  0.00     0.058 A 
ATOM     92  C   UNL A   1      50.156  28.307  32.963  1.00  0.00     0.135 A 
ATOM     93  C   UNL A   1      49.380  26.492  34.333  1.00  0.00     0.135 A 
ATOM     94  F   UNL A   1      49.943  29.281  32.065  1.00  0.00    -0.206 F 
ATOM     95  C   UNL A   1      51.456  28.109  33.422  1.00  0.00     0.059 A 
ATOM     96  C   UNL A   1      50.665  26.300  34.833  1.00  0.00     0.059 A 
ATOM     97  F   UNL A   1      48.402  25.696  34.793  1.00  0.00    -0.206 F 
ATOM     98  C   UNL A   1      51.699  27.107  34.364  1.00  0.00     0.060 A 
BRANCH  98  99
ATOM     99  S   UNL A   1      53.384  26.890  34.973  1.00  0.00     0.124 S 
ATOM    100  O   UNL A   1      54.098  26.543  33.748  1.00  0.00    -0.237 OA
ATOM    101  O   UNL A   1      53.683  28.206  35.530  1.00  0.00    -0.237 OA
ATOM    102  O   UNL A   1      53.258  25.814  35.951  1.00  0.00    -0.744 OA
ENDBRANCH  98  99
ENDBRANCH  66  91
ENDBRANCH  40  41
ENDBRANCH  33  35
ENDBRANCH  32  33
ENDBRANCH  31  32
ENDBRANCH  30  31
ENDBRANCH  29  30
ENDBRANCH  28  29
ENDBRANCH   1  28
TORSDOF 24
ENDMDL
