MODEL 1
REMARK VINA RESULT:     -11.9      0.000      0.000
REMARK SMILES Cc1ccc(S(=O)(=O)n2cc(C(=O)C(=O)NCC(=O)OCCOCCOCCOC(=O)c3ccc(-c4c5nc(c(-c6c(F)cc(S(=O)(=O)[O-])cc6F)c6ccc([nH]6)c(-c6c(F)cc(S(=O)(=O)[O-])cc6F)c6nc(c(-c7c(F)cc(S(=O)(=O)[O-])cc7F)c7ccc4[nH]7)C=C6)C=C5)cc3)c3ccccc32)cc1
REMARK SMILES IDX 24 1 23 2 22 3 21 4 20 5 18 6 19 7 17 8 16 9 14 10 15 11
REMARK SMILES IDX 12 13 13 14 11 15 9 16 10 17 103 18 98 19 102 20 99 21
REMARK SMILES IDX 101 22 100 23 6 24 7 25 8 26 5 27 1 28 2 29 3 30 105 31 4 32
REMARK SMILES IDX 104 33 25 34 26 35 27 36 28 37 29 38 30 39 31 40 32 41 33 42
REMARK SMILES IDX 97 43 34 44 96 45 35 46 36 47 37 48 90 49 38 50 95 51 89 52
REMARK SMILES IDX 91 53 39 54 94 55 88 56 87 57 40 59 74 60 53 61 73 62 54 63
REMARK SMILES IDX 57 64 72 65 92 66 55 67 56 68 71 70 93 71 58 72 41 73 42 74
REMARK SMILES IDX 51 75 43 76 44 77 50 78 52 79 45 80 46 81 47 82 48 83 49 84
REMARK SMILES IDX 75 85 76 86 85 87 77 88 78 89 84 90 86 91 79 92 80 93 81 94
REMARK SMILES IDX 82 95 83 96 59 97 60 98 69 99 61 100 62 101 68 102 70 103
REMARK SMILES IDX 63 104 64 105 65 106 66 107 67 108
REMARK H PARENT 16 12 91 58 57 69
REMARK Flexibility Score: inf
ROOT
ATOM      1  C   UNL A   1      31.423  28.722  23.413  1.00  0.00     0.188 C 
ENDROOT
BRANCH   1   2
ATOM      2  O   UNL A   1      30.917  27.402  23.109  1.00  0.00    -0.376 OA
BRANCH   2   3
ATOM      3  C   UNL A   1      31.669  26.184  23.141  1.00  0.00     0.202 C 
BRANCH   3   4
ATOM      4  C   UNL A   1      31.244  24.673  23.827  1.00  0.00     0.261 C 
BRANCH   4   5
ATOM      5  O   UNL A   1      32.228  23.479  24.675  1.00  0.00    -0.462 OA
BRANCH   5   6
ATOM      6  C   UNL A   1      33.203  23.226  25.696  1.00  0.00     0.325 C 
ATOM      7  O   UNL A   1      33.140  22.429  26.635  1.00  0.00    -0.250 OA
BRANCH   6   8
ATOM      8  C   UNL A   1      34.544  23.979  25.695  1.00  0.00     0.239 C 
BRANCH   8   9
ATOM      9  N   UNL A   1      35.196  24.076  24.429  1.00  0.00    -0.338 N 
ATOM     10  C   UNL A   1      36.033  23.112  23.930  1.00  0.00     0.292 C 
ATOM     11  O   UNL A   1      36.433  23.168  22.773  1.00  0.00    -0.265 OA
ATOM     12  H   UNL A   1      35.036  24.880  23.884  1.00  0.00     0.164 HD
BRANCH  10  13
ATOM     13  C   UNL A   1      36.510  21.976  24.872  1.00  0.00     0.252 C 
ATOM     14  O   UNL A   1      35.753  21.037  25.095  1.00  0.00    -0.283 OA
BRANCH  13  15
ATOM     15  C   UNL A   1      37.889  22.007  25.345  1.00  0.00     0.054 A 
ATOM     16  N   UNL A   1      39.832  21.169  26.010  1.00  0.00    -0.240 N 
ATOM     17  C   UNL A   1      38.762  20.949  25.187  1.00  0.00     0.117 A 
ATOM     18  C   UNL A   1      39.784  22.428  26.562  1.00  0.00     0.065 A 
ATOM     19  C   UNL A   1      38.579  23.000  26.119  1.00  0.00     0.012 A 
ATOM     20  C   UNL A   1      40.641  23.099  27.455  1.00  0.00     0.028 A 
ATOM     21  C   UNL A   1      38.263  24.311  26.541  1.00  0.00     0.011 A 
ATOM     22  C   UNL A   1      40.293  24.387  27.865  1.00  0.00     0.002 A 
ATOM     23  C   UNL A   1      39.132  24.994  27.402  1.00  0.00     0.001 A 
BRANCH  16  24
ATOM     24  S   UNL A   1      40.724  19.845  26.603  1.00  0.00     0.268 S 
ATOM     25  O   UNL A   1      40.086  18.644  26.035  1.00  0.00    -0.201 OA
ATOM     26  O   UNL A   1      40.849  20.032  28.009  1.00  0.00    -0.201 OA
BRANCH  24  27
ATOM     27  C   UNL A   1      42.348  19.962  25.887  1.00  0.00     0.088 A 
ATOM     28  C   UNL A   1      46.425  20.464  24.628  1.00  0.00     0.044 C 
ATOM     29  C   UNL A   1      44.984  20.290  25.004  1.00  0.00    -0.051 A 
ATOM     30  C   UNL A   1      44.225  21.401  25.395  1.00  0.00     0.005 A 
ATOM     31  C   UNL A   1      44.389  19.025  24.998  1.00  0.00     0.005 A 
ATOM     32  C   UNL A   1      42.912  21.239  25.836  1.00  0.00     0.022 A 
ATOM     33  C   UNL A   1      43.071  18.858  25.429  1.00  0.00     0.022 A 
ENDBRANCH  24  27
ENDBRANCH  16  24
ENDBRANCH  13  15
ENDBRANCH  10  13
ENDBRANCH   8   9
ENDBRANCH   6   8
ENDBRANCH   5   6
ENDBRANCH   4   5
ENDBRANCH   3   4
ENDBRANCH   2   3
ENDBRANCH   1   2
BRANCH   1  34
ATOM     34  C   UNL A   1      32.711  28.963  24.190  1.00  0.00     0.188 C 
BRANCH  34  35
ATOM     35  O   UNL A   1      32.554  30.076  25.045  1.00  0.00    -0.376 OA
BRANCH  35  36
ATOM     36  C   UNL A   1      33.011  29.930  26.370  1.00  0.00     0.202 C 
BRANCH  36  37
ATOM     37  C   UNL A   1      32.381  30.923  27.363  1.00  0.00     0.261 C 
BRANCH  37  38
ATOM     38  O   UNL A   1      32.871  32.287  27.230  1.00  0.00    -0.460 OA
BRANCH  38  39
ATOM     39  C   UNL A   1      33.533  32.892  28.292  1.00  0.00     0.338 C 
ATOM     40  O   UNL A   1      33.043  33.818  28.910  1.00  0.00    -0.246 OA
BRANCH  39  41
ATOM     41  C   UNL A   1      34.724  32.077  28.732  1.00  0.00     0.060 A 
ATOM     42  C   UNL A   1      35.174  31.651  29.993  1.00  0.00     0.016 A 
ATOM     43  C   UNL A   1      35.573  31.797  27.735  1.00  0.00     0.016 A 
ATOM     44  C   UNL A   1      36.553  31.137  30.236  1.00  0.00     0.010 A 
ATOM     45  C   UNL A   1      36.904  31.613  28.087  1.00  0.00     0.010 A 
ATOM     46  C   UNL A   1      37.550  31.121  29.247  1.00  0.00    -0.014 A 
BRANCH  46  47
ATOM     47  C   UNL A   1      39.194  30.758  29.402  1.00  0.00     0.031 A 
ATOM     48  C   UNL A   1      40.278  29.563  28.768  1.00  0.00     0.074 A 
ATOM     49  C   UNL A   1      39.865  31.627  30.199  1.00  0.00     0.049 A 
ATOM     50  N   UNL A   1      41.231  28.971  29.474  1.00  0.00    -0.248 NA
ATOM     51  C   UNL A   1      40.383  28.936  27.388  1.00  0.00     0.031 C 
ATOM     52  C   UNL A   1      41.309  31.776  30.374  1.00  0.00     0.029 A 
ATOM     53  N   UNL A   1      39.326  32.580  31.074  1.00  0.00    -0.354 N 
ATOM     54  C   UNL A   1      41.929  28.048  28.650  1.00  0.00     0.074 A 
ATOM     55  C   UNL A   1      41.247  27.949  27.435  1.00  0.00     0.031 C 
ATOM     56  C   UNL A   1      41.537  32.532  31.463  1.00  0.00     0.029 A 
ATOM     57  C   UNL A   1      40.256  32.783  32.098  1.00  0.00     0.049 A 
ATOM     58  H   UNL A   1      38.452  33.024  30.985  1.00  0.00     0.167 HD
ATOM     59  C   UNL A   1      43.161  27.503  28.838  1.00  0.00     0.037 A 
ATOM     60  C   UNL A   1      39.920  32.497  33.386  1.00  0.00     0.037 A 
ATOM     61  C   UNL A   1      43.757  28.119  29.977  1.00  0.00     0.049 A 
ATOM     62  C   UNL A   1      40.766  31.367  33.929  1.00  0.00     0.074 A 
ATOM     63  C   UNL A   1      44.452  29.308  30.099  1.00  0.00     0.029 A 
ATOM     64  N   UNL A   1      43.224  27.822  31.215  1.00  0.00    -0.354 N 
ATOM     65  N   UNL A   1      41.483  30.570  33.178  1.00  0.00    -0.248 NA
ATOM     66  C   UNL A   1      40.924  31.074  35.349  1.00  0.00     0.031 C 
ATOM     67  C   UNL A   1      44.199  29.806  31.404  1.00  0.00     0.029 A 
ATOM     68  C   UNL A   1      43.442  28.869  32.088  1.00  0.00     0.049 A 
ATOM     69  H   UNL A   1      42.756  26.985  31.443  1.00  0.00     0.167 HD
ATOM     70  C   UNL A   1      42.175  29.691  33.963  1.00  0.00     0.074 A 
ATOM     71  C   UNL A   1      41.798  30.052  35.316  1.00  0.00     0.031 C 
ATOM     72  C   UNL A   1      43.011  28.735  33.465  1.00  0.00     0.037 A 
BRANCH  59  73
ATOM     73  C   UNL A   1      43.836  26.751  27.687  1.00  0.00     0.058 A 
ATOM     74  C   UNL A   1      44.020  25.358  27.729  1.00  0.00     0.135 A 
ATOM     75  C   UNL A   1      44.489  27.409  26.610  1.00  0.00     0.135 A 
ATOM     76  F   UNL A   1      43.442  24.619  28.685  1.00  0.00    -0.206 F 
ATOM     77  C   UNL A   1      44.855  24.678  26.827  1.00  0.00     0.059 A 
ATOM     78  C   UNL A   1      45.375  26.759  25.734  1.00  0.00     0.059 A 
ATOM     79  F   UNL A   1      44.356  28.736  26.453  1.00  0.00    -0.206 F 
ATOM     80  C   UNL A   1      45.552  25.385  25.851  1.00  0.00     0.060 A 
BRANCH  80  81
ATOM     81  S   UNL A   1      46.725  24.498  24.791  1.00  0.00     0.124 S 
ATOM     82  O   UNL A   1      47.492  25.584  24.184  1.00  0.00    -0.237 OA
ATOM     83  O   UNL A   1      47.447  23.681  25.759  1.00  0.00    -0.237 OA
ATOM     84  O   UNL A   1      45.866  23.765  23.866  1.00  0.00    -0.744 OA
ENDBRANCH  80  81
ENDBRANCH  59  73
BRANCH  60  85
ATOM     85  C   UNL A   1      38.515  32.896  33.724  1.00  0.00     0.058 A 
ATOM     86  C   UNL A   1      38.206  34.274  33.607  1.00  0.00     0.135 A 
ATOM     87  C   UNL A   1      37.425  32.016  33.737  1.00  0.00     0.135 A 
ATOM     88  F   UNL A   1      39.197  35.182  33.614  1.00  0.00    -0.206 F 
ATOM     89  C   UNL A   1      36.920  34.736  33.337  1.00  0.00     0.059 A 
ATOM     90  C   UNL A   1      36.110  32.465  33.494  1.00  0.00     0.059 A 
ATOM     91  F   UNL A   1      37.628  30.693  33.824  1.00  0.00    -0.206 F 
ATOM     92  C   UNL A   1      35.886  33.817  33.222  1.00  0.00     0.060 A 
BRANCH  92  93
ATOM     93  S   UNL A   1      34.319  34.418  32.528  1.00  0.00     0.124 S 
ATOM     94  O   UNL A   1      34.738  34.975  31.247  1.00  0.00    -0.237 OA
ATOM     95  O   UNL A   1      33.544  33.179  32.455  1.00  0.00    -0.237 OA
ATOM     96  O   UNL A   1      33.868  35.388  33.520  1.00  0.00    -0.744 OA
ENDBRANCH  92  93
ENDBRANCH  60  85
BRANCH  72  97
ATOM     97  C   UNL A   1      43.567  27.577  34.248  1.00  0.00     0.058 A 
ATOM     98  C   UNL A   1      44.910  27.497  34.642  1.00  0.00     0.135 A 
ATOM     99  C   UNL A   1      42.698  26.598  34.791  1.00  0.00     0.135 A 
ATOM    100  F   UNL A   1      45.798  28.436  34.283  1.00  0.00    -0.206 F 
ATOM    101  C   UNL A   1      45.379  26.469  35.453  1.00  0.00     0.059 A 
ATOM    102  C   UNL A   1      43.132  25.610  35.662  1.00  0.00     0.059 A 
ATOM    103  F   UNL A   1      41.386  26.585  34.505  1.00  0.00    -0.206 F 
ATOM    104  C   UNL A   1      44.484  25.529  35.955  1.00  0.00     0.060 A 
BRANCH 104 105
ATOM    105  S   UNL A   1      45.071  24.194  37.007  1.00  0.00     0.124 S 
ATOM    106  O   UNL A   1      44.614  23.025  36.263  1.00  0.00    -0.237 OA
ATOM    107  O   UNL A   1      46.516  24.403  37.027  1.00  0.00    -0.237 OA
ATOM    108  O   UNL A   1      44.389  24.449  38.272  1.00  0.00    -0.744 OA
ENDBRANCH 104 105
ENDBRANCH  72  97
ENDBRANCH  46  47
ENDBRANCH  39  41
ENDBRANCH  38  39
ENDBRANCH  37  38
ENDBRANCH  36  37
ENDBRANCH  35  36
ENDBRANCH  34  35
ENDBRANCH   1  34
TORSDOF 25
ENDMDL
MODEL 2
REMARK VINA RESULT:     -11.1      3.938     11.196
REMARK SMILES Cc1ccc(S(=O)(=O)n2cc(C(=O)C(=O)NCC(=O)OCCOCCOCCOC(=O)c3ccc(-c4c5nc(c(-c6c(F)cc(S(=O)(=O)[O-])cc6F)c6ccc([nH]6)c(-c6c(F)cc(S(=O)(=O)[O-])cc6F)c6nc(c(-c7c(F)cc(S(=O)(=O)[O-])cc7F)c7ccc4[nH]7)C=C6)C=C5)cc3)c3ccccc32)cc1
REMARK SMILES IDX 24 1 23 2 22 3 21 4 20 5 18 6 19 7 17 8 16 9 14 10 15 11
REMARK SMILES IDX 12 13 13 14 11 15 9 16 10 17 103 18 98 19 102 20 99 21
REMARK SMILES IDX 101 22 100 23 6 24 7 25 8 26 5 27 1 28 2 29 3 30 105 31 4 32
REMARK SMILES IDX 104 33 25 34 26 35 27 36 28 37 29 38 30 39 31 40 32 41 33 42
REMARK SMILES IDX 97 43 34 44 96 45 35 46 36 47 37 48 90 49 38 50 95 51 89 52
REMARK SMILES IDX 91 53 39 54 94 55 88 56 87 57 40 59 74 60 53 61 73 62 54 63
REMARK SMILES IDX 57 64 72 65 92 66 55 67 56 68 71 70 93 71 58 72 41 73 42 74
REMARK SMILES IDX 51 75 43 76 44 77 50 78 52 79 45 80 46 81 47 82 48 83 49 84
REMARK SMILES IDX 75 85 76 86 85 87 77 88 78 89 84 90 86 91 79 92 80 93 81 94
REMARK SMILES IDX 82 95 83 96 59 97 60 98 69 99 61 100 62 101 68 102 70 103
REMARK SMILES IDX 63 104 64 105 65 106 66 107 67 108
REMARK H PARENT 16 12 91 58 57 69
REMARK Flexibility Score: inf
ROOT
ATOM      1  C   UNL A   1      39.276  24.160  27.273  1.00  0.00     0.188 C 
ENDROOT
BRANCH   1   2
ATOM      2  O   UNL A   1      39.164  25.354  28.081  1.00  0.00    -0.376 OA
BRANCH   2   3
ATOM      3  C   UNL A   1      39.416  26.694  27.643  1.00  0.00     0.202 C 
BRANCH   3   4
ATOM      4  C   UNL A   1      38.708  28.156  28.187  1.00  0.00     0.261 C 
BRANCH   4   5
ATOM      5  O   UNL A   1      37.274  29.017  27.626  1.00  0.00    -0.462 OA
BRANCH   5   6
ATOM      6  C   UNL A   1      35.994  29.573  27.960  1.00  0.00     0.325 C 
ATOM      7  O   UNL A   1      35.736  30.472  28.762  1.00  0.00    -0.250 OA
BRANCH   6   8
ATOM      8  C   UNL A   1      34.720  29.064  27.266  1.00  0.00     0.239 C 
BRANCH   8   9
ATOM      9  N   UNL A   1      33.844  30.075  26.768  1.00  0.00    -0.338 N 
ATOM     10  C   UNL A   1      32.483  29.929  26.690  1.00  0.00     0.292 C 
ATOM     11  O   UNL A   1      31.767  30.884  26.412  1.00  0.00    -0.265 OA
ATOM     12  H   UNL A   1      34.239  30.923  26.462  1.00  0.00     0.164 HD
BRANCH  10  13
ATOM     13  C   UNL A   1      31.868  28.523  26.908  1.00  0.00     0.252 C 
ATOM     14  O   UNL A   1      31.390  28.250  28.004  1.00  0.00    -0.283 OA
BRANCH  13  15
ATOM     15  C   UNL A   1      31.764  27.631  25.759  1.00  0.00     0.054 A 
ATOM     16  N   UNL A   1      31.423  25.716  24.692  1.00  0.00    -0.240 N 
ATOM     17  C   UNL A   1      31.053  26.448  25.786  1.00  0.00     0.117 A 
ATOM     18  C   UNL A   1      32.213  26.457  23.842  1.00  0.00     0.065 A 
ATOM     19  C   UNL A   1      32.408  27.696  24.477  1.00  0.00     0.012 A 
ATOM     20  C   UNL A   1      32.829  26.145  22.616  1.00  0.00     0.028 A 
ATOM     21  C   UNL A   1      33.197  28.668  23.822  1.00  0.00     0.011 A 
ATOM     22  C   UNL A   1      33.613  27.122  22.001  1.00  0.00     0.002 A 
ATOM     23  C   UNL A   1      33.782  28.372  22.584  1.00  0.00     0.001 A 
BRANCH  16  24
ATOM     24  S   UNL A   1      31.317  24.018  24.740  1.00  0.00     0.268 S 
ATOM     25  O   UNL A   1      30.783  23.613  23.427  1.00  0.00    -0.201 OA
ATOM     26  O   UNL A   1      30.653  23.683  25.954  1.00  0.00    -0.201 OA
BRANCH  24  27
ATOM     27  C   UNL A   1      32.984  23.404  24.838  1.00  0.00     0.088 A 
ATOM     28  C   UNL A   1      36.895  21.794  25.590  1.00  0.00     0.044 C 
ATOM     29  C   UNL A   1      35.556  22.393  25.280  1.00  0.00    -0.051 A 
ATOM     30  C   UNL A   1      35.076  23.465  26.043  1.00  0.00     0.005 A 
ATOM     31  C   UNL A   1      34.762  21.878  24.251  1.00  0.00     0.005 A 
ATOM     32  C   UNL A   1      33.794  23.969  25.825  1.00  0.00     0.022 A 
ATOM     33  C   UNL A   1      33.481  22.385  24.022  1.00  0.00     0.022 A 
ENDBRANCH  24  27
ENDBRANCH  16  24
ENDBRANCH  13  15
ENDBRANCH  10  13
ENDBRANCH   8   9
ENDBRANCH   6   8
ENDBRANCH   5   6
ENDBRANCH   4   5
ENDBRANCH   3   4
ENDBRANCH   2   3
ENDBRANCH   1   2
BRANCH   1  34
ATOM     34  C   UNL A   1      40.490  23.851  26.405  1.00  0.00     0.188 C 
BRANCH  34  35
ATOM     35  O   UNL A   1      41.135  22.689  26.879  1.00  0.00    -0.376 OA
BRANCH  35  36
ATOM     36  C   UNL A   1      42.216  22.204  26.117  1.00  0.00     0.202 C 
BRANCH  36  37
ATOM     37  C   UNL A   1      43.076  23.308  25.475  1.00  0.00     0.261 C 
BRANCH  37  38
ATOM     38  O   UNL A   1      44.291  23.618  26.215  1.00  0.00    -0.460 OA
BRANCH  38  39
ATOM     39  C   UNL A   1      44.217  23.958  27.560  1.00  0.00     0.338 C 
ATOM     40  O   UNL A   1      44.814  23.331  28.414  1.00  0.00    -0.246 OA
BRANCH  39  41
ATOM     41  C   UNL A   1      43.587  25.315  27.749  1.00  0.00     0.060 A 
ATOM     42  C   UNL A   1      43.709  26.529  27.053  1.00  0.00     0.016 A 
ATOM     43  C   UNL A   1      42.848  25.406  28.864  1.00  0.00     0.016 A 
ATOM     44  C   UNL A   1      43.251  27.836  27.606  1.00  0.00     0.010 A 
ATOM     45  C   UNL A   1      42.740  26.667  29.434  1.00  0.00     0.010 A 
ATOM     46  C   UNL A   1      42.745  27.983  28.908  1.00  0.00    -0.014 A 
BRANCH  46  47
ATOM     47  C   UNL A   1      42.368  29.401  29.749  1.00  0.00     0.031 A 
ATOM     48  C   UNL A   1      40.947  30.353  30.023  1.00  0.00     0.074 A 
ATOM     49  C   UNL A   1      43.427  29.933  30.409  1.00  0.00     0.049 A 
ATOM     50  N   UNL A   1      40.927  31.679  30.028  1.00  0.00    -0.248 NA
ATOM     51  C   UNL A   1      39.503  29.951  30.276  1.00  0.00     0.031 C 
ATOM     52  C   UNL A   1      43.435  30.994  31.416  1.00  0.00     0.029 A 
ATOM     53  N   UNL A   1      44.782  29.606  30.263  1.00  0.00    -0.354 N 
ATOM     54  C   UNL A   1      39.605  32.133  30.281  1.00  0.00     0.074 A 
ATOM     55  C   UNL A   1      38.752  31.028  30.250  1.00  0.00     0.031 C 
ATOM     56  C   UNL A   1      44.700  31.418  31.587  1.00  0.00     0.029 A 
ATOM     57  C   UNL A   1      45.526  30.739  30.606  1.00  0.00     0.049 A 
ATOM     58  H   UNL A   1      45.144  28.738  29.971  1.00  0.00     0.167 HD
ATOM     59  C   UNL A   1      39.194  33.355  30.716  1.00  0.00     0.037 A 
ATOM     60  C   UNL A   1      46.331  31.327  29.678  1.00  0.00     0.037 A 
ATOM     61  C   UNL A   1      40.348  34.131  31.034  1.00  0.00     0.049 A 
ATOM     62  C   UNL A   1      45.852  32.723  29.351  1.00  0.00     0.074 A 
ATOM     63  C   UNL A   1      41.120  34.172  32.180  1.00  0.00     0.029 A 
ATOM     64  N   UNL A   1      41.139  34.556  29.986  1.00  0.00    -0.354 N 
ATOM     65  N   UNL A   1      44.664  33.176  29.663  1.00  0.00    -0.248 NA
ATOM     66  C   UNL A   1      46.674  33.739  28.704  1.00  0.00     0.031 C 
ATOM     67  C   UNL A   1      42.445  34.484  31.778  1.00  0.00     0.029 A 
ATOM     68  C   UNL A   1      42.440  34.728  30.414  1.00  0.00     0.049 A 
ATOM     69  H   UNL A   1      40.822  34.713  29.066  1.00  0.00     0.167 HD
ATOM     70  C   UNL A   1      44.551  34.484  29.284  1.00  0.00     0.074 A 
ATOM     71  C   UNL A   1      45.840  34.794  28.695  1.00  0.00     0.031 C 
ATOM     72  C   UNL A   1      43.426  35.229  29.479  1.00  0.00     0.037 A 
BRANCH  59  73
ATOM     73  C   UNL A   1      37.750  33.540  31.190  1.00  0.00     0.058 A 
ATOM     74  C   UNL A   1      36.699  33.739  30.279  1.00  0.00     0.135 A 
ATOM     75  C   UNL A   1      37.400  33.719  32.555  1.00  0.00     0.135 A 
ATOM     76  F   UNL A   1      36.894  33.583  28.963  1.00  0.00    -0.206 F 
ATOM     77  C   UNL A   1      35.422  34.167  30.679  1.00  0.00     0.059 A 
ATOM     78  C   UNL A   1      36.148  34.204  32.973  1.00  0.00     0.059 A 
ATOM     79  F   UNL A   1      38.319  33.523  33.516  1.00  0.00    -0.206 F 
ATOM     80  C   UNL A   1      35.160  34.426  32.022  1.00  0.00     0.060 A 
BRANCH  80  81
ATOM     81  S   UNL A   1      33.546  35.106  32.489  1.00  0.00     0.124 S 
ATOM     82  O   UNL A   1      32.926  35.375  31.193  1.00  0.00    -0.237 OA
ATOM     83  O   UNL A   1      32.965  34.006  33.249  1.00  0.00    -0.237 OA
ATOM     84  O   UNL A   1      33.885  36.296  33.263  1.00  0.00    -0.744 OA
ENDBRANCH  80  81
ENDBRANCH  59  73
BRANCH  60  85
ATOM     85  C   UNL A   1      47.057  30.332  28.823  1.00  0.00     0.058 A 
ATOM     86  C   UNL A   1      48.048  29.551  29.467  1.00  0.00     0.135 A 
ATOM     87  C   UNL A   1      46.575  29.838  27.603  1.00  0.00     0.135 A 
ATOM     88  F   UNL A   1      48.578  29.972  30.627  1.00  0.00    -0.206 F 
ATOM     89  C   UNL A   1      48.405  28.279  29.028  1.00  0.00     0.059 A 
ATOM     90  C   UNL A   1      46.944  28.564  27.124  1.00  0.00     0.059 A 
ATOM     91  F   UNL A   1      45.621  30.505  26.936  1.00  0.00    -0.206 F 
ATOM     92  C   UNL A   1      47.801  27.767  27.888  1.00  0.00     0.060 A 
BRANCH  92  93
ATOM     93  S   UNL A   1      48.026  25.995  27.557  1.00  0.00     0.124 S 
ATOM     94  O   UNL A   1      47.144  25.777  26.416  1.00  0.00    -0.237 OA
ATOM     95  O   UNL A   1      49.459  25.937  27.267  1.00  0.00    -0.237 OA
ATOM     96  O   UNL A   1      47.607  25.369  28.806  1.00  0.00    -0.744 OA
ENDBRANCH  92  93
ENDBRANCH  60  85
BRANCH  72  97
ATOM     97  C   UNL A   1      43.148  36.561  28.838  1.00  0.00     0.058 A 
ATOM     98  C   UNL A   1      43.401  37.783  29.478  1.00  0.00     0.135 A 
ATOM     99  C   UNL A   1      42.792  36.636  27.468  1.00  0.00     0.135 A 
ATOM    100  F   UNL A   1      43.855  37.828  30.738  1.00  0.00    -0.206 F 
ATOM    101  C   UNL A   1      43.233  39.003  28.829  1.00  0.00     0.059 A 
ATOM    102  C   UNL A   1      42.694  37.838  26.783  1.00  0.00     0.059 A 
ATOM    103  F   UNL A   1      42.548  35.533  26.743  1.00  0.00    -0.206 F 
ATOM    104  C   UNL A   1      42.876  39.020  27.484  1.00  0.00     0.060 A 
BRANCH 104 105
ATOM    105  S   UNL A   1      42.658  40.586  26.628  1.00  0.00     0.124 S 
ATOM    106  O   UNL A   1      41.203  40.652  26.525  1.00  0.00    -0.237 OA
ATOM    107  O   UNL A   1      43.269  41.547  27.539  1.00  0.00    -0.237 OA
ATOM    108  O   UNL A   1      43.374  40.377  25.373  1.00  0.00    -0.744 OA
ENDBRANCH 104 105
ENDBRANCH  72  97
ENDBRANCH  46  47
ENDBRANCH  39  41
ENDBRANCH  38  39
ENDBRANCH  37  38
ENDBRANCH  36  37
ENDBRANCH  35  36
ENDBRANCH  34  35
ENDBRANCH   1  34
TORSDOF 25
ENDMDL
MODEL 3
REMARK VINA RESULT:     -10.6      3.089      6.325
REMARK SMILES Cc1ccc(S(=O)(=O)n2cc(C(=O)C(=O)NCC(=O)OCCOCCOCCOC(=O)c3ccc(-c4c5nc(c(-c6c(F)cc(S(=O)(=O)[O-])cc6F)c6ccc([nH]6)c(-c6c(F)cc(S(=O)(=O)[O-])cc6F)c6nc(c(-c7c(F)cc(S(=O)(=O)[O-])cc7F)c7ccc4[nH]7)C=C6)C=C5)cc3)c3ccccc32)cc1
REMARK SMILES IDX 24 1 23 2 22 3 21 4 20 5 18 6 19 7 17 8 16 9 14 10 15 11
REMARK SMILES IDX 12 13 13 14 11 15 9 16 10 17 103 18 98 19 102 20 99 21
REMARK SMILES IDX 101 22 100 23 6 24 7 25 8 26 5 27 1 28 2 29 3 30 105 31 4 32
REMARK SMILES IDX 104 33 25 34 26 35 27 36 28 37 29 38 30 39 31 40 32 41 33 42
REMARK SMILES IDX 97 43 34 44 96 45 35 46 36 47 37 48 90 49 38 50 95 51 89 52
REMARK SMILES IDX 91 53 39 54 94 55 88 56 87 57 40 59 74 60 53 61 73 62 54 63
REMARK SMILES IDX 57 64 72 65 92 66 55 67 56 68 71 70 93 71 58 72 41 73 42 74
REMARK SMILES IDX 51 75 43 76 44 77 50 78 52 79 45 80 46 81 47 82 48 83 49 84
REMARK SMILES IDX 75 85 76 86 85 87 77 88 78 89 84 90 86 91 79 92 80 93 81 94
REMARK SMILES IDX 82 95 83 96 59 97 60 98 69 99 61 100 62 101 68 102 70 103
REMARK SMILES IDX 63 104 64 105 65 106 66 107 67 108
REMARK H PARENT 16 12 91 58 57 69
REMARK Flexibility Score: inf
ROOT
ATOM      1  C   UNL A   1      36.013  33.844  29.883  1.00  0.00     0.188 C 
ENDROOT
BRANCH   1   2
ATOM      2  O   UNL A   1      36.155  32.752  28.945  1.00  0.00    -0.376 OA
BRANCH   2   3
ATOM      3  C   UNL A   1      35.223  32.399  27.917  1.00  0.00     0.202 C 
BRANCH   3   4
ATOM      4  C   UNL A   1      34.449  30.897  27.634  1.00  0.00     0.261 C 
BRANCH   4   5
ATOM      5  O   UNL A   1      32.894  30.528  26.887  1.00  0.00    -0.462 OA
BRANCH   5   6
ATOM      6  C   UNL A   1      32.011  29.519  26.377  1.00  0.00     0.325 C 
ATOM      7  O   UNL A   1      31.489  28.581  26.983  1.00  0.00    -0.250 OA
BRANCH   6   8
ATOM      8  C   UNL A   1      31.583  29.534  24.900  1.00  0.00     0.239 C 
BRANCH   8   9
ATOM      9  N   UNL A   1      32.648  29.517  23.950  1.00  0.00    -0.338 N 
ATOM     10  C   UNL A   1      32.831  28.515  23.032  1.00  0.00     0.292 C 
ATOM     11  O   UNL A   1      33.658  28.631  22.136  1.00  0.00    -0.265 OA
ATOM     12  H   UNL A   1      33.287  30.267  23.954  1.00  0.00     0.164 HD
BRANCH  10  13
ATOM     13  C   UNL A   1      32.011  27.208  23.180  1.00  0.00     0.252 C 
ATOM     14  O   UNL A   1      31.051  27.025  22.439  1.00  0.00    -0.283 OA
BRANCH  13  15
ATOM     15  C   UNL A   1      32.498  26.190  24.104  1.00  0.00     0.054 A 
ATOM     16  N   UNL A   1      33.826  24.569  24.831  1.00  0.00    -0.240 N 
ATOM     17  C   UNL A   1      33.793  25.713  24.083  1.00  0.00     0.117 A 
ATOM     18  C   UNL A   1      32.639  24.379  25.501  1.00  0.00     0.065 A 
ATOM     19  C   UNL A   1      31.791  25.422  25.091  1.00  0.00     0.012 A 
ATOM     20  C   UNL A   1      32.200  23.364  26.373  1.00  0.00     0.028 A 
ATOM     21  C   UNL A   1      30.485  25.475  25.626  1.00  0.00     0.011 A 
ATOM     22  C   UNL A   1      30.899  23.438  26.873  1.00  0.00     0.002 A 
ATOM     23  C   UNL A   1      30.058  24.486  26.522  1.00  0.00     0.001 A 
BRANCH  16  24
ATOM     24  S   UNL A   1      34.990  23.374  24.493  1.00  0.00     0.268 S 
ATOM     25  O   UNL A   1      35.828  23.276  25.702  1.00  0.00    -0.201 OA
ATOM     26  O   UNL A   1      35.547  23.693  23.222  1.00  0.00    -0.201 OA
BRANCH  24  27
ATOM     27  C   UNL A   1      34.113  21.834  24.338  1.00  0.00     0.088 A 
ATOM     28  C   UNL A   1      32.150  18.119  23.445  1.00  0.00     0.044 C 
ATOM     29  C   UNL A   1      32.792  19.424  23.806  1.00  0.00    -0.051 A 
ATOM     30  C   UNL A   1      32.446  20.590  23.111  1.00  0.00     0.005 A 
ATOM     31  C   UNL A   1      33.759  19.493  24.814  1.00  0.00     0.005 A 
ATOM     32  C   UNL A   1      33.104  21.791  23.374  1.00  0.00     0.022 A 
ATOM     33  C   UNL A   1      34.414  20.695  25.089  1.00  0.00     0.022 A 
ENDBRANCH  24  27
ENDBRANCH  16  24
ENDBRANCH  13  15
ENDBRANCH  10  13
ENDBRANCH   8   9
ENDBRANCH   6   8
ENDBRANCH   5   6
ENDBRANCH   4   5
ENDBRANCH   3   4
ENDBRANCH   2   3
ENDBRANCH   1   2
BRANCH   1  34
ATOM     34  C   UNL A   1      34.664  34.335  30.394  1.00  0.00     0.188 C 
BRANCH  34  35
ATOM     35  O   UNL A   1      34.788  34.770  31.731  1.00  0.00    -0.376 OA
BRANCH  35  36
ATOM     36  C   UNL A   1      34.023  34.087  32.697  1.00  0.00     0.202 C 
BRANCH  36  37
ATOM     37  C   UNL A   1      34.862  33.283  33.707  1.00  0.00     0.261 C 
BRANCH  37  38
ATOM     38  O   UNL A   1      36.059  32.681  33.137  1.00  0.00    -0.460 OA
BRANCH  38  39
ATOM     39  C   UNL A   1      37.072  32.228  33.973  1.00  0.00     0.338 C 
ATOM     40  O   UNL A   1      37.080  32.476  35.164  1.00  0.00    -0.246 OA
BRANCH  39  41
ATOM     41  C   UNL A   1      37.925  31.189  33.289  1.00  0.00     0.060 A 
ATOM     42  C   UNL A   1      38.168  29.831  33.551  1.00  0.00     0.016 A 
ATOM     43  C   UNL A   1      38.681  31.691  32.303  1.00  0.00     0.016 A 
ATOM     44  C   UNL A   1      39.302  29.074  32.948  1.00  0.00     0.010 A 
ATOM     45  C   UNL A   1      39.871  31.026  32.036  1.00  0.00     0.010 A 
ATOM     46  C   UNL A   1      40.282  29.674  32.141  1.00  0.00    -0.014 A 
BRANCH  46  47
ATOM     47  C   UNL A   1      41.720  29.014  31.545  1.00  0.00     0.031 A 
ATOM     48  C   UNL A   1      42.156  27.706  30.495  1.00  0.00     0.074 A 
ATOM     49  C   UNL A   1      42.829  29.678  31.957  1.00  0.00     0.049 A 
ATOM     50  N   UNL A   1      43.186  26.895  30.701  1.00  0.00    -0.248 NA
ATOM     51  C   UNL A   1      41.520  27.192  29.214  1.00  0.00     0.031 C 
ATOM     52  C   UNL A   1      44.202  29.554  31.468  1.00  0.00     0.029 A 
ATOM     53  N   UNL A   1      42.928  30.631  32.980  1.00  0.00    -0.354 N 
ATOM     54  C   UNL A   1      43.254  25.939  29.653  1.00  0.00     0.074 A 
ATOM     55  C   UNL A   1      42.104  26.068  28.871  1.00  0.00     0.031 C 
ATOM     56  C   UNL A   1      45.028  30.160  32.338  1.00  0.00     0.029 A 
ATOM     57  C   UNL A   1      44.233  30.577  33.479  1.00  0.00     0.049 A 
ATOM     58  H   UNL A   1      42.210  31.229  33.290  1.00  0.00     0.167 HD
ATOM     59  C   UNL A   1      44.309  25.170  29.271  1.00  0.00     0.037 A 
ATOM     60  C   UNL A   1      44.446  30.244  34.781  1.00  0.00     0.037 A 
ATOM     61  C   UNL A   1      45.453  25.570  30.023  1.00  0.00     0.049 A 
ATOM     62  C   UNL A   1      45.203  28.939  34.891  1.00  0.00     0.074 A 
ATOM     63  C   UNL A   1      46.350  26.602  29.820  1.00  0.00     0.029 A 
ATOM     64  N   UNL A   1      45.470  25.265  31.369  1.00  0.00    -0.354 N 
ATOM     65  N   UNL A   1      45.346  28.097  33.900  1.00  0.00    -0.248 NA
ATOM     66  C   UNL A   1      45.907  28.501  36.090  1.00  0.00     0.031 C 
ATOM     67  C   UNL A   1      46.799  27.021  31.099  1.00  0.00     0.029 A 
ATOM     68  C   UNL A   1      46.250  26.177  32.051  1.00  0.00     0.049 A 
ATOM     69  H   UNL A   1      44.994  24.508  31.783  1.00  0.00     0.167 HD
ATOM     70  C   UNL A   1      46.123  27.044  34.293  1.00  0.00     0.074 A 
ATOM     71  C   UNL A   1      46.458  27.347  35.672  1.00  0.00     0.031 C 
ATOM     72  C   UNL A   1      46.450  26.003  33.475  1.00  0.00     0.037 A 
BRANCH  59  73
ATOM     73  C   UNL A   1      44.249  24.414  27.941  1.00  0.00     0.058 A 
ATOM     74  C   UNL A   1      43.704  23.121  27.857  1.00  0.00     0.135 A 
ATOM     75  C   UNL A   1      44.900  24.866  26.763  1.00  0.00     0.135 A 
ATOM     76  F   UNL A   1      43.048  22.585  28.894  1.00  0.00    -0.206 F 
ATOM     77  C   UNL A   1      43.866  22.304  26.725  1.00  0.00     0.059 A 
ATOM     78  C   UNL A   1      45.125  24.047  25.643  1.00  0.00     0.059 A 
ATOM     79  F   UNL A   1      45.429  26.101  26.719  1.00  0.00    -0.206 F 
ATOM     80  C   UNL A   1      44.601  22.760  25.634  1.00  0.00     0.060 A 
BRANCH  80  81
ATOM     81  S   UNL A   1      44.906  21.634  24.247  1.00  0.00     0.124 S 
ATOM     82  O   UNL A   1      44.459  22.415  23.096  1.00  0.00    -0.237 OA
ATOM     83  O   UNL A   1      46.345  21.421  24.343  1.00  0.00    -0.237 OA
ATOM     84  O   UNL A   1      44.076  20.473  24.557  1.00  0.00    -0.744 OA
ENDBRANCH  80  81
ENDBRANCH  59  73
BRANCH  60  85
ATOM     85  C   UNL A   1      43.441  30.855  35.711  1.00  0.00     0.058 A 
ATOM     86  C   UNL A   1      43.722  32.165  36.170  1.00  0.00     0.135 A 
ATOM     87  C   UNL A   1      42.110  30.430  35.826  1.00  0.00     0.135 A 
ATOM     88  F   UNL A   1      44.980  32.635  36.117  1.00  0.00    -0.206 F 
ATOM     89  C   UNL A   1      42.723  33.061  36.546  1.00  0.00     0.059 A 
ATOM     90  C   UNL A   1      41.087  31.311  36.232  1.00  0.00     0.059 A 
ATOM     91  F   UNL A   1      41.753  29.210  35.398  1.00  0.00    -0.206 F 
ATOM     92  C   UNL A   1      41.400  32.643  36.516  1.00  0.00     0.060 A 
BRANCH  92  93
ATOM     93  S   UNL A   1      40.124  33.926  36.667  1.00  0.00     0.124 S 
ATOM     94  O   UNL A   1      39.046  33.216  37.347  1.00  0.00    -0.237 OA
ATOM     95  O   UNL A   1      40.822  34.932  37.470  1.00  0.00    -0.237 OA
ATOM     96  O   UNL A   1      39.859  34.296  35.282  1.00  0.00    -0.744 OA
ENDBRANCH  92  93
ENDBRANCH  60  85
BRANCH  72  97
ATOM     97  C   UNL A   1      47.052  24.701  33.929  1.00  0.00     0.058 A 
ATOM     98  C   UNL A   1      48.435  24.475  33.972  1.00  0.00     0.135 A 
ATOM     99  C   UNL A   1      46.238  23.704  34.521  1.00  0.00     0.135 A 
ATOM    100  F   UNL A   1      49.306  25.401  33.547  1.00  0.00    -0.206 F 
ATOM    101  C   UNL A   1      48.973  23.301  34.492  1.00  0.00     0.059 A 
ATOM    102  C   UNL A   1      46.759  22.563  35.112  1.00  0.00     0.059 A 
ATOM    103  F   UNL A   1      44.900  23.819  34.561  1.00  0.00    -0.206 F 
ATOM    104  C   UNL A   1      48.128  22.350  35.056  1.00  0.00     0.060 A 
BRANCH 104 105
ATOM    105  S   UNL A   1      48.804  20.830  35.735  1.00  0.00     0.124 S 
ATOM    106  O   UNL A   1      49.778  21.353  36.687  1.00  0.00    -0.237 OA
ATOM    107  O   UNL A   1      47.635  20.183  36.322  1.00  0.00    -0.237 OA
ATOM    108  O   UNL A   1      49.359  20.163  34.561  1.00  0.00    -0.744 OA
ENDBRANCH 104 105
ENDBRANCH  72  97
ENDBRANCH  46  47
ENDBRANCH  39  41
ENDBRANCH  38  39
ENDBRANCH  37  38
ENDBRANCH  36  37
ENDBRANCH  35  36
ENDBRANCH  34  35
ENDBRANCH   1  34
TORSDOF 25
ENDMDL
