MODEL 1
REMARK VINA RESULT:     -10.1      0.000      0.000
REMARK SMILES Cc1ccccc1OCC(=O)c1nc(C)c(C(=O)OCCOCCOCCOC(=O)c2ccc(-c3c4nc(c(-c5c(F)cc(S(=O)(=O)[O-])cc5F)c5ccc([nH]5)c(-c5c(F)cc(S(=O)(=O)[O-])cc5F)c5nc(c(-c6c(F)cc(S(=O)(=O)[O-])cc6F)c6ccc3[nH]6)C=C5)C=C4)cc2)s1
REMARK SMILES IDX 23 1 22 2 21 3 20 4 19 5 17 6 18 7 16 8 12 9 13 10 97 11
REMARK SMILES IDX 14 12 15 13 10 14 11 15 9 16 8 17 7 18 1 19 2 20 3 21 4 22
REMARK SMILES IDX 6 23 5 24 24 25 25 26 26 27 27 28 28 29 29 30 30 31 31 32
REMARK SMILES IDX 32 33 96 34 33 35 95 36 34 37 35 38 36 39 89 40 37 41 94 42
REMARK SMILES IDX 88 43 90 44 38 45 93 46 87 47 86 48 39 50 73 51 52 52 72 53
REMARK SMILES IDX 53 54 56 55 71 56 91 57 54 58 55 59 70 61 92 62 57 63 40 64
REMARK SMILES IDX 41 65 50 66 42 67 43 68 49 69 51 70 44 71 45 72 46 73 47 74
REMARK SMILES IDX 48 75 74 76 75 77 84 78 76 79 77 80 83 81 85 82 78 83 79 84
REMARK SMILES IDX 80 85 81 86 82 87 58 88 59 89 68 90 60 91 61 92 67 93 69 94
REMARK SMILES IDX 62 95 63 96 64 97 65 98 66 99
REMARK H PARENT 90 49 56 60
REMARK Flexibility Score: inf
ROOT
ATOM      1  C   UNL A   1      41.373  21.209  26.713  1.00  0.00     0.188 C 
ENDROOT
BRANCH   1   2
ATOM      2  O   UNL A   1      39.995  21.333  27.058  1.00  0.00    -0.376 OA
BRANCH   2   3
ATOM      3  C   UNL A   1      39.173  21.359  25.891  1.00  0.00     0.202 C 
BRANCH   3   4
ATOM      4  C   UNL A   1      38.157  22.505  25.858  1.00  0.00     0.261 C 
BRANCH   4   5
ATOM      5  O   UNL A   1      37.206  22.638  24.638  1.00  0.00    -0.459 OA
BRANCH   5   6
ATOM      6  C   UNL A   1      36.071  22.668  23.841  1.00  0.00     0.350 C 
ATOM      7  O   UNL A   1      36.277  23.101  22.704  1.00  0.00    -0.245 OA
BRANCH   6   8
ATOM      8  C   UNL A   1      34.639  22.276  24.200  1.00  0.00     0.136 A 
ATOM      9  C   UNL A   1      32.761  22.814  25.701  1.00  0.00     0.164 A 
ATOM     10  N   UNL A   1      32.363  22.003  24.757  1.00  0.00    -0.237 NA
ATOM     11  S   UNL A   1      34.403  22.520  25.980  1.00  0.00    -0.103 S 
ATOM     12  C   UNL A   1      33.267  22.271  23.745  1.00  0.00     0.064 A 
ATOM     13  C   UNL A   1      32.463  22.819  22.593  1.00  0.00     0.068 C 
BRANCH   9  14
ATOM     14  C   UNL A   1      32.080  24.057  26.039  1.00  0.00     0.228 C 
ATOM     15  O   UNL A   1      31.641  24.302  27.171  1.00  0.00    -0.288 OA
BRANCH  14  16
ATOM     16  C   UNL A   1      31.783  25.052  24.903  1.00  0.00     0.313 C 
BRANCH  16  17
ATOM     17  O   UNL A   1      32.240  26.395  24.893  1.00  0.00    -0.485 OA
BRANCH  17  18
ATOM     18  C   UNL A   1      31.343  27.289  24.385  1.00  0.00     0.122 A 
ATOM     19  C   UNL A   1      32.625  29.286  25.333  1.00  0.00     0.048 C 
ATOM     20  C   UNL A   1      31.478  28.670  24.585  1.00  0.00    -0.009 A 
ATOM     21  C   UNL A   1      30.512  29.521  24.028  1.00  0.00     0.007 A 
ATOM     22  C   UNL A   1      29.418  29.002  23.332  1.00  0.00     0.001 A 
ATOM     23  C   UNL A   1      30.237  26.767  23.710  1.00  0.00     0.047 A 
ATOM     24  C   UNL A   1      29.277  27.625  23.178  1.00  0.00     0.004 A 
ENDBRANCH  17  18
ENDBRANCH  16  17
ENDBRANCH  14  16
ENDBRANCH   9  14
ENDBRANCH   6   8
ENDBRANCH   5   6
ENDBRANCH   4   5
ENDBRANCH   3   4
ENDBRANCH   2   3
ENDBRANCH   1   2
BRANCH   1  25
ATOM     25  C   UNL A   1      42.080  22.563  26.593  1.00  0.00     0.188 C 
BRANCH  25  26
ATOM     26  O   UNL A   1      42.517  23.131  27.828  1.00  0.00    -0.376 OA
BRANCH  26  27
ATOM     27  C   UNL A   1      43.234  24.361  27.715  1.00  0.00     0.202 C 
BRANCH  27  28
ATOM     28  C   UNL A   1      43.215  24.771  26.242  1.00  0.00     0.261 C 
BRANCH  28  29
ATOM     29  O   UNL A   1      42.728  26.127  26.129  1.00  0.00    -0.460 OA
BRANCH  29  30
ATOM     30  C   UNL A   1      41.393  26.217  25.957  1.00  0.00     0.338 C 
ATOM     31  O   UNL A   1      40.760  25.694  25.027  1.00  0.00    -0.246 OA
BRANCH  30  32
ATOM     32  C   UNL A   1      40.832  27.181  26.933  1.00  0.00     0.060 A 
ATOM     33  C   UNL A   1      41.460  28.399  27.050  1.00  0.00     0.016 A 
ATOM     34  C   UNL A   1      39.849  26.852  27.878  1.00  0.00     0.016 A 
ATOM     35  C   UNL A   1      41.207  29.185  28.178  1.00  0.00     0.010 A 
ATOM     36  C   UNL A   1      39.651  27.645  29.035  1.00  0.00     0.010 A 
ATOM     37  C   UNL A   1      40.412  28.799  29.279  1.00  0.00    -0.014 A 
BRANCH  37  38
ATOM     38  C   UNL A   1      40.304  29.449  30.677  1.00  0.00     0.031 A 
ATOM     39  C   UNL A   1      39.815  30.862  30.758  1.00  0.00     0.074 A 
ATOM     40  C   UNL A   1      40.558  28.997  31.961  1.00  0.00     0.049 A 
ATOM     41  N   UNL A   1      39.885  31.603  31.826  1.00  0.00    -0.248 NA
ATOM     42  C   UNL A   1      39.365  31.606  29.578  1.00  0.00     0.031 C 
ATOM     43  C   UNL A   1      39.584  29.235  33.048  1.00  0.00     0.029 A 
ATOM     44  N   UNL A   1      41.422  28.096  32.603  1.00  0.00    -0.354 N 
ATOM     45  C   UNL A   1      39.074  32.669  31.566  1.00  0.00     0.074 A 
ATOM     46  C   UNL A   1      39.143  32.800  30.136  1.00  0.00     0.031 C 
ATOM     47  C   UNL A   1      39.998  28.659  34.183  1.00  0.00     0.029 A 
ATOM     48  C   UNL A   1      41.315  28.087  33.980  1.00  0.00     0.049 A 
ATOM     49  H   UNL A   1      42.051  27.520  32.113  1.00  0.00     0.167 HD
ATOM     50  C   UNL A   1      38.154  33.065  32.492  1.00  0.00     0.037 A 
ATOM     51  C   UNL A   1      42.297  27.866  34.907  1.00  0.00     0.037 A 
ATOM     52  C   UNL A   1      38.410  32.542  33.855  1.00  0.00     0.049 A 
ATOM     53  C   UNL A   1      42.312  29.033  35.872  1.00  0.00     0.074 A 
ATOM     54  C   UNL A   1      37.654  31.830  34.775  1.00  0.00     0.029 A 
ATOM     55  N   UNL A   1      39.683  32.622  34.427  1.00  0.00    -0.354 N 
ATOM     56  N   UNL A   1      41.300  29.846  35.984  1.00  0.00    -0.248 NA
ATOM     57  C   UNL A   1      43.462  29.495  36.650  1.00  0.00     0.031 C 
ATOM     58  C   UNL A   1      38.464  31.534  35.912  1.00  0.00     0.029 A 
ATOM     59  C   UNL A   1      39.719  32.075  35.705  1.00  0.00     0.049 A 
ATOM     60  H   UNL A   1      40.464  33.018  33.976  1.00  0.00     0.167 HD
ATOM     61  C   UNL A   1      41.712  31.005  36.559  1.00  0.00     0.074 A 
ATOM     62  C   UNL A   1      43.048  30.714  37.044  1.00  0.00     0.031 C 
ATOM     63  C   UNL A   1      40.949  32.133  36.501  1.00  0.00     0.037 A 
BRANCH  50  64
ATOM     64  C   UNL A   1      36.842  33.756  32.083  1.00  0.00     0.058 A 
ATOM     65  C   UNL A   1      36.291  34.782  32.880  1.00  0.00     0.135 A 
ATOM     66  C   UNL A   1      36.019  33.394  30.982  1.00  0.00     0.135 A 
ATOM     67  F   UNL A   1      36.929  35.226  33.973  1.00  0.00    -0.206 F 
ATOM     68  C   UNL A   1      35.050  35.382  32.611  1.00  0.00     0.059 A 
ATOM     69  C   UNL A   1      34.827  34.030  30.650  1.00  0.00     0.059 A 
ATOM     70  F   UNL A   1      36.253  32.341  30.196  1.00  0.00    -0.206 F 
ATOM     71  C   UNL A   1      34.329  35.005  31.485  1.00  0.00     0.060 A 
BRANCH  71  72
ATOM     72  S   UNL A   1      32.728  35.740  31.121  1.00  0.00     0.124 S 
ATOM     73  O   UNL A   1      32.370  35.069  29.877  1.00  0.00    -0.237 OA
ATOM     74  O   UNL A   1      31.941  35.380  32.294  1.00  0.00    -0.237 OA
ATOM     75  O   UNL A   1      33.031  37.165  30.993  1.00  0.00    -0.744 OA
ENDBRANCH  71  72
ENDBRANCH  50  64
BRANCH  51  76
ATOM     76  C   UNL A   1      43.450  26.986  34.538  1.00  0.00     0.058 A 
ATOM     77  C   UNL A   1      44.618  27.596  34.038  1.00  0.00     0.135 A 
ATOM     78  C   UNL A   1      43.551  25.619  34.808  1.00  0.00     0.135 A 
ATOM     79  F   UNL A   1      44.573  28.867  33.609  1.00  0.00    -0.206 F 
ATOM     80  C   UNL A   1      45.862  26.956  34.027  1.00  0.00     0.059 A 
ATOM     81  C   UNL A   1      44.784  24.945  34.778  1.00  0.00     0.059 A 
ATOM     82  F   UNL A   1      42.478  24.926  35.211  1.00  0.00    -0.206 F 
ATOM     83  C   UNL A   1      45.948  25.647  34.478  1.00  0.00     0.060 A 
BRANCH  83  84
ATOM     84  S   UNL A   1      47.574  24.939  34.879  1.00  0.00     0.124 S 
ATOM     85  O   UNL A   1      48.241  24.973  33.588  1.00  0.00    -0.237 OA
ATOM     86  O   UNL A   1      48.091  25.872  35.879  1.00  0.00    -0.237 OA
ATOM     87  O   UNL A   1      47.234  23.608  35.379  1.00  0.00    -0.744 OA
ENDBRANCH  83  84
ENDBRANCH  51  76
BRANCH  63  88
ATOM     88  C   UNL A   1      41.326  33.385  37.228  1.00  0.00     0.058 A 
ATOM     89  C   UNL A   1      40.964  33.605  38.569  1.00  0.00     0.135 A 
ATOM     90  C   UNL A   1      41.941  34.462  36.560  1.00  0.00     0.135 A 
ATOM     91  F   UNL A   1      40.304  32.666  39.268  1.00  0.00    -0.206 F 
ATOM     92  C   UNL A   1      41.245  34.798  39.227  1.00  0.00     0.059 A 
ATOM     93  C   UNL A   1      42.188  35.681  37.183  1.00  0.00     0.059 A 
ATOM     94  F   UNL A   1      42.339  34.354  35.284  1.00  0.00    -0.206 F 
ATOM     95  C   UNL A   1      41.860  35.831  38.525  1.00  0.00     0.060 A 
BRANCH  95  96
ATOM     96  S   UNL A   1      42.204  37.386  39.367  1.00  0.00     0.124 S 
ATOM     97  O   UNL A   1      43.190  38.013  38.493  1.00  0.00    -0.237 OA
ATOM     98  O   UNL A   1      40.884  38.008  39.377  1.00  0.00    -0.237 OA
ATOM     99  O   UNL A   1      42.711  36.960  40.668  1.00  0.00    -0.744 OA
ENDBRANCH  95  96
ENDBRANCH  63  88
ENDBRANCH  37  38
ENDBRANCH  30  32
ENDBRANCH  29  30
ENDBRANCH  28  29
ENDBRANCH  27  28
ENDBRANCH  26  27
ENDBRANCH  25  26
ENDBRANCH   1  25
TORSDOF 24
ENDMDL
MODEL 2
REMARK VINA RESULT:      -9.7      3.924      5.897
REMARK SMILES Cc1ccccc1OCC(=O)c1nc(C)c(C(=O)OCCOCCOCCOC(=O)c2ccc(-c3c4nc(c(-c5c(F)cc(S(=O)(=O)[O-])cc5F)c5ccc([nH]5)c(-c5c(F)cc(S(=O)(=O)[O-])cc5F)c5nc(c(-c6c(F)cc(S(=O)(=O)[O-])cc6F)c6ccc3[nH]6)C=C5)C=C4)cc2)s1
REMARK SMILES IDX 23 1 22 2 21 3 20 4 19 5 17 6 18 7 16 8 12 9 13 10 97 11
REMARK SMILES IDX 14 12 15 13 10 14 11 15 9 16 8 17 7 18 1 19 2 20 3 21 4 22
REMARK SMILES IDX 6 23 5 24 24 25 25 26 26 27 27 28 28 29 29 30 30 31 31 32
REMARK SMILES IDX 32 33 96 34 33 35 95 36 34 37 35 38 36 39 89 40 37 41 94 42
REMARK SMILES IDX 88 43 90 44 38 45 93 46 87 47 86 48 39 50 73 51 52 52 72 53
REMARK SMILES IDX 53 54 56 55 71 56 91 57 54 58 55 59 70 61 92 62 57 63 40 64
REMARK SMILES IDX 41 65 50 66 42 67 43 68 49 69 51 70 44 71 45 72 46 73 47 74
REMARK SMILES IDX 48 75 74 76 75 77 84 78 76 79 77 80 83 81 85 82 78 83 79 84
REMARK SMILES IDX 80 85 81 86 82 87 58 88 59 89 68 90 60 91 61 92 67 93 69 94
REMARK SMILES IDX 62 95 63 96 64 97 65 98 66 99
REMARK H PARENT 90 49 56 60
REMARK Flexibility Score: inf
ROOT
ATOM      1  C   UNL A   1      41.391  21.570  25.787  1.00  0.00     0.188 C 
ENDROOT
BRANCH   1   2
ATOM      2  O   UNL A   1      40.241  21.102  26.487  1.00  0.00    -0.376 OA
BRANCH   2   3
ATOM      3  C   UNL A   1      39.126  21.970  26.283  1.00  0.00     0.202 C 
BRANCH   3   4
ATOM      4  C   UNL A   1      37.936  21.314  25.576  1.00  0.00     0.261 C 
BRANCH   4   5
ATOM      5  O   UNL A   1      36.801  22.213  25.015  1.00  0.00    -0.459 OA
BRANCH   5   6
ATOM      6  C   UNL A   1      35.582  22.852  24.840  1.00  0.00     0.350 C 
ATOM      7  O   UNL A   1      35.642  23.838  24.101  1.00  0.00    -0.245 OA
BRANCH   6   8
ATOM      8  C   UNL A   1      34.226  22.512  25.457  1.00  0.00     0.136 A 
ATOM      9  C   UNL A   1      31.953  23.385  25.832  1.00  0.00     0.164 A 
ATOM     10  N   UNL A   1      32.000  22.111  26.125  1.00  0.00    -0.237 NA
ATOM     11  S   UNL A   1      33.490  24.036  26.104  1.00  0.00    -0.103 S 
ATOM     12  C   UNL A   1      33.055  21.674  25.345  1.00  0.00     0.064 A 
ATOM     13  C   UNL A   1      32.477  20.673  24.375  1.00  0.00     0.068 C 
BRANCH   9  14
ATOM     14  C   UNL A   1      30.954  23.975  24.951  1.00  0.00     0.228 C 
ATOM     15  O   UNL A   1      30.926  23.772  23.729  1.00  0.00    -0.288 OA
BRANCH  14  16
ATOM     16  C   UNL A   1      29.970  24.994  25.550  1.00  0.00     0.313 C 
BRANCH  16  17
ATOM     17  O   UNL A   1      30.367  26.092  26.356  1.00  0.00    -0.485 OA
BRANCH  17  18
ATOM     18  C   UNL A   1      30.786  27.183  25.651  1.00  0.00     0.122 A 
ATOM     19  C   UNL A   1      31.927  28.207  27.695  1.00  0.00     0.048 C 
ATOM     20  C   UNL A   1      31.514  28.219  26.251  1.00  0.00    -0.009 A 
ATOM     21  C   UNL A   1      31.907  29.305  25.455  1.00  0.00     0.007 A 
ATOM     22  C   UNL A   1      31.541  29.374  24.109  1.00  0.00     0.001 A 
ATOM     23  C   UNL A   1      30.398  27.262  24.311  1.00  0.00     0.047 A 
ATOM     24  C   UNL A   1      30.782  28.356  23.538  1.00  0.00     0.004 A 
ENDBRANCH  17  18
ENDBRANCH  16  17
ENDBRANCH  14  16
ENDBRANCH   9  14
ENDBRANCH   6   8
ENDBRANCH   5   6
ENDBRANCH   4   5
ENDBRANCH   3   4
ENDBRANCH   2   3
ENDBRANCH   1   2
BRANCH   1  25
ATOM     25  C   UNL A   1      41.919  22.902  26.332  1.00  0.00     0.188 C 
BRANCH  25  26
ATOM     26  O   UNL A   1      42.387  23.818  25.342  1.00  0.00    -0.376 OA
BRANCH  26  27
ATOM     27  C   UNL A   1      43.767  23.689  24.995  1.00  0.00     0.202 C 
BRANCH  27  28
ATOM     28  C   UNL A   1      44.412  25.067  25.151  1.00  0.00     0.261 C 
BRANCH  28  29
ATOM     29  O   UNL A   1      45.796  24.906  25.534  1.00  0.00    -0.460 OA
BRANCH  29  30
ATOM     30  C   UNL A   1      45.976  24.123  26.618  1.00  0.00     0.338 C 
ATOM     31  O   UNL A   1      46.345  22.939  26.584  1.00  0.00    -0.246 OA
BRANCH  30  32
ATOM     32  C   UNL A   1      45.491  24.830  27.827  1.00  0.00     0.060 A 
ATOM     33  C   UNL A   1      46.382  25.648  28.481  1.00  0.00     0.016 A 
ATOM     34  C   UNL A   1      44.266  24.553  28.453  1.00  0.00     0.016 A 
ATOM     35  C   UNL A   1      46.101  26.041  29.793  1.00  0.00     0.010 A 
ATOM     36  C   UNL A   1      44.032  24.925  29.800  1.00  0.00     0.010 A 
ATOM     37  C   UNL A   1      45.002  25.599  30.559  1.00  0.00    -0.014 A 
BRANCH  37  38
ATOM     38  C   UNL A   1      44.759  25.734  32.079  1.00  0.00     0.031 A 
ATOM     39  C   UNL A   1      44.279  27.053  32.599  1.00  0.00     0.074 A 
ATOM     40  C   UNL A   1      44.875  24.857  33.145  1.00  0.00     0.049 A 
ATOM     41  N   UNL A   1      44.246  27.379  33.859  1.00  0.00    -0.248 NA
ATOM     42  C   UNL A   1      43.959  28.177  31.714  1.00  0.00     0.031 C 
ATOM     43  C   UNL A   1      43.797  24.751  34.152  1.00  0.00     0.029 A 
ATOM     44  N   UNL A   1      45.660  23.753  33.512  1.00  0.00    -0.354 N 
ATOM     45  C   UNL A   1      43.478  28.504  33.910  1.00  0.00     0.074 A 
ATOM     46  C   UNL A   1      43.694  29.115  32.627  1.00  0.00     0.031 C 
ATOM     47  C   UNL A   1      44.087  23.802  35.051  1.00  0.00     0.029 A 
ATOM     48  C   UNL A   1      45.412  23.276  34.785  1.00  0.00     0.049 A 
ATOM     49  H   UNL A   1      46.330  23.352  32.914  1.00  0.00     0.167 HD
ATOM     50  C   UNL A   1      42.472  28.599  34.827  1.00  0.00     0.037 A 
ATOM     51  C   UNL A   1      46.292  22.706  35.664  1.00  0.00     0.037 A 
ATOM     52  C   UNL A   1      42.582  27.629  35.943  1.00  0.00     0.049 A 
ATOM     53  C   UNL A   1      46.220  23.469  36.971  1.00  0.00     0.074 A 
ATOM     54  C   UNL A   1      41.728  26.680  36.486  1.00  0.00     0.029 A 
ATOM     55  N   UNL A   1      43.790  27.450  36.621  1.00  0.00    -0.354 N 
ATOM     56  N   UNL A   1      45.211  24.239  37.264  1.00  0.00    -0.248 NA
ATOM     57  C   UNL A   1      47.289  23.583  37.964  1.00  0.00     0.031 C 
ATOM     58  C   UNL A   1      42.415  25.975  37.519  1.00  0.00     0.029 A 
ATOM     59  C   UNL A   1      43.690  26.497  37.629  1.00  0.00     0.049 A 
ATOM     60  H   UNL A   1      44.617  27.941  36.410  1.00  0.00     0.167 HD
ATOM     61  C   UNL A   1      45.573  25.110  38.240  1.00  0.00     0.074 A 
ATOM     62  C   UNL A   1      46.850  24.610  38.715  1.00  0.00     0.031 C 
ATOM     63  C   UNL A   1      44.832  26.222  38.506  1.00  0.00     0.037 A 
BRANCH  50  64
ATOM     64  C   UNL A   1      41.216  29.447  34.563  1.00  0.00     0.058 A 
ATOM     65  C   UNL A   1      40.263  29.042  33.604  1.00  0.00     0.135 A 
ATOM     66  C   UNL A   1      40.932  30.716  35.136  1.00  0.00     0.135 A 
ATOM     67  F   UNL A   1      40.394  27.879  32.949  1.00  0.00    -0.206 F 
ATOM     68  C   UNL A   1      39.150  29.820  33.250  1.00  0.00     0.059 A 
ATOM     69  C   UNL A   1      39.793  31.466  34.862  1.00  0.00     0.059 A 
ATOM     70  F   UNL A   1      41.777  31.373  35.936  1.00  0.00    -0.206 F 
ATOM     71  C   UNL A   1      38.918  31.029  33.893  1.00  0.00     0.060 A 
BRANCH  71  72
ATOM     72  S   UNL A   1      37.510  32.059  33.452  1.00  0.00     0.124 S 
ATOM     73  O   UNL A   1      38.166  33.216  32.853  1.00  0.00    -0.237 OA
ATOM     74  O   UNL A   1      36.765  31.200  32.540  1.00  0.00    -0.237 OA
ATOM     75  O   UNL A   1      36.858  32.311  34.736  1.00  0.00    -0.744 OA
ENDBRANCH  71  72
ENDBRANCH  50  64
BRANCH  51  76
ATOM     76  C   UNL A   1      47.467  21.955  35.122  1.00  0.00     0.058 A 
ATOM     77  C   UNL A   1      48.610  22.690  34.746  1.00  0.00     0.135 A 
ATOM     78  C   UNL A   1      47.614  20.566  35.115  1.00  0.00     0.135 A 
ATOM     79  F   UNL A   1      48.520  24.019  34.579  1.00  0.00    -0.206 F 
ATOM     80  C   UNL A   1      49.873  22.107  34.602  1.00  0.00     0.059 A 
ATOM     81  C   UNL A   1      48.867  19.953  34.945  1.00  0.00     0.059 A 
ATOM     82  F   UNL A   1      46.568  19.772  35.378  1.00  0.00    -0.206 F 
ATOM     83  C   UNL A   1      50.005  20.738  34.784  1.00  0.00     0.060 A 
BRANCH  83  84
ATOM     84  S   UNL A   1      51.657  20.019  35.028  1.00  0.00     0.124 S 
ATOM     85  O   UNL A   1      52.248  20.945  35.980  1.00  0.00    -0.237 OA
ATOM     86  O   UNL A   1      51.353  18.688  35.551  1.00  0.00    -0.237 OA
ATOM     87  O   UNL A   1      52.226  20.049  33.682  1.00  0.00    -0.744 OA
ENDBRANCH  83  84
ENDBRANCH  51  76
BRANCH  63  88
ATOM     88  C   UNL A   1      45.146  27.130  39.652  1.00  0.00     0.058 A 
ATOM     89  C   UNL A   1      44.762  26.825  40.970  1.00  0.00     0.135 A 
ATOM     90  C   UNL A   1      45.719  28.400  39.445  1.00  0.00     0.135 A 
ATOM     91  F   UNL A   1      44.137  25.671  41.256  1.00  0.00    -0.206 F 
ATOM     92  C   UNL A   1      44.983  27.701  42.029  1.00  0.00     0.059 A 
ATOM     93  C   UNL A   1      45.906  29.311  40.480  1.00  0.00     0.059 A 
ATOM     94  F   UNL A   1      46.134  28.786  38.230  1.00  0.00    -0.206 F 
ATOM     95  C   UNL A   1      45.558  28.942  41.774  1.00  0.00     0.060 A 
BRANCH  95  96
ATOM     96  S   UNL A   1      45.824  30.087  43.138  1.00  0.00     0.124 S 
ATOM     97  O   UNL A   1      47.277  30.223  43.165  1.00  0.00    -0.237 OA
ATOM     98  O   UNL A   1      45.090  31.262  42.678  1.00  0.00    -0.237 OA
ATOM     99  O   UNL A   1      45.246  29.389  44.282  1.00  0.00    -0.744 OA
ENDBRANCH  95  96
ENDBRANCH  63  88
ENDBRANCH  37  38
ENDBRANCH  30  32
ENDBRANCH  29  30
ENDBRANCH  28  29
ENDBRANCH  27  28
ENDBRANCH  26  27
ENDBRANCH  25  26
ENDBRANCH   1  25
TORSDOF 24
ENDMDL
MODEL 3
REMARK VINA RESULT:      -9.7      6.495     11.620
REMARK SMILES Cc1ccccc1OCC(=O)c1nc(C)c(C(=O)OCCOCCOCCOC(=O)c2ccc(-c3c4nc(c(-c5c(F)cc(S(=O)(=O)[O-])cc5F)c5ccc([nH]5)c(-c5c(F)cc(S(=O)(=O)[O-])cc5F)c5nc(c(-c6c(F)cc(S(=O)(=O)[O-])cc6F)c6ccc3[nH]6)C=C5)C=C4)cc2)s1
REMARK SMILES IDX 23 1 22 2 21 3 20 4 19 5 17 6 18 7 16 8 12 9 13 10 97 11
REMARK SMILES IDX 14 12 15 13 10 14 11 15 9 16 8 17 7 18 1 19 2 20 3 21 4 22
REMARK SMILES IDX 6 23 5 24 24 25 25 26 26 27 27 28 28 29 29 30 30 31 31 32
REMARK SMILES IDX 32 33 96 34 33 35 95 36 34 37 35 38 36 39 89 40 37 41 94 42
REMARK SMILES IDX 88 43 90 44 38 45 93 46 87 47 86 48 39 50 73 51 52 52 72 53
REMARK SMILES IDX 53 54 56 55 71 56 91 57 54 58 55 59 70 61 92 62 57 63 40 64
REMARK SMILES IDX 41 65 50 66 42 67 43 68 49 69 51 70 44 71 45 72 46 73 47 74
REMARK SMILES IDX 48 75 74 76 75 77 84 78 76 79 77 80 83 81 85 82 78 83 79 84
REMARK SMILES IDX 80 85 81 86 82 87 58 88 59 89 68 90 60 91 61 92 67 93 69 94
REMARK SMILES IDX 62 95 63 96 64 97 65 98 66 99
REMARK H PARENT 90 49 56 60
REMARK Flexibility Score: inf
ROOT
ATOM      1  C   UNL A   1      35.587  31.627  29.388  1.00  0.00     0.188 C 
ENDROOT
BRANCH   1   2
ATOM      2  O   UNL A   1      35.080  31.416  28.073  1.00  0.00    -0.376 OA
BRANCH   2   3
ATOM      3  C   UNL A   1      33.952  32.254  27.816  1.00  0.00     0.202 C 
BRANCH   3   4
ATOM      4  C   UNL A   1      32.732  31.518  27.255  1.00  0.00     0.261 C 
BRANCH   4   5
ATOM      5  O   UNL A   1      32.946  30.359  26.245  1.00  0.00    -0.459 OA
BRANCH   5   6
ATOM      6  C   UNL A   1      32.998  29.099  25.667  1.00  0.00     0.350 C 
ATOM      7  O   UNL A   1      33.624  28.273  26.336  1.00  0.00    -0.245 OA
BRANCH   6   8
ATOM      8  C   UNL A   1      32.420  28.635  24.331  1.00  0.00     0.136 A 
ATOM      9  C   UNL A   1      32.861  27.192  22.383  1.00  0.00     0.164 A 
ATOM     10  N   UNL A   1      31.622  27.607  22.363  1.00  0.00    -0.237 NA
ATOM     11  S   UNL A   1      33.789  28.364  23.174  1.00  0.00    -0.103 S 
ATOM     12  C   UNL A   1      31.379  27.855  23.702  1.00  0.00     0.064 A 
ATOM     13  C   UNL A   1      30.277  26.910  24.114  1.00  0.00     0.068 C 
BRANCH   9  14
ATOM     14  C   UNL A   1      33.247  25.793  22.246  1.00  0.00     0.228 C 
ATOM     15  O   UNL A   1      33.111  25.154  21.194  1.00  0.00    -0.288 OA
BRANCH  14  16
ATOM     16  C   UNL A   1      33.724  25.047  23.504  1.00  0.00     0.313 C 
BRANCH  16  17
ATOM     17  O   UNL A   1      33.150  25.221  24.789  1.00  0.00    -0.485 OA
BRANCH  17  18
ATOM     18  C   UNL A   1      33.398  24.198  25.658  1.00  0.00     0.122 A 
ATOM     19  C   UNL A   1      30.945  24.047  26.358  1.00  0.00     0.048 C 
ATOM     20  C   UNL A   1      32.384  23.623  26.435  1.00  0.00    -0.009 A 
ATOM     21  C   UNL A   1      32.723  22.576  27.304  1.00  0.00     0.007 A 
ATOM     22  C   UNL A   1      34.047  22.148  27.426  1.00  0.00     0.001 A 
ATOM     23  C   UNL A   1      34.726  23.789  25.796  1.00  0.00     0.047 A 
ATOM     24  C   UNL A   1      35.050  22.759  26.676  1.00  0.00     0.004 A 
ENDBRANCH  17  18
ENDBRANCH  16  17
ENDBRANCH  14  16
ENDBRANCH   9  14
ENDBRANCH   6   8
ENDBRANCH   5   6
ENDBRANCH   4   5
ENDBRANCH   3   4
ENDBRANCH   2   3
ENDBRANCH   1   2
BRANCH   1  25
ATOM     25  C   UNL A   1      34.841  32.732  30.144  1.00  0.00     0.188 C 
BRANCH  25  26
ATOM     26  O   UNL A   1      34.387  32.373  31.449  1.00  0.00    -0.376 OA
BRANCH  26  27
ATOM     27  C   UNL A   1      34.481  33.404  32.434  1.00  0.00     0.202 C 
BRANCH  27  28
ATOM     28  C   UNL A   1      35.340  32.869  33.580  1.00  0.00     0.261 C 
BRANCH  28  29
ATOM     29  O   UNL A   1      36.413  32.066  33.039  1.00  0.00    -0.460 OA
BRANCH  29  30
ATOM     30  C   UNL A   1      37.585  32.207  33.692  1.00  0.00     0.338 C 
ATOM     31  O   UNL A   1      37.797  31.840  34.858  1.00  0.00    -0.246 OA
BRANCH  30  32
ATOM     32  C   UNL A   1      38.511  33.027  32.875  1.00  0.00     0.060 A 
ATOM     33  C   UNL A   1      38.167  33.251  31.563  1.00  0.00     0.016 A 
ATOM     34  C   UNL A   1      39.798  33.400  33.294  1.00  0.00     0.016 A 
ATOM     35  C   UNL A   1      39.149  33.695  30.673  1.00  0.00     0.010 A 
ATOM     36  C   UNL A   1      40.784  33.800  32.359  1.00  0.00     0.010 A 
ATOM     37  C   UNL A   1      40.516  33.858  30.982  1.00  0.00    -0.014 A 
BRANCH  37  38
ATOM     38  C   UNL A   1      41.713  34.054  30.024  1.00  0.00     0.031 A 
ATOM     39  C   UNL A   1      42.624  32.888  29.791  1.00  0.00     0.074 A 
ATOM     40  C   UNL A   1      42.165  35.123  29.269  1.00  0.00     0.049 A 
ATOM     41  N   UNL A   1      43.780  32.966  29.198  1.00  0.00    -0.248 NA
ATOM     42  C   UNL A   1      42.370  31.566  30.369  1.00  0.00     0.031 C 
ATOM     43  C   UNL A   1      42.550  34.934  27.854  1.00  0.00     0.029 A 
ATOM     44  N   UNL A   1      42.173  36.525  29.338  1.00  0.00    -0.354 N 
ATOM     45  C   UNL A   1      44.122  31.674  28.926  1.00  0.00     0.074 A 
ATOM     46  C   UNL A   1      43.477  30.930  29.973  1.00  0.00     0.031 C 
ATOM     47  C   UNL A   1      42.892  36.105  27.301  1.00  0.00     0.029 A 
ATOM     48  C   UNL A   1      42.866  37.142  28.314  1.00  0.00     0.049 A 
ATOM     49  H   UNL A   1      41.723  37.027  30.054  1.00  0.00     0.167 HD
ATOM     50  C   UNL A   1      44.560  31.335  27.679  1.00  0.00     0.037 A 
ATOM     51  C   UNL A   1      43.581  38.307  28.354  1.00  0.00     0.037 A 
ATOM     52  C   UNL A   1      45.002  32.491  26.863  1.00  0.00     0.049 A 
ATOM     53  C   UNL A   1      44.980  38.026  27.845  1.00  0.00     0.074 A 
ATOM     54  C   UNL A   1      44.672  32.966  25.602  1.00  0.00     0.029 A 
ATOM     55  N   UNL A   1      45.864  33.455  27.392  1.00  0.00    -0.354 N 
ATOM     56  N   UNL A   1      45.256  36.964  27.143  1.00  0.00    -0.248 NA
ATOM     57  C   UNL A   1      46.191  38.771  28.191  1.00  0.00     0.031 C 
ATOM     58  C   UNL A   1      45.377  34.184  25.366  1.00  0.00     0.029 A 
ATOM     59  C   UNL A   1      46.158  34.457  26.474  1.00  0.00     0.049 A 
ATOM     60  H   UNL A   1      46.221  33.429  28.310  1.00  0.00     0.167 HD
ATOM     61  C   UNL A   1      46.591  36.727  27.185  1.00  0.00     0.074 A 
ATOM     62  C   UNL A   1      47.154  37.928  27.773  1.00  0.00     0.031 C 
ATOM     63  C   UNL A   1      47.108  35.520  26.815  1.00  0.00     0.037 A 
BRANCH  50  64
ATOM     64  C   UNL A   1      44.346  29.924  27.104  1.00  0.00     0.058 A 
ATOM     65  C   UNL A   1      43.049  29.461  26.798  1.00  0.00     0.135 A 
ATOM     66  C   UNL A   1      45.353  28.938  26.925  1.00  0.00     0.135 A 
ATOM     67  F   UNL A   1      41.980  30.259  26.937  1.00  0.00    -0.206 F 
ATOM     68  C   UNL A   1      42.782  28.153  26.365  1.00  0.00     0.059 A 
ATOM     69  C   UNL A   1      45.123  27.662  26.418  1.00  0.00     0.059 A 
ATOM     70  F   UNL A   1      46.622  29.095  27.311  1.00  0.00    -0.206 F 
ATOM     71  C   UNL A   1      43.830  27.262  26.168  1.00  0.00     0.060 A 
BRANCH  71  72
ATOM     72  S   UNL A   1      43.521  25.573  25.629  1.00  0.00     0.124 S 
ATOM     73  O   UNL A   1      44.632  25.349  24.710  1.00  0.00    -0.237 OA
ATOM     74  O   UNL A   1      43.565  24.830  26.882  1.00  0.00    -0.237 OA
ATOM     75  O   UNL A   1      42.203  25.652  25.002  1.00  0.00    -0.744 OA
ENDBRANCH  71  72
ENDBRANCH  50  64
BRANCH  51  76
ATOM     76  C   UNL A   1      43.173  39.369  29.326  1.00  0.00     0.058 A 
ATOM     77  C   UNL A   1      43.748  39.351  30.613  1.00  0.00     0.135 A 
ATOM     78  C   UNL A   1      42.402  40.495  29.027  1.00  0.00     0.135 A 
ATOM     79  F   UNL A   1      44.379  38.246  31.043  1.00  0.00    -0.206 F 
ATOM     80  C   UNL A   1      43.757  40.467  31.456  1.00  0.00     0.059 A 
ATOM     81  C   UNL A   1      42.371  41.620  29.869  1.00  0.00     0.059 A 
ATOM     82  F   UNL A   1      41.744  40.577  27.862  1.00  0.00    -0.206 F 
ATOM     83  C   UNL A   1      43.129  41.631  31.036  1.00  0.00     0.060 A 
BRANCH  83  84
ATOM     84  S   UNL A   1      43.479  43.198  31.887  1.00  0.00     0.124 S 
ATOM     85  O   UNL A   1      42.268  43.958  31.623  1.00  0.00    -0.237 OA
ATOM     86  O   UNL A   1      43.667  42.776  33.273  1.00  0.00    -0.237 OA
ATOM     87  O   UNL A   1      44.683  43.675  31.207  1.00  0.00    -0.744 OA
ENDBRANCH  83  84
ENDBRANCH  51  76
BRANCH  63  88
ATOM     88  C   UNL A   1      48.582  35.277  26.740  1.00  0.00     0.058 A 
ATOM     89  C   UNL A   1      49.326  34.867  27.861  1.00  0.00     0.135 A 
ATOM     90  C   UNL A   1      49.315  35.580  25.577  1.00  0.00     0.135 A 
ATOM     91  F   UNL A   1      48.725  34.629  29.038  1.00  0.00    -0.206 F 
ATOM     92  C   UNL A   1      50.708  34.713  27.817  1.00  0.00     0.059 A 
ATOM     93  C   UNL A   1      50.702  35.480  25.525  1.00  0.00     0.059 A 
ATOM     94  F   UNL A   1      48.703  35.966  24.449  1.00  0.00    -0.206 F 
ATOM     95  C   UNL A   1      51.388  35.021  26.642  1.00  0.00     0.060 A 
BRANCH  95  96
ATOM     96  S   UNL A   1      53.180  34.844  26.589  1.00  0.00     0.124 S 
ATOM     97  O   UNL A   1      53.479  34.216  27.872  1.00  0.00    -0.237 OA
ATOM     98  O   UNL A   1      53.352  33.994  25.415  1.00  0.00    -0.237 OA
ATOM     99  O   UNL A   1      53.650  36.219  26.448  1.00  0.00    -0.744 OA
ENDBRANCH  95  96
ENDBRANCH  63  88
ENDBRANCH  37  38
ENDBRANCH  30  32
ENDBRANCH  29  30
ENDBRANCH  28  29
ENDBRANCH  27  28
ENDBRANCH  26  27
ENDBRANCH  25  26
ENDBRANCH   1  25
TORSDOF 24
ENDMDL
