MODEL 1
REMARK VINA RESULT:     -10.3      0.000      0.000
REMARK SMILES C[C@@H]1C(=O)O[C@@H]([C@@H]2CCC[C@H](CCC(=O)OCCOCCOCCOC(=O)c3ccc(-c4c5nc(c(-c6c(F)cc(S(=O)(=O)[O-])cc6F)c6ccc([nH]6)c(-c6c(F)cc(S(=O)(=O)[O-])cc6F)c6nc(c(-c7c(F)cc(S(=O)(=O)[O-])cc7F)c7ccc4[nH]7)C=C6)C=C5)cc3)O2)[C@H]1O
REMARK SMILES IDX 20 1 19 2 18 3 17 4 16 5 14 6 15 7 13 8 12 9 11 10 7 11 8 12
REMARK SMILES IDX 94 13 9 14 10 15 6 16 1 17 2 18 3 19 95 20 4 21 5 22 96 23
REMARK SMILES IDX 21 25 22 26 23 27 24 28 25 29 26 30 27 31 28 32 29 33 93 34
REMARK SMILES IDX 30 35 92 36 31 37 32 38 33 39 86 40 34 41 91 42 85 43 87 44
REMARK SMILES IDX 35 45 90 46 84 47 83 48 36 50 70 51 49 52 69 53 50 54 53 55
REMARK SMILES IDX 68 56 88 57 51 58 52 59 67 61 89 62 54 63 37 64 38 65 47 66
REMARK SMILES IDX 39 67 40 68 46 69 48 70 41 71 42 72 43 73 44 74 45 75 71 76
REMARK SMILES IDX 72 77 81 78 73 79 74 80 80 81 82 82 75 83 76 84 77 85 78 86
REMARK SMILES IDX 79 87 55 88 56 89 65 90 57 91 58 92 64 93 66 94 59 95 60 96
REMARK SMILES IDX 61 97 62 98 63 99
REMARK H PARENT 96 24 87 49 53 60
REMARK Flexibility Score: inf
ROOT
ATOM      1  C   UNL A   1      35.357  33.780  28.829  1.00  0.00     0.188 C 
ENDROOT
BRANCH   1   2
ATOM      2  O   UNL A   1      34.878  32.960  27.766  1.00  0.00    -0.376 OA
BRANCH   2   3
ATOM      3  C   UNL A   1      33.464  32.794  27.670  1.00  0.00     0.202 C 
BRANCH   3   4
ATOM      4  C   UNL A   1      32.954  31.352  27.541  1.00  0.00     0.261 C 
BRANCH   4   5
ATOM      5  O   UNL A   1      33.688  30.568  26.583  1.00  0.00    -0.463 OA
BRANCH   5   6
ATOM      6  C   UNL A   1      33.920  29.279  26.939  1.00  0.00     0.305 C 
ATOM      7  O   UNL A   1      35.015  28.729  26.906  1.00  0.00    -0.252 OA
BRANCH   6   8
ATOM      8  C   UNL A   1      32.706  28.567  27.484  1.00  0.00     0.125 C 
BRANCH   8   9
ATOM      9  C   UNL A   1      31.631  28.072  26.525  1.00  0.00     0.044 C 
BRANCH   9  10
ATOM     10  C   UNL A   1      32.032  27.112  25.393  1.00  0.00     0.119 C 
ATOM     11  C   UNL A   1      31.030  27.803  23.245  1.00  0.00     0.162 C 
ATOM     12  C   UNL A   1      30.630  26.368  22.928  1.00  0.00     0.036 C 
ATOM     13  O   UNL A   1      32.115  27.849  24.173  1.00  0.00    -0.371 OA
ATOM     14  C   UNL A   1      30.332  25.548  24.168  1.00  0.00     0.005 C 
ATOM     15  C   UNL A   1      31.385  25.725  25.255  1.00  0.00     0.032 C 
BRANCH  11  16
ATOM     16  C   UNL A   1      29.859  28.806  23.428  1.00  0.00     0.234 C 
ATOM     17  C   UNL A   1      27.827  31.417  23.628  1.00  0.00     0.023 C 
ATOM     18  C   UNL A   1      28.195  30.335  22.628  1.00  0.00     0.128 C 
ATOM     19  C   UNL A   1      27.620  29.000  23.020  1.00  0.00     0.311 C 
ATOM     20  C   UNL A   1      29.689  30.065  22.581  1.00  0.00     0.172 C 
ATOM     21  O   UNL A   1      26.430  28.733  23.042  1.00  0.00    -0.252 OA
ATOM     22  O   UNL A   1      28.598  28.125  23.376  1.00  0.00    -0.457 OA
BRANCH  20  23
ATOM     23  O   UNL A   1      30.076  29.927  21.228  1.00  0.00    -0.388 OA
ATOM     24  H   UNL A   1      29.489  30.458  20.668  1.00  0.00     0.211 HD
ENDBRANCH  20  23
ENDBRANCH  11  16
ENDBRANCH   9  10
ENDBRANCH   8   9
ENDBRANCH   6   8
ENDBRANCH   5   6
ENDBRANCH   4   5
ENDBRANCH   3   4
ENDBRANCH   2   3
ENDBRANCH   1   2
BRANCH   1  25
ATOM     25  C   UNL A   1      34.353  34.129  29.929  1.00  0.00     0.188 C 
BRANCH  25  26
ATOM     26  O   UNL A   1      34.897  34.183  31.248  1.00  0.00    -0.376 OA
BRANCH  26  27
ATOM     27  C   UNL A   1      34.932  32.930  31.944  1.00  0.00     0.202 C 
BRANCH  27  28
ATOM     28  C   UNL A   1      36.331  32.304  32.113  1.00  0.00     0.261 C 
BRANCH  28  29
ATOM     29  O   UNL A   1      36.351  30.874  31.925  1.00  0.00    -0.460 OA
BRANCH  29  30
ATOM     30  C   UNL A   1      36.379  30.432  30.644  1.00  0.00     0.338 C 
ATOM     31  O   UNL A   1      35.443  30.431  29.864  1.00  0.00    -0.246 OA
BRANCH  30  32
ATOM     32  C   UNL A   1      37.795  30.179  30.268  1.00  0.00     0.060 A 
ATOM     33  C   UNL A   1      38.160  30.301  28.920  1.00  0.00     0.016 A 
ATOM     34  C   UNL A   1      38.770  29.887  31.228  1.00  0.00     0.016 A 
ATOM     35  C   UNL A   1      39.483  30.076  28.524  1.00  0.00     0.010 A 
ATOM     36  C   UNL A   1      40.092  29.657  30.831  1.00  0.00     0.010 A 
ATOM     37  C   UNL A   1      40.449  29.712  29.471  1.00  0.00    -0.014 A 
BRANCH  37  38
ATOM     38  C   UNL A   1      41.762  29.169  29.032  1.00  0.00     0.031 A 
ATOM     39  C   UNL A   1      42.942  30.107  29.016  1.00  0.00     0.074 A 
ATOM     40  C   UNL A   1      41.927  27.881  28.674  1.00  0.00     0.049 A 
ATOM     41  N   UNL A   1      44.170  29.893  28.617  1.00  0.00    -0.248 NA
ATOM     42  C   UNL A   1      42.701  31.472  29.515  1.00  0.00     0.031 C 
ATOM     43  C   UNL A   1      40.886  26.855  28.681  1.00  0.00     0.029 A 
ATOM     44  N   UNL A   1      43.046  27.220  28.225  1.00  0.00    -0.354 N 
ATOM     45  C   UNL A   1      44.848  31.089  28.830  1.00  0.00     0.074 A 
ATOM     46  C   UNL A   1      43.887  32.037  29.347  1.00  0.00     0.031 C 
ATOM     47  C   UNL A   1      41.414  25.695  28.247  1.00  0.00     0.029 A 
ATOM     48  C   UNL A   1      42.821  25.901  27.905  1.00  0.00     0.049 A 
ATOM     49  H   UNL A   1      43.926  27.651  28.140  1.00  0.00     0.167 HD
ATOM     50  C   UNL A   1      46.158  31.369  28.634  1.00  0.00     0.037 A 
ATOM     51  C   UNL A   1      43.651  24.976  27.381  1.00  0.00     0.037 A 
ATOM     52  C   UNL A   1      47.121  30.436  28.116  1.00  0.00     0.049 A 
ATOM     53  C   UNL A   1      45.088  25.344  27.079  1.00  0.00     0.074 A 
ATOM     54  C   UNL A   1      48.466  30.642  27.858  1.00  0.00     0.029 A 
ATOM     55  N   UNL A   1      46.846  29.120  27.780  1.00  0.00    -0.354 N 
ATOM     56  N   UNL A   1      45.715  26.477  27.288  1.00  0.00    -0.248 NA
ATOM     57  C   UNL A   1      45.930  24.302  26.468  1.00  0.00     0.031 C 
ATOM     58  C   UNL A   1      48.997  29.460  27.334  1.00  0.00     0.029 A 
ATOM     59  C   UNL A   1      47.995  28.505  27.309  1.00  0.00     0.049 A 
ATOM     60  H   UNL A   1      45.967  28.686  27.863  1.00  0.00     0.167 HD
ATOM     61  C   UNL A   1      47.029  26.269  26.875  1.00  0.00     0.074 A 
ATOM     62  C   UNL A   1      47.111  24.901  26.411  1.00  0.00     0.031 C 
ATOM     63  C   UNL A   1      48.075  27.132  26.879  1.00  0.00     0.037 A 
BRANCH  50  64
ATOM     64  C   UNL A   1      46.632  32.750  28.987  1.00  0.00     0.058 A 
ATOM     65  C   UNL A   1      47.140  33.042  30.262  1.00  0.00     0.135 A 
ATOM     66  C   UNL A   1      46.629  33.775  28.029  1.00  0.00     0.135 A 
ATOM     67  F   UNL A   1      47.142  32.102  31.221  1.00  0.00    -0.206 F 
ATOM     68  C   UNL A   1      47.623  34.306  30.579  1.00  0.00     0.059 A 
ATOM     69  C   UNL A   1      47.132  35.041  28.316  1.00  0.00     0.059 A 
ATOM     70  F   UNL A   1      46.148  33.548  26.797  1.00  0.00    -0.206 F 
ATOM     71  C   UNL A   1      47.620  35.298  29.597  1.00  0.00     0.060 A 
BRANCH  71  72
ATOM     72  S   UNL A   1      48.283  36.924  30.014  1.00  0.00     0.124 S 
ATOM     73  O   UNL A   1      47.882  37.710  28.851  1.00  0.00    -0.237 OA
ATOM     74  O   UNL A   1      47.587  37.235  31.259  1.00  0.00    -0.237 OA
ATOM     75  O   UNL A   1      49.717  36.684  30.144  1.00  0.00    -0.744 OA
ENDBRANCH  71  72
ENDBRANCH  50  64
BRANCH  51  76
ATOM     76  C   UNL A   1      43.165  23.601  27.070  1.00  0.00     0.058 A 
ATOM     77  C   UNL A   1      42.986  22.648  28.086  1.00  0.00     0.135 A 
ATOM     78  C   UNL A   1      42.951  23.189  25.746  1.00  0.00     0.135 A 
ATOM     79  F   UNL A   1      43.193  22.987  29.368  1.00  0.00    -0.206 F 
ATOM     80  C   UNL A   1      42.655  21.327  27.798  1.00  0.00     0.059 A 
ATOM     81  C   UNL A   1      42.590  21.882  25.435  1.00  0.00     0.059 A 
ATOM     82  F   UNL A   1      43.101  24.062  24.737  1.00  0.00    -0.206 F 
ATOM     83  C   UNL A   1      42.468  20.951  26.467  1.00  0.00     0.060 A 
BRANCH  83  84
ATOM     84  S   UNL A   1      42.052  19.232  26.099  1.00  0.00     0.124 S 
ATOM     85  O   UNL A   1      42.508  18.556  27.307  1.00  0.00    -0.237 OA
ATOM     86  O   UNL A   1      40.606  19.297  25.911  1.00  0.00    -0.237 OA
ATOM     87  O   UNL A   1      42.821  18.954  24.890  1.00  0.00    -0.744 OA
ENDBRANCH  83  84
ENDBRANCH  51  76
BRANCH  63  88
ATOM     88  C   UNL A   1      49.416  26.618  26.429  1.00  0.00     0.058 A 
ATOM     89  C   UNL A   1      49.922  26.887  25.148  1.00  0.00     0.135 A 
ATOM     90  C   UNL A   1      50.233  25.897  27.317  1.00  0.00     0.135 A 
ATOM     91  F   UNL A   1      49.182  27.570  24.259  1.00  0.00    -0.206 F 
ATOM     92  C   UNL A   1      51.180  26.440  24.754  1.00  0.00     0.059 A 
ATOM     93  C   UNL A   1      51.505  25.464  26.954  1.00  0.00     0.059 A 
ATOM     94  F   UNL A   1      49.804  25.624  28.559  1.00  0.00    -0.206 F 
ATOM     95  C   UNL A   1      51.966  25.729  25.665  1.00  0.00     0.060 A 
BRANCH  95  96
ATOM     96  S   UNL A   1      53.609  25.185  25.154  1.00  0.00     0.124 S 
ATOM     97  O   UNL A   1      53.561  23.761  25.469  1.00  0.00    -0.237 OA
ATOM     98  O   UNL A   1      53.623  25.519  23.733  1.00  0.00    -0.237 OA
ATOM     99  O   UNL A   1      54.507  25.982  25.986  1.00  0.00    -0.744 OA
ENDBRANCH  95  96
ENDBRANCH  63  88
ENDBRANCH  37  38
ENDBRANCH  30  32
ENDBRANCH  29  30
ENDBRANCH  28  29
ENDBRANCH  27  28
ENDBRANCH  26  27
ENDBRANCH  25  26
ENDBRANCH   1  25
TORSDOF 24
ENDMDL
MODEL 2
REMARK VINA RESULT:     -10.0      2.171      9.218
REMARK SMILES C[C@@H]1C(=O)O[C@@H]([C@@H]2CCC[C@H](CCC(=O)OCCOCCOCCOC(=O)c3ccc(-c4c5nc(c(-c6c(F)cc(S(=O)(=O)[O-])cc6F)c6ccc([nH]6)c(-c6c(F)cc(S(=O)(=O)[O-])cc6F)c6nc(c(-c7c(F)cc(S(=O)(=O)[O-])cc7F)c7ccc4[nH]7)C=C6)C=C5)cc3)O2)[C@H]1O
REMARK SMILES IDX 20 1 19 2 18 3 17 4 16 5 14 6 15 7 13 8 12 9 11 10 7 11 8 12
REMARK SMILES IDX 94 13 9 14 10 15 6 16 1 17 2 18 3 19 95 20 4 21 5 22 96 23
REMARK SMILES IDX 21 25 22 26 23 27 24 28 25 29 26 30 27 31 28 32 29 33 93 34
REMARK SMILES IDX 30 35 92 36 31 37 32 38 33 39 86 40 34 41 91 42 85 43 87 44
REMARK SMILES IDX 35 45 90 46 84 47 83 48 36 50 70 51 49 52 69 53 50 54 53 55
REMARK SMILES IDX 68 56 88 57 51 58 52 59 67 61 89 62 54 63 37 64 38 65 47 66
REMARK SMILES IDX 39 67 40 68 46 69 48 70 41 71 42 72 43 73 44 74 45 75 71 76
REMARK SMILES IDX 72 77 81 78 73 79 74 80 80 81 82 82 75 83 76 84 77 85 78 86
REMARK SMILES IDX 79 87 55 88 56 89 65 90 57 91 58 92 64 93 66 94 59 95 60 96
REMARK SMILES IDX 61 97 62 98 63 99
REMARK H PARENT 96 24 87 49 53 60
REMARK Flexibility Score: inf
ROOT
ATOM      1  C   UNL A   1      33.044  28.812  24.819  1.00  0.00     0.188 C 
ENDROOT
BRANCH   1   2
ATOM      2  O   UNL A   1      31.874  29.224  24.116  1.00  0.00    -0.376 OA
BRANCH   2   3
ATOM      3  C   UNL A   1      30.970  28.197  23.716  1.00  0.00     0.202 C 
BRANCH   3   4
ATOM      4  C   UNL A   1      31.276  27.501  22.381  1.00  0.00     0.261 C 
BRANCH   4   5
ATOM      5  O   UNL A   1      31.653  26.120  22.529  1.00  0.00    -0.463 OA
BRANCH   5   6
ATOM      6  C   UNL A   1      32.984  25.868  22.460  1.00  0.00     0.305 C 
ATOM      7  O   UNL A   1      33.756  26.391  21.664  1.00  0.00    -0.252 OA
BRANCH   6   8
ATOM      8  C   UNL A   1      33.487  24.931  23.532  1.00  0.00     0.125 C 
BRANCH   8   9
ATOM      9  C   UNL A   1      32.566  24.541  24.681  1.00  0.00     0.044 C 
BRANCH   9  10
ATOM     10  C   UNL A   1      31.718  23.265  24.552  1.00  0.00     0.119 C 
ATOM     11  C   UNL A   1      33.079  21.247  24.971  1.00  0.00     0.162 C 
ATOM     12  C   UNL A   1      32.467  20.541  23.769  1.00  0.00     0.036 C 
ATOM     13  O   UNL A   1      32.224  22.283  25.458  1.00  0.00    -0.371 OA
ATOM     14  C   UNL A   1      32.069  21.495  22.660  1.00  0.00     0.005 C 
ATOM     15  C   UNL A   1      31.312  22.712  23.178  1.00  0.00     0.032 C 
BRANCH  11  16
ATOM     16  C   UNL A   1      34.603  21.527  24.887  1.00  0.00     0.234 C 
ATOM     17  C   UNL A   1      37.696  22.710  25.037  1.00  0.00     0.023 C 
ATOM     18  C   UNL A   1      36.799  21.768  25.820  1.00  0.00     0.128 C 
ATOM     19  C   UNL A   1      36.610  20.459  25.101  1.00  0.00     0.311 C 
ATOM     20  C   UNL A   1      35.379  22.291  25.957  1.00  0.00     0.172 C 
ATOM     21  O   UNL A   1      37.491  19.638  24.905  1.00  0.00    -0.252 OA
ATOM     22  O   UNL A   1      35.330  20.311  24.669  1.00  0.00    -0.457 OA
BRANCH  20  23
ATOM     23  O   UNL A   1      34.945  22.061  27.283  1.00  0.00    -0.388 OA
ATOM     24  H   UNL A   1      35.144  21.145  27.534  1.00  0.00     0.211 HD
ENDBRANCH  20  23
ENDBRANCH  11  16
ENDBRANCH   9  10
ENDBRANCH   8   9
ENDBRANCH   6   8
ENDBRANCH   5   6
ENDBRANCH   4   5
ENDBRANCH   3   4
ENDBRANCH   2   3
ENDBRANCH   1   2
BRANCH   1  25
ATOM     25  C   UNL A   1      32.823  28.061  26.133  1.00  0.00     0.188 C 
BRANCH  25  26
ATOM     26  O   UNL A   1      33.620  28.513  27.228  1.00  0.00    -0.376 OA
BRANCH  26  27
ATOM     27  C   UNL A   1      34.561  29.547  26.910  1.00  0.00     0.202 C 
BRANCH  27  28
ATOM     28  C   UNL A   1      34.660  30.693  27.937  1.00  0.00     0.261 C 
BRANCH  28  29
ATOM     29  O   UNL A   1      35.998  31.205  28.105  1.00  0.00    -0.460 OA
BRANCH  29  30
ATOM     30  C   UNL A   1      36.597  30.955  29.294  1.00  0.00     0.338 C 
ATOM     31  O   UNL A   1      36.068  31.008  30.390  1.00  0.00    -0.246 OA
BRANCH  30  32
ATOM     32  C   UNL A   1      37.936  30.365  29.028  1.00  0.00     0.060 A 
ATOM     33  C   UNL A   1      38.862  30.309  30.079  1.00  0.00     0.016 A 
ATOM     34  C   UNL A   1      38.264  29.817  27.783  1.00  0.00     0.016 A 
ATOM     35  C   UNL A   1      40.131  29.757  29.872  1.00  0.00     0.010 A 
ATOM     36  C   UNL A   1      39.534  29.270  27.576  1.00  0.00     0.010 A 
ATOM     37  C   UNL A   1      40.490  29.272  28.608  1.00  0.00    -0.014 A 
BRANCH  37  38
ATOM     38  C   UNL A   1      41.915  28.981  28.293  1.00  0.00     0.031 A 
ATOM     39  C   UNL A   1      42.287  27.556  27.970  1.00  0.00     0.074 A 
ATOM     40  C   UNL A   1      42.859  29.940  28.271  1.00  0.00     0.049 A 
ATOM     41  N   UNL A   1      43.464  27.039  27.725  1.00  0.00    -0.248 NA
ATOM     42  C   UNL A   1      41.181  26.585  27.919  1.00  0.00     0.031 C 
ATOM     43  C   UNL A   1      42.635  31.363  28.523  1.00  0.00     0.029 A 
ATOM     44  N   UNL A   1      44.210  29.852  28.028  1.00  0.00    -0.354 N 
ATOM     45  C   UNL A   1      43.237  25.689  27.478  1.00  0.00     0.074 A 
ATOM     46  C   UNL A   1      41.821  25.457  27.649  1.00  0.00     0.031 C 
ATOM     47  C   UNL A   1      43.810  32.013  28.430  1.00  0.00     0.029 A 
ATOM     48  C   UNL A   1      44.874  31.051  28.140  1.00  0.00     0.049 A 
ATOM     49  H   UNL A   1      44.660  29.008  27.796  1.00  0.00     0.167 HD
ATOM     50  C   UNL A   1      44.123  24.731  27.120  1.00  0.00     0.037 A 
ATOM     51  C   UNL A   1      46.190  31.334  28.039  1.00  0.00     0.037 A 
ATOM     52  C   UNL A   1      45.535  24.948  26.952  1.00  0.00     0.049 A 
ATOM     53  C   UNL A   1      47.173  30.225  27.734  1.00  0.00     0.074 A 
ATOM     54  C   UNL A   1      46.513  24.028  26.617  1.00  0.00     0.029 A 
ATOM     55  N   UNL A   1      46.169  26.171  27.102  1.00  0.00    -0.354 N 
ATOM     56  N   UNL A   1      46.943  28.955  27.501  1.00  0.00    -0.248 NA
ATOM     57  C   UNL A   1      48.597  30.592  27.679  1.00  0.00     0.031 C 
ATOM     58  C   UNL A   1      47.745  24.687  26.597  1.00  0.00     0.029 A 
ATOM     59  C   UNL A   1      47.529  26.026  26.874  1.00  0.00     0.049 A 
ATOM     60  H   UNL A   1      45.722  27.016  27.335  1.00  0.00     0.167 HD
ATOM     61  C   UNL A   1      48.185  28.385  27.231  1.00  0.00     0.074 A 
ATOM     62  C   UNL A   1      49.163  29.447  27.322  1.00  0.00     0.031 C 
ATOM     63  C   UNL A   1      48.491  27.097  26.934  1.00  0.00     0.037 A 
BRANCH  50  64
ATOM     64  C   UNL A   1      43.589  23.347  26.880  1.00  0.00     0.058 A 
ATOM     65  C   UNL A   1      43.523  22.807  25.587  1.00  0.00     0.135 A 
ATOM     66  C   UNL A   1      43.192  22.536  27.954  1.00  0.00     0.135 A 
ATOM     67  F   UNL A   1      43.869  23.550  24.524  1.00  0.00    -0.206 F 
ATOM     68  C   UNL A   1      43.073  21.510  25.364  1.00  0.00     0.059 A 
ATOM     69  C   UNL A   1      42.763  21.226  27.757  1.00  0.00     0.059 A 
ATOM     70  F   UNL A   1      43.231  23.009  29.209  1.00  0.00    -0.206 F 
ATOM     71  C   UNL A   1      42.700  20.725  26.458  1.00  0.00     0.060 A 
BRANCH  71  72
ATOM     72  S   UNL A   1      42.153  19.033  26.154  1.00  0.00     0.124 S 
ATOM     73  O   UNL A   1      42.450  18.396  27.434  1.00  0.00    -0.237 OA
ATOM     74  O   UNL A   1      40.736  19.213  25.852  1.00  0.00    -0.237 OA
ATOM     75  O   UNL A   1      42.981  18.602  25.033  1.00  0.00    -0.744 OA
ENDBRANCH  71  72
ENDBRANCH  50  64
BRANCH  51  76
ATOM     76  C   UNL A   1      46.691  32.722  28.249  1.00  0.00     0.058 A 
ATOM     77  C   UNL A   1      46.772  33.633  27.183  1.00  0.00     0.135 A 
ATOM     78  C   UNL A   1      47.177  33.137  29.498  1.00  0.00     0.135 A 
ATOM     79  F   UNL A   1      46.335  33.280  25.965  1.00  0.00    -0.206 F 
ATOM     80  C   UNL A   1      47.355  34.888  27.338  1.00  0.00     0.059 A 
ATOM     81  C   UNL A   1      47.737  34.397  29.685  1.00  0.00     0.059 A 
ATOM     82  F   UNL A   1      47.118  32.308  30.553  1.00  0.00    -0.206 F 
ATOM     83  C   UNL A   1      47.843  35.257  28.592  1.00  0.00     0.060 A 
BRANCH  83  84
ATOM     84  S   UNL A   1      48.611  36.882  28.782  1.00  0.00     0.124 S 
ATOM     85  O   UNL A   1      49.411  36.972  27.567  1.00  0.00    -0.237 OA
ATOM     86  O   UNL A   1      47.451  37.766  28.850  1.00  0.00    -0.237 OA
ATOM     87  O   UNL A   1      49.363  36.751  30.026  1.00  0.00    -0.744 OA
ENDBRANCH  83  84
ENDBRANCH  51  76
BRANCH  63  88
ATOM     88  C   UNL A   1      49.925  26.765  26.623  1.00  0.00     0.058 A 
ATOM     89  C   UNL A   1      50.850  26.451  27.631  1.00  0.00     0.135 A 
ATOM     90  C   UNL A   1      50.365  26.702  25.290  1.00  0.00     0.135 A 
ATOM     91  F   UNL A   1      50.484  26.497  28.922  1.00  0.00    -0.206 F 
ATOM     92  C   UNL A   1      52.165  26.107  27.330  1.00  0.00     0.059 A 
ATOM     93  C   UNL A   1      51.667  26.335  24.965  1.00  0.00     0.059 A 
ATOM     94  F   UNL A   1      49.518  26.980  24.286  1.00  0.00    -0.206 F 
ATOM     95  C   UNL A   1      52.564  26.051  25.992  1.00  0.00     0.060 A 
BRANCH  95  96
ATOM     96  S   UNL A   1      54.263  25.571  25.614  1.00  0.00     0.124 S 
ATOM     97  O   UNL A   1      54.412  26.060  24.247  1.00  0.00    -0.237 OA
ATOM     98  O   UNL A   1      55.027  26.290  26.630  1.00  0.00    -0.237 OA
ATOM     99  O   UNL A   1      54.248  24.118  25.763  1.00  0.00    -0.744 OA
ENDBRANCH  95  96
ENDBRANCH  63  88
ENDBRANCH  37  38
ENDBRANCH  30  32
ENDBRANCH  29  30
ENDBRANCH  28  29
ENDBRANCH  27  28
ENDBRANCH  26  27
ENDBRANCH  25  26
ENDBRANCH   1  25
TORSDOF 24
ENDMDL
MODEL 3
REMARK VINA RESULT:      -9.9      2.649      8.984
REMARK SMILES C[C@@H]1C(=O)O[C@@H]([C@@H]2CCC[C@H](CCC(=O)OCCOCCOCCOC(=O)c3ccc(-c4c5nc(c(-c6c(F)cc(S(=O)(=O)[O-])cc6F)c6ccc([nH]6)c(-c6c(F)cc(S(=O)(=O)[O-])cc6F)c6nc(c(-c7c(F)cc(S(=O)(=O)[O-])cc7F)c7ccc4[nH]7)C=C6)C=C5)cc3)O2)[C@H]1O
REMARK SMILES IDX 20 1 19 2 18 3 17 4 16 5 14 6 15 7 13 8 12 9 11 10 7 11 8 12
REMARK SMILES IDX 94 13 9 14 10 15 6 16 1 17 2 18 3 19 95 20 4 21 5 22 96 23
REMARK SMILES IDX 21 25 22 26 23 27 24 28 25 29 26 30 27 31 28 32 29 33 93 34
REMARK SMILES IDX 30 35 92 36 31 37 32 38 33 39 86 40 34 41 91 42 85 43 87 44
REMARK SMILES IDX 35 45 90 46 84 47 83 48 36 50 70 51 49 52 69 53 50 54 53 55
REMARK SMILES IDX 68 56 88 57 51 58 52 59 67 61 89 62 54 63 37 64 38 65 47 66
REMARK SMILES IDX 39 67 40 68 46 69 48 70 41 71 42 72 43 73 44 74 45 75 71 76
REMARK SMILES IDX 72 77 81 78 73 79 74 80 80 81 82 82 75 83 76 84 77 85 78 86
REMARK SMILES IDX 79 87 55 88 56 89 65 90 57 91 58 92 64 93 66 94 59 95 60 96
REMARK SMILES IDX 61 97 62 98 63 99
REMARK H PARENT 96 24 87 49 53 60
REMARK Flexibility Score: inf
ROOT
ATOM      1  C   UNL A   1      35.807  22.333  25.278  1.00  0.00     0.188 C 
ENDROOT
BRANCH   1   2
ATOM      2  O   UNL A   1      34.566  22.961  25.592  1.00  0.00    -0.376 OA
BRANCH   2   3
ATOM      3  C   UNL A   1      34.180  22.971  26.964  1.00  0.00     0.202 C 
BRANCH   3   4
ATOM      4  C   UNL A   1      32.924  22.166  27.326  1.00  0.00     0.261 C 
BRANCH   4   5
ATOM      5  O   UNL A   1      31.795  22.989  27.671  1.00  0.00    -0.463 OA
BRANCH   5   6
ATOM      6  C   UNL A   1      30.833  23.089  26.720  1.00  0.00     0.305 C 
ATOM      7  O   UNL A   1      30.292  22.137  26.167  1.00  0.00    -0.252 OA
BRANCH   6   8
ATOM      8  C   UNL A   1      30.393  24.506  26.440  1.00  0.00     0.125 C 
BRANCH   8   9
ATOM      9  C   UNL A   1      31.405  25.640  26.536  1.00  0.00     0.044 C 
BRANCH   9  10
ATOM     10  C   UNL A   1      30.987  27.048  26.079  1.00  0.00     0.119 C 
ATOM     11  C   UNL A   1      31.245  27.303  23.636  1.00  0.00     0.162 C 
ATOM     12  C   UNL A   1      31.891  28.671  23.811  1.00  0.00     0.036 C 
ATOM     13  O   UNL A   1      30.437  26.960  24.764  1.00  0.00    -0.371 OA
ATOM     14  C   UNL A   1      32.668  28.798  25.107  1.00  0.00     0.005 C 
ATOM     15  C   UNL A   1      31.897  28.265  26.307  1.00  0.00     0.032 C 
BRANCH  11  16
ATOM     16  C   UNL A   1      32.148  26.204  23.014  1.00  0.00     0.234 C 
ATOM     17  C   UNL A   1      33.858  23.478  22.219  1.00  0.00     0.023 C 
ATOM     18  C   UNL A   1      32.533  24.132  21.870  1.00  0.00     0.128 C 
ATOM     19  C   UNL A   1      32.725  25.333  20.983  1.00  0.00     0.311 C 
ATOM     20  C   UNL A   1      31.829  24.713  23.086  1.00  0.00     0.172 C 
ATOM     21  O   UNL A   1      33.136  25.293  19.835  1.00  0.00    -0.252 OA
ATOM     22  O   UNL A   1      32.406  26.484  21.632  1.00  0.00    -0.457 OA
BRANCH  20  23
ATOM     23  O   UNL A   1      30.454  24.395  22.999  1.00  0.00    -0.388 OA
ATOM     24  H   UNL A   1      30.201  24.302  22.067  1.00  0.00     0.211 HD
ENDBRANCH  20  23
ENDBRANCH  11  16
ENDBRANCH   9  10
ENDBRANCH   8   9
ENDBRANCH   6   8
ENDBRANCH   5   6
ENDBRANCH   4   5
ENDBRANCH   3   4
ENDBRANCH   2   3
ENDBRANCH   1   2
BRANCH   1  25
ATOM     25  C   UNL A   1      37.067  22.985  25.851  1.00  0.00     0.188 C 
BRANCH  25  26
ATOM     26  O   UNL A   1      38.263  22.220  25.703  1.00  0.00    -0.376 OA
BRANCH  26  27
ATOM     27  C   UNL A   1      38.095  20.943  25.074  1.00  0.00     0.202 C 
BRANCH  27  28
ATOM     28  C   UNL A   1      39.010  19.819  25.599  1.00  0.00     0.261 C 
BRANCH  28  29
ATOM     29  O   UNL A   1      40.019  20.278  26.522  1.00  0.00    -0.460 OA
BRANCH  29  30
ATOM     30  C   UNL A   1      41.301  19.946  26.232  1.00  0.00     0.338 C 
ATOM     31  O   UNL A   1      41.675  18.906  25.718  1.00  0.00    -0.246 OA
BRANCH  30  32
ATOM     32  C   UNL A   1      42.149  21.154  26.413  1.00  0.00     0.060 A 
ATOM     33  C   UNL A   1      42.491  21.540  27.717  1.00  0.00     0.016 A 
ATOM     34  C   UNL A   1      42.657  21.866  25.321  1.00  0.00     0.016 A 
ATOM     35  C   UNL A   1      43.292  22.667  27.931  1.00  0.00     0.010 A 
ATOM     36  C   UNL A   1      43.453  22.996  25.536  1.00  0.00     0.010 A 
ATOM     37  C   UNL A   1      43.744  23.427  26.844  1.00  0.00    -0.014 A 
BRANCH  37  38
ATOM     38  C   UNL A   1      44.317  24.782  27.062  1.00  0.00     0.031 A 
ATOM     39  C   UNL A   1      43.376  25.887  27.471  1.00  0.00     0.074 A 
ATOM     40  C   UNL A   1      45.632  25.039  26.927  1.00  0.00     0.049 A 
ATOM     41  N   UNL A   1      43.619  27.158  27.660  1.00  0.00    -0.248 NA
ATOM     42  C   UNL A   1      41.971  25.503  27.694  1.00  0.00     0.031 C 
ATOM     43  C   UNL A   1      46.660  24.060  26.577  1.00  0.00     0.029 A 
ATOM     44  N   UNL A   1      46.325  26.219  27.064  1.00  0.00    -0.354 N 
ATOM     45  C   UNL A   1      42.404  27.721  28.037  1.00  0.00     0.074 A 
ATOM     46  C   UNL A   1      41.417  26.665  28.003  1.00  0.00     0.031 C 
ATOM     47  C   UNL A   1      47.852  24.683  26.518  1.00  0.00     0.029 A 
ATOM     48  C   UNL A   1      47.670  26.107  26.798  1.00  0.00     0.049 A 
ATOM     49  H   UNL A   1      45.898  27.065  27.328  1.00  0.00     0.167 HD
ATOM     50  C   UNL A   1      42.134  28.997  28.400  1.00  0.00     0.037 A 
ATOM     51  C   UNL A   1      48.636  27.049  26.767  1.00  0.00     0.037 A 
ATOM     52  C   UNL A   1      43.106  30.057  28.432  1.00  0.00     0.049 A 
ATOM     53  C   UNL A   1      48.288  28.488  27.081  1.00  0.00     0.074 A 
ATOM     54  C   UNL A   1      42.916  31.388  28.760  1.00  0.00     0.029 A 
ATOM     55  N   UNL A   1      44.450  29.907  28.129  1.00  0.00    -0.354 N 
ATOM     56  N   UNL A   1      47.136  29.004  27.437  1.00  0.00    -0.248 NA
ATOM     57  C   UNL A   1      49.378  29.474  26.988  1.00  0.00     0.031 C 
ATOM     58  C   UNL A   1      44.139  32.051  28.624  1.00  0.00     0.029 A 
ATOM     59  C   UNL A   1      45.099  31.124  28.255  1.00  0.00     0.049 A 
ATOM     60  H   UNL A   1      44.880  29.062  27.864  1.00  0.00     0.167 HD
ATOM     61  C   UNL A   1      47.373  30.360  27.650  1.00  0.00     0.074 A 
ATOM     62  C   UNL A   1      48.778  30.586  27.391  1.00  0.00     0.031 C 
ATOM     63  C   UNL A   1      46.506  31.332  28.027  1.00  0.00     0.037 A 
BRANCH  50  64
ATOM     64  C   UNL A   1      40.723  29.322  28.797  1.00  0.00     0.058 A 
ATOM     65  C   UNL A   1      39.706  29.441  27.837  1.00  0.00     0.135 A 
ATOM     66  C   UNL A   1      40.373  29.462  30.149  1.00  0.00     0.135 A 
ATOM     67  F   UNL A   1      39.993  29.339  26.530  1.00  0.00    -0.206 F 
ATOM     68  C   UNL A   1      38.389  29.696  28.203  1.00  0.00     0.059 A 
ATOM     69  C   UNL A   1      39.056  29.692  30.539  1.00  0.00     0.059 A 
ATOM     70  F   UNL A   1      41.310  29.364  31.104  1.00  0.00    -0.206 F 
ATOM     71  C   UNL A   1      38.073  29.814  29.559  1.00  0.00     0.060 A 
BRANCH  71  72
ATOM     72  S   UNL A   1      36.353  30.110  30.019  1.00  0.00     0.124 S 
ATOM     73  O   UNL A   1      36.311  31.568  30.070  1.00  0.00    -0.237 OA
ATOM     74  O   UNL A   1      35.625  29.494  28.914  1.00  0.00    -0.237 OA
ATOM     75  O   UNL A   1      36.224  29.433  31.305  1.00  0.00    -0.744 OA
ENDBRANCH  71  72
ENDBRANCH  50  64
BRANCH  51  76
ATOM     76  C   UNL A   1      50.037  26.695  26.402  1.00  0.00     0.058 A 
ATOM     77  C   UNL A   1      50.494  26.813  25.080  1.00  0.00     0.135 A 
ATOM     78  C   UNL A   1      50.919  26.154  27.350  1.00  0.00     0.135 A 
ATOM     79  F   UNL A   1      49.685  27.310  24.132  1.00  0.00    -0.206 F 
ATOM     80  C   UNL A   1      51.758  26.368  24.701  1.00  0.00     0.059 A 
ATOM     81  C   UNL A   1      52.198  25.730  27.002  1.00  0.00     0.059 A 
ATOM     82  F   UNL A   1      50.536  26.026  28.630  1.00  0.00    -0.206 F 
ATOM     83  C   UNL A   1      52.600  25.819  25.670  1.00  0.00     0.060 A 
BRANCH  83  84
ATOM     84  S   UNL A   1      54.233  25.230  25.169  1.00  0.00     0.124 S 
ATOM     85  O   UNL A   1      55.052  25.643  26.303  1.00  0.00    -0.237 OA
ATOM     86  O   UNL A   1      54.014  23.794  25.029  1.00  0.00    -0.237 OA
ATOM     87  O   UNL A   1      54.477  25.945  23.920  1.00  0.00    -0.744 OA
ENDBRANCH  83  84
ENDBRANCH  51  76
BRANCH  63  88
ATOM     88  C   UNL A   1      47.051  32.718  28.246  1.00  0.00     0.058 A 
ATOM     89  C   UNL A   1      47.038  33.689  27.232  1.00  0.00     0.135 A 
ATOM     90  C   UNL A   1      47.538  33.097  29.508  1.00  0.00     0.135 A 
ATOM     91  F   UNL A   1      46.586  33.381  26.006  1.00  0.00    -0.206 F 
ATOM     92  C   UNL A   1      47.510  34.980  27.456  1.00  0.00     0.059 A 
ATOM     93  C   UNL A   1      47.989  34.390  29.762  1.00  0.00     0.059 A 
ATOM     94  F   UNL A   1      47.561  32.212  30.517  1.00  0.00    -0.206 F 
ATOM     95  C   UNL A   1      47.982  35.321  28.726  1.00  0.00     0.060 A 
BRANCH  95  96
ATOM     96  S   UNL A   1      48.558  37.008  29.012  1.00  0.00     0.124 S 
ATOM     97  O   UNL A   1      47.299  37.734  29.135  1.00  0.00    -0.237 OA
ATOM     98  O   UNL A   1      49.333  36.871  30.242  1.00  0.00    -0.237 OA
ATOM     99  O   UNL A   1      49.342  37.308  27.817  1.00  0.00    -0.744 OA
ENDBRANCH  95  96
ENDBRANCH  63  88
ENDBRANCH  37  38
ENDBRANCH  30  32
ENDBRANCH  29  30
ENDBRANCH  28  29
ENDBRANCH  27  28
ENDBRANCH  26  27
ENDBRANCH  25  26
ENDBRANCH   1  25
TORSDOF 24
ENDMDL
