MODEL 1
REMARK VINA RESULT:      -9.7      0.000      0.000
REMARK SMILES Cc1cc(C(=O)N[C@H](C(=O)OCCOCCOCCOC(=O)c2ccc(-c3c4nc(c(-c5c(F)cc(S(=O)(=O)[O-])cc5F)c5ccc([nH]5)c(-c5c(F)cc(S(=O)(=O)[O-])cc5F)c5nc(c(-c6c(F)cc(S(=O)(=O)[O-])cc6F)c6ccc3[nH]6)C=C5)C=C4)cc2)C(C)C)c(C)s1
REMARK SMILES IDX 16 1 15 2 14 3 13 4 12 5 11 6 9 7 10 8 8 9 7 10 5 11 6 12
REMARK SMILES IDX 4 14 1 15 2 16 3 17 94 18 92 19 93 20 89 21 90 22 91 23
REMARK SMILES IDX 17 24 18 25 19 26 20 27 21 28 22 29 23 30 24 31 88 32 25 33
REMARK SMILES IDX 87 34 26 35 27 36 28 37 81 38 29 39 86 40 80 41 82 42 30 43
REMARK SMILES IDX 85 44 79 45 78 46 31 48 65 49 44 50 64 51 45 52 48 53 63 54
REMARK SMILES IDX 83 55 46 56 47 57 62 59 84 60 49 61 32 62 33 63 42 64 34 65
REMARK SMILES IDX 35 66 41 67 43 68 36 69 37 70 38 71 39 72 40 73 66 74 67 75
REMARK SMILES IDX 76 76 68 77 69 78 75 79 77 80 70 81 71 82 72 83 73 84 74 85
REMARK SMILES IDX 50 86 51 87 60 88 52 89 53 90 59 91 61 92 54 93 55 94 56 95
REMARK SMILES IDX 57 96 58 97
REMARK H PARENT 7 13 82 47 48 58
REMARK Flexibility Score: inf
ROOT
ATOM      1  C   UNL A   1      34.994  23.370  23.017  1.00  0.00     0.188 C 
ENDROOT
BRANCH   1   2
ATOM      2  C   UNL A   1      33.609  22.693  23.115  1.00  0.00     0.188 C 
BRANCH   2   3
ATOM      3  O   UNL A   1      33.628  21.427  23.749  1.00  0.00    -0.376 OA
BRANCH   3   4
ATOM      4  C   UNL A   1      32.449  21.062  24.451  1.00  0.00     0.202 C 
BRANCH   4   5
ATOM      5  C   UNL A   1      31.420  22.178  24.704  1.00  0.00     0.261 C 
BRANCH   5   6
ATOM      6  O   UNL A   1      30.475  21.988  25.778  1.00  0.00    -0.462 OA
BRANCH   6   7
ATOM      7  C   UNL A   1      30.534  22.852  26.831  1.00  0.00     0.328 C 
ATOM      8  O   UNL A   1      29.674  22.884  27.697  1.00  0.00    -0.250 OA
BRANCH   7   9
ATOM      9  C   UNL A   1      31.769  23.791  26.694  1.00  0.00     0.195 C 
BRANCH   9  10
ATOM     10  N   UNL A   1      31.295  25.141  26.987  1.00  0.00    -0.338 N 
ATOM     11  C   UNL A   1      31.324  26.332  26.307  1.00  0.00     0.253 C 
ATOM     12  O   UNL A   1      30.787  27.259  26.918  1.00  0.00    -0.269 OA
ATOM     13  H   UNL A   1      30.858  25.212  27.866  1.00  0.00     0.164 HD
BRANCH  11  14
ATOM     14  C   UNL A   1      31.966  26.521  24.988  1.00  0.00     0.053 A 
ATOM     15  C   UNL A   1      32.266  25.850  21.246  1.00  0.00     0.056 C 
ATOM     16  C   UNL A   1      32.411  26.322  22.653  1.00  0.00     0.003 A 
ATOM     17  C   UNL A   1      31.596  25.995  23.706  1.00  0.00     0.029 A 
ATOM     18  S   UNL A   1      33.647  27.352  23.162  1.00  0.00    -0.145 S 
ATOM     19  C   UNL A   1      33.106  27.308  24.802  1.00  0.00     0.014 A 
ATOM     20  C   UNL A   1      33.912  28.094  25.786  1.00  0.00     0.057 C 
ENDBRANCH  11  14
ENDBRANCH   9  10
BRANCH   9  21
ATOM     21  C   UNL A   1      33.133  23.498  27.386  1.00  0.00     0.017 C 
ATOM     22  C   UNL A   1      33.308  22.078  27.925  1.00  0.00     0.010 C 
ATOM     23  C   UNL A   1      34.320  23.836  26.469  1.00  0.00     0.010 C 
ENDBRANCH   9  21
ENDBRANCH   7   9
ENDBRANCH   6   7
ENDBRANCH   5   6
ENDBRANCH   4   5
ENDBRANCH   3   4
ENDBRANCH   2   3
ENDBRANCH   1   2
BRANCH   1  24
ATOM     24  O   UNL A   1      36.176  22.601  23.173  1.00  0.00    -0.376 OA
BRANCH  24  25
ATOM     25  C   UNL A   1      37.003  22.847  24.301  1.00  0.00     0.202 C 
BRANCH  25  26
ATOM     26  C   UNL A   1      37.754  21.689  24.991  1.00  0.00     0.261 C 
BRANCH  26  27
ATOM     27  O   UNL A   1      38.286  21.943  26.306  1.00  0.00    -0.460 OA
BRANCH  27  28
ATOM     28  C   UNL A   1      39.622  22.164  26.374  1.00  0.00     0.338 C 
ATOM     29  O   UNL A   1      40.490  21.557  25.755  1.00  0.00    -0.246 OA
BRANCH  28  30
ATOM     30  C   UNL A   1      39.916  23.404  27.135  1.00  0.00     0.060 A 
ATOM     31  C   UNL A   1      39.212  24.570  26.796  1.00  0.00     0.016 A 
ATOM     32  C   UNL A   1      40.912  23.456  28.111  1.00  0.00     0.016 A 
ATOM     33  C   UNL A   1      39.525  25.792  27.390  1.00  0.00     0.010 A 
ATOM     34  C   UNL A   1      41.254  24.694  28.681  1.00  0.00     0.010 A 
ATOM     35  C   UNL A   1      40.594  25.874  28.288  1.00  0.00    -0.014 A 
BRANCH  35  36
ATOM     36  C   UNL A   1      41.167  27.214  28.589  1.00  0.00     0.031 A 
ATOM     37  C   UNL A   1      42.642  27.425  28.349  1.00  0.00     0.074 A 
ATOM     38  C   UNL A   1      40.401  28.247  28.986  1.00  0.00     0.049 A 
ATOM     39  N   UNL A   1      43.370  28.498  28.519  1.00  0.00    -0.248 NA
ATOM     40  C   UNL A   1      43.395  26.263  27.846  1.00  0.00     0.031 C 
ATOM     41  C   UNL A   1      38.957  28.198  29.201  1.00  0.00     0.029 A 
ATOM     42  N   UNL A   1      40.741  29.546  29.279  1.00  0.00    -0.354 N 
ATOM     43  C   UNL A   1      44.664  28.140  28.150  1.00  0.00     0.074 A 
ATOM     44  C   UNL A   1      44.627  26.743  27.782  1.00  0.00     0.031 C 
ATOM     45  C   UNL A   1      38.536  29.411  29.606  1.00  0.00     0.029 A 
ATOM     46  C   UNL A   1      39.682  30.315  29.702  1.00  0.00     0.049 A 
ATOM     47  H   UNL A   1      41.658  29.895  29.193  1.00  0.00     0.167 HD
ATOM     48  C   UNL A   1      45.780  28.906  28.110  1.00  0.00     0.037 A 
ATOM     49  C   UNL A   1      39.647  31.593  30.134  1.00  0.00     0.037 A 
ATOM     50  C   UNL A   1      45.820  30.297  28.480  1.00  0.00     0.049 A 
ATOM     51  C   UNL A   1      40.918  32.408  30.152  1.00  0.00     0.074 A 
ATOM     52  C   UNL A   1      46.901  31.161  28.463  1.00  0.00     0.029 A 
ATOM     53  N   UNL A   1      44.735  31.027  28.943  1.00  0.00    -0.354 N 
ATOM     54  N   UNL A   1      42.128  32.063  29.781  1.00  0.00    -0.248 NA
ATOM     55  C   UNL A   1      40.814  33.791  30.639  1.00  0.00     0.031 C 
ATOM     56  C   UNL A   1      46.483  32.395  28.971  1.00  0.00     0.029 A 
ATOM     57  C   UNL A   1      45.126  32.322  29.241  1.00  0.00     0.049 A 
ATOM     58  H   UNL A   1      43.820  30.676  29.043  1.00  0.00     0.167 HD
ATOM     59  C   UNL A   1      42.921  33.195  29.960  1.00  0.00     0.074 A 
ATOM     60  C   UNL A   1      42.048  34.238  30.456  1.00  0.00     0.031 C 
ATOM     61  C   UNL A   1      44.251  33.356  29.733  1.00  0.00     0.037 A 
BRANCH  48  62
ATOM     62  C   UNL A   1      47.062  28.245  27.681  1.00  0.00     0.058 A 
ATOM     63  C   UNL A   1      47.427  28.136  26.329  1.00  0.00     0.135 A 
ATOM     64  C   UNL A   1      47.952  27.733  28.640  1.00  0.00     0.135 A 
ATOM     65  F   UNL A   1      46.605  28.587  25.368  1.00  0.00    -0.206 F 
ATOM     66  C   UNL A   1      48.612  27.519  25.942  1.00  0.00     0.059 A 
ATOM     67  C   UNL A   1      49.158  27.141  28.278  1.00  0.00     0.059 A 
ATOM     68  F   UNL A   1      47.654  27.807  29.946  1.00  0.00    -0.206 F 
ATOM     69  C   UNL A   1      49.473  27.027  26.925  1.00  0.00     0.060 A 
BRANCH  69  70
ATOM     70  S   UNL A   1      51.011  26.236  26.406  1.00  0.00     0.124 S 
ATOM     71  O   UNL A   1      50.831  24.882  26.924  1.00  0.00    -0.237 OA
ATOM     72  O   UNL A   1      50.955  26.371  24.954  1.00  0.00    -0.237 OA
ATOM     73  O   UNL A   1      52.042  27.028  27.069  1.00  0.00    -0.744 OA
ENDBRANCH  69  70
ENDBRANCH  48  62
BRANCH  49  74
ATOM     74  C   UNL A   1      38.364  32.190  30.600  1.00  0.00     0.058 A 
ATOM     75  C   UNL A   1      37.576  32.983  29.753  1.00  0.00     0.135 A 
ATOM     76  C   UNL A   1      37.912  31.995  31.916  1.00  0.00     0.135 A 
ATOM     77  F   UNL A   1      37.972  33.215  28.492  1.00  0.00    -0.206 F 
ATOM     78  C   UNL A   1      36.397  33.576  30.194  1.00  0.00     0.059 A 
ATOM     79  C   UNL A   1      36.721  32.552  32.372  1.00  0.00     0.059 A 
ATOM     80  F   UNL A   1      38.624  31.241  32.768  1.00  0.00    -0.206 F 
ATOM     81  C   UNL A   1      35.975  33.350  31.506  1.00  0.00     0.060 A 
BRANCH  81  82
ATOM     82  S   UNL A   1      34.417  34.082  32.053  1.00  0.00     0.124 S 
ATOM     83  O   UNL A   1      34.877  35.303  32.703  1.00  0.00    -0.237 OA
ATOM     84  O   UNL A   1      33.704  34.256  30.791  1.00  0.00    -0.237 OA
ATOM     85  O   UNL A   1      33.864  33.064  32.942  1.00  0.00    -0.744 OA
ENDBRANCH  81  82
ENDBRANCH  49  74
BRANCH  61  86
ATOM     86  C   UNL A   1      44.838  34.723  29.979  1.00  0.00     0.058 A 
ATOM     87  C   UNL A   1      45.469  35.057  31.188  1.00  0.00     0.135 A 
ATOM     88  C   UNL A   1      44.796  35.705  28.974  1.00  0.00     0.135 A 
ATOM     89  F   UNL A   1      45.541  34.158  32.183  1.00  0.00    -0.206 F 
ATOM     90  C   UNL A   1      45.996  36.326  31.409  1.00  0.00     0.059 A 
ATOM     91  C   UNL A   1      45.347  36.969  29.161  1.00  0.00     0.059 A 
ATOM     92  F   UNL A   1      44.221  35.438  27.791  1.00  0.00    -0.206 F 
ATOM     93  C   UNL A   1      45.927  37.277  30.390  1.00  0.00     0.060 A 
BRANCH  93  94
ATOM     94  S   UNL A   1      46.614  38.921  30.689  1.00  0.00     0.124 S 
ATOM     95  O   UNL A   1      45.635  39.773  30.023  1.00  0.00    -0.237 OA
ATOM     96  O   UNL A   1      46.628  38.992  32.147  1.00  0.00    -0.237 OA
ATOM     97  O   UNL A   1      47.928  38.860  30.058  1.00  0.00    -0.744 OA
ENDBRANCH  93  94
ENDBRANCH  61  86
ENDBRANCH  35  36
ENDBRANCH  28  30
ENDBRANCH  27  28
ENDBRANCH  26  27
ENDBRANCH  25  26
ENDBRANCH  24  25
ENDBRANCH   1  24
TORSDOF 23
ENDMDL
MODEL 2
REMARK VINA RESULT:      -9.6      5.079      9.424
REMARK SMILES Cc1cc(C(=O)N[C@H](C(=O)OCCOCCOCCOC(=O)c2ccc(-c3c4nc(c(-c5c(F)cc(S(=O)(=O)[O-])cc5F)c5ccc([nH]5)c(-c5c(F)cc(S(=O)(=O)[O-])cc5F)c5nc(c(-c6c(F)cc(S(=O)(=O)[O-])cc6F)c6ccc3[nH]6)C=C5)C=C4)cc2)C(C)C)c(C)s1
REMARK SMILES IDX 16 1 15 2 14 3 13 4 12 5 11 6 9 7 10 8 8 9 7 10 5 11 6 12
REMARK SMILES IDX 4 14 1 15 2 16 3 17 94 18 92 19 93 20 89 21 90 22 91 23
REMARK SMILES IDX 17 24 18 25 19 26 20 27 21 28 22 29 23 30 24 31 88 32 25 33
REMARK SMILES IDX 87 34 26 35 27 36 28 37 81 38 29 39 86 40 80 41 82 42 30 43
REMARK SMILES IDX 85 44 79 45 78 46 31 48 65 49 44 50 64 51 45 52 48 53 63 54
REMARK SMILES IDX 83 55 46 56 47 57 62 59 84 60 49 61 32 62 33 63 42 64 34 65
REMARK SMILES IDX 35 66 41 67 43 68 36 69 37 70 38 71 39 72 40 73 66 74 67 75
REMARK SMILES IDX 76 76 68 77 69 78 75 79 77 80 70 81 71 82 72 83 73 84 74 85
REMARK SMILES IDX 50 86 51 87 60 88 52 89 53 90 59 91 61 92 54 93 55 94 56 95
REMARK SMILES IDX 57 96 58 97
REMARK H PARENT 7 13 82 47 48 58
REMARK Flexibility Score: inf
ROOT
ATOM      1  C   UNL A   1      37.229  20.255  24.961  1.00  0.00     0.188 C 
ENDROOT
BRANCH   1   2
ATOM      2  C   UNL A   1      35.686  20.306  24.968  1.00  0.00     0.188 C 
BRANCH   2   3
ATOM      3  O   UNL A   1      35.065  19.061  24.704  1.00  0.00    -0.376 OA
BRANCH   3   4
ATOM      4  C   UNL A   1      33.671  18.989  24.966  1.00  0.00     0.202 C 
BRANCH   4   5
ATOM      5  C   UNL A   1      32.748  19.791  24.031  1.00  0.00     0.261 C 
BRANCH   5   6
ATOM      6  O   UNL A   1      32.129  20.981  24.560  1.00  0.00    -0.462 OA
BRANCH   6   7
ATOM      7  C   UNL A   1      32.262  22.134  23.844  1.00  0.00     0.328 C 
ATOM      8  O   UNL A   1      32.164  22.162  22.628  1.00  0.00    -0.250 OA
BRANCH   7   9
ATOM      9  C   UNL A   1      32.625  23.320  24.788  1.00  0.00     0.195 C 
BRANCH   9  10
ATOM     10  N   UNL A   1      31.560  23.394  25.783  1.00  0.00    -0.338 N 
ATOM     11  C   UNL A   1      30.834  24.422  26.330  1.00  0.00     0.253 C 
ATOM     12  O   UNL A   1      29.995  24.047  27.153  1.00  0.00    -0.269 OA
ATOM     13  H   UNL A   1      31.305  22.513  26.140  1.00  0.00     0.164 HD
BRANCH  11  14
ATOM     14  C   UNL A   1      31.046  25.852  26.013  1.00  0.00     0.053 A 
ATOM     15  C   UNL A   1      32.300  29.353  26.859  1.00  0.00     0.056 C 
ATOM     16  C   UNL A   1      31.724  28.128  26.233  1.00  0.00     0.003 A 
ATOM     17  C   UNL A   1      31.713  26.868  26.774  1.00  0.00     0.029 A 
ATOM     18  S   UNL A   1      30.974  28.127  24.721  1.00  0.00    -0.145 S 
ATOM     19  C   UNL A   1      30.595  26.444  24.831  1.00  0.00     0.014 A 
ATOM     20  C   UNL A   1      29.845  25.858  23.678  1.00  0.00     0.057 C 
ENDBRANCH  11  14
ENDBRANCH   9  10
BRANCH   9  21
ATOM     21  C   UNL A   1      34.031  23.482  25.437  1.00  0.00     0.017 C 
ATOM     22  C   UNL A   1      34.617  24.893  25.397  1.00  0.00     0.010 C 
ATOM     23  C   UNL A   1      34.051  22.971  26.886  1.00  0.00     0.010 C 
ENDBRANCH   9  21
ENDBRANCH   7   9
ENDBRANCH   6   7
ENDBRANCH   5   6
ENDBRANCH   4   5
ENDBRANCH   3   4
ENDBRANCH   2   3
ENDBRANCH   1   2
BRANCH   1  24
ATOM     24  O   UNL A   1      37.982  21.457  24.938  1.00  0.00    -0.376 OA
BRANCH  24  25
ATOM     25  C   UNL A   1      38.995  21.643  25.915  1.00  0.00     0.202 C 
BRANCH  25  26
ATOM     26  C   UNL A   1      39.278  23.045  26.495  1.00  0.00     0.261 C 
BRANCH  26  27
ATOM     27  O   UNL A   1      40.453  23.190  27.317  1.00  0.00    -0.460 OA
BRANCH  27  28
ATOM     28  C   UNL A   1      41.291  24.202  26.984  1.00  0.00     0.338 C 
ATOM     29  O   UNL A   1      42.054  24.225  26.023  1.00  0.00    -0.246 OA
BRANCH  28  30
ATOM     30  C   UNL A   1      41.020  25.407  27.805  1.00  0.00     0.060 A 
ATOM     31  C   UNL A   1      42.060  26.333  27.985  1.00  0.00     0.016 A 
ATOM     32  C   UNL A   1      39.800  25.602  28.455  1.00  0.00     0.016 A 
ATOM     33  C   UNL A   1      41.907  27.423  28.841  1.00  0.00     0.010 A 
ATOM     34  C   UNL A   1      39.659  26.678  29.348  1.00  0.00     0.010 A 
ATOM     35  C   UNL A   1      40.728  27.565  29.580  1.00  0.00    -0.014 A 
BRANCH  35  36
ATOM     36  C   UNL A   1      40.737  28.469  30.763  1.00  0.00     0.031 A 
ATOM     37  C   UNL A   1      39.714  29.577  30.817  1.00  0.00     0.074 A 
ATOM     38  C   UNL A   1      41.567  28.276  31.804  1.00  0.00     0.049 A 
ATOM     39  N   UNL A   1      39.509  30.480  31.741  1.00  0.00    -0.248 NA
ATOM     40  C   UNL A   1      38.795  29.674  29.669  1.00  0.00     0.031 C 
ATOM     41  C   UNL A   1      42.564  27.212  31.909  1.00  0.00     0.029 A 
ATOM     42  N   UNL A   1      41.700  28.977  32.978  1.00  0.00    -0.354 N 
ATOM     43  C   UNL A   1      38.446  31.253  31.285  1.00  0.00     0.074 A 
ATOM     44  C   UNL A   1      38.073  30.737  29.988  1.00  0.00     0.031 C 
ATOM     45  C   UNL A   1      43.216  27.340  33.079  1.00  0.00     0.029 A 
ATOM     46  C   UNL A   1      42.701  28.507  33.795  1.00  0.00     0.049 A 
ATOM     47  H   UNL A   1      41.131  29.745  33.214  1.00  0.00     0.167 HD
ATOM     48  C   UNL A   1      37.827  32.294  31.894  1.00  0.00     0.037 A 
ATOM     49  C   UNL A   1      43.160  28.976  34.975  1.00  0.00     0.037 A 
ATOM     50  C   UNL A   1      38.201  32.813  33.184  1.00  0.00     0.049 A 
ATOM     51  C   UNL A   1      42.504  30.184  35.602  1.00  0.00     0.074 A 
ATOM     52  C   UNL A   1      37.628  33.856  33.889  1.00  0.00     0.029 A 
ATOM     53  N   UNL A   1      39.246  32.335  33.960  1.00  0.00    -0.354 N 
ATOM     54  N   UNL A   1      41.488  30.891  35.170  1.00  0.00    -0.248 NA
ATOM     55  C   UNL A   1      43.055  30.649  36.884  1.00  0.00     0.031 C 
ATOM     56  C   UNL A   1      38.364  34.048  35.063  1.00  0.00     0.029 A 
ATOM     57  C   UNL A   1      39.354  33.080  35.123  1.00  0.00     0.049 A 
ATOM     58  H   UNL A   1      39.827  31.576  33.719  1.00  0.00     0.167 HD
ATOM     59  C   UNL A   1      41.258  31.864  36.141  1.00  0.00     0.074 A 
ATOM     60  C   UNL A   1      42.231  31.641  37.189  1.00  0.00     0.031 C 
ATOM     61  C   UNL A   1      40.325  32.851  36.164  1.00  0.00     0.037 A 
BRANCH  48  62
ATOM     62  C   UNL A   1      36.702  32.964  31.153  1.00  0.00     0.058 A 
ATOM     63  C   UNL A   1      35.361  32.811  31.543  1.00  0.00     0.135 A 
ATOM     64  C   UNL A   1      36.971  33.791  30.051  1.00  0.00     0.135 A 
ATOM     65  F   UNL A   1      35.043  32.014  32.575  1.00  0.00    -0.206 F 
ATOM     66  C   UNL A   1      34.327  33.431  30.849  1.00  0.00     0.059 A 
ATOM     67  C   UNL A   1      35.955  34.448  29.363  1.00  0.00     0.059 A 
ATOM     68  F   UNL A   1      38.233  33.971  29.633  1.00  0.00    -0.206 F 
ATOM     69  C   UNL A   1      34.634  34.250  29.761  1.00  0.00     0.060 A 
BRANCH  69  70
ATOM     70  S   UNL A   1      33.281  35.054  28.877  1.00  0.00     0.124 S 
ATOM     71  O   UNL A   1      32.847  33.988  27.978  1.00  0.00    -0.237 OA
ATOM     72  O   UNL A   1      32.358  35.386  29.958  1.00  0.00    -0.237 OA
ATOM     73  O   UNL A   1      33.924  36.194  28.232  1.00  0.00    -0.744 OA
ENDBRANCH  69  70
ENDBRANCH  48  62
BRANCH  49  74
ATOM     74  C   UNL A   1      44.313  28.313  35.646  1.00  0.00     0.058 A 
ATOM     75  C   UNL A   1      44.121  27.312  36.610  1.00  0.00     0.135 A 
ATOM     76  C   UNL A   1      45.634  28.686  35.351  1.00  0.00     0.135 A 
ATOM     77  F   UNL A   1      42.878  26.931  36.942  1.00  0.00    -0.206 F 
ATOM     78  C   UNL A   1      45.192  26.717  37.269  1.00  0.00     0.059 A 
ATOM     79  C   UNL A   1      46.723  28.085  35.974  1.00  0.00     0.059 A 
ATOM     80  F   UNL A   1      45.877  29.635  34.433  1.00  0.00    -0.206 F 
ATOM     81  C   UNL A   1      46.491  27.107  36.940  1.00  0.00     0.060 A 
BRANCH  81  82
ATOM     82  S   UNL A   1      47.876  26.292  37.764  1.00  0.00     0.124 S 
ATOM     83  O   UNL A   1      49.019  26.947  37.140  1.00  0.00    -0.237 OA
ATOM     84  O   UNL A   1      47.634  26.623  39.165  1.00  0.00    -0.237 OA
ATOM     85  O   UNL A   1      47.689  24.885  37.419  1.00  0.00    -0.744 OA
ENDBRANCH  81  82
ENDBRANCH  49  74
BRANCH  61  86
ATOM     86  C   UNL A   1      40.282  33.741  37.380  1.00  0.00     0.058 A 
ATOM     87  C   UNL A   1      39.470  33.451  38.488  1.00  0.00     0.135 A 
ATOM     88  C   UNL A   1      41.091  34.889  37.449  1.00  0.00     0.135 A 
ATOM     89  F   UNL A   1      38.678  32.366  38.479  1.00  0.00    -0.206 F 
ATOM     90  C   UNL A   1      39.428  34.286  39.600  1.00  0.00     0.059 A 
ATOM     91  C   UNL A   1      41.090  35.720  38.564  1.00  0.00     0.059 A 
ATOM     92  F   UNL A   1      41.900  35.209  36.427  1.00  0.00    -0.206 F 
ATOM     93  C   UNL A   1      40.239  35.422  39.627  1.00  0.00     0.060 A 
BRANCH  93  94
ATOM     94  S   UNL A   1      40.174  36.500  41.075  1.00  0.00     0.124 S 
ATOM     95  O   UNL A   1      40.639  35.604  42.129  1.00  0.00    -0.237 OA
ATOM     96  O   UNL A   1      41.091  37.573  40.706  1.00  0.00    -0.237 OA
ATOM     97  O   UNL A   1      38.768  36.883  41.151  1.00  0.00    -0.744 OA
ENDBRANCH  93  94
ENDBRANCH  61  86
ENDBRANCH  35  36
ENDBRANCH  28  30
ENDBRANCH  27  28
ENDBRANCH  26  27
ENDBRANCH  25  26
ENDBRANCH  24  25
ENDBRANCH   1  24
TORSDOF 23
ENDMDL
MODEL 3
REMARK VINA RESULT:      -9.4      2.836      9.318
REMARK SMILES Cc1cc(C(=O)N[C@H](C(=O)OCCOCCOCCOC(=O)c2ccc(-c3c4nc(c(-c5c(F)cc(S(=O)(=O)[O-])cc5F)c5ccc([nH]5)c(-c5c(F)cc(S(=O)(=O)[O-])cc5F)c5nc(c(-c6c(F)cc(S(=O)(=O)[O-])cc6F)c6ccc3[nH]6)C=C5)C=C4)cc2)C(C)C)c(C)s1
REMARK SMILES IDX 16 1 15 2 14 3 13 4 12 5 11 6 9 7 10 8 8 9 7 10 5 11 6 12
REMARK SMILES IDX 4 14 1 15 2 16 3 17 94 18 92 19 93 20 89 21 90 22 91 23
REMARK SMILES IDX 17 24 18 25 19 26 20 27 21 28 22 29 23 30 24 31 88 32 25 33
REMARK SMILES IDX 87 34 26 35 27 36 28 37 81 38 29 39 86 40 80 41 82 42 30 43
REMARK SMILES IDX 85 44 79 45 78 46 31 48 65 49 44 50 64 51 45 52 48 53 63 54
REMARK SMILES IDX 83 55 46 56 47 57 62 59 84 60 49 61 32 62 33 63 42 64 34 65
REMARK SMILES IDX 35 66 41 67 43 68 36 69 37 70 38 71 39 72 40 73 66 74 67 75
REMARK SMILES IDX 76 76 68 77 69 78 75 79 77 80 70 81 71 82 72 83 73 84 74 85
REMARK SMILES IDX 50 86 51 87 60 88 52 89 53 90 59 91 61 92 54 93 55 94 56 95
REMARK SMILES IDX 57 96 58 97
REMARK H PARENT 7 13 82 47 48 58
REMARK Flexibility Score: inf
ROOT
ATOM      1  C   UNL A   1      34.040  30.542  27.064  1.00  0.00     0.188 C 
ENDROOT
BRANCH   1   2
ATOM      2  C   UNL A   1      34.463  29.067  27.241  1.00  0.00     0.188 C 
BRANCH   2   3
ATOM      3  O   UNL A   1      33.405  28.139  27.084  1.00  0.00    -0.376 OA
BRANCH   3   4
ATOM      4  C   UNL A   1      32.395  28.494  26.151  1.00  0.00     0.202 C 
BRANCH   4   5
ATOM      5  C   UNL A   1      31.299  27.446  25.887  1.00  0.00     0.261 C 
BRANCH   5   6
ATOM      6  O   UNL A   1      31.448  26.597  24.730  1.00  0.00    -0.462 OA
BRANCH   6   7
ATOM      7  C   UNL A   1      30.501  25.637  24.524  1.00  0.00     0.328 C 
ATOM      8  O   UNL A   1      29.314  25.901  24.436  1.00  0.00    -0.250 OA
BRANCH   7   9
ATOM      9  C   UNL A   1      31.157  24.224  24.511  1.00  0.00     0.195 C 
BRANCH   9  10
ATOM     10  N   UNL A   1      32.293  24.305  23.598  1.00  0.00    -0.338 N 
ATOM     11  C   UNL A   1      33.255  23.417  23.189  1.00  0.00     0.253 C 
ATOM     12  O   UNL A   1      34.048  23.894  22.374  1.00  0.00    -0.269 OA
ATOM     13  H   UNL A   1      32.391  25.193  23.185  1.00  0.00     0.164 HD
BRANCH  11  14
ATOM     14  C   UNL A   1      33.376  22.031  23.692  1.00  0.00     0.053 A 
ATOM     15  C   UNL A   1      32.145  18.436  24.026  1.00  0.00     0.056 C 
ATOM     16  C   UNL A   1      32.888  19.728  24.081  1.00  0.00     0.003 A 
ATOM     17  C   UNL A   1      32.541  20.892  23.444  1.00  0.00     0.029 A 
ATOM     18  S   UNL A   1      34.304  19.946  24.973  1.00  0.00    -0.145 S 
ATOM     19  C   UNL A   1      34.408  21.615  24.536  1.00  0.00     0.014 A 
ATOM     20  C   UNL A   1      35.557  22.379  25.112  1.00  0.00     0.057 C 
ENDBRANCH  11  14
ENDBRANCH   9  10
BRANCH   9  21
ATOM     21  C   UNL A   1      31.519  23.449  25.813  1.00  0.00     0.017 C 
ATOM     22  C   UNL A   1      32.417  24.196  26.797  1.00  0.00     0.010 C 
ATOM     23  C   UNL A   1      30.262  22.959  26.551  1.00  0.00     0.010 C 
ENDBRANCH   9  21
ENDBRANCH   7   9
ENDBRANCH   6   7
ENDBRANCH   5   6
ENDBRANCH   4   5
ENDBRANCH   3   4
ENDBRANCH   2   3
ENDBRANCH   1   2
BRANCH   1  24
ATOM     24  O   UNL A   1      34.864  31.585  27.559  1.00  0.00    -0.376 OA
BRANCH  24  25
ATOM     25  C   UNL A   1      34.291  32.549  28.429  1.00  0.00     0.202 C 
BRANCH  25  26
ATOM     26  C   UNL A   1      34.799  32.699  29.879  1.00  0.00     0.261 C 
BRANCH  26  27
ATOM     27  O   UNL A   1      35.527  31.588  30.438  1.00  0.00    -0.460 OA
BRANCH  27  28
ATOM     28  C   UNL A   1      36.730  31.883  30.988  1.00  0.00     0.338 C 
ATOM     29  O   UNL A   1      36.931  32.641  31.932  1.00  0.00    -0.246 OA
BRANCH  28  30
ATOM     30  C   UNL A   1      37.789  30.992  30.453  1.00  0.00     0.060 A 
ATOM     31  C   UNL A   1      38.695  30.422  31.362  1.00  0.00     0.016 A 
ATOM     32  C   UNL A   1      37.951  30.771  29.084  1.00  0.00     0.016 A 
ATOM     33  C   UNL A   1      39.783  29.673  30.913  1.00  0.00     0.010 A 
ATOM     34  C   UNL A   1      39.068  30.051  28.630  1.00  0.00     0.010 A 
ATOM     35  C   UNL A   1      40.014  29.539  29.539  1.00  0.00    -0.014 A 
BRANCH  35  36
ATOM     36  C   UNL A   1      41.363  29.105  29.086  1.00  0.00     0.031 A 
ATOM     37  C   UNL A   1      42.478  30.123  29.101  1.00  0.00     0.074 A 
ATOM     38  C   UNL A   1      41.627  27.831  28.745  1.00  0.00     0.049 A 
ATOM     39  N   UNL A   1      43.735  29.988  28.770  1.00  0.00    -0.248 NA
ATOM     40  C   UNL A   1      42.119  31.477  29.556  1.00  0.00     0.031 C 
ATOM     41  C   UNL A   1      40.660  26.735  28.741  1.00  0.00     0.029 A 
ATOM     42  N   UNL A   1      42.801  27.244  28.335  1.00  0.00    -0.354 N 
ATOM     43  C   UNL A   1      44.316  31.236  28.970  1.00  0.00     0.074 A 
ATOM     44  C   UNL A   1      43.266  32.124  29.417  1.00  0.00     0.031 C 
ATOM     45  C   UNL A   1      41.277  25.611  28.333  1.00  0.00     0.029 A 
ATOM     46  C   UNL A   1      42.676  25.910  28.025  1.00  0.00     0.049 A 
ATOM     47  H   UNL A   1      43.653  27.733  28.269  1.00  0.00     0.167 HD
ATOM     48  C   UNL A   1      45.608  31.611  28.808  1.00  0.00     0.037 A 
ATOM     49  C   UNL A   1      43.580  25.038  27.532  1.00  0.00     0.037 A 
ATOM     50  C   UNL A   1      46.655  30.730  28.359  1.00  0.00     0.049 A 
ATOM     51  C   UNL A   1      44.999  25.496  27.287  1.00  0.00     0.074 A 
ATOM     52  C   UNL A   1      47.996  31.012  28.174  1.00  0.00     0.029 A 
ATOM     53  N   UNL A   1      46.478  29.397  28.016  1.00  0.00    -0.354 N 
ATOM     54  N   UNL A   1      45.538  26.673  27.501  1.00  0.00    -0.248 NA
ATOM     55  C   UNL A   1      45.934  24.500  26.744  1.00  0.00     0.031 C 
ATOM     56  C   UNL A   1      48.618  29.868  27.663  1.00  0.00     0.029 A 
ATOM     57  C   UNL A   1      47.679  28.853  27.593  1.00  0.00     0.049 A 
ATOM     58  H   UNL A   1      45.623  28.910  28.066  1.00  0.00     0.167 HD
ATOM     59  C   UNL A   1      46.880  26.549  27.148  1.00  0.00     0.074 A 
ATOM     60  C   UNL A   1      47.072  25.179  26.724  1.00  0.00     0.031 C 
ATOM     61  C   UNL A   1      47.864  27.485  27.174  1.00  0.00     0.037 A 
BRANCH  48  62
ATOM     62  C   UNL A   1      45.955  33.048  29.086  1.00  0.00     0.058 A 
ATOM     63  C   UNL A   1      45.762  34.058  28.128  1.00  0.00     0.135 A 
ATOM     64  C   UNL A   1      46.467  33.426  30.338  1.00  0.00     0.135 A 
ATOM     65  F   UNL A   1      45.297  33.752  26.907  1.00  0.00    -0.206 F 
ATOM     66  C   UNL A   1      46.090  35.384  28.392  1.00  0.00     0.059 A 
ATOM     67  C   UNL A   1      46.771  34.751  30.635  1.00  0.00     0.059 A 
ATOM     68  F   UNL A   1      46.675  32.503  31.290  1.00  0.00    -0.206 F 
ATOM     69  C   UNL A   1      46.592  35.721  29.650  1.00  0.00     0.060 A 
BRANCH  69  70
ATOM     70  S   UNL A   1      47.006  37.447  29.980  1.00  0.00     0.124 S 
ATOM     71  O   UNL A   1      48.354  37.535  29.425  1.00  0.00    -0.237 OA
ATOM     72  O   UNL A   1      45.970  38.161  29.241  1.00  0.00    -0.237 OA
ATOM     73  O   UNL A   1      46.919  37.548  31.433  1.00  0.00    -0.744 OA
ENDBRANCH  69  70
ENDBRANCH  48  62
BRANCH  49  74
ATOM     74  C   UNL A   1      43.178  23.638  27.220  1.00  0.00     0.058 A 
ATOM     75  C   UNL A   1      42.992  23.208  25.898  1.00  0.00     0.135 A 
ATOM     76  C   UNL A   1      42.948  22.707  28.245  1.00  0.00     0.135 A 
ATOM     77  F   UNL A   1      43.182  24.064  24.882  1.00  0.00    -0.206 F 
ATOM     78  C   UNL A   1      42.578  21.913  25.601  1.00  0.00     0.059 A 
ATOM     79  C   UNL A   1      42.562  21.398  27.974  1.00  0.00     0.059 A 
ATOM     80  F   UNL A   1      43.115  23.062  29.529  1.00  0.00    -0.206 F 
ATOM     81  C   UNL A   1      42.370  21.013  26.648  1.00  0.00     0.060 A 
BRANCH  81  82
ATOM     82  S   UNL A   1      41.883  19.320  26.250  1.00  0.00     0.124 S 
ATOM     83  O   UNL A   1      42.363  18.592  27.419  1.00  0.00    -0.237 OA
ATOM     84  O   UNL A   1      40.434  19.443  26.123  1.00  0.00    -0.237 OA
ATOM     85  O   UNL A   1      42.594  19.052  25.003  1.00  0.00    -0.744 OA
ENDBRANCH  81  82
ENDBRANCH  49  74
BRANCH  61  86
ATOM     86  C   UNL A   1      49.251  27.050  26.771  1.00  0.00     0.058 A 
ATOM     87  C   UNL A   1      49.700  27.128  25.444  1.00  0.00     0.135 A 
ATOM     88  C   UNL A   1      50.154  26.575  27.738  1.00  0.00     0.135 A 
ATOM     89  F   UNL A   1      48.881  27.575  24.478  1.00  0.00    -0.206 F 
ATOM     90  C   UNL A   1      50.977  26.710  25.081  1.00  0.00     0.059 A 
ATOM     91  C   UNL A   1      51.447  26.185  27.403  1.00  0.00     0.059 A 
ATOM     92  F   UNL A   1      49.786  26.495  29.026  1.00  0.00    -0.206 F 
ATOM     93  C   UNL A   1      51.843  26.237  26.068  1.00  0.00     0.060 A 
BRANCH  93  94
ATOM     94  S   UNL A   1      53.497  25.697  25.584  1.00  0.00     0.124 S 
ATOM     95  O   UNL A   1      53.969  26.846  24.820  1.00  0.00    -0.237 OA
ATOM     96  O   UNL A   1      54.145  25.485  26.875  1.00  0.00    -0.237 OA
ATOM     97  O   UNL A   1      53.247  24.486  24.809  1.00  0.00    -0.744 OA
ENDBRANCH  93  94
ENDBRANCH  61  86
ENDBRANCH  35  36
ENDBRANCH  28  30
ENDBRANCH  27  28
ENDBRANCH  26  27
ENDBRANCH  25  26
ENDBRANCH  24  25
ENDBRANCH   1  24
TORSDOF 23
ENDMDL
