MODEL 1
REMARK VINA RESULT:     -10.3      0.000      0.000
REMARK SMILES CC[C@H]1CC[C@](C(=O)OCCOCCOCCOC(=O)c2ccc(-c3c4nc(c(-c5c(F)cc(S(=O)(=O)[O-])cc5F)c5ccc([nH]5)c(-c5c(F)cc(S(=O)(=O)[O-])cc5F)c5nc(c(-c6c(F)cc(S(=O)(=O)[O-])cc6F)c6ccc3[nH]6)C=C5)C=C4)cc2)([C@H]2CCC[C@@H](S(C)(=O)=O)C2)CC1
REMARK SMILES IDX 14 1 13 2 12 3 11 4 10 5 9 6 7 7 8 8 6 9 3 10 98 11 4 12
REMARK SMILES IDX 97 13 5 14 2 15 1 16 87 17 88 18 96 19 89 20 91 21 90 22
REMARK SMILES IDX 92 23 93 24 94 25 95 26 15 27 16 28 17 29 18 30 19 31 20 32
REMARK SMILES IDX 21 33 22 34 86 35 23 36 85 37 24 38 25 39 26 40 79 41 27 42
REMARK SMILES IDX 84 43 78 44 80 45 28 46 83 47 77 48 76 49 29 51 63 52 42 53
REMARK SMILES IDX 62 54 43 55 46 56 61 57 81 58 44 59 45 60 60 62 82 63 47 64
REMARK SMILES IDX 30 65 31 66 40 67 32 68 33 69 39 70 41 71 34 72 35 73 36 74
REMARK SMILES IDX 37 75 38 76 64 77 65 78 74 79 66 80 67 81 73 82 75 83 68 84
REMARK SMILES IDX 69 85 70 86 71 87 72 88 48 89 49 90 58 91 50 92 51 93 57 94
REMARK SMILES IDX 59 95 52 96 53 97 54 98 55 99 56 100
REMARK H PARENT 80 50 46 61
REMARK Flexibility Score: inf
ROOT
ATOM      1  C   UNL A   1      41.842  21.056  26.442  1.00  0.00     0.188 C 
ENDROOT
BRANCH   1   2
ATOM      2  C   UNL A   1      40.333  20.779  26.520  1.00  0.00     0.188 C 
BRANCH   2   3
ATOM      3  O   UNL A   1      39.471  21.810  26.017  1.00  0.00    -0.376 OA
BRANCH   3   4
ATOM      4  C   UNL A   1      38.290  21.325  25.374  1.00  0.00     0.202 C 
BRANCH   4   5
ATOM      5  C   UNL A   1      37.125  22.334  25.443  1.00  0.00     0.261 C 
BRANCH   5   6
ATOM      6  O   UNL A   1      35.895  21.832  24.857  1.00  0.00    -0.463 OA
BRANCH   6   7
ATOM      7  C   UNL A   1      35.303  22.577  23.882  1.00  0.00     0.312 C 
ATOM      8  O   UNL A   1      35.847  22.827  22.808  1.00  0.00    -0.252 OA
BRANCH   7   9
ATOM      9  C   UNL A   1      33.925  23.199  24.270  1.00  0.00     0.071 C 
ATOM     10  C   UNL A   1      32.387  20.560  23.926  1.00  0.00    -0.011 C 
ATOM     11  C   UNL A   1      33.264  20.858  25.146  1.00  0.00     0.005 C 
ATOM     12  C   UNL A   1      32.559  21.554  22.767  1.00  0.00     0.005 C 
ATOM     13  C   UNL A   1      33.412  22.341  25.474  1.00  0.00     0.019 C 
ATOM     14  C   UNL A   1      32.853  23.006  23.157  1.00  0.00     0.019 C 
BRANCH  10  15
ATOM     15  C   UNL A   1      32.688  19.118  23.454  1.00  0.00    -0.000 C 
ATOM     16  C   UNL A   1      33.770  18.419  24.259  1.00  0.00     0.004 C 
ENDBRANCH  10  15
BRANCH   9  17
ATOM     17  C   UNL A   1      33.942  24.752  24.742  1.00  0.00     0.008 C 
ATOM     18  C   UNL A   1      33.709  25.872  23.691  1.00  0.00     0.005 C 
ATOM     19  C   UNL A   1      33.377  25.139  26.123  1.00  0.00     0.024 C 
ATOM     20  C   UNL A   1      32.588  26.907  23.881  1.00  0.00     0.002 C 
ATOM     21  C   UNL A   1      32.038  25.886  26.143  1.00  0.00     0.108 C 
ATOM     22  C   UNL A   1      32.051  27.126  25.285  1.00  0.00     0.020 C 
BRANCH  21  23
ATOM     23  S   UNL A   1      30.644  24.822  25.903  1.00  0.00     0.150 S 
ATOM     24  C   UNL A   1      30.864  23.330  26.845  1.00  0.00     0.158 C 
ATOM     25  O   UNL A   1      29.562  25.577  26.496  1.00  0.00    -0.229 OA
ATOM     26  O   UNL A   1      30.594  24.443  24.504  1.00  0.00    -0.229 OA
ENDBRANCH  21  23
ENDBRANCH   9  17
ENDBRANCH   7   9
ENDBRANCH   6   7
ENDBRANCH   5   6
ENDBRANCH   4   5
ENDBRANCH   3   4
ENDBRANCH   2   3
ENDBRANCH   1   2
BRANCH   1  27
ATOM     27  O   UNL A   1      42.195  22.430  26.559  1.00  0.00    -0.376 OA
BRANCH  27  28
ATOM     28  C   UNL A   1      43.199  22.932  25.692  1.00  0.00     0.202 C 
BRANCH  28  29
ATOM     29  C   UNL A   1      43.881  24.213  26.183  1.00  0.00     0.261 C 
BRANCH  29  30
ATOM     30  O   UNL A   1      43.458  25.397  25.492  1.00  0.00    -0.460 OA
BRANCH  30  31
ATOM     31  C   UNL A   1      42.190  25.821  25.712  1.00  0.00     0.338 C 
ATOM     32  O   UNL A   1      41.223  25.592  25.003  1.00  0.00    -0.246 OA
BRANCH  31  33
ATOM     33  C   UNL A   1      42.149  26.528  27.025  1.00  0.00     0.060 A 
ATOM     34  C   UNL A   1      41.243  26.098  28.003  1.00  0.00     0.016 A 
ATOM     35  C   UNL A   1      42.998  27.608  27.303  1.00  0.00     0.016 A 
ATOM     36  C   UNL A   1      41.136  26.785  29.221  1.00  0.00     0.010 A 
ATOM     37  C   UNL A   1      42.903  28.285  28.521  1.00  0.00     0.010 A 
ATOM     38  C   UNL A   1      41.936  27.910  29.467  1.00  0.00    -0.014 A 
BRANCH  38  39
ATOM     39  C   UNL A   1      41.602  28.869  30.553  1.00  0.00     0.031 A 
ATOM     40  C   UNL A   1      42.418  28.792  31.818  1.00  0.00     0.074 A 
ATOM     41  C   UNL A   1      40.593  29.755  30.463  1.00  0.00     0.049 A 
ATOM     42  N   UNL A   1      42.259  29.423  32.952  1.00  0.00    -0.248 NA
ATOM     43  C   UNL A   1      43.559  27.861  31.801  1.00  0.00     0.031 C 
ATOM     44  C   UNL A   1      39.735  29.952  29.298  1.00  0.00     0.029 A 
ATOM     45  N   UNL A   1      40.109  30.647  31.391  1.00  0.00    -0.354 N 
ATOM     46  C   UNL A   1      43.271  28.959  33.784  1.00  0.00     0.074 A 
ATOM     47  C   UNL A   1      44.021  27.974  33.036  1.00  0.00     0.031 C 
ATOM     48  C   UNL A   1      38.830  30.906  29.579  1.00  0.00     0.029 A 
ATOM     49  C   UNL A   1      39.008  31.352  30.962  1.00  0.00     0.049 A 
ATOM     50  H   UNL A   1      40.513  30.770  32.280  1.00  0.00     0.167 HD
ATOM     51  C   UNL A   1      43.559  29.320  35.057  1.00  0.00     0.037 A 
ATOM     52  C   UNL A   1      38.219  32.228  31.621  1.00  0.00     0.037 A 
ATOM     53  C   UNL A   1      42.808  30.283  35.814  1.00  0.00     0.049 A 
ATOM     54  C   UNL A   1      38.510  32.558  33.067  1.00  0.00     0.074 A 
ATOM     55  C   UNL A   1      43.019  30.706  37.114  1.00  0.00     0.029 A 
ATOM     56  N   UNL A   1      41.697  30.966  35.346  1.00  0.00    -0.354 N 
ATOM     57  N   UNL A   1      39.481  32.126  33.837  1.00  0.00    -0.248 NA
ATOM     58  C   UNL A   1      37.591  33.492  33.738  1.00  0.00     0.031 C 
ATOM     59  C   UNL A   1      42.007  31.610  37.449  1.00  0.00     0.029 A 
ATOM     60  C   UNL A   1      41.201  31.795  36.337  1.00  0.00     0.049 A 
ATOM     61  H   UNL A   1      41.316  30.875  34.443  1.00  0.00     0.167 HD
ATOM     62  C   UNL A   1      39.312  32.766  35.064  1.00  0.00     0.074 A 
ATOM     63  C   UNL A   1      38.146  33.614  34.937  1.00  0.00     0.031 C 
ATOM     64  C   UNL A   1      40.059  32.663  36.192  1.00  0.00     0.037 A 
BRANCH  51  65
ATOM     65  C   UNL A   1      44.723  28.638  35.716  1.00  0.00     0.058 A 
ATOM     66  C   UNL A   1      44.579  27.408  36.375  1.00  0.00     0.135 A 
ATOM     67  C   UNL A   1      46.001  29.220  35.679  1.00  0.00     0.135 A 
ATOM     68  F   UNL A   1      43.374  26.822  36.459  1.00  0.00    -0.206 F 
ATOM     69  C   UNL A   1      45.656  26.791  37.003  1.00  0.00     0.059 A 
ATOM     70  C   UNL A   1      47.097  28.606  36.275  1.00  0.00     0.059 A 
ATOM     71  F   UNL A   1      46.190  30.398  35.065  1.00  0.00    -0.206 F 
ATOM     72  C   UNL A   1      46.911  27.400  36.948  1.00  0.00     0.060 A 
BRANCH  72  73
ATOM     73  S   UNL A   1      48.298  26.589  37.771  1.00  0.00     0.124 S 
ATOM     74  O   UNL A   1      49.414  27.435  37.359  1.00  0.00    -0.237 OA
ATOM     75  O   UNL A   1      47.920  26.680  39.177  1.00  0.00    -0.237 OA
ATOM     76  O   UNL A   1      48.289  25.244  37.207  1.00  0.00    -0.744 OA
ENDBRANCH  72  73
ENDBRANCH  51  65
BRANCH  52  77
ATOM     77  C   UNL A   1      37.053  32.855  30.937  1.00  0.00     0.058 A 
ATOM     78  C   UNL A   1      35.757  32.342  31.100  1.00  0.00     0.135 A 
ATOM     79  C   UNL A   1      37.214  33.951  30.075  1.00  0.00     0.135 A 
ATOM     80  F   UNL A   1      35.552  31.282  31.898  1.00  0.00    -0.206 F 
ATOM     81  C   UNL A   1      34.668  32.877  30.420  1.00  0.00     0.059 A 
ATOM     82  C   UNL A   1      36.135  34.522  29.406  1.00  0.00     0.059 A 
ATOM     83  F   UNL A   1      38.431  34.484  29.884  1.00  0.00    -0.206 F 
ATOM     84  C   UNL A   1      34.867  33.969  29.576  1.00  0.00     0.060 A 
BRANCH  84  85
ATOM     85  S   UNL A   1      33.439  34.681  28.728  1.00  0.00     0.124 S 
ATOM     86  O   UNL A   1      33.055  33.593  27.836  1.00  0.00    -0.237 OA
ATOM     87  O   UNL A   1      32.529  34.950  29.836  1.00  0.00    -0.237 OA
ATOM     88  O   UNL A   1      33.991  35.866  28.077  1.00  0.00    -0.744 OA
ENDBRANCH  84  85
ENDBRANCH  52  77
BRANCH  64  89
ATOM     89  C   UNL A   1      39.699  33.531  37.369  1.00  0.00     0.058 A 
ATOM     90  C   UNL A   1      38.780  33.121  38.347  1.00  0.00     0.135 A 
ATOM     91  C   UNL A   1      40.359  34.757  37.565  1.00  0.00     0.135 A 
ATOM     92  F   UNL A   1      38.119  31.961  38.208  1.00  0.00    -0.206 F 
ATOM     93  C   UNL A   1      38.521  33.899  39.473  1.00  0.00     0.059 A 
ATOM     94  C   UNL A   1      40.136  35.537  38.696  1.00  0.00     0.059 A 
ATOM     95  F   UNL A   1      41.257  35.192  36.667  1.00  0.00    -0.206 F 
ATOM     96  C   UNL A   1      39.209  35.102  39.641  1.00  0.00     0.060 A 
BRANCH  96  97
ATOM     97  S   UNL A   1      38.907  36.074  41.134  1.00  0.00     0.124 S 
ATOM     98  O   UNL A   1      37.705  35.438  41.662  1.00  0.00    -0.237 OA
ATOM     99  O   UNL A   1      40.129  35.856  41.902  1.00  0.00    -0.237 OA
ATOM    100  O   UNL A   1      38.728  37.431  40.627  1.00  0.00    -0.744 OA
ENDBRANCH  96  97
ENDBRANCH  64  89
ENDBRANCH  38  39
ENDBRANCH  31  33
ENDBRANCH  30  31
ENDBRANCH  29  30
ENDBRANCH  28  29
ENDBRANCH  27  28
ENDBRANCH   1  27
TORSDOF 23
ENDMDL
MODEL 2
REMARK VINA RESULT:     -10.1      3.002      9.062
REMARK SMILES CC[C@H]1CC[C@](C(=O)OCCOCCOCCOC(=O)c2ccc(-c3c4nc(c(-c5c(F)cc(S(=O)(=O)[O-])cc5F)c5ccc([nH]5)c(-c5c(F)cc(S(=O)(=O)[O-])cc5F)c5nc(c(-c6c(F)cc(S(=O)(=O)[O-])cc6F)c6ccc3[nH]6)C=C5)C=C4)cc2)([C@H]2CCC[C@@H](S(C)(=O)=O)C2)CC1
REMARK SMILES IDX 14 1 13 2 12 3 11 4 10 5 9 6 7 7 8 8 6 9 3 10 98 11 4 12
REMARK SMILES IDX 97 13 5 14 2 15 1 16 87 17 88 18 96 19 89 20 91 21 90 22
REMARK SMILES IDX 92 23 93 24 94 25 95 26 15 27 16 28 17 29 18 30 19 31 20 32
REMARK SMILES IDX 21 33 22 34 86 35 23 36 85 37 24 38 25 39 26 40 79 41 27 42
REMARK SMILES IDX 84 43 78 44 80 45 28 46 83 47 77 48 76 49 29 51 63 52 42 53
REMARK SMILES IDX 62 54 43 55 46 56 61 57 81 58 44 59 45 60 60 62 82 63 47 64
REMARK SMILES IDX 30 65 31 66 40 67 32 68 33 69 39 70 41 71 34 72 35 73 36 74
REMARK SMILES IDX 37 75 38 76 64 77 65 78 74 79 66 80 67 81 73 82 75 83 68 84
REMARK SMILES IDX 69 85 70 86 71 87 72 88 48 89 49 90 58 91 50 92 51 93 57 94
REMARK SMILES IDX 59 95 52 96 53 97 54 98 55 99 56 100
REMARK H PARENT 80 50 46 61
REMARK Flexibility Score: inf
ROOT
ATOM      1  C   UNL A   1      30.246  30.417  23.951  1.00  0.00     0.188 C 
ENDROOT
BRANCH   1   2
ATOM      2  C   UNL A   1      29.317  29.482  23.160  1.00  0.00     0.188 C 
BRANCH   2   3
ATOM      3  O   UNL A   1      29.648  28.087  23.186  1.00  0.00    -0.376 OA
BRANCH   3   4
ATOM      4  C   UNL A   1      28.575  27.238  23.601  1.00  0.00     0.202 C 
BRANCH   4   5
ATOM      5  C   UNL A   1      29.070  26.003  24.380  1.00  0.00     0.261 C 
BRANCH   5   6
ATOM      6  O   UNL A   1      30.518  25.894  24.425  1.00  0.00    -0.463 OA
BRANCH   6   7
ATOM      7  C   UNL A   1      31.086  25.412  25.567  1.00  0.00     0.312 C 
ATOM      8  O   UNL A   1      30.708  25.738  26.691  1.00  0.00    -0.252 OA
BRANCH   7   9
ATOM      9  C   UNL A   1      32.338  24.506  25.351  1.00  0.00     0.071 C 
ATOM     10  C   UNL A   1      34.065  26.782  24.218  1.00  0.00    -0.011 C 
ATOM     11  C   UNL A   1      33.772  26.626  25.713  1.00  0.00     0.005 C 
ATOM     12  C   UNL A   1      33.207  25.888  23.309  1.00  0.00     0.005 C 
ATOM     13  C   UNL A   1      33.488  25.194  26.158  1.00  0.00     0.019 C 
ATOM     14  C   UNL A   1      32.827  24.514  23.873  1.00  0.00     0.019 C 
BRANCH  10  15
ATOM     15  C   UNL A   1      33.885  28.271  23.841  1.00  0.00    -0.000 C 
ATOM     16  C   UNL A   1      33.238  28.489  22.484  1.00  0.00     0.004 C 
ENDBRANCH  10  15
BRANCH   9  17
ATOM     17  C   UNL A   1      32.218  22.973  25.872  1.00  0.00     0.008 C 
ATOM     18  C   UNL A   1      31.635  21.887  24.925  1.00  0.00     0.005 C 
ATOM     19  C   UNL A   1      33.299  22.395  26.806  1.00  0.00     0.024 C 
ATOM     20  C   UNL A   1      32.437  20.618  24.598  1.00  0.00     0.002 C 
ATOM     21  C   UNL A   1      34.262  21.365  26.203  1.00  0.00     0.108 C 
ATOM     22  C   UNL A   1      33.545  20.208  25.554  1.00  0.00     0.020 C 
BRANCH  21  23
ATOM     23  S   UNL A   1      35.541  22.099  25.224  1.00  0.00     0.150 S 
ATOM     24  C   UNL A   1      36.894  20.956  25.059  1.00  0.00     0.158 C 
ATOM     25  O   UNL A   1      34.910  22.243  23.931  1.00  0.00    -0.229 OA
ATOM     26  O   UNL A   1      36.046  23.262  25.928  1.00  0.00    -0.229 OA
ENDBRANCH  21  23
ENDBRANCH   9  17
ENDBRANCH   7   9
ENDBRANCH   6   7
ENDBRANCH   5   6
ENDBRANCH   4   5
ENDBRANCH   3   4
ENDBRANCH   2   3
ENDBRANCH   1   2
BRANCH   1  27
ATOM     27  O   UNL A   1      30.992  29.774  24.978  1.00  0.00    -0.376 OA
BRANCH  27  28
ATOM     28  C   UNL A   1      31.650  30.592  25.931  1.00  0.00     0.202 C 
BRANCH  28  29
ATOM     29  C   UNL A   1      32.325  29.823  27.072  1.00  0.00     0.261 C 
BRANCH  29  30
ATOM     30  O   UNL A   1      33.759  29.831  27.006  1.00  0.00    -0.460 OA
BRANCH  30  31
ATOM     31  C   UNL A   1      34.401  30.846  27.633  1.00  0.00     0.338 C 
ATOM     32  O   UNL A   1      33.961  31.969  27.818  1.00  0.00    -0.246 OA
BRANCH  31  33
ATOM     33  C   UNL A   1      35.700  30.331  28.157  1.00  0.00     0.060 A 
ATOM     34  C   UNL A   1      35.707  29.569  29.332  1.00  0.00     0.016 A 
ATOM     35  C   UNL A   1      36.910  30.588  27.499  1.00  0.00     0.016 A 
ATOM     36  C   UNL A   1      36.918  29.129  29.884  1.00  0.00     0.010 A 
ATOM     37  C   UNL A   1      38.117  30.139  28.039  1.00  0.00     0.010 A 
ATOM     38  C   UNL A   1      38.133  29.450  29.262  1.00  0.00    -0.014 A 
BRANCH  38  39
ATOM     39  C   UNL A   1      39.425  29.335  29.989  1.00  0.00     0.031 A 
ATOM     40  C   UNL A   1      40.386  28.269  29.528  1.00  0.00     0.074 A 
ATOM     41  C   UNL A   1      39.740  30.104  31.048  1.00  0.00     0.049 A 
ATOM     42  N   UNL A   1      41.516  27.879  30.058  1.00  0.00    -0.248 NA
ATOM     43  C   UNL A   1      40.006  27.534  28.309  1.00  0.00     0.031 C 
ATOM     44  C   UNL A   1      38.919  31.181  31.591  1.00  0.00     0.029 A 
ATOM     45  N   UNL A   1      40.843  30.075  31.869  1.00  0.00    -0.354 N 
ATOM     46  C   UNL A   1      41.975  26.850  29.245  1.00  0.00     0.074 A 
ATOM     47  C   UNL A   1      40.990  26.656  28.203  1.00  0.00     0.031 C 
ATOM     48  C   UNL A   1      39.546  31.714  32.656  1.00  0.00     0.029 A 
ATOM     49  C   UNL A   1      40.789  30.981  32.903  1.00  0.00     0.049 A 
ATOM     50  H   UNL A   1      41.602  29.463  31.730  1.00  0.00     0.167 HD
ATOM     51  C   UNL A   1      43.116  26.129  29.347  1.00  0.00     0.037 A 
ATOM     52  C   UNL A   1      41.628  31.171  33.945  1.00  0.00     0.037 A 
ATOM     53  C   UNL A   1      44.091  26.301  30.389  1.00  0.00     0.049 A 
ATOM     54  C   UNL A   1      42.857  30.302  34.085  1.00  0.00     0.074 A 
ATOM     55  C   UNL A   1      45.275  25.611  30.580  1.00  0.00     0.029 A 
ATOM     56  N   UNL A   1      43.993  27.222  31.420  1.00  0.00    -0.354 N 
ATOM     57  N   UNL A   1      43.290  29.344  33.300  1.00  0.00    -0.248 NA
ATOM     58  C   UNL A   1      43.710  30.537  35.262  1.00  0.00     0.031 C 
ATOM     59  C   UNL A   1      45.869  26.082  31.754  1.00  0.00     0.029 A 
ATOM     60  C   UNL A   1      45.087  27.106  32.261  1.00  0.00     0.049 A 
ATOM     61  H   UNL A   1      43.255  27.863  31.538  1.00  0.00     0.167 HD
ATOM     62  C   UNL A   1      44.482  28.894  33.864  1.00  0.00     0.074 A 
ATOM     63  C   UNL A   1      44.704  29.681  35.058  1.00  0.00     0.031 C 
ATOM     64  C   UNL A   1      45.318  27.918  33.430  1.00  0.00     0.037 A 
BRANCH  51  65
ATOM     65  C   UNL A   1      43.350  25.063  28.315  1.00  0.00     0.058 A 
ATOM     66  C   UNL A   1      43.936  25.357  27.074  1.00  0.00     0.135 A 
ATOM     67  C   UNL A   1      42.990  23.731  28.576  1.00  0.00     0.135 A 
ATOM     68  F   UNL A   1      44.276  26.619  26.768  1.00  0.00    -0.206 F 
ATOM     69  C   UNL A   1      44.131  24.370  26.114  1.00  0.00     0.059 A 
ATOM     70  C   UNL A   1      43.203  22.724  27.640  1.00  0.00     0.059 A 
ATOM     71  F   UNL A   1      42.421  23.400  29.745  1.00  0.00    -0.206 F 
ATOM     72  C   UNL A   1      43.759  23.057  26.406  1.00  0.00     0.060 A 
BRANCH  72  73
ATOM     73  S   UNL A   1      44.013  21.789  25.147  1.00  0.00     0.124 S 
ATOM     74  O   UNL A   1      45.348  21.306  25.487  1.00  0.00    -0.237 OA
ATOM     75  O   UNL A   1      42.918  20.863  25.413  1.00  0.00    -0.237 OA
ATOM     76  O   UNL A   1      43.914  22.530  23.894  1.00  0.00    -0.744 OA
ENDBRANCH  72  73
ENDBRANCH  51  65
BRANCH  52  77
ATOM     77  C   UNL A   1      41.339  32.219  34.965  1.00  0.00     0.058 A 
ATOM     78  C   UNL A   1      40.546  31.935  36.087  1.00  0.00     0.135 A 
ATOM     79  C   UNL A   1      41.812  33.531  34.818  1.00  0.00     0.135 A 
ATOM     80  F   UNL A   1      40.052  30.700  36.263  1.00  0.00    -0.206 F 
ATOM     81  C   UNL A   1      40.215  32.917  37.016  1.00  0.00     0.059 A 
ATOM     82  C   UNL A   1      41.519  34.524  35.749  1.00  0.00     0.059 A 
ATOM     83  F   UNL A   1      42.577  33.858  33.765  1.00  0.00    -0.206 F 
ATOM     84  C   UNL A   1      40.709  34.210  36.839  1.00  0.00     0.060 A 
BRANCH  84  85
ATOM     85  S   UNL A   1      40.305  35.467  38.071  1.00  0.00     0.124 S 
ATOM     86  O   UNL A   1      38.957  35.072  38.464  1.00  0.00    -0.237 OA
ATOM     87  O   UNL A   1      41.348  35.261  39.070  1.00  0.00    -0.237 OA
ATOM     88  O   UNL A   1      40.403  36.717  37.321  1.00  0.00    -0.744 OA
ENDBRANCH  84  85
ENDBRANCH  52  77
BRANCH  64  89
ATOM     89  C   UNL A   1      46.594  27.678  34.194  1.00  0.00     0.058 A 
ATOM     90  C   UNL A   1      46.669  26.761  35.254  1.00  0.00     0.135 A 
ATOM     91  C   UNL A   1      47.783  28.311  33.793  1.00  0.00     0.135 A 
ATOM     92  F   UNL A   1      45.564  26.130  35.680  1.00  0.00    -0.206 F 
ATOM     93  C   UNL A   1      47.875  26.489  35.895  1.00  0.00     0.059 A 
ATOM     94  C   UNL A   1      49.003  28.034  34.401  1.00  0.00     0.059 A 
ATOM     95  F   UNL A   1      47.771  29.188  32.776  1.00  0.00    -0.206 F 
ATOM     96  C   UNL A   1      49.038  27.125  35.457  1.00  0.00     0.060 A 
BRANCH  96  97
ATOM     97  S   UNL A   1      50.605  26.719  36.259  1.00  0.00     0.124 S 
ATOM     98  O   UNL A   1      50.804  25.338  35.835  1.00  0.00    -0.237 OA
ATOM     99  O   UNL A   1      51.517  27.700  35.678  1.00  0.00    -0.237 OA
ATOM    100  O   UNL A   1      50.319  26.905  37.679  1.00  0.00    -0.744 OA
ENDBRANCH  96  97
ENDBRANCH  64  89
ENDBRANCH  38  39
ENDBRANCH  31  33
ENDBRANCH  30  31
ENDBRANCH  29  30
ENDBRANCH  28  29
ENDBRANCH  27  28
ENDBRANCH   1  27
TORSDOF 23
ENDMDL
MODEL 3
REMARK VINA RESULT:     -10.0      1.202      8.086
REMARK SMILES CC[C@H]1CC[C@](C(=O)OCCOCCOCCOC(=O)c2ccc(-c3c4nc(c(-c5c(F)cc(S(=O)(=O)[O-])cc5F)c5ccc([nH]5)c(-c5c(F)cc(S(=O)(=O)[O-])cc5F)c5nc(c(-c6c(F)cc(S(=O)(=O)[O-])cc6F)c6ccc3[nH]6)C=C5)C=C4)cc2)([C@H]2CCC[C@@H](S(C)(=O)=O)C2)CC1
REMARK SMILES IDX 14 1 13 2 12 3 11 4 10 5 9 6 7 7 8 8 6 9 3 10 98 11 4 12
REMARK SMILES IDX 97 13 5 14 2 15 1 16 87 17 88 18 96 19 89 20 91 21 90 22
REMARK SMILES IDX 92 23 93 24 94 25 95 26 15 27 16 28 17 29 18 30 19 31 20 32
REMARK SMILES IDX 21 33 22 34 86 35 23 36 85 37 24 38 25 39 26 40 79 41 27 42
REMARK SMILES IDX 84 43 78 44 80 45 28 46 83 47 77 48 76 49 29 51 63 52 42 53
REMARK SMILES IDX 62 54 43 55 46 56 61 57 81 58 44 59 45 60 60 62 82 63 47 64
REMARK SMILES IDX 30 65 31 66 40 67 32 68 33 69 39 70 41 71 34 72 35 73 36 74
REMARK SMILES IDX 37 75 38 76 64 77 65 78 74 79 66 80 67 81 73 82 75 83 68 84
REMARK SMILES IDX 69 85 70 86 71 87 72 88 48 89 49 90 58 91 50 92 51 93 57 94
REMARK SMILES IDX 59 95 52 96 53 97 54 98 55 99 56 100
REMARK H PARENT 80 50 46 61
REMARK Flexibility Score: inf
ROOT
ATOM      1  C   UNL A   1      40.312  21.315  26.127  1.00  0.00     0.188 C 
ENDROOT
BRANCH   1   2
ATOM      2  C   UNL A   1      38.850  21.657  25.802  1.00  0.00     0.188 C 
BRANCH   2   3
ATOM      3  O   UNL A   1      38.310  22.819  26.448  1.00  0.00    -0.376 OA
BRANCH   3   4
ATOM      4  C   UNL A   1      37.654  23.730  25.563  1.00  0.00     0.202 C 
BRANCH   4   5
ATOM      5  C   UNL A   1      36.330  23.164  25.010  1.00  0.00     0.261 C 
BRANCH   5   6
ATOM      6  O   UNL A   1      35.541  24.148  24.289  1.00  0.00    -0.463 OA
BRANCH   6   7
ATOM      7  C   UNL A   1      34.321  24.481  24.796  1.00  0.00     0.312 C 
ATOM      8  O   UNL A   1      34.098  24.569  26.002  1.00  0.00    -0.252 OA
BRANCH   7   9
ATOM      9  C   UNL A   1      33.184  24.625  23.737  1.00  0.00     0.071 C 
ATOM     10  C   UNL A   1      32.030  21.826  24.268  1.00  0.00    -0.011 C 
ATOM     11  C   UNL A   1      31.792  23.015  25.204  1.00  0.00     0.005 C 
ATOM     12  C   UNL A   1      33.112  22.067  23.203  1.00  0.00     0.005 C 
ATOM     13  C   UNL A   1      31.854  24.380  24.525  1.00  0.00     0.019 C 
ATOM     14  C   UNL A   1      33.225  23.498  22.664  1.00  0.00     0.019 C 
BRANCH  10  15
ATOM     15  C   UNL A   1      32.384  20.592  25.131  1.00  0.00    -0.000 C 
ATOM     16  C   UNL A   1      33.595  20.792  26.025  1.00  0.00     0.004 C 
ENDBRANCH  10  15
BRANCH   9  17
ATOM     17  C   UNL A   1      33.062  26.068  23.001  1.00  0.00     0.008 C 
ATOM     18  C   UNL A   1      31.741  26.444  22.272  1.00  0.00     0.005 C 
ATOM     19  C   UNL A   1      33.744  27.303  23.619  1.00  0.00     0.024 C 
ATOM     20  C   UNL A   1      30.982  27.729  22.636  1.00  0.00     0.002 C 
ATOM     21  C   UNL A   1      32.831  28.352  24.266  1.00  0.00     0.108 C 
ATOM     22  C   UNL A   1      31.752  28.840  23.332  1.00  0.00     0.020 C 
BRANCH  21  23
ATOM     23  S   UNL A   1      32.273  27.889  25.881  1.00  0.00     0.150 S 
ATOM     24  C   UNL A   1      31.913  29.350  26.828  1.00  0.00     0.158 C 
ATOM     25  O   UNL A   1      31.028  27.209  25.604  1.00  0.00    -0.229 OA
ATOM     26  O   UNL A   1      33.353  27.196  26.556  1.00  0.00    -0.229 OA
ENDBRANCH  21  23
ENDBRANCH   9  17
ENDBRANCH   7   9
ENDBRANCH   6   7
ENDBRANCH   5   6
ENDBRANCH   4   5
ENDBRANCH   3   4
ENDBRANCH   2   3
ENDBRANCH   1   2
BRANCH   1  27
ATOM     27  O   UNL A   1      41.069  22.403  26.646  1.00  0.00    -0.376 OA
BRANCH  27  28
ATOM     28  C   UNL A   1      42.182  22.856  25.892  1.00  0.00     0.202 C 
BRANCH  28  29
ATOM     29  C   UNL A   1      43.049  23.901  26.601  1.00  0.00     0.261 C 
BRANCH  29  30
ATOM     30  O   UNL A   1      43.101  25.166  25.925  1.00  0.00    -0.460 OA
BRANCH  30  31
ATOM     31  C   UNL A   1      42.020  25.974  26.042  1.00  0.00     0.338 C 
ATOM     32  O   UNL A   1      41.175  26.172  25.184  1.00  0.00    -0.246 OA
BRANCH  31  33
ATOM     33  C   UNL A   1      41.972  26.502  27.437  1.00  0.00     0.060 A 
ATOM     34  C   UNL A   1      40.950  26.074  28.294  1.00  0.00     0.016 A 
ATOM     35  C   UNL A   1      42.929  27.411  27.910  1.00  0.00     0.016 A 
ATOM     36  C   UNL A   1      40.842  26.605  29.587  1.00  0.00     0.010 A 
ATOM     37  C   UNL A   1      42.832  27.929  29.203  1.00  0.00     0.010 A 
ATOM     38  C   UNL A   1      41.758  27.569  30.032  1.00  0.00    -0.014 A 
BRANCH  38  39
ATOM     39  C   UNL A   1      41.470  28.414  31.221  1.00  0.00     0.031 A 
ATOM     40  C   UNL A   1      40.343  29.408  31.106  1.00  0.00     0.074 A 
ATOM     41  C   UNL A   1      42.193  28.352  32.355  1.00  0.00     0.049 A 
ATOM     42  N   UNL A   1      39.965  30.340  31.942  1.00  0.00    -0.248 NA
ATOM     43  C   UNL A   1      39.546  29.348  29.869  1.00  0.00     0.031 C 
ATOM     44  C   UNL A   1      43.296  27.432  32.612  1.00  0.00     0.029 A 
ATOM     45  N   UNL A   1      42.109  29.106  33.503  1.00  0.00    -0.354 N 
ATOM     46  C   UNL A   1      38.896  30.981  31.328  1.00  0.00     0.074 A 
ATOM     47  C   UNL A   1      38.702  30.353  30.040  1.00  0.00     0.031 C 
ATOM     48  C   UNL A   1      43.788  27.671  33.841  1.00  0.00     0.029 A 
ATOM     49  C   UNL A   1      43.069  28.799  34.439  1.00  0.00     0.049 A 
ATOM     50  H   UNL A   1      41.426  29.801  33.642  1.00  0.00     0.167 HD
ATOM     51  C   UNL A   1      38.135  32.000  31.792  1.00  0.00     0.037 A 
ATOM     52  C   UNL A   1      43.355  29.382  35.623  1.00  0.00     0.037 A 
ATOM     53  C   UNL A   1      38.331  32.643  33.062  1.00  0.00     0.049 A 
ATOM     54  C   UNL A   1      42.544  30.570  36.088  1.00  0.00     0.074 A 
ATOM     55  C   UNL A   1      37.616  33.691  33.615  1.00  0.00     0.029 A 
ATOM     56  N   UNL A   1      39.319  32.308  33.975  1.00  0.00    -0.354 N 
ATOM     57  N   UNL A   1      41.523  31.156  35.507  1.00  0.00    -0.248 NA
ATOM     58  C   UNL A   1      42.929  31.183  37.370  1.00  0.00     0.031 C 
ATOM     59  C   UNL A   1      38.201  34.021  34.841  1.00  0.00     0.029 A 
ATOM     60  C   UNL A   1      39.243  33.140  35.079  1.00  0.00     0.049 A 
ATOM     61  H   UNL A   1      39.978  31.586  33.856  1.00  0.00     0.167 HD
ATOM     62  C   UNL A   1      41.122  32.174  36.371  1.00  0.00     0.074 A 
ATOM     63  C   UNL A   1      42.009  32.128  37.513  1.00  0.00     0.031 C 
ATOM     64  C   UNL A   1      40.108  33.065  36.230  1.00  0.00     0.037 A 
BRANCH  51  65
ATOM     65  C   UNL A   1      37.038  32.500  30.898  1.00  0.00     0.058 A 
ATOM     66  C   UNL A   1      35.732  31.992  30.981  1.00  0.00     0.135 A 
ATOM     67  C   UNL A   1      37.295  33.506  29.952  1.00  0.00     0.135 A 
ATOM     68  F   UNL A   1      35.440  31.013  31.852  1.00  0.00    -0.206 F 
ATOM     69  C   UNL A   1      34.724  32.443  30.135  1.00  0.00     0.059 A 
ATOM     70  C   UNL A   1      36.294  33.991  29.116  1.00  0.00     0.059 A 
ATOM     71  F   UNL A   1      38.528  34.020  29.830  1.00  0.00    -0.206 F 
ATOM     72  C   UNL A   1      35.016  33.442  29.205  1.00  0.00     0.060 A 
BRANCH  72  73
ATOM     73  S   UNL A   1      33.699  34.013  28.111  1.00  0.00     0.124 S 
ATOM     74  O   UNL A   1      33.177  32.749  27.601  1.00  0.00    -0.237 OA
ATOM     75  O   UNL A   1      32.825  34.735  29.028  1.00  0.00    -0.237 OA
ATOM     76  O   UNL A   1      34.401  34.840  27.136  1.00  0.00    -0.744 OA
ENDBRANCH  72  73
ENDBRANCH  51  65
BRANCH  52  77
ATOM     77  C   UNL A   1      44.475  28.874  36.464  1.00  0.00     0.058 A 
ATOM     78  C   UNL A   1      45.743  29.476  36.419  1.00  0.00     0.135 A 
ATOM     79  C   UNL A   1      44.316  27.755  37.296  1.00  0.00     0.135 A 
ATOM     80  F   UNL A   1      45.953  30.536  35.625  1.00  0.00    -0.206 F 
ATOM     81  C   UNL A   1      46.816  28.975  37.150  1.00  0.00     0.059 A 
ATOM     82  C   UNL A   1      45.367  27.254  38.059  1.00  0.00     0.059 A 
ATOM     83  F   UNL A   1      43.125  27.143  37.379  1.00  0.00    -0.206 F 
ATOM     84  C   UNL A   1      46.617  27.864  37.970  1.00  0.00     0.060 A 
BRANCH  84  85
ATOM     85  S   UNL A   1      48.007  27.246  38.944  1.00  0.00     0.124 S 
ATOM     86  O   UNL A   1      48.239  28.356  39.862  1.00  0.00    -0.237 OA
ATOM     87  O   UNL A   1      47.451  26.034  39.536  1.00  0.00    -0.237 OA
ATOM     88  O   UNL A   1      49.048  27.026  37.944  1.00  0.00    -0.744 OA
ENDBRANCH  84  85
ENDBRANCH  52  77
BRANCH  64  89
ATOM     89  C   UNL A   1      39.839  34.025  37.359  1.00  0.00     0.058 A 
ATOM     90  C   UNL A   1      39.008  33.693  38.440  1.00  0.00     0.135 A 
ATOM     91  C   UNL A   1      40.502  35.264  37.401  1.00  0.00     0.135 A 
ATOM     92  F   UNL A   1      38.348  32.524  38.450  1.00  0.00    -0.206 F 
ATOM     93  C   UNL A   1      38.836  34.558  39.517  1.00  0.00     0.059 A 
ATOM     94  C   UNL A   1      40.366  36.132  38.479  1.00  0.00     0.059 A 
ATOM     95  F   UNL A   1      41.319  35.626  36.399  1.00  0.00    -0.206 F 
ATOM     96  C   UNL A   1      39.524  35.773  39.531  1.00  0.00     0.060 A 
BRANCH  96  97
ATOM     97  S   UNL A   1      39.337  36.861  40.961  1.00  0.00     0.124 S 
ATOM     98  O   UNL A   1      40.723  37.220  41.241  1.00  0.00    -0.237 OA
ATOM     99  O   UNL A   1      38.499  37.933  40.431  1.00  0.00    -0.237 OA
ATOM    100  O   UNL A   1      38.696  36.008  41.957  1.00  0.00    -0.744 OA
ENDBRANCH  96  97
ENDBRANCH  64  89
ENDBRANCH  38  39
ENDBRANCH  31  33
ENDBRANCH  30  31
ENDBRANCH  29  30
ENDBRANCH  28  29
ENDBRANCH  27  28
ENDBRANCH   1  27
TORSDOF 23
ENDMDL
