MODEL 1
REMARK VINA RESULT:     -12.7      0.000      0.000
REMARK SMILES Cc1ccc(-c2cn3c(n2)sc2cc(C(=O)OCCOCCOCCOC(=O)c4ccc(-c5c6nc(c(-c7c(F)cc(S(=O)(=O)[O-])cc7F)c7ccc([nH]7)c(-c7c(F)cc(S(=O)(=O)[O-])cc7F)c7nc(c(-c8c(F)cc(S(=O)(=O)[O-])cc8F)c8ccc5[nH]8)C=C7)C=C6)cc4)ccc23)cc1
REMARK SMILES IDX 22 1 21 2 20 3 19 4 18 5 17 6 15 7 16 8 14 9 6 10 7 11 10 12
REMARK SMILES IDX 8 13 9 14 97 15 11 16 12 17 96 18 13 19 95 20 5 21 1 22 2 23
REMARK SMILES IDX 3 24 99 25 4 26 98 27 23 28 24 29 25 30 26 31 27 32 28 33
REMARK SMILES IDX 29 34 30 35 94 36 31 37 93 38 32 39 33 40 34 41 87 42 35 43
REMARK SMILES IDX 92 44 86 45 88 46 36 47 91 48 85 49 84 50 37 52 71 53 50 54
REMARK SMILES IDX 70 55 51 56 54 57 69 58 89 59 52 60 53 61 68 63 90 64 55 65
REMARK SMILES IDX 38 66 39 67 48 68 40 69 41 70 47 71 49 72 42 73 43 74 44 75
REMARK SMILES IDX 45 76 46 77 72 78 73 79 82 80 74 81 75 82 81 83 83 84 76 85
REMARK SMILES IDX 77 86 78 87 79 88 80 89 56 90 57 91 66 92 58 93 59 94 65 95
REMARK SMILES IDX 67 96 60 97 61 98 62 99 63 100 64 101
REMARK H PARENT 88 51 54 62
REMARK Flexibility Score: inf
ROOT
ATOM      1  C   UNL A   1      33.893  34.865  29.383  1.00  0.00     0.188 C 
ENDROOT
BRANCH   1   2
ATOM      2  C   UNL A   1      34.911  34.043  28.597  1.00  0.00     0.188 C 
BRANCH   2   3
ATOM      3  O   UNL A   1      34.570  33.075  27.599  1.00  0.00    -0.376 OA
BRANCH   3   4
ATOM      4  C   UNL A   1      33.966  31.779  27.766  1.00  0.00     0.202 C 
BRANCH   4   5
ATOM      5  C   UNL A   1      34.523  30.161  27.457  1.00  0.00     0.261 C 
BRANCH   5   6
ATOM      6  O   UNL A   1      33.611  28.637  27.211  1.00  0.00    -0.460 OA
BRANCH   6   7
ATOM      7  C   UNL A   1      32.442  27.757  26.967  1.00  0.00     0.338 C 
ATOM      8  O   UNL A   1      31.527  27.776  27.808  1.00  0.00    -0.246 OA
BRANCH   7   9
ATOM      9  C   UNL A   1      31.924  26.692  25.847  1.00  0.00     0.061 A 
ATOM     10  C   UNL A   1      34.210  23.116  23.508  1.00  0.00     0.090 A 
ATOM     11  C   UNL A   1      32.957  22.700  23.952  1.00  0.00     0.123 A 
ATOM     12  N   UNL A   1      34.099  23.870  22.354  1.00  0.00    -0.219 NA
ATOM     13  N   UNL A   1      32.139  23.647  23.395  1.00  0.00    -0.290 N 
ATOM     14  C   UNL A   1      32.823  24.184  22.320  1.00  0.00     0.195 A 
ATOM     15  C   UNL A   1      31.287  24.538  24.097  1.00  0.00     0.065 A 
ATOM     16  S   UNL A   1      32.154  25.730  21.852  1.00  0.00    -0.096 S 
ATOM     17  C   UNL A   1      31.502  25.778  23.551  1.00  0.00     0.056 A 
ATOM     18  C   UNL A   1      31.014  24.409  25.454  1.00  0.00     0.029 A 
ATOM     19  C   UNL A   1      31.895  26.777  24.433  1.00  0.00     0.037 A 
ATOM     20  C   UNL A   1      31.323  25.494  26.312  1.00  0.00     0.018 A 
BRANCH  10  21
ATOM     21  C   UNL A   1      35.420  23.037  24.315  1.00  0.00     0.002 A 
ATOM     22  C   UNL A   1      39.099  23.056  26.590  1.00  0.00     0.044 C 
ATOM     23  C   UNL A   1      37.828  23.048  25.794  1.00  0.00    -0.051 A 
ATOM     24  C   UNL A   1      36.849  24.009  26.041  1.00  0.00     0.004 A 
ATOM     25  C   UNL A   1      37.592  22.076  24.812  1.00  0.00     0.004 A 
ATOM     26  C   UNL A   1      35.662  24.006  25.308  1.00  0.00     0.010 A 
ATOM     27  C   UNL A   1      36.410  22.090  24.056  1.00  0.00     0.010 A 
ENDBRANCH  10  21
ENDBRANCH   7   9
ENDBRANCH   6   7
ENDBRANCH   5   6
ENDBRANCH   4   5
ENDBRANCH   3   4
ENDBRANCH   2   3
ENDBRANCH   1   2
BRANCH   1  28
ATOM     28  O   UNL A   1      33.502  34.330  30.642  1.00  0.00    -0.376 OA
BRANCH  28  29
ATOM     29  C   UNL A   1      34.017  34.958  31.827  1.00  0.00     0.202 C 
BRANCH  29  30
ATOM     30  C   UNL A   1      35.438  34.611  32.386  1.00  0.00     0.261 C 
BRANCH  30  31
ATOM     31  O   UNL A   1      36.027  33.423  31.812  1.00  0.00    -0.460 OA
BRANCH  31  32
ATOM     32  C   UNL A   1      36.287  32.365  32.647  1.00  0.00     0.338 C 
ATOM     33  O   UNL A   1      35.979  32.309  33.843  1.00  0.00    -0.246 OA
BRANCH  32  34
ATOM     34  C   UNL A   1      36.490  31.152  31.831  1.00  0.00     0.060 A 
ATOM     35  C   UNL A   1      36.874  29.916  32.345  1.00  0.00     0.016 A 
ATOM     36  C   UNL A   1      36.482  31.334  30.456  1.00  0.00     0.016 A 
ATOM     37  C   UNL A   1      37.641  29.085  31.532  1.00  0.00     0.010 A 
ATOM     38  C   UNL A   1      37.306  30.544  29.688  1.00  0.00     0.010 A 
ATOM     39  C   UNL A   1      38.127  29.637  30.343  1.00  0.00    -0.014 A 
BRANCH  39  40
ATOM     40  C   UNL A   1      39.603  29.617  29.975  1.00  0.00     0.031 A 
ATOM     41  C   UNL A   1      40.082  28.251  29.055  1.00  0.00     0.074 A 
ATOM     42  C   UNL A   1      40.357  30.733  30.468  1.00  0.00     0.049 A 
ATOM     43  N   UNL A   1      40.831  27.283  29.551  1.00  0.00    -0.248 NA
ATOM     44  C   UNL A   1      39.697  27.826  27.696  1.00  0.00     0.031 C 
ATOM     45  C   UNL A   1      41.763  31.243  30.291  1.00  0.00     0.029 A 
ATOM     46  N   UNL A   1      39.922  31.787  31.278  1.00  0.00    -0.354 N 
ATOM     47  C   UNL A   1      41.338  26.437  28.630  1.00  0.00     0.074 A 
ATOM     48  C   UNL A   1      40.467  26.726  27.489  1.00  0.00     0.031 C 
ATOM     49  C   UNL A   1      42.048  32.404  30.857  1.00  0.00     0.029 A 
ATOM     50  C   UNL A   1      40.990  32.554  31.766  1.00  0.00     0.049 A 
ATOM     51  H   UNL A   1      38.976  31.968  31.482  1.00  0.00     0.167 HD
ATOM     52  C   UNL A   1      42.559  25.803  28.827  1.00  0.00     0.037 A 
ATOM     53  C   UNL A   1      41.325  32.516  33.076  1.00  0.00     0.037 A 
ATOM     54  C   UNL A   1      43.523  26.452  29.858  1.00  0.00     0.049 A 
ATOM     55  C   UNL A   1      42.371  31.408  33.516  1.00  0.00     0.074 A 
ATOM     56  C   UNL A   1      44.693  27.197  29.638  1.00  0.00     0.029 A 
ATOM     57  N   UNL A   1      43.302  26.646  31.248  1.00  0.00    -0.354 N 
ATOM     58  N   UNL A   1      42.982  30.498  32.748  1.00  0.00    -0.248 NA
ATOM     59  C   UNL A   1      42.860  31.309  34.889  1.00  0.00     0.031 C 
ATOM     60  C   UNL A   1      44.999  28.001  30.782  1.00  0.00     0.029 A 
ATOM     61  C   UNL A   1      44.085  27.729  31.786  1.00  0.00     0.049 A 
ATOM     62  H   UNL A   1      42.683  26.100  31.784  1.00  0.00     0.167 HD
ATOM     63  C   UNL A   1      43.645  29.538  33.543  1.00  0.00     0.074 A 
ATOM     64  C   UNL A   1      43.675  30.236  34.832  1.00  0.00     0.031 C 
ATOM     65  C   UNL A   1      44.028  28.217  33.217  1.00  0.00     0.037 A 
BRANCH  52  66
ATOM     66  C   UNL A   1      43.045  24.823  27.755  1.00  0.00     0.058 A 
ATOM     67  C   UNL A   1      43.840  25.194  26.649  1.00  0.00     0.135 A 
ATOM     68  C   UNL A   1      42.812  23.431  27.860  1.00  0.00     0.135 A 
ATOM     69  F   UNL A   1      44.225  26.458  26.444  1.00  0.00    -0.206 F 
ATOM     70  C   UNL A   1      44.325  24.272  25.712  1.00  0.00     0.059 A 
ATOM     71  C   UNL A   1      43.256  22.495  26.921  1.00  0.00     0.059 A 
ATOM     72  F   UNL A   1      42.201  22.912  28.936  1.00  0.00    -0.206 F 
ATOM     73  C   UNL A   1      44.034  22.923  25.858  1.00  0.00     0.060 A 
BRANCH  73  74
ATOM     74  S   UNL A   1      44.828  21.731  24.762  1.00  0.00     0.124 S 
ATOM     75  O   UNL A   1      44.207  20.477  25.174  1.00  0.00    -0.237 OA
ATOM     76  O   UNL A   1      44.447  22.231  23.444  1.00  0.00    -0.237 OA
ATOM     77  O   UNL A   1      46.246  21.863  25.086  1.00  0.00    -0.744 OA
ENDBRANCH  73  74
ENDBRANCH  52  66
BRANCH  53  78
ATOM     78  C   UNL A   1      40.347  33.522  33.645  1.00  0.00     0.058 A 
ATOM     79  C   UNL A   1      39.475  32.963  34.642  1.00  0.00     0.135 A 
ATOM     80  C   UNL A   1      40.792  34.831  33.921  1.00  0.00     0.135 A 
ATOM     81  F   UNL A   1      39.032  31.701  34.489  1.00  0.00    -0.206 F 
ATOM     82  C   UNL A   1      39.314  33.529  35.915  1.00  0.00     0.059 A 
ATOM     83  C   UNL A   1      40.569  35.448  35.171  1.00  0.00     0.059 A 
ATOM     84  F   UNL A   1      41.640  35.439  33.078  1.00  0.00    -0.206 F 
ATOM     85  C   UNL A   1      39.903  34.757  36.186  1.00  0.00     0.060 A 
BRANCH  85  86
ATOM     86  S   UNL A   1      39.938  35.343  37.908  1.00  0.00     0.124 S 
ATOM     87  O   UNL A   1      39.541  36.736  37.764  1.00  0.00    -0.237 OA
ATOM     88  O   UNL A   1      38.968  34.462  38.555  1.00  0.00    -0.237 OA
ATOM     89  O   UNL A   1      41.327  35.109  38.291  1.00  0.00    -0.744 OA
ENDBRANCH  85  86
ENDBRANCH  53  78
BRANCH  65  90
ATOM     90  C   UNL A   1      44.519  27.182  34.276  1.00  0.00     0.058 A 
ATOM     91  C   UNL A   1      45.863  26.937  34.623  1.00  0.00     0.135 A 
ATOM     92  C   UNL A   1      43.588  26.446  35.065  1.00  0.00     0.135 A 
ATOM     93  F   UNL A   1      46.867  27.678  34.137  1.00  0.00    -0.206 F 
ATOM     94  C   UNL A   1      46.254  25.950  35.542  1.00  0.00     0.059 A 
ATOM     95  C   UNL A   1      43.954  25.518  36.046  1.00  0.00     0.059 A 
ATOM     96  F   UNL A   1      42.263  26.603  34.930  1.00  0.00    -0.206 F 
ATOM     97  C   UNL A   1      45.293  25.235  36.241  1.00  0.00     0.060 A 
BRANCH  97  98
ATOM     98  S   UNL A   1      45.798  23.989  37.443  1.00  0.00     0.124 S 
ATOM     99  O   UNL A   1      47.217  24.294  37.600  1.00  0.00    -0.237 OA
ATOM    100  O   UNL A   1      44.955  24.295  38.595  1.00  0.00    -0.237 OA
ATOM    101  O   UNL A   1      45.495  22.729  36.772  1.00  0.00    -0.744 OA
ENDBRANCH  97  98
ENDBRANCH  65  90
ENDBRANCH  39  40
ENDBRANCH  32  34
ENDBRANCH  31  32
ENDBRANCH  30  31
ENDBRANCH  29  30
ENDBRANCH  28  29
ENDBRANCH   1  28
TORSDOF 21
ENDMDL
MODEL 2
REMARK VINA RESULT:     -12.4      4.207     11.063
REMARK SMILES Cc1ccc(-c2cn3c(n2)sc2cc(C(=O)OCCOCCOCCOC(=O)c4ccc(-c5c6nc(c(-c7c(F)cc(S(=O)(=O)[O-])cc7F)c7ccc([nH]7)c(-c7c(F)cc(S(=O)(=O)[O-])cc7F)c7nc(c(-c8c(F)cc(S(=O)(=O)[O-])cc8F)c8ccc5[nH]8)C=C7)C=C6)cc4)ccc23)cc1
REMARK SMILES IDX 22 1 21 2 20 3 19 4 18 5 17 6 15 7 16 8 14 9 6 10 7 11 10 12
REMARK SMILES IDX 8 13 9 14 97 15 11 16 12 17 96 18 13 19 95 20 5 21 1 22 2 23
REMARK SMILES IDX 3 24 99 25 4 26 98 27 23 28 24 29 25 30 26 31 27 32 28 33
REMARK SMILES IDX 29 34 30 35 94 36 31 37 93 38 32 39 33 40 34 41 87 42 35 43
REMARK SMILES IDX 92 44 86 45 88 46 36 47 91 48 85 49 84 50 37 52 71 53 50 54
REMARK SMILES IDX 70 55 51 56 54 57 69 58 89 59 52 60 53 61 68 63 90 64 55 65
REMARK SMILES IDX 38 66 39 67 48 68 40 69 41 70 47 71 49 72 42 73 43 74 44 75
REMARK SMILES IDX 45 76 46 77 72 78 73 79 82 80 74 81 75 82 81 83 83 84 76 85
REMARK SMILES IDX 77 86 78 87 79 88 80 89 56 90 57 91 66 92 58 93 59 94 65 95
REMARK SMILES IDX 67 96 60 97 61 98 62 99 63 100 64 101
REMARK H PARENT 88 51 54 62
REMARK Flexibility Score: inf
ROOT
ATOM      1  C   UNL A   1      43.045  20.720  26.127  1.00  0.00     0.188 C 
ENDROOT
BRANCH   1   2
ATOM      2  C   UNL A   1      42.618  19.308  25.734  1.00  0.00     0.188 C 
BRANCH   2   3
ATOM      3  O   UNL A   1      41.266  18.835  25.763  1.00  0.00    -0.376 OA
BRANCH   3   4
ATOM      4  C   UNL A   1      40.043  19.589  25.669  1.00  0.00     0.202 C 
BRANCH   4   5
ATOM      5  C   UNL A   1      39.526  21.101  26.354  1.00  0.00     0.261 C 
BRANCH   5   6
ATOM      6  O   UNL A   1      38.194  22.205  25.881  1.00  0.00    -0.460 OA
BRANCH   6   7
ATOM      7  C   UNL A   1      37.336  23.414  25.903  1.00  0.00     0.338 C 
ATOM      8  O   UNL A   1      37.877  24.494  26.198  1.00  0.00    -0.246 OA
BRANCH   7   9
ATOM      9  C   UNL A   1      35.780  23.817  25.628  1.00  0.00     0.061 A 
ATOM     10  C   UNL A   1      32.092  21.303  23.742  1.00  0.00     0.090 A 
ATOM     11  C   UNL A   1      31.690  22.001  24.878  1.00  0.00     0.123 A 
ATOM     12  N   UNL A   1      32.152  22.140  22.643  1.00  0.00    -0.219 NA
ATOM     13  N   UNL A   1      32.053  23.282  24.557  1.00  0.00    -0.290 N 
ATOM     14  C   UNL A   1      32.133  23.341  23.177  1.00  0.00     0.195 A 
ATOM     15  C   UNL A   1      32.970  24.098  25.268  1.00  0.00     0.065 A 
ATOM     16  S   UNL A   1      33.079  24.715  22.656  1.00  0.00    -0.096 S 
ATOM     17  C   UNL A   1      33.805  24.642  24.324  1.00  0.00     0.056 A 
ATOM     18  C   UNL A   1      33.459  23.764  26.525  1.00  0.00     0.029 A 
ATOM     19  C   UNL A   1      35.163  24.404  24.496  1.00  0.00     0.037 A 
ATOM     20  C   UNL A   1      34.861  23.641  26.695  1.00  0.00     0.018 A 
BRANCH  10  21
ATOM     21  C   UNL A   1      32.670  19.966  23.779  1.00  0.00     0.002 A 
ATOM     22  C   UNL A   1      34.633  16.111  23.774  1.00  0.00     0.044 C 
ATOM     23  C   UNL A   1      33.952  17.448  23.767  1.00  0.00    -0.051 A 
ATOM     24  C   UNL A   1      34.400  18.459  24.616  1.00  0.00     0.004 A 
ATOM     25  C   UNL A   1      32.854  17.699  22.933  1.00  0.00     0.004 A 
ATOM     26  C   UNL A   1      33.770  19.703  24.618  1.00  0.00     0.010 A 
ATOM     27  C   UNL A   1      32.238  18.959  22.916  1.00  0.00     0.010 A 
ENDBRANCH  10  21
ENDBRANCH   7   9
ENDBRANCH   6   7
ENDBRANCH   5   6
ENDBRANCH   4   5
ENDBRANCH   3   4
ENDBRANCH   2   3
ENDBRANCH   1   2
BRANCH   1  28
ATOM     28  O   UNL A   1      43.171  21.651  25.059  1.00  0.00    -0.376 OA
BRANCH  28  29
ATOM     29  C   UNL A   1      42.865  23.027  25.330  1.00  0.00     0.202 C 
BRANCH  29  30
ATOM     30  C   UNL A   1      42.296  23.483  26.716  1.00  0.00     0.261 C 
BRANCH  30  31
ATOM     31  O   UNL A   1      42.908  24.681  27.243  1.00  0.00    -0.460 OA
BRANCH  31  32
ATOM     32  C   UNL A   1      43.004  25.773  26.418  1.00  0.00     0.338 C 
ATOM     33  O   UNL A   1      43.802  25.890  25.482  1.00  0.00    -0.246 OA
BRANCH  32  34
ATOM     34  C   UNL A   1      41.729  26.516  26.460  1.00  0.00     0.060 A 
ATOM     35  C   UNL A   1      41.535  27.773  25.895  1.00  0.00     0.016 A 
ATOM     36  C   UNL A   1      40.745  25.991  27.285  1.00  0.00     0.016 A 
ATOM     37  C   UNL A   1      40.618  28.625  26.507  1.00  0.00     0.010 A 
ATOM     38  C   UNL A   1      39.901  26.865  27.932  1.00  0.00     0.010 A 
ATOM     39  C   UNL A   1      40.113  28.224  27.747  1.00  0.00    -0.014 A 
BRANCH  39  40
ATOM     40  C   UNL A   1      40.179  29.109  28.983  1.00  0.00     0.031 A 
ATOM     41  C   UNL A   1      38.757  30.021  29.275  1.00  0.00     0.074 A 
ATOM     42  C   UNL A   1      41.423  29.047  29.695  1.00  0.00     0.049 A 
ATOM     43  N   UNL A   1      38.701  31.329  29.104  1.00  0.00    -0.248 NA
ATOM     44  C   UNL A   1      37.389  29.586  29.612  1.00  0.00     0.031 C 
ATOM     45  C   UNL A   1      41.945  29.600  30.994  1.00  0.00     0.029 A 
ATOM     46  N   UNL A   1      42.578  28.332  29.367  1.00  0.00    -0.354 N 
ATOM     47  C   UNL A   1      37.609  31.918  29.635  1.00  0.00     0.074 A 
ATOM     48  C   UNL A   1      36.732  30.759  29.807  1.00  0.00     0.031 C 
ATOM     49  C   UNL A   1      43.159  29.218  31.356  1.00  0.00     0.029 A 
ATOM     50  C   UNL A   1      43.676  28.711  30.154  1.00  0.00     0.049 A 
ATOM     51  H   UNL A   1      42.617  27.644  28.664  1.00  0.00     0.167 HD
ATOM     52  C   UNL A   1      37.651  33.225  30.108  1.00  0.00     0.037 A 
ATOM     53  C   UNL A   1      44.706  29.402  29.614  1.00  0.00     0.037 A 
ATOM     54  C   UNL A   1      39.054  33.794  30.459  1.00  0.00     0.049 A 
ATOM     55  C   UNL A   1      44.593  30.983  29.625  1.00  0.00     0.074 A 
ATOM     56  C   UNL A   1      39.635  34.018  31.717  1.00  0.00     0.029 A 
ATOM     57  N   UNL A   1      40.156  33.984  29.582  1.00  0.00    -0.354 N 
ATOM     58  N   UNL A   1      43.599  31.737  30.113  1.00  0.00    -0.248 NA
ATOM     59  C   UNL A   1      45.669  31.839  29.132  1.00  0.00     0.031 C 
ATOM     60  C   UNL A   1      41.061  34.080  31.608  1.00  0.00     0.029 A 
ATOM     61  C   UNL A   1      41.420  33.979  30.274  1.00  0.00     0.049 A 
ATOM     62  H   UNL A   1      40.066  34.106  28.610  1.00  0.00     0.167 HD
ATOM     63  C   UNL A   1      43.750  33.081  29.712  1.00  0.00     0.074 A 
ATOM     64  C   UNL A   1      45.152  33.075  29.283  1.00  0.00     0.031 C 
ATOM     65  C   UNL A   1      42.774  34.100  29.613  1.00  0.00     0.037 A 
BRANCH  52  66
ATOM     66  C   UNL A   1      36.358  33.838  30.654  1.00  0.00     0.058 A 
ATOM     67  C   UNL A   1      36.142  34.138  32.017  1.00  0.00     0.135 A 
ATOM     68  C   UNL A   1      35.311  34.251  29.797  1.00  0.00     0.135 A 
ATOM     69  F   UNL A   1      37.065  33.891  32.953  1.00  0.00    -0.206 F 
ATOM     70  C   UNL A   1      34.976  34.754  32.489  1.00  0.00     0.059 A 
ATOM     71  C   UNL A   1      34.124  34.837  30.246  1.00  0.00     0.059 A 
ATOM     72  F   UNL A   1      35.437  34.171  28.463  1.00  0.00    -0.206 F 
ATOM     73  C   UNL A   1      33.973  35.106  31.596  1.00  0.00     0.060 A 
BRANCH  73  74
ATOM     74  S   UNL A   1      32.572  36.075  32.190  1.00  0.00     0.124 S 
ATOM     75  O   UNL A   1      31.612  35.036  32.545  1.00  0.00    -0.237 OA
ATOM     76  O   UNL A   1      33.162  36.809  33.305  1.00  0.00    -0.237 OA
ATOM     77  O   UNL A   1      32.211  36.893  31.035  1.00  0.00    -0.744 OA
ENDBRANCH  73  74
ENDBRANCH  52  66
BRANCH  53  78
ATOM     78  C   UNL A   1      45.524  28.271  29.026  1.00  0.00     0.058 A 
ATOM     79  C   UNL A   1      45.657  28.354  27.597  1.00  0.00     0.135 A 
ATOM     80  C   UNL A   1      46.685  27.840  29.701  1.00  0.00     0.135 A 
ATOM     81  F   UNL A   1      44.617  28.798  26.868  1.00  0.00    -0.206 F 
ATOM     82  C   UNL A   1      46.899  28.307  26.945  1.00  0.00     0.059 A 
ATOM     83  C   UNL A   1      47.927  27.710  29.042  1.00  0.00     0.059 A 
ATOM     84  F   UNL A   1      46.687  27.760  31.039  1.00  0.00    -0.206 F 
ATOM     85  C   UNL A   1      48.038  28.025  27.686  1.00  0.00     0.060 A 
BRANCH  85  86
ATOM     86  S   UNL A   1      49.664  28.252  26.900  1.00  0.00     0.124 S 
ATOM     87  O   UNL A   1      50.069  26.878  26.637  1.00  0.00    -0.237 OA
ATOM     88  O   UNL A   1      49.331  29.059  25.728  1.00  0.00    -0.237 OA
ATOM     89  O   UNL A   1      50.417  28.955  27.933  1.00  0.00    -0.744 OA
ENDBRANCH  85  86
ENDBRANCH  53  78
BRANCH  65  90
ATOM     90  C   UNL A   1      43.033  35.467  28.908  1.00  0.00     0.058 A 
ATOM     91  C   UNL A   1      42.979  35.698  27.518  1.00  0.00     0.135 A 
ATOM     92  C   UNL A   1      43.262  36.650  29.669  1.00  0.00     0.135 A 
ATOM     93  F   UNL A   1      42.576  34.754  26.658  1.00  0.00    -0.206 F 
ATOM     94  C   UNL A   1      43.279  36.937  26.930  1.00  0.00     0.059 A 
ATOM     95  C   UNL A   1      43.481  37.912  29.107  1.00  0.00     0.059 A 
ATOM     96  F   UNL A   1      43.273  36.640  31.010  1.00  0.00    -0.206 F 
ATOM     97  C   UNL A   1      43.542  38.038  27.732  1.00  0.00     0.060 A 
BRANCH  97  98
ATOM     98  S   UNL A   1      43.898  39.636  26.975  1.00  0.00     0.124 S 
ATOM     99  O   UNL A   1      42.669  39.886  26.228  1.00  0.00    -0.237 OA
ATOM    100  O   UNL A   1      44.120  40.497  28.132  1.00  0.00    -0.237 OA
ATOM    101  O   UNL A   1      45.084  39.370  26.166  1.00  0.00    -0.744 OA
ENDBRANCH  97  98
ENDBRANCH  65  90
ENDBRANCH  39  40
ENDBRANCH  32  34
ENDBRANCH  31  32
ENDBRANCH  30  31
ENDBRANCH  29  30
ENDBRANCH  28  29
ENDBRANCH   1  28
TORSDOF 21
ENDMDL
MODEL 3
REMARK VINA RESULT:     -11.9      2.538      4.350
REMARK SMILES Cc1ccc(-c2cn3c(n2)sc2cc(C(=O)OCCOCCOCCOC(=O)c4ccc(-c5c6nc(c(-c7c(F)cc(S(=O)(=O)[O-])cc7F)c7ccc([nH]7)c(-c7c(F)cc(S(=O)(=O)[O-])cc7F)c7nc(c(-c8c(F)cc(S(=O)(=O)[O-])cc8F)c8ccc5[nH]8)C=C7)C=C6)cc4)ccc23)cc1
REMARK SMILES IDX 22 1 21 2 20 3 19 4 18 5 17 6 15 7 16 8 14 9 6 10 7 11 10 12
REMARK SMILES IDX 8 13 9 14 97 15 11 16 12 17 96 18 13 19 95 20 5 21 1 22 2 23
REMARK SMILES IDX 3 24 99 25 4 26 98 27 23 28 24 29 25 30 26 31 27 32 28 33
REMARK SMILES IDX 29 34 30 35 94 36 31 37 93 38 32 39 33 40 34 41 87 42 35 43
REMARK SMILES IDX 92 44 86 45 88 46 36 47 91 48 85 49 84 50 37 52 71 53 50 54
REMARK SMILES IDX 70 55 51 56 54 57 69 58 89 59 52 60 53 61 68 63 90 64 55 65
REMARK SMILES IDX 38 66 39 67 48 68 40 69 41 70 47 71 49 72 42 73 43 74 44 75
REMARK SMILES IDX 45 76 46 77 72 78 73 79 82 80 74 81 75 82 81 83 83 84 76 85
REMARK SMILES IDX 77 86 78 87 79 88 80 89 56 90 57 91 66 92 58 93 59 94 65 95
REMARK SMILES IDX 67 96 60 97 61 98 62 99 63 100 64 101
REMARK H PARENT 88 51 54 62
REMARK Flexibility Score: inf
ROOT
ATOM      1  C   UNL A   1      34.587  33.696  30.694  1.00  0.00     0.188 C 
ENDROOT
BRANCH   1   2
ATOM      2  C   UNL A   1      35.246  34.186  29.406  1.00  0.00     0.188 C 
BRANCH   2   3
ATOM      3  O   UNL A   1      35.638  33.334  28.325  1.00  0.00    -0.376 OA
BRANCH   3   4
ATOM      4  C   UNL A   1      36.597  32.260  28.323  1.00  0.00     0.202 C 
BRANCH   4   5
ATOM      5  C   UNL A   1      36.590  30.664  27.632  1.00  0.00     0.261 C 
BRANCH   5   6
ATOM      6  O   UNL A   1      35.268  29.464  27.473  1.00  0.00    -0.460 OA
BRANCH   6   7
ATOM      7  C   UNL A   1      33.963  28.903  27.045  1.00  0.00     0.338 C 
ATOM      8  O   UNL A   1      32.935  29.491  27.425  1.00  0.00    -0.246 OA
BRANCH   7   9
ATOM      9  C   UNL A   1      33.398  27.664  26.148  1.00  0.00     0.061 A 
ATOM     10  C   UNL A   1      29.596  27.327  23.163  1.00  0.00     0.090 A 
ATOM     11  C   UNL A   1      30.726  26.740  22.599  1.00  0.00     0.123 A 
ATOM     12  N   UNL A   1      29.011  26.481  24.088  1.00  0.00    -0.219 NA
ATOM     13  N   UNL A   1      31.084  25.842  23.569  1.00  0.00    -0.290 N 
ATOM     14  C   UNL A   1      29.950  25.591  24.319  1.00  0.00     0.195 A 
ATOM     15  C   UNL A   1      32.314  25.814  24.275  1.00  0.00     0.065 A 
ATOM     16  S   UNL A   1      30.358  24.904  25.874  1.00  0.00    -0.096 S 
ATOM     17  C   UNL A   1      31.989  25.665  25.600  1.00  0.00     0.056 A 
ATOM     18  C   UNL A   1      33.413  26.583  23.906  1.00  0.00     0.029 A 
ATOM     19  C   UNL A   1      32.469  26.642  26.463  1.00  0.00     0.037 A 
ATOM     20  C   UNL A   1      33.952  27.490  24.853  1.00  0.00     0.018 A 
BRANCH  10  21
ATOM     21  C   UNL A   1      29.269  28.740  23.030  1.00  0.00     0.002 A 
ATOM     22  C   UNL A   1      28.213  32.933  22.920  1.00  0.00     0.044 C 
ATOM     23  C   UNL A   1      28.570  31.477  22.959  1.00  0.00    -0.051 A 
ATOM     24  C   UNL A   1      29.645  31.048  23.737  1.00  0.00     0.004 A 
ATOM     25  C   UNL A   1      27.855  30.533  22.211  1.00  0.00     0.004 A 
ATOM     26  C   UNL A   1      29.986  29.696  23.775  1.00  0.00     0.010 A 
ATOM     27  C   UNL A   1      28.181  29.170  22.271  1.00  0.00     0.010 A 
ENDBRANCH  10  21
ENDBRANCH   7   9
ENDBRANCH   6   7
ENDBRANCH   5   6
ENDBRANCH   4   5
ENDBRANCH   3   4
ENDBRANCH   2   3
ENDBRANCH   1   2
BRANCH   1  28
ATOM     28  O   UNL A   1      35.275  32.663  31.388  1.00  0.00    -0.376 OA
BRANCH  28  29
ATOM     29  C   UNL A   1      35.580  32.875  32.775  1.00  0.00     0.202 C 
BRANCH  29  30
ATOM     30  C   UNL A   1      36.785  32.153  33.469  1.00  0.00     0.261 C 
BRANCH  30  31
ATOM     31  O   UNL A   1      37.580  31.339  32.579  1.00  0.00    -0.460 OA
BRANCH  31  32
ATOM     32  C   UNL A   1      38.022  30.124  33.040  1.00  0.00     0.338 C 
ATOM     33  O   UNL A   1      37.985  29.753  34.218  1.00  0.00    -0.246 OA
BRANCH  32  34
ATOM     34  C   UNL A   1      38.046  29.168  31.917  1.00  0.00     0.060 A 
ATOM     35  C   UNL A   1      38.163  27.788  32.063  1.00  0.00     0.016 A 
ATOM     36  C   UNL A   1      38.154  29.720  30.648  1.00  0.00     0.016 A 
ATOM     37  C   UNL A   1      38.811  27.081  31.053  1.00  0.00     0.010 A 
ATOM     38  C   UNL A   1      38.863  29.027  29.694  1.00  0.00     0.010 A 
ATOM     39  C   UNL A   1      39.461  27.833  30.071  1.00  0.00    -0.014 A 
BRANCH  39  40
ATOM     40  C   UNL A   1      40.927  27.629  29.720  1.00  0.00     0.031 A 
ATOM     41  C   UNL A   1      41.226  26.292  28.689  1.00  0.00     0.074 A 
ATOM     42  C   UNL A   1      41.822  28.577  30.318  1.00  0.00     0.049 A 
ATOM     43  N   UNL A   1      41.815  25.186  29.107  1.00  0.00    -0.248 NA
ATOM     44  C   UNL A   1      40.817  26.044  27.294  1.00  0.00     0.031 C 
ATOM     45  C   UNL A   1      43.291  28.889  30.203  1.00  0.00     0.029 A 
ATOM     46  N   UNL A   1      41.524  29.610  31.212  1.00  0.00    -0.354 N 
ATOM     47  C   UNL A   1      42.216  24.356  28.121  1.00  0.00     0.074 A 
ATOM     48  C   UNL A   1      41.424  24.865  27.000  1.00  0.00     0.031 C 
ATOM     49  C   UNL A   1      43.727  29.944  30.872  1.00  0.00     0.029 A 
ATOM     50  C   UNL A   1      42.680  30.168  31.778  1.00  0.00     0.049 A 
ATOM     51  H   UNL A   1      40.610  29.910  31.420  1.00  0.00     0.167 HD
ATOM     52  C   UNL A   1      43.328  23.536  28.276  1.00  0.00     0.037 A 
ATOM     53  C   UNL A   1      42.973  29.970  33.084  1.00  0.00     0.037 A 
ATOM     54  C   UNL A   1      44.350  23.947  29.372  1.00  0.00     0.049 A 
ATOM     55  C   UNL A   1      43.837  28.689  33.437  1.00  0.00     0.074 A 
ATOM     56  C   UNL A   1      45.620  24.529  29.232  1.00  0.00     0.029 A 
ATOM     57  N   UNL A   1      44.125  24.052  30.770  1.00  0.00    -0.354 N 
ATOM     58  N   UNL A   1      44.329  27.767  32.600  1.00  0.00    -0.248 NA
ATOM     59  C   UNL A   1      44.273  28.402  34.802  1.00  0.00     0.031 C 
ATOM     60  C   UNL A   1      46.012  25.179  30.445  1.00  0.00     0.029 A 
ATOM     61  C   UNL A   1      45.043  24.959  31.411  1.00  0.00     0.049 A 
ATOM     62  H   UNL A   1      43.421  23.558  31.249  1.00  0.00     0.167 HD
ATOM     63  C   UNL A   1      44.826  26.657  33.315  1.00  0.00     0.074 A 
ATOM     64  C   UNL A   1      44.926  27.230  34.660  1.00  0.00     0.031 C 
ATOM     65  C   UNL A   1      45.022  25.326  32.878  1.00  0.00     0.037 A 
BRANCH  52  66
ATOM     66  C   UNL A   1      43.693  22.590  27.128  1.00  0.00     0.058 A 
ATOM     67  C   UNL A   1      44.795  22.784  26.266  1.00  0.00     0.135 A 
ATOM     68  C   UNL A   1      42.998  21.376  26.915  1.00  0.00     0.135 A 
ATOM     69  F   UNL A   1      45.610  23.838  26.383  1.00  0.00    -0.206 F 
ATOM     70  C   UNL A   1      45.148  21.876  25.260  1.00  0.00     0.059 A 
ATOM     71  C   UNL A   1      43.309  20.470  25.897  1.00  0.00     0.059 A 
ATOM     72  F   UNL A   1      42.023  20.982  27.750  1.00  0.00    -0.206 F 
ATOM     73  C   UNL A   1      44.403  20.717  25.085  1.00  0.00     0.060 A 
BRANCH  73  74
ATOM     74  S   UNL A   1      44.987  19.467  23.923  1.00  0.00     0.124 S 
ATOM     75  O   UNL A   1      44.495  19.981  22.650  1.00  0.00    -0.237 OA
ATOM     76  O   UNL A   1      46.433  19.524  24.119  1.00  0.00    -0.237 OA
ATOM     77  O   UNL A   1      44.348  18.241  24.393  1.00  0.00    -0.744 OA
ENDBRANCH  73  74
ENDBRANCH  52  66
BRANCH  53  78
ATOM     78  C   UNL A   1      42.137  31.057  33.728  1.00  0.00     0.058 A 
ATOM     79  C   UNL A   1      41.326  30.577  34.812  1.00  0.00     0.135 A 
ATOM     80  C   UNL A   1      42.709  32.328  33.938  1.00  0.00     0.135 A 
ATOM     81  F   UNL A   1      40.771  29.354  34.724  1.00  0.00    -0.206 F 
ATOM     82  C   UNL A   1      41.334  31.166  36.086  1.00  0.00     0.059 A 
ATOM     83  C   UNL A   1      42.658  32.972  35.193  1.00  0.00     0.059 A 
ATOM     84  F   UNL A   1      43.516  32.859  33.007  1.00  0.00    -0.206 F 
ATOM     85  C   UNL A   1      42.041  32.346  36.278  1.00  0.00     0.060 A 
BRANCH  85  86
ATOM     86  S   UNL A   1      42.289  32.941  37.979  1.00  0.00     0.124 S 
ATOM     87  O   UNL A   1      41.969  31.759  38.766  1.00  0.00    -0.237 OA
ATOM     88  O   UNL A   1      43.695  33.342  37.966  1.00  0.00    -0.237 OA
ATOM     89  O   UNL A   1      41.339  34.046  38.068  1.00  0.00    -0.744 OA
ENDBRANCH  85  86
ENDBRANCH  53  78
BRANCH  65  90
ATOM     90  C   UNL A   1      45.332  24.144  33.848  1.00  0.00     0.058 A 
ATOM     91  C   UNL A   1      44.401  23.185  34.298  1.00  0.00     0.135 A 
ATOM     92  C   UNL A   1      46.662  23.892  34.291  1.00  0.00     0.135 A 
ATOM     93  F   UNL A   1      43.149  23.137  33.825  1.00  0.00    -0.206 F 
ATOM     94  C   UNL A   1      44.720  22.174  35.218  1.00  0.00     0.059 A 
ATOM     95  C   UNL A   1      47.018  22.840  35.142  1.00  0.00     0.059 A 
ATOM     96  F   UNL A   1      47.696  24.654  33.904  1.00  0.00    -0.206 F 
ATOM     97  C   UNL A   1      46.030  22.016  35.646  1.00  0.00     0.060 A 
BRANCH  97  98
ATOM     98  S   UNL A   1      46.442  20.698  36.807  1.00  0.00     0.124 S 
ATOM     99  O   UNL A   1      45.842  19.537  36.156  1.00  0.00    -0.237 OA
ATOM    100  O   UNL A   1      47.901  20.729  36.822  1.00  0.00    -0.237 OA
ATOM    101  O   UNL A   1      45.802  21.127  38.047  1.00  0.00    -0.744 OA
ENDBRANCH  97  98
ENDBRANCH  65  90
ENDBRANCH  39  40
ENDBRANCH  32  34
ENDBRANCH  31  32
ENDBRANCH  30  31
ENDBRANCH  29  30
ENDBRANCH  28  29
ENDBRANCH   1  28
TORSDOF 21
ENDMDL
