MODEL 1
REMARK VINA RESULT:     -12.1      0.000      0.000
REMARK SMILES Cc1ccc(C[C@H](C(=O)OCCOCCOCCOC(=O)c2ccc(-c3c4nc(c(-c5c(F)cc(S(=O)(=O)[O-])cc5F)c5ccc([nH]5)c(-c5c(F)cc(S(=O)(=O)[O-])cc5F)c5nc(c(-c6c(F)cc(S(=O)(=O)[O-])cc6F)c6ccc3[nH]6)C=C5)C=C4)cc2)[C@@H]2CCCC[C@@H]2O)cc1
REMARK SMILES IDX 15 1 14 2 13 3 12 4 11 5 10 6 8 7 9 8 7 9 6 10 5 11 1 12
REMARK SMILES IDX 2 13 3 14 96 15 4 16 95 17 88 18 89 19 93 20 90 21 92 22
REMARK SMILES IDX 91 23 94 24 16 26 17 27 18 28 19 29 20 30 21 31 22 32 23 33
REMARK SMILES IDX 87 34 24 35 86 36 25 37 26 38 27 39 80 40 28 41 85 42 79 43
REMARK SMILES IDX 81 44 29 45 84 46 78 47 77 48 30 50 64 51 43 52 63 53 44 54
REMARK SMILES IDX 47 55 62 56 82 57 45 58 46 59 61 61 83 62 48 63 31 64 32 65
REMARK SMILES IDX 41 66 33 67 34 68 40 69 42 70 35 71 36 72 37 73 38 74 39 75
REMARK SMILES IDX 65 76 66 77 75 78 67 79 68 80 74 81 76 82 69 83 70 84 71 85
REMARK SMILES IDX 72 86 73 87 49 88 50 89 59 90 51 91 52 92 58 93 60 94 53 95
REMARK SMILES IDX 54 96 55 97 56 98 57 99
REMARK H PARENT 94 25 81 49 47 60
REMARK Flexibility Score: inf
ROOT
ATOM      1  C   UNL A   1      30.259  28.369  22.537  1.00  0.00     0.188 C 
ENDROOT
BRANCH   1   2
ATOM      2  C   UNL A   1      31.270  27.241  22.267  1.00  0.00     0.188 C 
BRANCH   2   3
ATOM      3  O   UNL A   1      31.005  25.836  22.082  1.00  0.00    -0.376 OA
BRANCH   3   4
ATOM      4  C   UNL A   1      31.220  24.768  23.018  1.00  0.00     0.202 C 
BRANCH   4   5
ATOM      5  C   UNL A   1      32.564  23.700  23.200  1.00  0.00     0.261 C 
BRANCH   5   6
ATOM      6  O   UNL A   1      34.104  23.863  23.803  1.00  0.00    -0.463 OA
BRANCH   6   7
ATOM      7  C   UNL A   1      34.844  24.053  24.965  1.00  0.00     0.309 C 
ATOM      8  O   UNL A   1      34.531  24.785  25.895  1.00  0.00    -0.252 OA
BRANCH   7   9
ATOM      9  C   UNL A   1      36.120  23.249  25.296  1.00  0.00     0.109 C 
BRANCH   9  10
ATOM     10  C   UNL A   1      37.049  24.009  26.251  1.00  0.00     0.051 C 
BRANCH  10  11
ATOM     11  C   UNL A   1      38.470  23.482  26.309  1.00  0.00    -0.047 A 
ATOM     12  C   UNL A   1      42.027  21.470  27.675  1.00  0.00     0.044 C 
ATOM     13  C   UNL A   1      40.884  22.210  27.031  1.00  0.00    -0.051 A 
ATOM     14  C   UNL A   1      40.693  23.577  27.286  1.00  0.00     0.004 A 
ATOM     15  C   UNL A   1      39.887  21.501  26.347  1.00  0.00     0.004 A 
ATOM     16  C   UNL A   1      39.497  24.214  26.922  1.00  0.00     0.004 A 
ATOM     17  C   UNL A   1      38.696  22.134  25.981  1.00  0.00     0.004 A 
ENDBRANCH  10  11
ENDBRANCH   9  10
BRANCH   9  18
ATOM     18  C   UNL A   1      35.639  21.768  25.889  1.00  0.00     0.032 C 
ATOM     19  C   UNL A   1      35.304  20.631  24.904  1.00  0.00     0.007 C 
ATOM     20  C   UNL A   1      34.535  21.743  27.011  1.00  0.00     0.118 C 
ATOM     21  C   UNL A   1      33.875  20.655  24.379  1.00  0.00     0.001 C 
ATOM     22  C   UNL A   1      33.106  21.782  26.479  1.00  0.00     0.032 C 
ATOM     23  C   UNL A   1      32.845  20.653  25.504  1.00  0.00     0.003 C 
BRANCH  20  24
ATOM     24  O   UNL A   1      34.648  22.787  27.942  1.00  0.00    -0.393 OA
ATOM     25  H   UNL A   1      34.953  22.431  28.791  1.00  0.00     0.210 HD
ENDBRANCH  20  24
ENDBRANCH   9  18
ENDBRANCH   7   9
ENDBRANCH   6   7
ENDBRANCH   5   6
ENDBRANCH   4   5
ENDBRANCH   3   4
ENDBRANCH   2   3
ENDBRANCH   1   2
BRANCH   1  26
ATOM     26  O   UNL A   1      30.533  29.156  23.681  1.00  0.00    -0.376 OA
BRANCH  26  27
ATOM     27  C   UNL A   1      31.422  28.545  24.613  1.00  0.00     0.202 C 
BRANCH  27  28
ATOM     28  C   UNL A   1      32.773  29.262  24.850  1.00  0.00     0.261 C 
BRANCH  28  29
ATOM     29  O   UNL A   1      33.206  29.263  26.233  1.00  0.00    -0.460 OA
BRANCH  29  30
ATOM     30  C   UNL A   1      33.253  30.480  26.883  1.00  0.00     0.338 C 
ATOM     31  O   UNL A   1      32.291  31.237  26.915  1.00  0.00    -0.246 OA
BRANCH  30  32
ATOM     32  C   UNL A   1      34.482  30.619  27.716  1.00  0.00     0.060 A 
ATOM     33  C   UNL A   1      35.083  31.761  28.249  1.00  0.00     0.016 A 
ATOM     34  C   UNL A   1      35.131  29.468  27.977  1.00  0.00     0.016 A 
ATOM     35  C   UNL A   1      36.422  31.749  28.870  1.00  0.00     0.010 A 
ATOM     36  C   UNL A   1      36.430  29.540  28.481  1.00  0.00     0.010 A 
ATOM     37  C   UNL A   1      37.212  30.607  28.990  1.00  0.00    -0.014 A 
BRANCH  37  38
ATOM     38  C   UNL A   1      38.789  30.449  29.544  1.00  0.00     0.031 A 
ATOM     39  C   UNL A   1      39.863  29.196  29.520  1.00  0.00     0.074 A 
ATOM     40  C   UNL A   1      39.453  31.563  29.910  1.00  0.00     0.049 A 
ATOM     41  N   UNL A   1      41.004  29.173  28.857  1.00  0.00    -0.248 NA
ATOM     42  C   UNL A   1      39.741  27.906  30.267  1.00  0.00     0.031 C 
ATOM     43  C   UNL A   1      40.902  31.778  29.978  1.00  0.00     0.029 A 
ATOM     44  N   UNL A   1      38.932  32.689  30.540  1.00  0.00    -0.354 N 
ATOM     45  C   UNL A   1      41.519  27.868  28.820  1.00  0.00     0.074 A 
ATOM     46  C   UNL A   1      40.644  27.103  29.689  1.00  0.00     0.031 C 
ATOM     47  C   UNL A   1      41.150  32.709  30.909  1.00  0.00     0.029 A 
ATOM     48  C   UNL A   1      39.882  32.979  31.551  1.00  0.00     0.049 A 
ATOM     49  H   UNL A   1      38.100  33.171  30.333  1.00  0.00     0.167 HD
ATOM     50  C   UNL A   1      42.856  27.584  28.775  1.00  0.00     0.037 A 
ATOM     51  C   UNL A   1      39.550  32.638  32.832  1.00  0.00     0.037 A 
ATOM     52  C   UNL A   1      43.574  28.398  29.716  1.00  0.00     0.049 A 
ATOM     53  C   UNL A   1      40.399  31.504  33.403  1.00  0.00     0.074 A 
ATOM     54  C   UNL A   1      44.091  29.676  29.726  1.00  0.00     0.029 A 
ATOM     55  N   UNL A   1      43.477  28.012  31.032  1.00  0.00    -0.354 N 
ATOM     56  N   UNL A   1      41.440  30.958  32.823  1.00  0.00    -0.248 NA
ATOM     57  C   UNL A   1      40.093  30.859  34.681  1.00  0.00     0.031 C 
ATOM     58  C   UNL A   1      43.959  30.147  31.075  1.00  0.00     0.029 A 
ATOM     59  C   UNL A   1      43.426  29.125  31.850  1.00  0.00     0.049 A 
ATOM     60  H   UNL A   1      43.447  27.079  31.346  1.00  0.00     0.167 HD
ATOM     61  C   UNL A   1      41.856  29.873  33.552  1.00  0.00     0.074 A 
ATOM     62  C   UNL A   1      41.003  29.873  34.725  1.00  0.00     0.031 C 
ATOM     63  C   UNL A   1      42.821  28.986  33.167  1.00  0.00     0.037 A 
BRANCH  50  64
ATOM     64  C   UNL A   1      43.448  26.516  27.874  1.00  0.00     0.058 A 
ATOM     65  C   UNL A   1      43.418  26.661  26.470  1.00  0.00     0.135 A 
ATOM     66  C   UNL A   1      43.956  25.279  28.330  1.00  0.00     0.135 A 
ATOM     67  F   UNL A   1      42.973  27.796  25.910  1.00  0.00    -0.206 F 
ATOM     68  C   UNL A   1      43.792  25.638  25.587  1.00  0.00     0.059 A 
ATOM     69  C   UNL A   1      44.333  24.236  27.464  1.00  0.00     0.059 A 
ATOM     70  F   UNL A   1      44.091  25.040  29.642  1.00  0.00    -0.206 F 
ATOM     71  C   UNL A   1      44.224  24.416  26.091  1.00  0.00     0.060 A 
BRANCH  71  72
ATOM     72  S   UNL A   1      44.563  23.063  24.932  1.00  0.00     0.124 S 
ATOM     73  O   UNL A   1      45.159  22.055  25.806  1.00  0.00    -0.237 OA
ATOM     74  O   UNL A   1      43.233  22.750  24.422  1.00  0.00    -0.237 OA
ATOM     75  O   UNL A   1      45.480  23.660  23.964  1.00  0.00    -0.744 OA
ENDBRANCH  71  72
ENDBRANCH  50  64
BRANCH  51  76
ATOM     76  C   UNL A   1      38.089  32.924  33.078  1.00  0.00     0.058 A 
ATOM     77  C   UNL A   1      37.728  34.280  33.301  1.00  0.00     0.135 A 
ATOM     78  C   UNL A   1      37.056  32.060  32.697  1.00  0.00     0.135 A 
ATOM     79  F   UNL A   1      38.666  35.172  33.671  1.00  0.00    -0.206 F 
ATOM     80  C   UNL A   1      36.474  34.784  32.971  1.00  0.00     0.059 A 
ATOM     81  C   UNL A   1      35.760  32.534  32.438  1.00  0.00     0.059 A 
ATOM     82  F   UNL A   1      37.307  30.769  32.433  1.00  0.00    -0.206 F 
ATOM     83  C   UNL A   1      35.505  33.908  32.499  1.00  0.00     0.060 A 
BRANCH  83  84
ATOM     84  S   UNL A   1      33.995  34.625  31.803  1.00  0.00     0.124 S 
ATOM     85  O   UNL A   1      34.288  36.053  31.843  1.00  0.00    -0.237 OA
ATOM     86  O   UNL A   1      33.958  34.032  30.468  1.00  0.00    -0.237 OA
ATOM     87  O   UNL A   1      32.957  34.173  32.724  1.00  0.00    -0.744 OA
ENDBRANCH  83  84
ENDBRANCH  51  76
BRANCH  63  88
ATOM     88  C   UNL A   1      43.227  27.870  34.085  1.00  0.00     0.058 A 
ATOM     89  C   UNL A   1      44.538  27.821  34.584  1.00  0.00     0.135 A 
ATOM     90  C   UNL A   1      42.390  26.779  34.391  1.00  0.00     0.135 A 
ATOM     91  F   UNL A   1      45.393  28.825  34.337  1.00  0.00    -0.206 F 
ATOM     92  C   UNL A   1      44.999  26.745  35.335  1.00  0.00     0.059 A 
ATOM     93  C   UNL A   1      42.844  25.669  35.097  1.00  0.00     0.059 A 
ATOM     94  F   UNL A   1      41.108  26.764  33.994  1.00  0.00    -0.206 F 
ATOM     95  C   UNL A   1      44.150  25.666  35.573  1.00  0.00     0.060 A 
BRANCH  95  96
ATOM     96  S   UNL A   1      44.777  24.227  36.461  1.00  0.00     0.124 S 
ATOM     97  O   UNL A   1      46.221  24.342  36.286  1.00  0.00    -0.237 OA
ATOM     98  O   UNL A   1      44.282  24.482  37.810  1.00  0.00    -0.237 OA
ATOM     99  O   UNL A   1      44.155  23.108  35.759  1.00  0.00    -0.744 OA
ENDBRANCH  95  96
ENDBRANCH  63  88
ENDBRANCH  37  38
ENDBRANCH  30  32
ENDBRANCH  29  30
ENDBRANCH  28  29
ENDBRANCH  27  28
ENDBRANCH  26  27
ENDBRANCH   1  26
TORSDOF 24
ENDMDL
MODEL 2
REMARK VINA RESULT:     -11.4      2.733      4.245
REMARK SMILES Cc1ccc(C[C@H](C(=O)OCCOCCOCCOC(=O)c2ccc(-c3c4nc(c(-c5c(F)cc(S(=O)(=O)[O-])cc5F)c5ccc([nH]5)c(-c5c(F)cc(S(=O)(=O)[O-])cc5F)c5nc(c(-c6c(F)cc(S(=O)(=O)[O-])cc6F)c6ccc3[nH]6)C=C5)C=C4)cc2)[C@@H]2CCCC[C@@H]2O)cc1
REMARK SMILES IDX 15 1 14 2 13 3 12 4 11 5 10 6 8 7 9 8 7 9 6 10 5 11 1 12
REMARK SMILES IDX 2 13 3 14 96 15 4 16 95 17 88 18 89 19 93 20 90 21 92 22
REMARK SMILES IDX 91 23 94 24 16 26 17 27 18 28 19 29 20 30 21 31 22 32 23 33
REMARK SMILES IDX 87 34 24 35 86 36 25 37 26 38 27 39 80 40 28 41 85 42 79 43
REMARK SMILES IDX 81 44 29 45 84 46 78 47 77 48 30 50 64 51 43 52 63 53 44 54
REMARK SMILES IDX 47 55 62 56 82 57 45 58 46 59 61 61 83 62 48 63 31 64 32 65
REMARK SMILES IDX 41 66 33 67 34 68 40 69 42 70 35 71 36 72 37 73 38 74 39 75
REMARK SMILES IDX 65 76 66 77 75 78 67 79 68 80 74 81 76 82 69 83 70 84 71 85
REMARK SMILES IDX 72 86 73 87 49 88 50 89 59 90 51 91 52 92 58 93 60 94 53 95
REMARK SMILES IDX 54 96 55 97 56 98 57 99
REMARK H PARENT 94 25 81 49 47 60
REMARK Flexibility Score: inf
ROOT
ATOM      1  C   UNL A   1      31.396  30.499  25.567  1.00  0.00     0.188 C 
ENDROOT
BRANCH   1   2
ATOM      2  C   UNL A   1      31.602  29.349  24.566  1.00  0.00     0.188 C 
BRANCH   2   3
ATOM      3  O   UNL A   1      32.846  28.816  24.070  1.00  0.00    -0.376 OA
BRANCH   3   4
ATOM      4  C   UNL A   1      33.234  28.612  22.702  1.00  0.00     0.202 C 
BRANCH   4   5
ATOM      5  C   UNL A   1      33.299  27.162  21.767  1.00  0.00     0.261 C 
BRANCH   5   6
ATOM      6  O   UNL A   1      32.581  25.669  21.887  1.00  0.00    -0.463 OA
BRANCH   6   7
ATOM      7  C   UNL A   1      32.176  24.683  22.779  1.00  0.00     0.309 C 
ATOM      8  O   UNL A   1      31.018  24.346  22.988  1.00  0.00    -0.252 OA
BRANCH   7   9
ATOM      9  C   UNL A   1      33.164  23.778  23.545  1.00  0.00     0.109 C 
BRANCH   9  10
ATOM     10  C   UNL A   1      34.152  24.590  24.393  1.00  0.00     0.051 C 
BRANCH  10  11
ATOM     11  C   UNL A   1      35.522  23.960  24.549  1.00  0.00    -0.047 A 
ATOM     12  C   UNL A   1      38.638  21.155  25.547  1.00  0.00     0.044 C 
ATOM     13  C   UNL A   1      37.691  22.242  25.113  1.00  0.00    -0.051 A 
ATOM     14  C   UNL A   1      37.355  23.283  25.995  1.00  0.00     0.004 A 
ATOM     15  C   UNL A   1      36.979  22.114  23.913  1.00  0.00     0.004 A 
ATOM     16  C   UNL A   1      36.283  24.141  25.714  1.00  0.00     0.004 A 
ATOM     17  C   UNL A   1      35.912  22.971  23.630  1.00  0.00     0.004 A 
ENDBRANCH  10  11
ENDBRANCH   9  10
BRANCH   9  18
ATOM     18  C   UNL A   1      32.264  22.700  24.442  1.00  0.00     0.032 C 
ATOM     19  C   UNL A   1      32.507  22.590  25.959  1.00  0.00     0.007 C 
ATOM     20  C   UNL A   1      32.105  21.232  23.895  1.00  0.00     0.118 C 
ATOM     21  C   UNL A   1      33.639  21.649  26.348  1.00  0.00     0.001 C 
ATOM     22  C   UNL A   1      33.251  20.299  24.274  1.00  0.00     0.032 C 
ATOM     23  C   UNL A   1      33.451  20.248  25.775  1.00  0.00     0.003 C 
BRANCH  20  24
ATOM     24  O   UNL A   1      31.970  21.157  22.500  1.00  0.00    -0.393 OA
ATOM     25  H   UNL A   1      32.711  21.620  22.078  1.00  0.00     0.210 HD
ENDBRANCH  20  24
ENDBRANCH   9  18
ENDBRANCH   7   9
ENDBRANCH   6   7
ENDBRANCH   5   6
ENDBRANCH   4   5
ENDBRANCH   3   4
ENDBRANCH   2   3
ENDBRANCH   1   2
BRANCH   1  26
ATOM     26  O   UNL A   1      32.400  30.617  26.559  1.00  0.00    -0.376 OA
BRANCH  26  27
ATOM     27  C   UNL A   1      32.728  29.390  27.207  1.00  0.00     0.202 C 
BRANCH  27  28
ATOM     28  C   UNL A   1      34.215  28.960  27.159  1.00  0.00     0.261 C 
BRANCH  28  29
ATOM     29  O   UNL A   1      34.998  29.417  28.289  1.00  0.00    -0.460 OA
BRANCH  29  30
ATOM     30  C   UNL A   1      35.820  30.509  28.092  1.00  0.00     0.338 C 
ATOM     31  O   UNL A   1      35.399  31.657  28.145  1.00  0.00    -0.246 OA
BRANCH  30  32
ATOM     32  C   UNL A   1      37.261  30.124  28.069  1.00  0.00     0.060 A 
ATOM     33  C   UNL A   1      38.036  29.600  27.033  1.00  0.00     0.016 A 
ATOM     34  C   UNL A   1      37.914  30.282  29.236  1.00  0.00     0.016 A 
ATOM     35  C   UNL A   1      39.396  29.067  27.238  1.00  0.00     0.010 A 
ATOM     36  C   UNL A   1      39.161  29.672  29.385  1.00  0.00     0.010 A 
ATOM     37  C   UNL A   1      40.041  29.038  28.473  1.00  0.00    -0.014 A 
BRANCH  37  38
ATOM     38  C   UNL A   1      41.516  28.357  28.896  1.00  0.00     0.031 A 
ATOM     39  C   UNL A   1      42.129  26.832  28.745  1.00  0.00     0.074 A 
ATOM     40  C   UNL A   1      42.524  29.180  29.247  1.00  0.00     0.049 A 
ATOM     41  N   UNL A   1      43.159  26.487  27.994  1.00  0.00    -0.248 NA
ATOM     42  C   UNL A   1      41.649  25.606  29.455  1.00  0.00     0.031 C 
ATOM     43  C   UNL A   1      43.967  28.921  29.209  1.00  0.00     0.029 A 
ATOM     44  N   UNL A   1      42.432  30.375  29.955  1.00  0.00    -0.354 N 
ATOM     45  C   UNL A   1      43.225  25.090  27.872  1.00  0.00     0.074 A 
ATOM     46  C   UNL A   1      42.209  24.593  28.780  1.00  0.00     0.031 C 
ATOM     47  C   UNL A   1      44.558  29.671  30.149  1.00  0.00     0.029 A 
ATOM     48  C   UNL A   1      43.486  30.290  30.897  1.00  0.00     0.049 A 
ATOM     49  H   UNL A   1      41.786  31.107  29.830  1.00  0.00     0.167 HD
ATOM     50  C   UNL A   1      44.396  24.401  27.713  1.00  0.00     0.037 A 
ATOM     51  C   UNL A   1      43.144  30.000  32.188  1.00  0.00     0.037 A 
ATOM     52  C   UNL A   1      45.395  24.891  28.621  1.00  0.00     0.049 A 
ATOM     53  C   UNL A   1      43.621  28.624  32.651  1.00  0.00     0.074 A 
ATOM     54  C   UNL A   1      46.293  25.936  28.635  1.00  0.00     0.029 A 
ATOM     55  N   UNL A   1      45.262  24.480  29.928  1.00  0.00    -0.354 N 
ATOM     56  N   UNL A   1      44.394  27.811  31.973  1.00  0.00    -0.248 NA
ATOM     57  C   UNL A   1      43.206  28.036  33.926  1.00  0.00     0.031 C 
ATOM     58  C   UNL A   1      46.404  26.346  30.005  1.00  0.00     0.029 A 
ATOM     59  C   UNL A   1      45.623  25.502  30.784  1.00  0.00     0.049 A 
ATOM     60  H   UNL A   1      44.956  23.588  30.211  1.00  0.00     0.167 HD
ATOM     61  C   UNL A   1      44.486  26.610  32.629  1.00  0.00     0.074 A 
ATOM     62  C   UNL A   1      43.754  26.812  33.865  1.00  0.00     0.031 C 
ATOM     63  C   UNL A   1      45.090  25.487  32.139  1.00  0.00     0.037 A 
BRANCH  50  64
ATOM     64  C   UNL A   1      44.557  23.254  26.732  1.00  0.00     0.058 A 
ATOM     65  C   UNL A   1      43.615  22.203  26.693  1.00  0.00     0.135 A 
ATOM     66  C   UNL A   1      45.675  23.078  25.887  1.00  0.00     0.135 A 
ATOM     67  F   UNL A   1      42.500  22.256  27.438  1.00  0.00    -0.206 F 
ATOM     68  C   UNL A   1      43.799  21.038  25.935  1.00  0.00     0.059 A 
ATOM     69  C   UNL A   1      45.884  21.917  25.120  1.00  0.00     0.059 A 
ATOM     70  F   UNL A   1      46.612  24.031  25.789  1.00  0.00    -0.206 F 
ATOM     71  C   UNL A   1      44.951  20.888  25.170  1.00  0.00     0.060 A 
BRANCH  71  72
ATOM     72  S   UNL A   1      45.234  19.316  24.313  1.00  0.00     0.124 S 
ATOM     73  O   UNL A   1      46.675  19.136  24.472  1.00  0.00    -0.237 OA
ATOM     74  O   UNL A   1      44.395  18.393  25.071  1.00  0.00    -0.237 OA
ATOM     75  O   UNL A   1      44.792  19.583  22.947  1.00  0.00    -0.744 OA
ENDBRANCH  71  72
ENDBRANCH  50  64
BRANCH  51  76
ATOM     76  C   UNL A   1      41.871  30.719  32.557  1.00  0.00     0.058 A 
ATOM     77  C   UNL A   1      40.687  29.935  32.626  1.00  0.00     0.135 A 
ATOM     78  C   UNL A   1      41.841  31.950  33.223  1.00  0.00     0.135 A 
ATOM     79  F   UNL A   1      40.637  28.740  32.010  1.00  0.00    -0.206 F 
ATOM     80  C   UNL A   1      39.625  30.258  33.464  1.00  0.00     0.059 A 
ATOM     81  C   UNL A   1      40.743  32.333  34.010  1.00  0.00     0.059 A 
ATOM     82  F   UNL A   1      42.923  32.743  33.241  1.00  0.00    -0.206 F 
ATOM     83  C   UNL A   1      39.680  31.443  34.187  1.00  0.00     0.060 A 
BRANCH  83  84
ATOM     84  S   UNL A   1      38.438  31.692  35.480  1.00  0.00     0.124 S 
ATOM     85  O   UNL A   1      37.219  31.883  34.702  1.00  0.00    -0.237 OA
ATOM     86  O   UNL A   1      38.512  30.438  36.227  1.00  0.00    -0.237 OA
ATOM     87  O   UNL A   1      38.923  32.875  36.184  1.00  0.00    -0.744 OA
ENDBRANCH  83  84
ENDBRANCH  51  76
BRANCH  63  88
ATOM     88  C   UNL A   1      45.175  24.248  32.984  1.00  0.00     0.058 A 
ATOM     89  C   UNL A   1      46.235  24.096  33.891  1.00  0.00     0.135 A 
ATOM     90  C   UNL A   1      44.303  23.152  32.836  1.00  0.00     0.135 A 
ATOM     91  F   UNL A   1      47.105  25.098  34.088  1.00  0.00    -0.206 F 
ATOM     92  C   UNL A   1      46.428  22.918  34.604  1.00  0.00     0.059 A 
ATOM     93  C   UNL A   1      44.506  21.946  33.500  1.00  0.00     0.059 A 
ATOM     94  F   UNL A   1      43.236  23.227  32.025  1.00  0.00    -0.206 F 
ATOM     95  C   UNL A   1      45.568  21.842  34.391  1.00  0.00     0.060 A 
BRANCH  95  96
ATOM     96  S   UNL A   1      45.876  20.281  35.240  1.00  0.00     0.124 S 
ATOM     97  O   UNL A   1      47.164  19.865  34.694  1.00  0.00    -0.237 OA
ATOM     98  O   UNL A   1      45.891  20.710  36.635  1.00  0.00    -0.237 OA
ATOM     99  O   UNL A   1      44.738  19.458  34.841  1.00  0.00    -0.744 OA
ENDBRANCH  95  96
ENDBRANCH  63  88
ENDBRANCH  37  38
ENDBRANCH  30  32
ENDBRANCH  29  30
ENDBRANCH  28  29
ENDBRANCH  27  28
ENDBRANCH  26  27
ENDBRANCH   1  26
TORSDOF 24
ENDMDL
MODEL 3
REMARK VINA RESULT:     -11.1      2.762      4.833
REMARK SMILES Cc1ccc(C[C@H](C(=O)OCCOCCOCCOC(=O)c2ccc(-c3c4nc(c(-c5c(F)cc(S(=O)(=O)[O-])cc5F)c5ccc([nH]5)c(-c5c(F)cc(S(=O)(=O)[O-])cc5F)c5nc(c(-c6c(F)cc(S(=O)(=O)[O-])cc6F)c6ccc3[nH]6)C=C5)C=C4)cc2)[C@@H]2CCCC[C@@H]2O)cc1
REMARK SMILES IDX 15 1 14 2 13 3 12 4 11 5 10 6 8 7 9 8 7 9 6 10 5 11 1 12
REMARK SMILES IDX 2 13 3 14 96 15 4 16 95 17 88 18 89 19 93 20 90 21 92 22
REMARK SMILES IDX 91 23 94 24 16 26 17 27 18 28 19 29 20 30 21 31 22 32 23 33
REMARK SMILES IDX 87 34 24 35 86 36 25 37 26 38 27 39 80 40 28 41 85 42 79 43
REMARK SMILES IDX 81 44 29 45 84 46 78 47 77 48 30 50 64 51 43 52 63 53 44 54
REMARK SMILES IDX 47 55 62 56 82 57 45 58 46 59 61 61 83 62 48 63 31 64 32 65
REMARK SMILES IDX 41 66 33 67 34 68 40 69 42 70 35 71 36 72 37 73 38 74 39 75
REMARK SMILES IDX 65 76 66 77 75 78 67 79 68 80 74 81 76 82 69 83 70 84 71 85
REMARK SMILES IDX 72 86 73 87 49 88 50 89 59 90 51 91 52 92 58 93 60 94 53 95
REMARK SMILES IDX 54 96 55 97 56 98 57 99
REMARK H PARENT 94 25 81 49 47 60
REMARK Flexibility Score: inf
ROOT
ATOM      1  C   UNL A   1      31.551  30.460  25.706  1.00  0.00     0.188 C 
ENDROOT
BRANCH   1   2
ATOM      2  C   UNL A   1      31.613  29.313  24.684  1.00  0.00     0.188 C 
BRANCH   2   3
ATOM      3  O   UNL A   1      32.781  28.741  24.061  1.00  0.00    -0.376 OA
BRANCH   3   4
ATOM      4  C   UNL A   1      32.940  28.337  22.691  1.00  0.00     0.202 C 
BRANCH   4   5
ATOM      5  C   UNL A   1      32.781  26.779  21.963  1.00  0.00     0.261 C 
BRANCH   5   6
ATOM      6  O   UNL A   1      31.979  25.383  22.371  1.00  0.00    -0.463 OA
BRANCH   6   7
ATOM      7  C   UNL A   1      31.672  24.527  23.423  1.00  0.00     0.309 C 
ATOM      8  O   UNL A   1      30.646  24.559  24.089  1.00  0.00    -0.252 OA
BRANCH   7   9
ATOM      9  C   UNL A   1      32.549  23.317  23.812  1.00  0.00     0.109 C 
BRANCH   9  10
ATOM     10  C   UNL A   1      32.404  22.157  22.819  1.00  0.00     0.051 C 
BRANCH  10  11
ATOM     11  C   UNL A   1      32.289  20.786  23.456  1.00  0.00    -0.047 A 
ATOM     12  C   UNL A   1      33.348  17.025  25.274  1.00  0.00     0.044 C 
ATOM     13  C   UNL A   1      32.790  18.288  24.674  1.00  0.00    -0.051 A 
ATOM     14  C   UNL A   1      32.568  18.377  23.290  1.00  0.00     0.004 A 
ATOM     15  C   UNL A   1      32.688  19.450  25.453  1.00  0.00     0.004 A 
ATOM     16  C   UNL A   1      32.312  19.615  22.683  1.00  0.00     0.004 A 
ATOM     17  C   UNL A   1      32.430  20.683  24.850  1.00  0.00     0.004 A 
ENDBRANCH  10  11
ENDBRANCH   9  10
BRANCH   9  18
ATOM     18  C   UNL A   1      34.117  23.863  23.959  1.00  0.00     0.032 C 
ATOM     19  C   UNL A   1      35.267  23.028  23.364  1.00  0.00     0.007 C 
ATOM     20  C   UNL A   1      34.597  24.366  25.371  1.00  0.00     0.118 C 
ATOM     21  C   UNL A   1      35.783  21.927  24.281  1.00  0.00     0.001 C 
ATOM     22  C   UNL A   1      35.098  23.256  26.290  1.00  0.00     0.032 C 
ATOM     23  C   UNL A   1      36.214  22.461  25.643  1.00  0.00     0.003 C 
BRANCH  20  24
ATOM     24  O   UNL A   1      33.616  25.070  26.087  1.00  0.00    -0.393 OA
ATOM     25  H   UNL A   1      32.781  24.578  26.061  1.00  0.00     0.210 HD
ENDBRANCH  20  24
ENDBRANCH   9  18
ENDBRANCH   7   9
ENDBRANCH   6   7
ENDBRANCH   5   6
ENDBRANCH   4   5
ENDBRANCH   3   4
ENDBRANCH   2   3
ENDBRANCH   1   2
BRANCH   1  26
ATOM     26  O   UNL A   1      32.617  30.491  26.637  1.00  0.00    -0.376 OA
BRANCH  26  27
ATOM     27  C   UNL A   1      32.959  29.216  27.178  1.00  0.00     0.202 C 
BRANCH  27  28
ATOM     28  C   UNL A   1      34.468  28.882  27.254  1.00  0.00     0.261 C 
BRANCH  28  29
ATOM     29  O   UNL A   1      35.164  29.540  28.340  1.00  0.00    -0.460 OA
BRANCH  29  30
ATOM     30  C   UNL A   1      35.951  30.629  28.023  1.00  0.00     0.338 C 
ATOM     31  O   UNL A   1      35.519  31.774  28.053  1.00  0.00    -0.246 OA
BRANCH  30  32
ATOM     32  C   UNL A   1      37.391  30.260  27.901  1.00  0.00     0.060 A 
ATOM     33  C   UNL A   1      38.084  29.676  26.839  1.00  0.00     0.016 A 
ATOM     34  C   UNL A   1      38.139  30.501  28.995  1.00  0.00     0.016 A 
ATOM     35  C   UNL A   1      39.466  29.173  26.960  1.00  0.00     0.010 A 
ATOM     36  C   UNL A   1      39.403  29.915  29.076  1.00  0.00     0.010 A 
ATOM     37  C   UNL A   1      40.214  29.232  28.134  1.00  0.00    -0.014 A 
BRANCH  37  38
ATOM     38  C   UNL A   1      41.730  28.596  28.472  1.00  0.00     0.031 A 
ATOM     39  C   UNL A   1      42.342  27.065  28.405  1.00  0.00     0.074 A 
ATOM     40  C   UNL A   1      42.758  29.451  28.644  1.00  0.00     0.049 A 
ATOM     41  N   UNL A   1      43.297  26.653  27.592  1.00  0.00    -0.248 NA
ATOM     42  C   UNL A   1      41.947  25.911  29.270  1.00  0.00     0.031 C 
ATOM     43  C   UNL A   1      44.193  29.192  28.488  1.00  0.00     0.029 A 
ATOM     44  N   UNL A   1      42.723  30.707  29.242  1.00  0.00    -0.354 N 
ATOM     45  C   UNL A   1      43.367  25.251  27.595  1.00  0.00     0.074 A 
ATOM     46  C   UNL A   1      42.449  24.840  28.642  1.00  0.00     0.031 C 
ATOM     47  C   UNL A   1      44.866  30.028  29.291  1.00  0.00     0.029 A 
ATOM     48  C   UNL A   1      43.865  30.713  30.080  1.00  0.00     0.049 A 
ATOM     49  H   UNL A   1      42.060  31.423  29.113  1.00  0.00     0.167 HD
ATOM     50  C   UNL A   1      44.523  24.551  27.387  1.00  0.00     0.037 A 
ATOM     51  C   UNL A   1      43.654  30.545  31.419  1.00  0.00     0.037 A 
ATOM     52  C   UNL A   1      45.601  25.126  28.143  1.00  0.00     0.049 A 
ATOM     53  C   UNL A   1      44.189  29.220  31.960  1.00  0.00     0.074 A 
ATOM     54  C   UNL A   1      46.485  26.169  27.971  1.00  0.00     0.029 A 
ATOM     55  N   UNL A   1      45.601  24.840  29.489  1.00  0.00    -0.354 N 
ATOM     56  N   UNL A   1      44.900  28.347  31.288  1.00  0.00    -0.248 NA
ATOM     57  C   UNL A   1      43.907  28.754  33.319  1.00  0.00     0.031 C 
ATOM     58  C   UNL A   1      46.725  26.707  29.278  1.00  0.00     0.029 A 
ATOM     59  C   UNL A   1      46.032  25.939  30.206  1.00  0.00     0.049 A 
ATOM     60  H   UNL A   1      45.334  23.979  29.883  1.00  0.00     0.167 HD
ATOM     61  C   UNL A   1      45.069  27.214  32.042  1.00  0.00     0.074 A 
ATOM     62  C   UNL A   1      44.460  27.531  33.320  1.00  0.00     0.031 C 
ATOM     63  C   UNL A   1      45.635  26.051  31.602  1.00  0.00     0.037 A 
BRANCH  50  64
ATOM     64  C   UNL A   1      44.600  23.317  26.507  1.00  0.00     0.058 A 
ATOM     65  C   UNL A   1      43.535  22.391  26.471  1.00  0.00     0.135 A 
ATOM     66  C   UNL A   1      45.740  22.936  25.765  1.00  0.00     0.135 A 
ATOM     67  F   UNL A   1      42.389  22.642  27.123  1.00  0.00    -0.206 F 
ATOM     68  C   UNL A   1      43.618  21.154  25.816  1.00  0.00     0.059 A 
ATOM     69  C   UNL A   1      45.849  21.700  25.102  1.00  0.00     0.059 A 
ATOM     70  F   UNL A   1      46.797  23.756  25.670  1.00  0.00    -0.206 F 
ATOM     71  C   UNL A   1      44.789  20.802  25.154  1.00  0.00     0.060 A 
BRANCH  71  72
ATOM     72  S   UNL A   1      44.924  19.142  24.437  1.00  0.00     0.124 S 
ATOM     73  O   UNL A   1      46.341  18.843  24.623  1.00  0.00    -0.237 OA
ATOM     74  O   UNL A   1      44.002  18.371  25.264  1.00  0.00    -0.237 OA
ATOM     75  O   UNL A   1      44.510  19.332  23.049  1.00  0.00    -0.744 OA
ENDBRANCH  71  72
ENDBRANCH  50  64
BRANCH  51  76
ATOM     76  C   UNL A   1      42.415  31.293  31.843  1.00  0.00     0.058 A 
ATOM     77  C   UNL A   1      41.261  30.515  32.131  1.00  0.00     0.135 A 
ATOM     78  C   UNL A   1      42.435  32.593  32.363  1.00  0.00     0.135 A 
ATOM     79  F   UNL A   1      41.168  29.257  31.665  1.00  0.00    -0.206 F 
ATOM     80  C   UNL A   1      40.291  30.925  33.040  1.00  0.00     0.059 A 
ATOM     81  C   UNL A   1      41.422  33.057  33.218  1.00  0.00     0.059 A 
ATOM     82  F   UNL A   1      43.497  33.390  32.171  1.00  0.00    -0.206 F 
ATOM     83  C   UNL A   1      40.402  32.186  33.612  1.00  0.00     0.060 A 
BRANCH  83  84
ATOM     84  S   UNL A   1      39.304  32.576  34.998  1.00  0.00     0.124 S 
ATOM     85  O   UNL A   1      39.129  34.016  34.855  1.00  0.00    -0.237 OA
ATOM     86  O   UNL A   1      38.123  31.769  34.694  1.00  0.00    -0.237 OA
ATOM     87  O   UNL A   1      40.075  32.150  36.163  1.00  0.00    -0.744 OA
ENDBRANCH  83  84
ENDBRANCH  51  76
BRANCH  63  88
ATOM     88  C   UNL A   1      45.816  24.898  32.547  1.00  0.00     0.058 A 
ATOM     89  C   UNL A   1      44.800  23.939  32.677  1.00  0.00     0.135 A 
ATOM     90  C   UNL A   1      46.916  24.779  33.418  1.00  0.00     0.135 A 
ATOM     91  F   UNL A   1      43.721  23.984  31.880  1.00  0.00    -0.206 F 
ATOM     92  C   UNL A   1      44.864  22.924  33.625  1.00  0.00     0.059 A 
ATOM     93  C   UNL A   1      46.979  23.803  34.408  1.00  0.00     0.059 A 
ATOM     94  F   UNL A   1      47.956  25.625  33.333  1.00  0.00    -0.206 F 
ATOM     95  C   UNL A   1      45.950  22.872  34.497  1.00  0.00     0.060 A 
BRANCH  95  96
ATOM     96  S   UNL A   1      45.987  21.617  35.791  1.00  0.00     0.124 S 
ATOM     97  O   UNL A   1      45.395  22.311  36.931  1.00  0.00    -0.237 OA
ATOM     98  O   UNL A   1      45.168  20.565  35.197  1.00  0.00    -0.237 OA
ATOM     99  O   UNL A   1      47.410  21.317  35.920  1.00  0.00    -0.744 OA
ENDBRANCH  95  96
ENDBRANCH  63  88
ENDBRANCH  37  38
ENDBRANCH  30  32
ENDBRANCH  29  30
ENDBRANCH  28  29
ENDBRANCH  27  28
ENDBRANCH  26  27
ENDBRANCH   1  26
TORSDOF 24
ENDMDL
