MODEL 1
REMARK VINA RESULT:      -8.6      0.000      0.000
REMARK SMILES Cc1c(Cl)cccc1NC(=O)NCc1cn([C@@H]2C[NH2+][C@H](C(=O)OCCOCCOCCOC(=O)c3ccc(-c4c5nc(c(-c6c(F)cc(S(=O)(=O)[O-])cc6F)c6ccc([nH]6)c(-c6c(F)cc(S(=O)(=O)[O-])cc6F)c6nc(c(-c7c(F)cc(S(=O)(=O)[O-])cc7F)c7ccc4[nH]7)C=C6)C=C5)cc3)C2)nn1
REMARK SMILES IDX 27 1 26 2 25 3 24 4 23 5 21 6 22 7 20 8 17 9 18 10 101 11
REMARK SMILES IDX 19 12 16 15 14 16 15 17 103 18 102 19 13 20 12 21 9 22 10 23
REMARK SMILES IDX 11 25 8 27 1 28 2 29 3 30 4 31 5 32 7 33 6 34 28 35 29 36
REMARK SMILES IDX 30 37 31 38 32 39 33 40 34 41 35 42 36 43 100 44 37 45 99 46
REMARK SMILES IDX 38 47 39 48 40 49 93 50 41 51 98 52 92 53 94 54 42 55 97 56
REMARK SMILES IDX 91 57 90 58 43 60 77 61 56 62 76 63 57 64 60 65 75 66 95 67
REMARK SMILES IDX 58 68 59 69 74 71 96 72 61 73 44 74 45 75 54 76 46 77 47 78
REMARK SMILES IDX 53 79 55 80 48 81 49 82 50 83 51 84 52 85 78 86 79 87 88 88
REMARK SMILES IDX 80 89 81 90 87 91 89 92 82 93 83 94 84 95 85 96 86 97 62 98
REMARK SMILES IDX 63 99 72 100 64 101 65 102 71 103 73 104 66 105 67 106
REMARK SMILES IDX 68 107 69 108 70 109
REMARK H PARENT 19 13 19 14 9 24 12 26 94 59 60 70
REMARK Flexibility Score: inf
ROOT
ATOM      1  C   UNL A   1      47.667  27.549  23.840  1.00  0.00     0.188 C 
ENDROOT
BRANCH   1   2
ATOM      2  O   UNL A   1      46.300  27.868  23.958  1.00  0.00    -0.376 OA
BRANCH   2   3
ATOM      3  C   UNL A   1      45.532  27.399  25.055  1.00  0.00     0.202 C 
BRANCH   3   4
ATOM      4  C   UNL A   1      45.054  28.263  26.244  1.00  0.00     0.261 C 
BRANCH   4   5
ATOM      5  O   UNL A   1      44.003  29.185  25.956  1.00  0.00    -0.459 OA
BRANCH   5   6
ATOM      6  C   UNL A   1      42.754  28.691  25.717  1.00  0.00     0.365 C 
ATOM      7  O   UNL A   1      42.347  28.319  24.622  1.00  0.00    -0.245 OA
BRANCH   6   8
ATOM      8  C   UNL A   1      41.981  28.524  27.045  1.00  0.00     0.295 C 
ATOM      9  C   UNL A   1      42.502  26.690  28.551  1.00  0.00     0.170 C 
ATOM     10  C   UNL A   1      41.552  26.256  27.438  1.00  0.00     0.289 C 
ATOM     11  C   UNL A   1      42.838  28.151  28.246  1.00  0.00     0.110 C 
ATOM     12  N   UNL A   1      40.937  27.482  26.943  1.00  0.00    -0.333 N 
ATOM     13  H   UNL A   1      40.130  27.732  27.515  1.00  0.00     0.347 HD
ATOM     14  H   UNL A   1      40.605  27.377  25.984  1.00  0.00     0.347 HD
BRANCH   9  15
ATOM     15  N   UNL A   1      43.681  25.863  28.592  1.00  0.00    -0.243 N 
ATOM     16  C   UNL A   1      45.210  24.414  28.144  1.00  0.00     0.102 A 
ATOM     17  C   UNL A   1      44.036  24.938  27.667  1.00  0.00     0.137 A 
ATOM     18  N   UNL A   1      45.550  25.063  29.303  1.00  0.00    -0.134 NA
ATOM     19  N   UNL A   1      44.596  25.954  29.571  1.00  0.00    -0.067 NA
BRANCH  16  20
ATOM     20  C   UNL A   1      46.008  23.387  27.455  1.00  0.00     0.178 C 
BRANCH  20  21
ATOM     21  N   UNL A   1      46.521  23.787  26.179  1.00  0.00    -0.332 N 
ATOM     22  N   UNL A   1      45.811  22.320  24.405  1.00  0.00    -0.308 N 
ATOM     23  C   UNL A   1      46.307  23.458  24.913  1.00  0.00     0.319 C 
ATOM     24  H   UNL A   1      45.724  22.390  23.427  1.00  0.00     0.171 HD
ATOM     25  O   UNL A   1      46.699  24.284  24.073  1.00  0.00    -0.248 OA
ATOM     26  H   UNL A   1      47.209  24.486  26.265  1.00  0.00     0.165 HD
BRANCH  22  27
ATOM     27  C   UNL A   1      45.379  21.054  24.846  1.00  0.00     0.047 A 
ATOM     28  C   UNL A   1      43.080  22.039  25.457  1.00  0.00     0.048 C 
ATOM     29  C   UNL A   1      44.032  20.882  25.261  1.00  0.00    -0.009 A 
ATOM     30  C   UNL A   1      43.578  19.578  25.572  1.00  0.00     0.046 A 
ATOM     31  Cl  UNL A   1      41.952  19.270  26.087  1.00  0.00    -0.084 Cl
ATOM     32  C   UNL A   1      44.430  18.477  25.505  1.00  0.00     0.021 A 
ATOM     33  C   UNL A   1      46.242  19.969  24.989  1.00  0.00     0.026 A 
ATOM     34  C   UNL A   1      45.777  18.680  25.254  1.00  0.00     0.004 A 
ENDBRANCH  22  27
ENDBRANCH  20  21
ENDBRANCH  16  20
ENDBRANCH   9  15
ENDBRANCH   6   8
ENDBRANCH   5   6
ENDBRANCH   4   5
ENDBRANCH   3   4
ENDBRANCH   2   3
ENDBRANCH   1   2
BRANCH   1  35
ATOM     35  C   UNL A   1      48.551  27.640  25.102  1.00  0.00     0.188 C 
BRANCH  35  36
ATOM     36  O   UNL A   1      48.935  28.874  25.670  1.00  0.00    -0.376 OA
BRANCH  36  37
ATOM     37  C   UNL A   1      48.768  29.171  27.044  1.00  0.00     0.202 C 
BRANCH  37  38
ATOM     38  C   UNL A   1      47.999  30.379  27.569  1.00  0.00     0.261 C 
BRANCH  38  39
ATOM     39  O   UNL A   1      47.327  31.144  26.594  1.00  0.00    -0.460 OA
BRANCH  39  40
ATOM     40  C   UNL A   1      47.389  32.468  26.819  1.00  0.00     0.338 C 
ATOM     41  O   UNL A   1      48.223  33.260  26.378  1.00  0.00    -0.246 OA
BRANCH  40  42
ATOM     42  C   UNL A   1      46.315  32.847  27.725  1.00  0.00     0.060 A 
ATOM     43  C   UNL A   1      46.679  33.355  28.973  1.00  0.00     0.016 A 
ATOM     44  C   UNL A   1      45.015  32.412  27.433  1.00  0.00     0.016 A 
ATOM     45  C   UNL A   1      45.790  33.207  30.010  1.00  0.00     0.010 A 
ATOM     46  C   UNL A   1      44.137  32.251  28.472  1.00  0.00     0.010 A 
ATOM     47  C   UNL A   1      44.576  32.560  29.756  1.00  0.00    -0.014 A 
BRANCH  47  48
ATOM     48  C   UNL A   1      43.740  32.225  30.884  1.00  0.00     0.031 A 
ATOM     49  C   UNL A   1      43.857  30.809  31.281  1.00  0.00     0.074 A 
ATOM     50  C   UNL A   1      43.032  33.166  31.535  1.00  0.00     0.049 A 
ATOM     51  N   UNL A   1      42.959  29.886  31.193  1.00  0.00    -0.248 NA
ATOM     52  C   UNL A   1      45.197  30.318  31.645  1.00  0.00     0.031 C 
ATOM     53  C   UNL A   1      43.086  34.621  31.343  1.00  0.00     0.029 A 
ATOM     54  N   UNL A   1      42.183  33.029  32.588  1.00  0.00    -0.354 N 
ATOM     55  C   UNL A   1      43.552  28.757  31.744  1.00  0.00     0.074 A 
ATOM     56  C   UNL A   1      44.966  29.014  31.792  1.00  0.00     0.031 C 
ATOM     57  C   UNL A   1      42.482  35.231  32.387  1.00  0.00     0.029 A 
ATOM     58  C   UNL A   1      41.890  34.219  33.243  1.00  0.00     0.049 A 
ATOM     59  H   UNL A   1      41.807  32.162  32.861  1.00  0.00     0.167 HD
ATOM     60  C   UNL A   1      42.806  27.838  32.410  1.00  0.00     0.037 A 
ATOM     61  C   UNL A   1      41.263  34.346  34.440  1.00  0.00     0.037 A 
ATOM     62  C   UNL A   1      41.410  27.947  32.070  1.00  0.00     0.049 A 
ATOM     63  C   UNL A   1      40.506  33.089  34.667  1.00  0.00     0.074 A 
ATOM     64  C   UNL A   1      40.676  27.807  30.911  1.00  0.00     0.029 A 
ATOM     65  N   UNL A   1      40.618  28.639  32.952  1.00  0.00    -0.354 N 
ATOM     66  N   UNL A   1      39.494  32.708  33.934  1.00  0.00    -0.248 NA
ATOM     67  C   UNL A   1      41.128  32.034  35.454  1.00  0.00     0.031 C 
ATOM     68  C   UNL A   1      39.617  28.757  31.013  1.00  0.00     0.029 A 
ATOM     69  C   UNL A   1      39.722  29.402  32.246  1.00  0.00     0.049 A 
ATOM     70  H   UNL A   1      40.683  28.596  33.933  1.00  0.00     0.167 HD
ATOM     71  C   UNL A   1      39.626  31.331  33.832  1.00  0.00     0.074 A 
ATOM     72  C   UNL A   1      40.555  30.965  34.896  1.00  0.00     0.031 C 
ATOM     73  C   UNL A   1      39.193  30.668  32.719  1.00  0.00     0.037 A 
BRANCH  60  74
ATOM     74  C   UNL A   1      43.292  27.158  33.666  1.00  0.00     0.058 A 
ATOM     75  C   UNL A   1      43.495  27.915  34.834  1.00  0.00     0.135 A 
ATOM     76  C   UNL A   1      43.819  25.845  33.689  1.00  0.00     0.135 A 
ATOM     77  F   UNL A   1      43.071  29.187  34.903  1.00  0.00    -0.206 F 
ATOM     78  C   UNL A   1      44.199  27.415  35.931  1.00  0.00     0.059 A 
ATOM     79  C   UNL A   1      44.468  25.306  34.791  1.00  0.00     0.059 A 
ATOM     80  F   UNL A   1      43.824  25.053  32.609  1.00  0.00    -0.206 F 
ATOM     81  C   UNL A   1      44.685  26.110  35.896  1.00  0.00     0.060 A 
BRANCH  81  82
ATOM     82  S   UNL A   1      45.658  25.481  37.273  1.00  0.00     0.124 S 
ATOM     83  O   UNL A   1      44.691  24.618  37.939  1.00  0.00    -0.237 OA
ATOM     84  O   UNL A   1      46.753  24.806  36.585  1.00  0.00    -0.237 OA
ATOM     85  O   UNL A   1      46.033  26.690  37.999  1.00  0.00    -0.744 OA
ENDBRANCH  81  82
ENDBRANCH  60  74
BRANCH  61  86
ATOM     86  C   UNL A   1      41.555  35.324  35.521  1.00  0.00     0.058 A 
ATOM     87  C   UNL A   1      40.524  35.954  36.241  1.00  0.00     0.135 A 
ATOM     88  C   UNL A   1      42.853  35.454  36.057  1.00  0.00     0.135 A 
ATOM     89  F   UNL A   1      39.253  35.857  35.822  1.00  0.00    -0.206 F 
ATOM     90  C   UNL A   1      40.761  36.637  37.441  1.00  0.00     0.059 A 
ATOM     91  C   UNL A   1      43.115  36.138  37.243  1.00  0.00     0.059 A 
ATOM     92  F   UNL A   1      43.902  34.839  35.490  1.00  0.00    -0.206 F 
ATOM     93  C   UNL A   1      42.060  36.709  37.943  1.00  0.00     0.060 A 
BRANCH  93  94
ATOM     94  S   UNL A   1      42.350  37.449  39.567  1.00  0.00     0.124 S 
ATOM     95  O   UNL A   1      41.430  38.582  39.552  1.00  0.00    -0.237 OA
ATOM     96  O   UNL A   1      42.004  36.359  40.471  1.00  0.00    -0.237 OA
ATOM     97  O   UNL A   1      43.768  37.799  39.533  1.00  0.00    -0.744 OA
ENDBRANCH  93  94
ENDBRANCH  61  86
BRANCH  73  98
ATOM     98  C   UNL A   1      38.239  31.398  31.804  1.00  0.00     0.058 A 
ATOM     99  C   UNL A   1      38.627  32.236  30.743  1.00  0.00     0.135 A 
ATOM    100  C   UNL A   1      36.867  31.142  31.942  1.00  0.00     0.135 A 
ATOM    101  F   UNL A   1      39.922  32.456  30.477  1.00  0.00    -0.206 F 
ATOM    102  C   UNL A   1      37.693  32.827  29.889  1.00  0.00     0.059 A 
ATOM    103  C   UNL A   1      35.919  31.693  31.083  1.00  0.00     0.059 A 
ATOM    104  F   UNL A   1      36.433  30.303  32.898  1.00  0.00    -0.206 F 
ATOM    105  C   UNL A   1      36.338  32.548  30.066  1.00  0.00     0.060 A 
BRANCH 105 106
ATOM    106  S   UNL A   1      35.135  33.252  28.918  1.00  0.00     0.124 S 
ATOM    107  O   UNL A   1      34.820  34.530  29.546  1.00  0.00    -0.237 OA
ATOM    108  O   UNL A   1      35.892  33.329  27.671  1.00  0.00    -0.237 OA
ATOM    109  O   UNL A   1      34.051  32.273  28.917  1.00  0.00    -0.744 OA
ENDBRANCH 105 106
ENDBRANCH  73  98
ENDBRANCH  47  48
ENDBRANCH  40  42
ENDBRANCH  39  40
ENDBRANCH  38  39
ENDBRANCH  37  38
ENDBRANCH  36  37
ENDBRANCH  35  36
ENDBRANCH   1  35
TORSDOF 24
ENDMDL
MODEL 2
REMARK VINA RESULT:      -7.8      6.364     12.749
REMARK SMILES Cc1c(Cl)cccc1NC(=O)NCc1cn([C@@H]2C[NH2+][C@H](C(=O)OCCOCCOCCOC(=O)c3ccc(-c4c5nc(c(-c6c(F)cc(S(=O)(=O)[O-])cc6F)c6ccc([nH]6)c(-c6c(F)cc(S(=O)(=O)[O-])cc6F)c6nc(c(-c7c(F)cc(S(=O)(=O)[O-])cc7F)c7ccc4[nH]7)C=C6)C=C5)cc3)C2)nn1
REMARK SMILES IDX 27 1 26 2 25 3 24 4 23 5 21 6 22 7 20 8 17 9 18 10 101 11
REMARK SMILES IDX 19 12 16 15 14 16 15 17 103 18 102 19 13 20 12 21 9 22 10 23
REMARK SMILES IDX 11 25 8 27 1 28 2 29 3 30 4 31 5 32 7 33 6 34 28 35 29 36
REMARK SMILES IDX 30 37 31 38 32 39 33 40 34 41 35 42 36 43 100 44 37 45 99 46
REMARK SMILES IDX 38 47 39 48 40 49 93 50 41 51 98 52 92 53 94 54 42 55 97 56
REMARK SMILES IDX 91 57 90 58 43 60 77 61 56 62 76 63 57 64 60 65 75 66 95 67
REMARK SMILES IDX 58 68 59 69 74 71 96 72 61 73 44 74 45 75 54 76 46 77 47 78
REMARK SMILES IDX 53 79 55 80 48 81 49 82 50 83 51 84 52 85 78 86 79 87 88 88
REMARK SMILES IDX 80 89 81 90 87 91 89 92 82 93 83 94 84 95 85 96 86 97 62 98
REMARK SMILES IDX 63 99 72 100 64 101 65 102 71 103 73 104 66 105 67 106
REMARK SMILES IDX 68 107 69 108 70 109
REMARK H PARENT 19 13 19 14 9 24 12 26 94 59 60 70
REMARK Flexibility Score: inf
ROOT
ATOM      1  C   UNL A   1      42.783  29.013  27.371  1.00  0.00     0.188 C 
ENDROOT
BRANCH   1   2
ATOM      2  O   UNL A   1      41.673  28.974  28.238  1.00  0.00    -0.376 OA
BRANCH   2   3
ATOM      3  C   UNL A   1      40.385  29.369  27.796  1.00  0.00     0.202 C 
BRANCH   3   4
ATOM      4  C   UNL A   1      39.106  29.376  28.664  1.00  0.00     0.261 C 
BRANCH   4   5
ATOM      5  O   UNL A   1      38.567  30.665  28.961  1.00  0.00    -0.459 OA
BRANCH   5   6
ATOM      6  C   UNL A   1      37.318  30.967  28.501  1.00  0.00     0.365 C 
ATOM      7  O   UNL A   1      36.700  30.310  27.672  1.00  0.00    -0.245 OA
BRANCH   6   8
ATOM      8  C   UNL A   1      36.736  32.165  29.286  1.00  0.00     0.295 C 
ATOM      9  C   UNL A   1      34.561  33.079  28.705  1.00  0.00     0.170 C 
ATOM     10  C   UNL A   1      35.666  33.638  27.812  1.00  0.00     0.289 C 
ATOM     11  C   UNL A   1      35.255  32.062  29.614  1.00  0.00     0.110 C 
ATOM     12  N   UNL A   1      36.908  33.436  28.549  1.00  0.00    -0.333 N 
ATOM     13  H   UNL A   1      37.065  34.205  29.201  1.00  0.00     0.347 HD
ATOM     14  H   UNL A   1      37.715  33.402  27.925  1.00  0.00     0.347 HD
BRANCH   9  15
ATOM     15  N   UNL A   1      33.508  32.476  27.927  1.00  0.00    -0.243 N 
ATOM     16  C   UNL A   1      32.285  31.091  26.821  1.00  0.00     0.102 A 
ATOM     17  C   UNL A   1      33.452  31.179  27.536  1.00  0.00     0.137 A 
ATOM     18  N   UNL A   1      31.656  32.309  26.842  1.00  0.00    -0.134 NA
ATOM     19  N   UNL A   1      32.423  33.157  27.526  1.00  0.00    -0.067 NA
BRANCH  16  20
ATOM     20  C   UNL A   1      31.765  29.853  26.218  1.00  0.00     0.178 C 
BRANCH  20  21
ATOM     21  N   UNL A   1      31.305  29.995  24.869  1.00  0.00    -0.332 N 
ATOM     22  N   UNL A   1      30.554  27.906  23.932  1.00  0.00    -0.308 N 
ATOM     23  C   UNL A   1      30.653  29.242  23.993  1.00  0.00     0.319 C 
ATOM     24  H   UNL A   1      29.960  27.640  23.194  1.00  0.00     0.171 HD
ATOM     25  O   UNL A   1      30.134  29.854  23.047  1.00  0.00    -0.248 OA
ATOM     26  H   UNL A   1      31.530  30.878  24.498  1.00  0.00     0.165 HD
BRANCH  22  27
ATOM     27  C   UNL A   1      31.043  26.768  24.603  1.00  0.00     0.047 A 
ATOM     28  C   UNL A   1      33.382  27.169  23.605  1.00  0.00     0.048 C 
ATOM     29  C   UNL A   1      32.426  26.459  24.536  1.00  0.00    -0.009 A 
ATOM     30  C   UNL A   1      32.924  25.392  25.324  1.00  0.00     0.046 A 
ATOM     31  Cl  UNL A   1      34.598  24.942  25.308  1.00  0.00    -0.084 Cl
ATOM     32  C   UNL A   1      32.081  24.633  26.132  1.00  0.00     0.021 A 
ATOM     33  C   UNL A   1      30.210  25.863  25.259  1.00  0.00     0.026 A 
ATOM     34  C   UNL A   1      30.714  24.841  26.067  1.00  0.00     0.004 A 
ENDBRANCH  22  27
ENDBRANCH  20  21
ENDBRANCH  16  20
ENDBRANCH   9  15
ENDBRANCH   6   8
ENDBRANCH   5   6
ENDBRANCH   4   5
ENDBRANCH   3   4
ENDBRANCH   2   3
ENDBRANCH   1   2
BRANCH   1  35
ATOM     35  C   UNL A   1      43.633  30.301  27.330  1.00  0.00     0.188 C 
BRANCH  35  36
ATOM     36  O   UNL A   1      43.550  31.229  26.270  1.00  0.00    -0.376 OA
BRANCH  36  37
ATOM     37  C   UNL A   1      44.540  32.214  26.034  1.00  0.00     0.202 C 
BRANCH  37  38
ATOM     38  C   UNL A   1      44.373  33.690  26.379  1.00  0.00     0.261 C 
BRANCH  38  39
ATOM     39  O   UNL A   1      44.775  34.061  27.679  1.00  0.00    -0.460 OA
BRANCH  39  40
ATOM     40  C   UNL A   1      45.992  34.631  27.717  1.00  0.00     0.338 C 
ATOM     41  O   UNL A   1      46.289  35.777  27.372  1.00  0.00    -0.246 OA
BRANCH  40  42
ATOM     42  C   UNL A   1      46.957  33.659  28.205  1.00  0.00     0.060 A 
ATOM     43  C   UNL A   1      48.161  33.544  27.506  1.00  0.00     0.016 A 
ATOM     44  C   UNL A   1      46.525  32.701  29.133  1.00  0.00     0.016 A 
ATOM     45  C   UNL A   1      48.825  32.343  27.565  1.00  0.00     0.010 A 
ATOM     46  C   UNL A   1      47.179  31.498  29.176  1.00  0.00     0.010 A 
ATOM     47  C   UNL A   1      48.259  31.308  28.318  1.00  0.00    -0.014 A 
BRANCH  47  48
ATOM     48  C   UNL A   1      48.846  29.994  28.210  1.00  0.00     0.031 A 
ATOM     49  C   UNL A   1      49.957  29.786  29.157  1.00  0.00     0.074 A 
ATOM     50  C   UNL A   1      48.327  29.059  27.393  1.00  0.00     0.049 A 
ATOM     51  N   UNL A   1      51.210  29.637  28.887  1.00  0.00    -0.248 NA
ATOM     52  C   UNL A   1      49.663  29.952  30.591  1.00  0.00     0.031 C 
ATOM     53  C   UNL A   1      47.074  29.132  26.630  1.00  0.00     0.029 A 
ATOM     54  N   UNL A   1      48.759  27.794  27.149  1.00  0.00    -0.354 N 
ATOM     55  C   UNL A   1      51.819  29.425  30.117  1.00  0.00     0.074 A 
ATOM     56  C   UNL A   1      50.880  29.848  31.122  1.00  0.00     0.031 C 
ATOM     57  C   UNL A   1      46.743  27.895  26.197  1.00  0.00     0.029 A 
ATOM     58  C   UNL A   1      47.817  26.977  26.535  1.00  0.00     0.049 A 
ATOM     59  H   UNL A   1      49.662  27.483  27.386  1.00  0.00     0.167 HD
ATOM     60  C   UNL A   1      52.911  28.624  30.221  1.00  0.00     0.037 A 
ATOM     61  C   UNL A   1      47.895  25.632  26.382  1.00  0.00     0.037 A 
ATOM     62  C   UNL A   1      53.558  28.449  28.946  1.00  0.00     0.049 A 
ATOM     63  C   UNL A   1      49.330  25.266  26.500  1.00  0.00     0.074 A 
ATOM     64  C   UNL A   1      54.174  29.289  28.042  1.00  0.00     0.029 A 
ATOM     65  N   UNL A   1      53.270  27.291  28.268  1.00  0.00    -0.354 N 
ATOM     66  N   UNL A   1      50.245  25.633  25.644  1.00  0.00    -0.248 NA
ATOM     67  C   UNL A   1      49.834  24.837  27.796  1.00  0.00     0.031 C 
ATOM     68  C   UNL A   1      53.883  28.746  26.756  1.00  0.00     0.029 A 
ATOM     69  C   UNL A   1      53.144  27.574  26.931  1.00  0.00     0.049 A 
ATOM     70  H   UNL A   1      53.168  26.400  28.675  1.00  0.00     0.167 HD
ATOM     71  C   UNL A   1      51.369  25.892  26.413  1.00  0.00     0.074 A 
ATOM     72  C   UNL A   1      51.099  25.252  27.697  1.00  0.00     0.031 C 
ATOM     73  C   UNL A   1      52.276  26.840  26.029  1.00  0.00     0.037 A 
BRANCH  60  74
ATOM     74  C   UNL A   1      53.113  27.677  31.379  1.00  0.00     0.058 A 
ATOM     75  C   UNL A   1      54.299  27.742  32.132  1.00  0.00     0.135 A 
ATOM     76  C   UNL A   1      52.306  26.537  31.606  1.00  0.00     0.135 A 
ATOM     77  F   UNL A   1      55.157  28.761  31.965  1.00  0.00    -0.206 F 
ATOM     78  C   UNL A   1      54.671  26.732  33.022  1.00  0.00     0.059 A 
ATOM     79  C   UNL A   1      52.626  25.552  32.529  1.00  0.00     0.059 A 
ATOM     80  F   UNL A   1      51.220  26.267  30.871  1.00  0.00    -0.206 F 
ATOM     81  C   UNL A   1      53.828  25.639  33.208  1.00  0.00     0.060 A 
BRANCH  81  82
ATOM     82  S   UNL A   1      54.333  24.296  34.294  1.00  0.00     0.124 S 
ATOM     83  O   UNL A   1      55.053  25.021  35.334  1.00  0.00    -0.237 OA
ATOM     84  O   UNL A   1      53.049  23.723  34.682  1.00  0.00    -0.237 OA
ATOM     85  O   UNL A   1      55.152  23.454  33.428  1.00  0.00    -0.744 OA
ENDBRANCH  81  82
ENDBRANCH  60  74
BRANCH  61  86
ATOM     86  C   UNL A   1      46.794  24.638  26.483  1.00  0.00     0.058 A 
ATOM     87  C   UNL A   1      46.030  24.505  27.656  1.00  0.00     0.135 A 
ATOM     88  C   UNL A   1      46.288  23.988  25.338  1.00  0.00     0.135 A 
ATOM     89  F   UNL A   1      46.418  25.115  28.786  1.00  0.00    -0.206 F 
ATOM     90  C   UNL A   1      44.817  23.804  27.682  1.00  0.00     0.059 A 
ATOM     91  C   UNL A   1      45.090  23.276  25.342  1.00  0.00     0.059 A 
ATOM     92  F   UNL A   1      46.900  24.102  24.150  1.00  0.00    -0.206 F 
ATOM     93  C   UNL A   1      44.346  23.206  26.513  1.00  0.00     0.060 A 
BRANCH  93  94
ATOM     94  S   UNL A   1      42.709  22.438  26.498  1.00  0.00     0.124 S 
ATOM     95  O   UNL A   1      41.840  23.584  26.252  1.00  0.00    -0.237 OA
ATOM     96  O   UNL A   1      42.827  21.480  25.404  1.00  0.00    -0.237 OA
ATOM     97  O   UNL A   1      42.599  21.848  27.829  1.00  0.00    -0.744 OA
ENDBRANCH  93  94
ENDBRANCH  61  86
BRANCH  73  98
ATOM     98  C   UNL A   1      52.230  27.302  24.592  1.00  0.00     0.058 A 
ATOM     99  C   UNL A   1      52.791  26.604  23.507  1.00  0.00     0.135 A 
ATOM    100  C   UNL A   1      51.484  28.451  24.292  1.00  0.00     0.135 A 
ATOM    101  F   UNL A   1      53.435  25.444  23.693  1.00  0.00    -0.206 F 
ATOM    102  C   UNL A   1      52.652  27.052  22.191  1.00  0.00     0.059 A 
ATOM    103  C   UNL A   1      51.305  28.898  22.985  1.00  0.00     0.059 A 
ATOM    104  F   UNL A   1      50.873  29.131  25.276  1.00  0.00    -0.206 F 
ATOM    105  C   UNL A   1      51.905  28.202  21.939  1.00  0.00     0.060 A 
BRANCH 105 106
ATOM    106  S   UNL A   1      51.664  28.740  20.233  1.00  0.00     0.124 S 
ATOM    107  O   UNL A   1      52.932  28.374  19.611  1.00  0.00    -0.237 OA
ATOM    108  O   UNL A   1      50.504  27.959  19.813  1.00  0.00    -0.237 OA
ATOM    109  O   UNL A   1      51.422  30.175  20.359  1.00  0.00    -0.744 OA
ENDBRANCH 105 106
ENDBRANCH  73  98
ENDBRANCH  47  48
ENDBRANCH  40  42
ENDBRANCH  39  40
ENDBRANCH  38  39
ENDBRANCH  37  38
ENDBRANCH  36  37
ENDBRANCH  35  36
ENDBRANCH   1  35
TORSDOF 24
ENDMDL
MODEL 3
REMARK VINA RESULT:      -7.7      8.144     12.763
REMARK SMILES Cc1c(Cl)cccc1NC(=O)NCc1cn([C@@H]2C[NH2+][C@H](C(=O)OCCOCCOCCOC(=O)c3ccc(-c4c5nc(c(-c6c(F)cc(S(=O)(=O)[O-])cc6F)c6ccc([nH]6)c(-c6c(F)cc(S(=O)(=O)[O-])cc6F)c6nc(c(-c7c(F)cc(S(=O)(=O)[O-])cc7F)c7ccc4[nH]7)C=C6)C=C5)cc3)C2)nn1
REMARK SMILES IDX 27 1 26 2 25 3 24 4 23 5 21 6 22 7 20 8 17 9 18 10 101 11
REMARK SMILES IDX 19 12 16 15 14 16 15 17 103 18 102 19 13 20 12 21 9 22 10 23
REMARK SMILES IDX 11 25 8 27 1 28 2 29 3 30 4 31 5 32 7 33 6 34 28 35 29 36
REMARK SMILES IDX 30 37 31 38 32 39 33 40 34 41 35 42 36 43 100 44 37 45 99 46
REMARK SMILES IDX 38 47 39 48 40 49 93 50 41 51 98 52 92 53 94 54 42 55 97 56
REMARK SMILES IDX 91 57 90 58 43 60 77 61 56 62 76 63 57 64 60 65 75 66 95 67
REMARK SMILES IDX 58 68 59 69 74 71 96 72 61 73 44 74 45 75 54 76 46 77 47 78
REMARK SMILES IDX 53 79 55 80 48 81 49 82 50 83 51 84 52 85 78 86 79 87 88 88
REMARK SMILES IDX 80 89 81 90 87 91 89 92 82 93 83 94 84 95 85 96 86 97 62 98
REMARK SMILES IDX 63 99 72 100 64 101 65 102 71 103 73 104 66 105 67 106
REMARK SMILES IDX 68 107 69 108 70 109
REMARK H PARENT 19 13 19 14 9 24 12 26 94 59 60 70
REMARK Flexibility Score: inf
ROOT
ATOM      1  C   UNL A   1      45.282  41.235  31.394  1.00  0.00     0.188 C 
ENDROOT
BRANCH   1   2
ATOM      2  O   UNL A   1      44.312  41.842  30.572  1.00  0.00    -0.376 OA
BRANCH   2   3
ATOM      3  C   UNL A   1      43.947  43.201  30.752  1.00  0.00     0.202 C 
BRANCH   3   4
ATOM      4  C   UNL A   1      44.434  44.380  29.879  1.00  0.00     0.261 C 
BRANCH   4   5
ATOM      5  O   UNL A   1      45.632  44.147  29.137  1.00  0.00    -0.459 OA
BRANCH   5   6
ATOM      6  C   UNL A   1      45.523  43.830  27.814  1.00  0.00     0.365 C 
ATOM      7  O   UNL A   1      45.274  44.631  26.921  1.00  0.00    -0.245 OA
BRANCH   6   8
ATOM      8  C   UNL A   1      45.910  42.351  27.586  1.00  0.00     0.295 C 
ATOM      9  C   UNL A   1      45.536  41.298  25.429  1.00  0.00     0.170 C 
ATOM     10  C   UNL A   1      44.274  41.290  26.288  1.00  0.00     0.289 C 
ATOM     11  C   UNL A   1      46.578  42.058  26.251  1.00  0.00     0.110 C 
ATOM     12  N   UNL A   1      44.733  41.460  27.662  1.00  0.00    -0.333 N 
ATOM     13  H   UNL A   1      44.995  40.559  28.064  1.00  0.00     0.347 HD
ATOM     14  H   UNL A   1      44.003  41.853  28.257  1.00  0.00     0.347 HD
BRANCH   9  15
ATOM     15  N   UNL A   1      45.300  41.920  24.150  1.00  0.00    -0.243 N 
ATOM     16  C   UNL A   1      44.499  43.109  22.542  1.00  0.00     0.102 A 
ATOM     17  C   UNL A   1      44.328  42.824  23.873  1.00  0.00     0.137 A 
ATOM     18  N   UNL A   1      45.584  42.414  22.073  1.00  0.00    -0.134 NA
ATOM     19  N   UNL A   1      46.069  41.681  23.075  1.00  0.00    -0.067 NA
BRANCH  16  20
ATOM     20  C   UNL A   1      43.694  44.080  21.784  1.00  0.00     0.178 C 
BRANCH  20  21
ATOM     21  N   UNL A   1      42.965  43.521  20.686  1.00  0.00    -0.332 N 
ATOM     22  N   UNL A   1      43.542  44.547  18.584  1.00  0.00    -0.308 N 
ATOM     23  C   UNL A   1      43.021  43.587  19.363  1.00  0.00     0.319 C 
ATOM     24  H   UNL A   1      43.478  44.291  17.635  1.00  0.00     0.171 HD
ATOM     25  O   UNL A   1      42.434  42.677  18.757  1.00  0.00    -0.248 OA
ATOM     26  H   UNL A   1      42.234  42.937  20.992  1.00  0.00     0.165 HD
BRANCH  22  27
ATOM     27  C   UNL A   1      44.152  45.810  18.711  1.00  0.00     0.047 A 
ATOM     28  C   UNL A   1      42.228  46.887  17.382  1.00  0.00     0.048 C 
ATOM     29  C   UNL A   1      43.480  46.962  18.225  1.00  0.00    -0.009 A 
ATOM     30  C   UNL A   1      44.043  48.236  18.480  1.00  0.00     0.046 A 
ATOM     31  Cl  UNL A   1      43.294  49.698  17.927  1.00  0.00    -0.084 Cl
ATOM     32  C   UNL A   1      45.247  48.373  19.169  1.00  0.00     0.021 A 
ATOM     33  C   UNL A   1      45.443  45.978  19.210  1.00  0.00     0.026 A 
ATOM     34  C   UNL A   1      45.970  47.239  19.497  1.00  0.00     0.004 A 
ENDBRANCH  22  27
ENDBRANCH  20  21
ENDBRANCH  16  20
ENDBRANCH   9  15
ENDBRANCH   6   8
ENDBRANCH   5   6
ENDBRANCH   4   5
ENDBRANCH   3   4
ENDBRANCH   2   3
ENDBRANCH   1   2
BRANCH   1  35
ATOM     35  C   UNL A   1      46.369  40.368  30.723  1.00  0.00     0.188 C 
BRANCH  35  36
ATOM     36  O   UNL A   1      46.096  39.532  29.619  1.00  0.00    -0.376 OA
BRANCH  36  37
ATOM     37  C   UNL A   1      47.108  39.046  28.757  1.00  0.00     0.202 C 
BRANCH  37  38
ATOM     38  C   UNL A   1      46.843  38.158  27.545  1.00  0.00     0.261 C 
BRANCH  38  39
ATOM     39  O   UNL A   1      46.722  36.779  27.815  1.00  0.00    -0.460 OA
BRANCH  39  40
ATOM     40  C   UNL A   1      45.533  36.268  27.452  1.00  0.00     0.338 C 
ATOM     41  O   UNL A   1      45.177  35.940  26.319  1.00  0.00    -0.246 OA
BRANCH  40  42
ATOM     42  C   UNL A   1      44.673  36.188  28.623  1.00  0.00     0.060 A 
ATOM     43  C   UNL A   1      45.228  35.664  29.792  1.00  0.00     0.016 A 
ATOM     44  C   UNL A   1      43.291  36.347  28.444  1.00  0.00     0.016 A 
ATOM     45  C   UNL A   1      44.378  35.076  30.698  1.00  0.00     0.010 A 
ATOM     46  C   UNL A   1      42.448  35.745  29.341  1.00  0.00     0.010 A 
ATOM     47  C   UNL A   1      43.012  35.037  30.398  1.00  0.00    -0.014 A 
BRANCH  47  48
ATOM     48  C   UNL A   1      42.157  34.243  31.246  1.00  0.00     0.031 A 
ATOM     49  C   UNL A   1      42.796  33.881  32.525  1.00  0.00     0.074 A 
ATOM     50  C   UNL A   1      40.880  33.981  30.906  1.00  0.00     0.049 A 
ATOM     51  N   UNL A   1      43.158  32.709  32.925  1.00  0.00    -0.248 NA
ATOM     52  C   UNL A   1      43.261  34.984  33.384  1.00  0.00     0.031 C 
ATOM     53  C   UNL A   1      40.123  34.534  29.777  1.00  0.00     0.029 A 
ATOM     54  N   UNL A   1      39.951  33.239  31.563  1.00  0.00    -0.354 N 
ATOM     55  C   UNL A   1      43.657  32.906  34.206  1.00  0.00     0.074 A 
ATOM     56  C   UNL A   1      43.902  34.317  34.343  1.00  0.00     0.031 C 
ATOM     57  C   UNL A   1      38.807  34.286  29.959  1.00  0.00     0.029 A 
ATOM     58  C   UNL A   1      38.645  33.452  31.136  1.00  0.00     0.049 A 
ATOM     59  H   UNL A   1      40.182  32.605  32.279  1.00  0.00     0.167 HD
ATOM     60  C   UNL A   1      43.525  31.945  35.157  1.00  0.00     0.037 A 
ATOM     61  C   UNL A   1      37.516  33.024  31.754  1.00  0.00     0.037 A 
ATOM     62  C   UNL A   1      43.265  30.656  34.569  1.00  0.00     0.049 A 
ATOM     63  C   UNL A   1      37.906  31.891  32.632  1.00  0.00     0.074 A 
ATOM     64  C   UNL A   1      43.953  29.817  33.716  1.00  0.00     0.029 A 
ATOM     65  N   UNL A   1      41.955  30.247  34.544  1.00  0.00    -0.354 N 
ATOM     66  N   UNL A   1      38.353  30.748  32.186  1.00  0.00    -0.248 NA
ATOM     67  C   UNL A   1      38.199  32.164  34.032  1.00  0.00     0.031 C 
ATOM     68  C   UNL A   1      42.955  29.183  32.919  1.00  0.00     0.029 A 
ATOM     69  C   UNL A   1      41.702  29.623  33.349  1.00  0.00     0.049 A 
ATOM     70  H   UNL A   1      41.301  30.382  35.268  1.00  0.00     0.167 HD
ATOM     71  C   UNL A   1      39.330  30.368  33.095  1.00  0.00     0.074 A 
ATOM     72  C   UNL A   1      39.089  31.198  34.271  1.00  0.00     0.031 C 
ATOM     73  C   UNL A   1      40.406  29.627  32.696  1.00  0.00     0.037 A 
BRANCH  60  74
ATOM     74  C   UNL A   1      43.206  32.268  36.596  1.00  0.00     0.058 A 
ATOM     75  C   UNL A   1      42.011  32.940  36.910  1.00  0.00     0.135 A 
ATOM     76  C   UNL A   1      44.152  32.180  37.645  1.00  0.00     0.135 A 
ATOM     77  F   UNL A   1      41.063  33.116  35.976  1.00  0.00    -0.206 F 
ATOM     78  C   UNL A   1      41.787  33.512  38.164  1.00  0.00     0.059 A 
ATOM     79  C   UNL A   1      43.925  32.686  38.916  1.00  0.00     0.059 A 
ATOM     80  F   UNL A   1      45.385  31.691  37.461  1.00  0.00    -0.206 F 
ATOM     81  C   UNL A   1      42.755  33.383  39.158  1.00  0.00     0.060 A 
BRANCH  81  82
ATOM     82  S   UNL A   1      42.509  34.180  40.753  1.00  0.00     0.124 S 
ATOM     83  O   UNL A   1      41.383  35.059  40.466  1.00  0.00    -0.237 OA
ATOM     84  O   UNL A   1      42.229  33.040  41.619  1.00  0.00    -0.237 OA
ATOM     85  O   UNL A   1      43.786  34.845  40.995  1.00  0.00    -0.744 OA
ENDBRANCH  81  82
ENDBRANCH  60  74
BRANCH  61  86
ATOM     86  C   UNL A   1      36.221  33.743  31.886  1.00  0.00     0.058 A 
ATOM     87  C   UNL A   1      36.068  34.824  32.772  1.00  0.00     0.135 A 
ATOM     88  C   UNL A   1      35.186  33.562  30.945  1.00  0.00     0.135 A 
ATOM     89  F   UNL A   1      37.018  35.091  33.681  1.00  0.00    -0.206 F 
ATOM     90  C   UNL A   1      34.974  35.697  32.704  1.00  0.00     0.059 A 
ATOM     91  C   UNL A   1      34.083  34.411  30.865  1.00  0.00     0.059 A 
ATOM     92  F   UNL A   1      35.260  32.604  30.010  1.00  0.00    -0.206 F 
ATOM     93  C   UNL A   1      33.994  35.491  31.734  1.00  0.00     0.060 A 
BRANCH  93  94
ATOM     94  S   UNL A   1      32.665  36.701  31.534  1.00  0.00     0.124 S 
ATOM     95  O   UNL A   1      33.199  37.857  32.248  1.00  0.00    -0.237 OA
ATOM     96  O   UNL A   1      32.579  36.832  30.084  1.00  0.00    -0.237 OA
ATOM     97  O   UNL A   1      31.519  36.054  32.167  1.00  0.00    -0.744 OA
ENDBRANCH  93  94
ENDBRANCH  61  86
BRANCH  73  98
ATOM     98  C   UNL A   1      40.306  28.918  31.366  1.00  0.00     0.058 A 
ATOM     99  C   UNL A   1      40.986  29.304  30.197  1.00  0.00     0.135 A 
ATOM    100  C   UNL A   1      39.571  27.725  31.310  1.00  0.00     0.135 A 
ATOM    101  F   UNL A   1      41.789  30.376  30.190  1.00  0.00    -0.206 F 
ATOM    102  C   UNL A   1      40.903  28.562  29.016  1.00  0.00     0.059 A 
ATOM    103  C   UNL A   1      39.501  26.951  30.153  1.00  0.00     0.059 A 
ATOM    104  F   UNL A   1      38.946  27.268  32.408  1.00  0.00    -0.206 F 
ATOM    105  C   UNL A   1      40.157  27.384  29.004  1.00  0.00     0.060 A 
BRANCH 105 106
ATOM    106  S   UNL A   1      40.110  26.386  27.500  1.00  0.00     0.124 S 
ATOM    107  O   UNL A   1      40.441  27.364  26.470  1.00  0.00    -0.237 OA
ATOM    108  O   UNL A   1      41.127  25.371  27.759  1.00  0.00    -0.237 OA
ATOM    109  O   UNL A   1      38.739  25.884  27.467  1.00  0.00    -0.744 OA
ENDBRANCH 105 106
ENDBRANCH  73  98
ENDBRANCH  47  48
ENDBRANCH  40  42
ENDBRANCH  39  40
ENDBRANCH  38  39
ENDBRANCH  37  38
ENDBRANCH  36  37
ENDBRANCH  35  36
ENDBRANCH   1  35
TORSDOF 24
ENDMDL
