MODEL 1
REMARK VINA RESULT:      -9.0      0.000      0.000
REMARK SMILES CC[NH2+][C@]1(C(=O)OCCOCCOCCOC(=O)c2ccc(-c3c4nc(c(-c5c(F)cc(S(=O)(=O)[O-])cc5F)c5ccc([nH]5)c(-c5c(F)cc(S(=O)(=O)[O-])cc5F)c5nc(c(-c6c(F)cc(S(=O)(=O)[O-])cc6F)c6ccc3[nH]6)C=C5)C=C4)cc2)CCC[C@@H]1CCSc1ccccc1F
REMARK SMILES IDX 11 1 10 2 9 3 8 4 7 5 5 6 6 7 4 8 85 9 88 10 86 11 87 12
REMARK SMILES IDX 3 13 2 16 1 17 89 18 90 19 91 20 92 21 93 22 97 23 94 24
REMARK SMILES IDX 96 25 98 26 95 27 12 28 13 29 14 30 15 31 16 32 17 33 18 34
REMARK SMILES IDX 19 35 20 36 84 37 21 38 83 39 22 40 23 41 24 42 77 43 25 44
REMARK SMILES IDX 82 45 76 46 78 47 26 48 81 49 75 50 74 51 27 53 61 54 40 55
REMARK SMILES IDX 60 56 41 57 44 58 59 59 79 60 42 61 43 62 58 64 80 65 45 66
REMARK SMILES IDX 28 67 29 68 38 69 30 70 31 71 37 72 39 73 32 74 33 75 34 76
REMARK SMILES IDX 35 77 36 78 62 79 63 80 72 81 64 82 65 83 71 84 73 85 66 86
REMARK SMILES IDX 67 87 68 88 69 89 70 90 46 91 47 92 56 93 48 94 49 95 55 96
REMARK SMILES IDX 57 97 50 98 51 99 52 100 53 101 54 102
REMARK H PARENT 3 14 3 15 78 52 44 63
REMARK Flexibility Score: inf
ROOT
ATOM      1  C   UNL A   1      41.008  21.478  27.282  1.00  0.00     0.188 C 
ENDROOT
BRANCH   1   2
ATOM      2  O   UNL A   1      39.655  21.913  27.247  1.00  0.00    -0.376 OA
BRANCH   2   3
ATOM      3  C   UNL A   1      38.879  21.779  26.075  1.00  0.00     0.202 C 
BRANCH   3   4
ATOM      4  C   UNL A   1      37.833  22.857  25.739  1.00  0.00     0.261 C 
BRANCH   4   5
ATOM      5  O   UNL A   1      36.468  22.623  26.129  1.00  0.00    -0.459 OA
BRANCH   5   6
ATOM      6  C   UNL A   1      35.543  23.296  25.381  1.00  0.00     0.368 C 
ATOM      7  O   UNL A   1      35.849  24.204  24.614  1.00  0.00    -0.245 OA
BRANCH   6   8
ATOM      8  C   UNL A   1      34.069  22.855  25.663  1.00  0.00     0.197 C 
ATOM      9  C   UNL A   1      34.099  22.620  27.207  1.00  0.00     0.081 C 
ATOM     10  C   UNL A   1      32.897  23.911  25.597  1.00  0.00     0.063 C 
ATOM     11  C   UNL A   1      32.672  22.553  27.672  1.00  0.00     0.008 C 
ATOM     12  C   UNL A   1      31.917  23.322  26.621  1.00  0.00     0.011 C 
BRANCH   8  13
ATOM     13  N   UNL A   1      33.659  21.691  24.830  1.00  0.00    -0.332 N 
ATOM     14  H   UNL A   1      32.652  21.751  24.688  1.00  0.00     0.347 HD
ATOM     15  H   UNL A   1      34.216  21.762  23.977  1.00  0.00     0.347 HD
BRANCH  13  16
ATOM     16  C   UNL A   1      33.950  20.370  25.365  1.00  0.00     0.257 C 
ATOM     17  C   UNL A   1      32.723  19.485  25.218  1.00  0.00     0.071 C 
ENDBRANCH  13  16
ENDBRANCH   8  13
BRANCH  10  18
ATOM     18  C   UNL A   1      32.126  24.234  24.276  1.00  0.00     0.022 C 
BRANCH  18  19
ATOM     19  C   UNL A   1      32.630  25.409  23.371  1.00  0.00     0.075 C 
BRANCH  19  20
ATOM     20  S   UNL A   1      31.689  26.991  23.281  1.00  0.00    -0.123 SA
BRANCH  20  21
ATOM     21  C   UNL A   1      32.056  27.809  24.828  1.00  0.00     0.043 A 
ATOM     22  C   UNL A   1      31.392  27.343  25.972  1.00  0.00     0.018 A 
ATOM     23  C   UNL A   1      32.870  28.946  24.951  1.00  0.00     0.136 A 
ATOM     24  C   UNL A   1      31.433  28.064  27.168  1.00  0.00     0.001 A 
ATOM     25  C   UNL A   1      32.917  29.670  26.149  1.00  0.00     0.040 A 
ATOM     26  F   UNL A   1      33.511  29.449  23.883  1.00  0.00    -0.206 F 
ATOM     27  C   UNL A   1      32.172  29.242  27.251  1.00  0.00     0.003 A 
ENDBRANCH  20  21
ENDBRANCH  19  20
ENDBRANCH  18  19
ENDBRANCH  10  18
ENDBRANCH   6   8
ENDBRANCH   5   6
ENDBRANCH   4   5
ENDBRANCH   3   4
ENDBRANCH   2   3
ENDBRANCH   1   2
BRANCH   1  28
ATOM     28  C   UNL A   1      41.667  20.800  26.066  1.00  0.00     0.188 C 
BRANCH  28  29
ATOM     29  O   UNL A   1      42.559  21.636  25.351  1.00  0.00    -0.376 OA
BRANCH  29  30
ATOM     30  C   UNL A   1      42.476  23.015  25.667  1.00  0.00     0.202 C 
BRANCH  30  31
ATOM     31  C   UNL A   1      43.586  23.894  25.069  1.00  0.00     0.261 C 
BRANCH  31  32
ATOM     32  O   UNL A   1      44.015  25.024  25.854  1.00  0.00    -0.460 OA
BRANCH  32  33
ATOM     33  C   UNL A   1      44.373  24.807  27.139  1.00  0.00     0.338 C 
ATOM     34  O   UNL A   1      45.175  23.969  27.533  1.00  0.00    -0.246 OA
BRANCH  33  35
ATOM     35  C   UNL A   1      43.783  25.872  27.986  1.00  0.00     0.060 A 
ATOM     36  C   UNL A   1      44.228  27.190  27.831  1.00  0.00     0.016 A 
ATOM     37  C   UNL A   1      42.799  25.583  28.936  1.00  0.00     0.016 A 
ATOM     38  C   UNL A   1      43.704  28.210  28.632  1.00  0.00     0.010 A 
ATOM     39  C   UNL A   1      42.291  26.608  29.751  1.00  0.00     0.010 A 
ATOM     40  C   UNL A   1      42.751  27.930  29.617  1.00  0.00    -0.014 A 
BRANCH  40  41
ATOM     41  C   UNL A   1      42.374  28.979  30.608  1.00  0.00     0.031 A 
ATOM     42  C   UNL A   1      43.240  29.159  31.829  1.00  0.00     0.074 A 
ATOM     43  C   UNL A   1      41.309  29.785  30.428  1.00  0.00     0.049 A 
ATOM     44  N   UNL A   1      43.058  29.924  32.875  1.00  0.00    -0.248 NA
ATOM     45  C   UNL A   1      44.478  28.364  31.872  1.00  0.00     0.031 C 
ATOM     46  C   UNL A   1      40.424  29.774  29.265  1.00  0.00     0.029 A 
ATOM     47  N   UNL A   1      40.784  30.769  31.235  1.00  0.00    -0.354 N 
ATOM     48  C   UNL A   1      44.146  29.688  33.710  1.00  0.00     0.074 A 
ATOM     49  C   UNL A   1      44.972  28.697  33.056  1.00  0.00     0.031 C 
ATOM     50  C   UNL A   1      39.460  30.696  29.439  1.00  0.00     0.029 A 
ATOM     51  C   UNL A   1      39.625  31.329  30.748  1.00  0.00     0.049 A 
ATOM     52  H   UNL A   1      41.200  31.047  32.083  1.00  0.00     0.167 HD
ATOM     53  C   UNL A   1      44.432  30.247  34.910  1.00  0.00     0.037 A 
ATOM     54  C   UNL A   1      38.775  32.217  31.307  1.00  0.00     0.037 A 
ATOM     55  C   UNL A   1      43.614  31.242  35.558  1.00  0.00     0.049 A 
ATOM     56  C   UNL A   1      39.067  32.762  32.687  1.00  0.00     0.074 A 
ATOM     57  C   UNL A   1      43.824  31.867  36.775  1.00  0.00     0.029 A 
ATOM     58  N   UNL A   1      42.432  31.754  35.045  1.00  0.00    -0.354 N 
ATOM     59  N   UNL A   1      40.090  32.521  33.471  1.00  0.00    -0.248 NA
ATOM     60  C   UNL A   1      38.084  33.695  33.261  1.00  0.00     0.031 C 
ATOM     61  C   UNL A   1      42.740  32.712  37.026  1.00  0.00     0.029 A 
ATOM     62  C   UNL A   1      41.887  32.667  35.935  1.00  0.00     0.049 A 
ATOM     63  H   UNL A   1      42.037  31.507  34.178  1.00  0.00     0.167 HD
ATOM     64  C   UNL A   1      39.892  33.297  34.611  1.00  0.00     0.074 A 
ATOM     65  C   UNL A   1      38.655  34.022  34.412  1.00  0.00     0.031 C 
ATOM     66  C   UNL A   1      40.664  33.400  35.722  1.00  0.00     0.037 A 
BRANCH  53  67
ATOM     67  C   UNL A   1      45.663  29.766  35.631  1.00  0.00     0.058 A 
ATOM     68  C   UNL A   1      46.909  30.393  35.479  1.00  0.00     0.135 A 
ATOM     69  C   UNL A   1      45.581  28.683  36.522  1.00  0.00     0.135 A 
ATOM     70  F   UNL A   1      47.050  31.421  34.626  1.00  0.00    -0.206 F 
ATOM     71  C   UNL A   1      48.035  29.951  36.167  1.00  0.00     0.059 A 
ATOM     72  C   UNL A   1      46.686  28.242  37.243  1.00  0.00     0.059 A 
ATOM     73  F   UNL A   1      44.415  28.043  36.704  1.00  0.00    -0.206 F 
ATOM     74  C   UNL A   1      47.913  28.876  37.050  1.00  0.00     0.060 A 
BRANCH  74  75
ATOM     75  S   UNL A   1      49.379  28.323  37.946  1.00  0.00     0.124 S 
ATOM     76  O   UNL A   1      50.404  29.211  37.403  1.00  0.00    -0.237 OA
ATOM     77  O   UNL A   1      49.004  28.564  39.335  1.00  0.00    -0.237 OA
ATOM     78  O   UNL A   1      49.503  26.919  37.566  1.00  0.00    -0.744 OA
ENDBRANCH  74  75
ENDBRANCH  53  67
BRANCH  54  79
ATOM     79  C   UNL A   1      37.533  32.628  30.589  1.00  0.00     0.058 A 
ATOM     80  C   UNL A   1      37.533  33.696  29.678  1.00  0.00     0.135 A 
ATOM     81  C   UNL A   1      36.309  31.981  30.828  1.00  0.00     0.135 A 
ATOM     82  F   UNL A   1      38.670  34.363  29.428  1.00  0.00    -0.206 F 
ATOM     83  C   UNL A   1      36.367  34.118  29.045  1.00  0.00     0.059 A 
ATOM     84  C   UNL A   1      35.136  32.363  30.183  1.00  0.00     0.059 A 
ATOM     85  F   UNL A   1      36.248  30.953  31.690  1.00  0.00    -0.206 F 
ATOM     86  C   UNL A   1      35.173  33.442  29.301  1.00  0.00     0.060 A 
BRANCH  86  87
ATOM     87  S   UNL A   1      33.675  33.970  28.440  1.00  0.00     0.124 S 
ATOM     88  O   UNL A   1      34.216  34.891  27.446  1.00  0.00    -0.237 OA
ATOM     89  O   UNL A   1      33.160  32.705  27.925  1.00  0.00    -0.237 OA
ATOM     90  O   UNL A   1      32.876  34.580  29.497  1.00  0.00    -0.744 OA
ENDBRANCH  86  87
ENDBRANCH  54  79
BRANCH  66  91
ATOM     91  C   UNL A   1      40.236  34.371  36.793  1.00  0.00     0.058 A 
ATOM     92  C   UNL A   1      39.324  34.017  37.800  1.00  0.00     0.135 A 
ATOM     93  C   UNL A   1      40.800  35.658  36.848  1.00  0.00     0.135 A 
ATOM     94  F   UNL A   1      38.750  32.804  37.795  1.00  0.00    -0.206 F 
ATOM     95  C   UNL A   1      38.969  34.911  38.806  1.00  0.00     0.059 A 
ATOM     96  C   UNL A   1      40.483  36.555  37.863  1.00  0.00     0.059 A 
ATOM     97  F   UNL A   1      41.687  36.047  35.918  1.00  0.00    -0.206 F 
ATOM     98  C   UNL A   1      39.557  36.177  38.833  1.00  0.00     0.060 A 
BRANCH  98  99
ATOM     99  S   UNL A   1      39.114  37.312  40.165  1.00  0.00     0.124 S 
ATOM    100  O   UNL A   1      40.421  37.828  40.558  1.00  0.00    -0.237 OA
ATOM    101  O   UNL A   1      38.236  38.261  39.487  1.00  0.00    -0.237 OA
ATOM    102  O   UNL A   1      38.459  36.451  41.145  1.00  0.00    -0.744 OA
ENDBRANCH  98  99
ENDBRANCH  66  91
ENDBRANCH  40  41
ENDBRANCH  33  35
ENDBRANCH  32  33
ENDBRANCH  31  32
ENDBRANCH  30  31
ENDBRANCH  29  30
ENDBRANCH  28  29
ENDBRANCH   1  28
TORSDOF 26
ENDMDL
MODEL 2
REMARK VINA RESULT:      -9.0      2.363      8.648
REMARK SMILES CC[NH2+][C@]1(C(=O)OCCOCCOCCOC(=O)c2ccc(-c3c4nc(c(-c5c(F)cc(S(=O)(=O)[O-])cc5F)c5ccc([nH]5)c(-c5c(F)cc(S(=O)(=O)[O-])cc5F)c5nc(c(-c6c(F)cc(S(=O)(=O)[O-])cc6F)c6ccc3[nH]6)C=C5)C=C4)cc2)CCC[C@@H]1CCSc1ccccc1F
REMARK SMILES IDX 11 1 10 2 9 3 8 4 7 5 5 6 6 7 4 8 85 9 88 10 86 11 87 12
REMARK SMILES IDX 3 13 2 16 1 17 89 18 90 19 91 20 92 21 93 22 97 23 94 24
REMARK SMILES IDX 96 25 98 26 95 27 12 28 13 29 14 30 15 31 16 32 17 33 18 34
REMARK SMILES IDX 19 35 20 36 84 37 21 38 83 39 22 40 23 41 24 42 77 43 25 44
REMARK SMILES IDX 82 45 76 46 78 47 26 48 81 49 75 50 74 51 27 53 61 54 40 55
REMARK SMILES IDX 60 56 41 57 44 58 59 59 79 60 42 61 43 62 58 64 80 65 45 66
REMARK SMILES IDX 28 67 29 68 38 69 30 70 31 71 37 72 39 73 32 74 33 75 34 76
REMARK SMILES IDX 35 77 36 78 62 79 63 80 72 81 64 82 65 83 71 84 73 85 66 86
REMARK SMILES IDX 67 87 68 88 69 89 70 90 46 91 47 92 56 93 48 94 49 95 55 96
REMARK SMILES IDX 57 97 50 98 51 99 52 100 53 101 54 102
REMARK H PARENT 3 14 3 15 78 52 44 63
REMARK Flexibility Score: inf
ROOT
ATOM      1  C   UNL A   1      35.739  21.950  25.582  1.00  0.00     0.188 C 
ENDROOT
BRANCH   1   2
ATOM      2  O   UNL A   1      34.593  22.244  24.793  1.00  0.00    -0.376 OA
BRANCH   2   3
ATOM      3  C   UNL A   1      33.305  22.289  25.371  1.00  0.00     0.202 C 
BRANCH   3   4
ATOM      4  C   UNL A   1      32.473  23.577  25.247  1.00  0.00     0.261 C 
BRANCH   4   5
ATOM      5  O   UNL A   1      32.799  24.498  24.189  1.00  0.00    -0.459 OA
BRANCH   5   6
ATOM      6  C   UNL A   1      33.518  25.588  24.592  1.00  0.00     0.368 C 
ATOM      7  O   UNL A   1      34.601  25.492  25.161  1.00  0.00    -0.245 OA
BRANCH   6   8
ATOM      8  C   UNL A   1      32.789  26.949  24.332  1.00  0.00     0.197 C 
ATOM      9  C   UNL A   1      33.956  27.830  23.780  1.00  0.00     0.081 C 
ATOM     10  C   UNL A   1      31.781  27.092  23.125  1.00  0.00     0.063 C 
ATOM     11  C   UNL A   1      33.333  29.040  23.144  1.00  0.00     0.008 C 
ATOM     12  C   UNL A   1      31.945  28.580  22.785  1.00  0.00     0.011 C 
BRANCH   8  13
ATOM     13  N   UNL A   1      32.098  27.460  25.547  1.00  0.00    -0.332 N 
ATOM     14  H   UNL A   1      31.808  28.419  25.358  1.00  0.00     0.347 HD
ATOM     15  H   UNL A   1      31.331  26.808  25.713  1.00  0.00     0.347 HD
BRANCH  13  16
ATOM     16  C   UNL A   1      32.866  27.467  26.781  1.00  0.00     0.257 C 
ATOM     17  C   UNL A   1      33.778  28.683  26.800  1.00  0.00     0.071 C 
ENDBRANCH  13  16
ENDBRANCH   8  13
BRANCH  10  18
ATOM     18  C   UNL A   1      30.259  26.760  23.254  1.00  0.00     0.022 C 
BRANCH  18  19
ATOM     19  C   UNL A   1      29.285  27.864  23.789  1.00  0.00     0.075 C 
BRANCH  19  20
ATOM     20  S   UNL A   1      27.987  28.577  22.692  1.00  0.00    -0.123 SA
BRANCH  20  21
ATOM     21  C   UNL A   1      28.432  30.302  22.549  1.00  0.00     0.043 A 
ATOM     22  C   UNL A   1      28.978  30.919  23.683  1.00  0.00     0.018 A 
ATOM     23  C   UNL A   1      28.169  31.098  21.422  1.00  0.00     0.136 A 
ATOM     24  C   UNL A   1      29.133  32.307  23.740  1.00  0.00     0.001 A 
ATOM     25  C   UNL A   1      28.326  32.489  21.474  1.00  0.00     0.040 A 
ATOM     26  F   UNL A   1      27.625  30.564  20.316  1.00  0.00    -0.206 F 
ATOM     27  C   UNL A   1      28.782  33.096  22.647  1.00  0.00     0.003 A 
ENDBRANCH  20  21
ENDBRANCH  19  20
ENDBRANCH  18  19
ENDBRANCH  10  18
ENDBRANCH   6   8
ENDBRANCH   5   6
ENDBRANCH   4   5
ENDBRANCH   3   4
ENDBRANCH   2   3
ENDBRANCH   1   2
BRANCH   1  28
ATOM     28  C   UNL A   1      36.826  20.974  25.092  1.00  0.00     0.188 C 
BRANCH  28  29
ATOM     29  O   UNL A   1      38.118  21.546  25.003  1.00  0.00    -0.376 OA
BRANCH  29  30
ATOM     30  C   UNL A   1      38.614  22.105  26.208  1.00  0.00     0.202 C 
BRANCH  30  31
ATOM     31  C   UNL A   1      39.985  22.791  26.099  1.00  0.00     0.261 C 
BRANCH  31  32
ATOM     32  O   UNL A   1      40.367  23.657  27.186  1.00  0.00    -0.460 OA
BRANCH  32  33
ATOM     33  C   UNL A   1      41.145  24.726  26.904  1.00  0.00     0.338 C 
ATOM     34  O   UNL A   1      41.809  24.887  25.888  1.00  0.00    -0.246 OA
BRANCH  33  35
ATOM     35  C   UNL A   1      40.922  25.765  27.939  1.00  0.00     0.060 A 
ATOM     36  C   UNL A   1      41.911  26.731  28.158  1.00  0.00     0.016 A 
ATOM     37  C   UNL A   1      39.750  25.791  28.699  1.00  0.00     0.016 A 
ATOM     38  C   UNL A   1      41.734  27.709  29.143  1.00  0.00     0.010 A 
ATOM     39  C   UNL A   1      39.587  26.763  29.700  1.00  0.00     0.010 A 
ATOM     40  C   UNL A   1      40.586  27.722  29.942  1.00  0.00    -0.014 A 
BRANCH  40  41
ATOM     41  C   UNL A   1      40.517  28.621  31.131  1.00  0.00     0.031 A 
ATOM     42  C   UNL A   1      39.514  29.747  31.124  1.00  0.00     0.074 A 
ATOM     43  C   UNL A   1      41.297  28.436  32.214  1.00  0.00     0.049 A 
ATOM     44  N   UNL A   1      39.342  30.715  31.987  1.00  0.00    -0.248 NA
ATOM     45  C   UNL A   1      38.581  29.781  29.986  1.00  0.00     0.031 C 
ATOM     46  C   UNL A   1      42.260  27.351  32.391  1.00  0.00     0.029 A 
ATOM     47  N   UNL A   1      41.408  29.171  33.373  1.00  0.00    -0.354 N 
ATOM     48  C   UNL A   1      38.297  31.486  31.487  1.00  0.00     0.074 A 
ATOM     49  C   UNL A   1      37.887  30.882  30.238  1.00  0.00     0.031 C 
ATOM     50  C   UNL A   1      42.872  27.498  33.580  1.00  0.00     0.029 A 
ATOM     51  C   UNL A   1      42.385  28.716  34.230  1.00  0.00     0.049 A 
ATOM     52  H   UNL A   1      40.840  29.950  33.572  1.00  0.00     0.167 HD
ATOM     53  C   UNL A   1      37.729  32.594  32.020  1.00  0.00     0.037 A 
ATOM     54  C   UNL A   1      42.858  29.239  35.381  1.00  0.00     0.037 A 
ATOM     55  C   UNL A   1      38.130  33.191  33.269  1.00  0.00     0.049 A 
ATOM     56  C   UNL A   1      42.270  30.527  35.913  1.00  0.00     0.074 A 
ATOM     57  C   UNL A   1      37.612  34.315  33.889  1.00  0.00     0.029 A 
ATOM     58  N   UNL A   1      39.146  32.718  34.086  1.00  0.00    -0.354 N 
ATOM     59  N   UNL A   1      41.293  31.252  35.424  1.00  0.00    -0.248 NA
ATOM     60  C   UNL A   1      42.854  31.069  37.149  1.00  0.00     0.031 C 
ATOM     61  C   UNL A   1      38.353  34.556  35.050  1.00  0.00     0.029 A 
ATOM     62  C   UNL A   1      39.288  33.543  35.190  1.00  0.00     0.049 A 
ATOM     63  H   UNL A   1      39.687  31.914  33.907  1.00  0.00     0.167 HD
ATOM     64  C   UNL A   1      41.123  32.314  36.310  1.00  0.00     0.074 A 
ATOM     65  C   UNL A   1      42.093  32.132  37.369  1.00  0.00     0.031 C 
ATOM     66  C   UNL A   1      40.244  33.346  36.252  1.00  0.00     0.037 A 
BRANCH  53  67
ATOM     67  C   UNL A   1      36.635  33.267  31.234  1.00  0.00     0.058 A 
ATOM     68  C   UNL A   1      36.897  33.989  30.059  1.00  0.00     0.135 A 
ATOM     69  C   UNL A   1      35.297  33.150  31.644  1.00  0.00     0.135 A 
ATOM     70  F   UNL A   1      38.160  34.150  29.631  1.00  0.00    -0.206 F 
ATOM     71  C   UNL A   1      35.874  34.589  29.331  1.00  0.00     0.059 A 
ATOM     72  C   UNL A   1      34.255  33.715  30.916  1.00  0.00     0.059 A 
ATOM     73  F   UNL A   1      34.989  32.473  32.762  1.00  0.00    -0.206 F 
ATOM     74  C   UNL A   1      34.556  34.444  29.766  1.00  0.00     0.060 A 
BRANCH  74  75
ATOM     75  S   UNL A   1      33.238  35.216  28.802  1.00  0.00     0.124 S 
ATOM     76  O   UNL A   1      32.370  35.732  29.857  1.00  0.00    -0.237 OA
ATOM     77  O   UNL A   1      33.964  36.220  28.032  1.00  0.00    -0.237 OA
ATOM     78  O   UNL A   1      32.689  34.109  28.025  1.00  0.00    -0.744 OA
ENDBRANCH  74  75
ENDBRANCH  53  67
BRANCH  54  79
ATOM     79  C   UNL A   1      43.984  28.577  36.104  1.00  0.00     0.058 A 
ATOM     80  C   UNL A   1      43.759  27.509  36.987  1.00  0.00     0.135 A 
ATOM     81  C   UNL A   1      45.306  29.025  35.953  1.00  0.00     0.135 A 
ATOM     82  F   UNL A   1      42.512  27.054  37.185  1.00  0.00    -0.206 F 
ATOM     83  C   UNL A   1      44.798  26.922  37.704  1.00  0.00     0.059 A 
ATOM     84  C   UNL A   1      46.366  28.433  36.635  1.00  0.00     0.059 A 
ATOM     85  F   UNL A   1      45.581  30.044  35.123  1.00  0.00    -0.206 F 
ATOM     86  C   UNL A   1      46.100  27.389  37.518  1.00  0.00     0.060 A 
BRANCH  86  87
ATOM     87  S   UNL A   1      47.445  26.590  38.421  1.00  0.00     0.124 S 
ATOM     88  O   UNL A   1      48.363  27.704  38.629  1.00  0.00    -0.237 OA
ATOM     89  O   UNL A   1      46.760  26.095  39.611  1.00  0.00    -0.237 OA
ATOM     90  O   UNL A   1      47.904  25.558  37.496  1.00  0.00    -0.744 OA
ENDBRANCH  86  87
ENDBRANCH  54  79
BRANCH  66  91
ATOM     91  C   UNL A   1      40.239  34.336  37.388  1.00  0.00     0.058 A 
ATOM     92  C   UNL A   1      40.991  35.521  37.350  1.00  0.00     0.135 A 
ATOM     93  C   UNL A   1      39.416  34.124  38.508  1.00  0.00     0.135 A 
ATOM     94  F   UNL A   1      41.799  35.774  36.308  1.00  0.00    -0.206 F 
ATOM     95  C   UNL A   1      40.946  36.446  38.389  1.00  0.00     0.059 A 
ATOM     96  C   UNL A   1      39.331  35.049  39.543  1.00  0.00     0.059 A 
ATOM     97  F   UNL A   1      38.665  33.013  38.594  1.00  0.00    -0.206 F 
ATOM     98  C   UNL A   1      40.109  36.204  39.481  1.00  0.00     0.060 A 
BRANCH  98  99
ATOM     99  S   UNL A   1      40.033  37.430  40.804  1.00  0.00     0.124 S 
ATOM    100  O   UNL A   1      39.513  38.595  40.096  1.00  0.00    -0.237 OA
ATOM    101  O   UNL A   1      39.118  36.805  41.754  1.00  0.00    -0.237 OA
ATOM    102  O   UNL A   1      41.417  37.535  41.253  1.00  0.00    -0.744 OA
ENDBRANCH  98  99
ENDBRANCH  66  91
ENDBRANCH  40  41
ENDBRANCH  33  35
ENDBRANCH  32  33
ENDBRANCH  31  32
ENDBRANCH  30  31
ENDBRANCH  29  30
ENDBRANCH  28  29
ENDBRANCH   1  28
TORSDOF 26
ENDMDL
MODEL 3
REMARK VINA RESULT:      -8.9      1.563      2.344
REMARK SMILES CC[NH2+][C@]1(C(=O)OCCOCCOCCOC(=O)c2ccc(-c3c4nc(c(-c5c(F)cc(S(=O)(=O)[O-])cc5F)c5ccc([nH]5)c(-c5c(F)cc(S(=O)(=O)[O-])cc5F)c5nc(c(-c6c(F)cc(S(=O)(=O)[O-])cc6F)c6ccc3[nH]6)C=C5)C=C4)cc2)CCC[C@@H]1CCSc1ccccc1F
REMARK SMILES IDX 11 1 10 2 9 3 8 4 7 5 5 6 6 7 4 8 85 9 88 10 86 11 87 12
REMARK SMILES IDX 3 13 2 16 1 17 89 18 90 19 91 20 92 21 93 22 97 23 94 24
REMARK SMILES IDX 96 25 98 26 95 27 12 28 13 29 14 30 15 31 16 32 17 33 18 34
REMARK SMILES IDX 19 35 20 36 84 37 21 38 83 39 22 40 23 41 24 42 77 43 25 44
REMARK SMILES IDX 82 45 76 46 78 47 26 48 81 49 75 50 74 51 27 53 61 54 40 55
REMARK SMILES IDX 60 56 41 57 44 58 59 59 79 60 42 61 43 62 58 64 80 65 45 66
REMARK SMILES IDX 28 67 29 68 38 69 30 70 31 71 37 72 39 73 32 74 33 75 34 76
REMARK SMILES IDX 35 77 36 78 62 79 63 80 72 81 64 82 65 83 71 84 73 85 66 86
REMARK SMILES IDX 67 87 68 88 69 89 70 90 46 91 47 92 56 93 48 94 49 95 55 96
REMARK SMILES IDX 57 97 50 98 51 99 52 100 53 101 54 102
REMARK H PARENT 3 14 3 15 78 52 44 63
REMARK Flexibility Score: inf
ROOT
ATOM      1  C   UNL A   1      40.807  19.501  26.174  1.00  0.00     0.188 C 
ENDROOT
BRANCH   1   2
ATOM      2  O   UNL A   1      39.555  19.847  25.596  1.00  0.00    -0.376 OA
BRANCH   2   3
ATOM      3  C   UNL A   1      38.925  21.073  25.905  1.00  0.00     0.202 C 
BRANCH   3   4
ATOM      4  C   UNL A   1      37.803  21.592  24.990  1.00  0.00     0.261 C 
BRANCH   4   5
ATOM      5  O   UNL A   1      36.538  21.929  25.589  1.00  0.00    -0.459 OA
BRANCH   5   6
ATOM      6  C   UNL A   1      35.556  20.999  25.395  1.00  0.00     0.368 C 
ATOM      7  O   UNL A   1      35.781  19.890  24.919  1.00  0.00    -0.245 OA
BRANCH   6   8
ATOM      8  C   UNL A   1      34.124  21.517  25.756  1.00  0.00     0.197 C 
ATOM      9  C   UNL A   1      34.226  21.670  27.307  1.00  0.00     0.081 C 
ATOM     10  C   UNL A   1      33.697  22.993  25.390  1.00  0.00     0.063 C 
ATOM     11  C   UNL A   1      33.057  22.504  27.747  1.00  0.00     0.008 C 
ATOM     12  C   UNL A   1      32.697  23.293  26.516  1.00  0.00     0.011 C 
BRANCH   8  13
ATOM     13  N   UNL A   1      33.054  20.612  25.255  1.00  0.00    -0.332 N 
ATOM     14  H   UNL A   1      32.172  20.919  25.663  1.00  0.00     0.347 HD
ATOM     15  H   UNL A   1      33.100  20.680  24.237  1.00  0.00     0.347 HD
BRANCH  13  16
ATOM     16  C   UNL A   1      33.205  19.196  25.548  1.00  0.00     0.257 C 
ATOM     17  C   UNL A   1      32.480  18.381  24.489  1.00  0.00     0.071 C 
ENDBRANCH  13  16
ENDBRANCH   8  13
BRANCH  10  18
ATOM     18  C   UNL A   1      33.052  23.368  24.017  1.00  0.00     0.022 C 
BRANCH  18  19
ATOM     19  C   UNL A   1      32.557  24.836  23.788  1.00  0.00     0.075 C 
BRANCH  19  20
ATOM     20  S   UNL A   1      30.778  25.182  23.451  1.00  0.00    -0.123 SA
BRANCH  20  21
ATOM     21  C   UNL A   1      30.609  26.938  23.738  1.00  0.00     0.043 A 
ATOM     22  C   UNL A   1      30.197  27.728  22.656  1.00  0.00     0.018 A 
ATOM     23  C   UNL A   1      30.967  27.584  24.933  1.00  0.00     0.136 A 
ATOM     24  C   UNL A   1      30.266  29.122  22.718  1.00  0.00     0.001 A 
ATOM     25  C   UNL A   1      31.034  28.982  25.001  1.00  0.00     0.040 A 
ATOM     26  F   UNL A   1      31.391  26.879  25.994  1.00  0.00    -0.206 F 
ATOM     27  C   UNL A   1      30.710  29.751  23.879  1.00  0.00     0.003 A 
ENDBRANCH  20  21
ENDBRANCH  19  20
ENDBRANCH  18  19
ENDBRANCH  10  18
ENDBRANCH   6   8
ENDBRANCH   5   6
ENDBRANCH   4   5
ENDBRANCH   3   4
ENDBRANCH   2   3
ENDBRANCH   1   2
BRANCH   1  28
ATOM     28  C   UNL A   1      41.887  20.565  26.449  1.00  0.00     0.188 C 
BRANCH  28  29
ATOM     29  O   UNL A   1      42.976  20.530  25.545  1.00  0.00    -0.376 OA
BRANCH  29  30
ATOM     30  C   UNL A   1      43.761  21.709  25.501  1.00  0.00     0.202 C 
BRANCH  30  31
ATOM     31  C   UNL A   1      43.453  22.745  26.594  1.00  0.00     0.261 C 
BRANCH  31  32
ATOM     32  O   UNL A   1      42.385  23.675  26.326  1.00  0.00    -0.460 OA
BRANCH  32  33
ATOM     33  C   UNL A   1      42.714  24.927  25.938  1.00  0.00     0.338 C 
ATOM     34  O   UNL A   1      43.172  25.248  24.849  1.00  0.00    -0.246 OA
BRANCH  33  35
ATOM     35  C   UNL A   1      42.254  25.884  26.974  1.00  0.00     0.060 A 
ATOM     36  C   UNL A   1      42.750  27.193  26.959  1.00  0.00     0.016 A 
ATOM     37  C   UNL A   1      41.345  25.501  27.963  1.00  0.00     0.016 A 
ATOM     38  C   UNL A   1      42.349  28.109  27.938  1.00  0.00     0.010 A 
ATOM     39  C   UNL A   1      40.961  26.419  28.955  1.00  0.00     0.010 A 
ATOM     40  C   UNL A   1      41.473  27.729  28.961  1.00  0.00    -0.014 A 
BRANCH  40  41
ATOM     41  C   UNL A   1      41.239  28.641  30.118  1.00  0.00     0.031 A 
ATOM     42  C   UNL A   1      42.121  28.505  31.332  1.00  0.00     0.074 A 
ATOM     43  C   UNL A   1      40.288  29.596  30.094  1.00  0.00     0.049 A 
ATOM     44  N   UNL A   1      42.043  29.105  32.492  1.00  0.00    -0.248 NA
ATOM     45  C   UNL A   1      43.244  27.560  31.218  1.00  0.00     0.031 C 
ATOM     46  C   UNL A   1      39.409  29.891  28.965  1.00  0.00     0.029 A 
ATOM     47  N   UNL A   1      39.898  30.494  31.062  1.00  0.00    -0.354 N 
ATOM     48  C   UNL A   1      43.091  28.597  33.253  1.00  0.00     0.074 A 
ATOM     49  C   UNL A   1      43.779  27.628  32.429  1.00  0.00     0.031 C 
ATOM     50  C   UNL A   1      38.574  30.889  29.308  1.00  0.00     0.029 A 
ATOM     51  C   UNL A   1      38.821  31.272  30.698  1.00  0.00     0.049 A 
ATOM     52  H   UNL A   1      40.347  30.574  31.934  1.00  0.00     0.167 HD
ATOM     53  C   UNL A   1      43.448  28.910  34.521  1.00  0.00     0.037 A 
ATOM     54  C   UNL A   1      38.096  32.158  31.412  1.00  0.00     0.037 A 
ATOM     55  C   UNL A   1      42.769  29.883  35.340  1.00  0.00     0.049 A 
ATOM     56  C   UNL A   1      38.458  32.428  32.856  1.00  0.00     0.074 A 
ATOM     57  C   UNL A   1      43.060  30.268  36.637  1.00  0.00     0.029 A 
ATOM     58  N   UNL A   1      41.663  30.621  34.944  1.00  0.00    -0.354 N 
ATOM     59  N   UNL A   1      39.441  31.931  33.568  1.00  0.00    -0.248 NA
ATOM     60  C   UNL A   1      37.607  33.373  33.595  1.00  0.00     0.031 C 
ATOM     61  C   UNL A   1      42.096  31.193  37.047  1.00  0.00     0.029 A 
ATOM     62  C   UNL A   1      41.244  31.438  35.981  1.00  0.00     0.049 A 
ATOM     63  H   UNL A   1      41.239  30.572  34.057  1.00  0.00     0.167 HD
ATOM     64  C   UNL A   1      39.347  32.529  34.822  1.00  0.00     0.074 A 
ATOM     65  C   UNL A   1      38.216  33.431  34.771  1.00  0.00     0.031 C 
ATOM     66  C   UNL A   1      40.127  32.348  35.918  1.00  0.00     0.037 A 
BRANCH  53  67
ATOM     67  C   UNL A   1      44.606  28.163  35.127  1.00  0.00     0.058 A 
ATOM     68  C   UNL A   1      44.438  26.936  35.788  1.00  0.00     0.135 A 
ATOM     69  C   UNL A   1      45.912  28.665  35.004  1.00  0.00     0.135 A 
ATOM     70  F   UNL A   1      43.210  26.418  35.952  1.00  0.00    -0.206 F 
ATOM     71  C   UNL A   1      45.520  26.245  36.325  1.00  0.00     0.059 A 
ATOM     72  C   UNL A   1      47.013  27.977  35.507  1.00  0.00     0.059 A 
ATOM     73  F   UNL A   1      46.131  29.835  34.385  1.00  0.00    -0.206 F 
ATOM     74  C   UNL A   1      46.804  26.772  36.177  1.00  0.00     0.060 A 
BRANCH  74  75
ATOM     75  S   UNL A   1      48.199  25.857  36.867  1.00  0.00     0.124 S 
ATOM     76  O   UNL A   1      47.754  24.476  36.695  1.00  0.00    -0.237 OA
ATOM     77  O   UNL A   1      49.302  26.278  36.010  1.00  0.00    -0.237 OA
ATOM     78  O   UNL A   1      48.266  26.325  38.248  1.00  0.00    -0.744 OA
ENDBRANCH  74  75
ENDBRANCH  53  67
BRANCH  54  79
ATOM     79  C   UNL A   1      36.918  32.838  30.799  1.00  0.00     0.058 A 
ATOM     80  C   UNL A   1      35.608  32.395  31.041  1.00  0.00     0.135 A 
ATOM     81  C   UNL A   1      37.081  33.928  29.927  1.00  0.00     0.135 A 
ATOM     82  F   UNL A   1      35.396  31.345  31.850  1.00  0.00    -0.206 F 
ATOM     83  C   UNL A   1      34.509  32.991  30.431  1.00  0.00     0.059 A 
ATOM     84  C   UNL A   1      35.995  34.562  29.330  1.00  0.00     0.059 A 
ATOM     85  F   UNL A   1      38.311  34.395  29.658  1.00  0.00    -0.206 F 
ATOM     86  C   UNL A   1      34.712  34.077  29.579  1.00  0.00     0.060 A 
BRANCH  86  87
ATOM     87  S   UNL A   1      33.274  34.872  28.827  1.00  0.00     0.124 S 
ATOM     88  O   UNL A   1      32.430  35.115  29.991  1.00  0.00    -0.237 OA
ATOM     89  O   UNL A   1      33.869  36.055  28.211  1.00  0.00    -0.237 OA
ATOM     90  O   UNL A   1      32.784  33.866  27.891  1.00  0.00    -0.744 OA
ENDBRANCH  86  87
ENDBRANCH  54  79
BRANCH  66  91
ATOM     91  C   UNL A   1      39.831  33.177  37.141  1.00  0.00     0.058 A 
ATOM     92  C   UNL A   1      38.877  32.787  38.094  1.00  0.00     0.135 A 
ATOM     93  C   UNL A   1      40.563  34.351  37.395  1.00  0.00     0.135 A 
ATOM     94  F   UNL A   1      38.145  31.679  37.903  1.00  0.00    -0.206 F 
ATOM     95  C   UNL A   1      38.643  33.542  39.241  1.00  0.00     0.059 A 
ATOM     96  C   UNL A   1      40.367  35.103  38.549  1.00  0.00     0.059 A 
ATOM     97  F   UNL A   1      41.497  34.766  36.524  1.00  0.00    -0.206 F 
ATOM     98  C   UNL A   1      39.396  34.697  39.462  1.00  0.00     0.060 A 
BRANCH  98  99
ATOM     99  S   UNL A   1      39.107  35.646  40.971  1.00  0.00     0.124 S 
ATOM    100  O   UNL A   1      37.726  35.293  41.281  1.00  0.00    -0.237 OA
ATOM    101  O   UNL A   1      40.118  35.107  41.876  1.00  0.00    -0.237 OA
ATOM    102  O   UNL A   1      39.323  37.028  40.552  1.00  0.00    -0.744 OA
ENDBRANCH  98  99
ENDBRANCH  66  91
ENDBRANCH  40  41
ENDBRANCH  33  35
ENDBRANCH  32  33
ENDBRANCH  31  32
ENDBRANCH  30  31
ENDBRANCH  29  30
ENDBRANCH  28  29
ENDBRANCH   1  28
TORSDOF 26
ENDMDL
