MODEL 1
REMARK VINA RESULT:      -9.4      0.000      0.000
REMARK SMILES CC(C)(C)OC(=O)N[C@@H](CC(=O)OCCOCCOCCOC(=O)c1ccc(-c2c3nc(c(-c4c(F)cc(S(=O)(=O)[O-])cc4F)c4ccc([nH]4)c(-c4c(F)cc(S(=O)(=O)[O-])cc4F)c4nc(c(-c5c(F)cc(S(=O)(=O)[O-])cc5F)c5ccc2[nH]5)C=C4)C=C3)cc1)c1cccnc1
REMARK SMILES IDX 17 1 16 2 15 3 14 4 13 5 11 6 12 7 10 8 9 9 8 10 6 11 7 12
REMARK SMILES IDX 5 14 2 15 1 16 3 17 4 18 91 19 92 20 96 21 93 22 95 23 94 24
REMARK SMILES IDX 18 25 19 26 20 27 21 28 22 29 23 30 24 31 25 32 26 33 90 34
REMARK SMILES IDX 27 35 89 36 28 37 29 38 30 39 83 40 31 41 88 42 82 43 84 44
REMARK SMILES IDX 32 45 87 46 81 47 80 48 33 50 67 51 46 52 66 53 47 54 50 55
REMARK SMILES IDX 65 56 85 57 48 58 49 59 64 61 86 62 51 63 34 64 35 65 44 66
REMARK SMILES IDX 36 67 37 68 43 69 45 70 38 71 39 72 40 73 41 74 42 75 68 76
REMARK SMILES IDX 69 77 78 78 70 79 71 80 77 81 79 82 72 83 73 84 74 85 75 86
REMARK SMILES IDX 76 87 52 88 53 89 62 90 54 91 55 92 61 93 63 94 56 95 57 96
REMARK SMILES IDX 58 97 59 98 60 99
REMARK H PARENT 8 13 84 49 50 60
REMARK Flexibility Score: inf
ROOT
ATOM      1  C   UNL A   1      35.151  33.362  29.005  1.00  0.00     0.188 C 
ENDROOT
BRANCH   1   2
ATOM      2  O   UNL A   1      34.497  32.790  27.888  1.00  0.00    -0.376 OA
BRANCH   2   3
ATOM      3  C   UNL A   1      33.876  31.527  28.019  1.00  0.00     0.202 C 
BRANCH   3   4
ATOM      4  C   UNL A   1      34.574  30.336  27.362  1.00  0.00     0.261 C 
BRANCH   4   5
ATOM      5  O   UNL A   1      33.889  29.791  26.212  1.00  0.00    -0.463 OA
BRANCH   5   6
ATOM      6  C   UNL A   1      32.689  29.204  26.459  1.00  0.00     0.308 C 
ATOM      7  O   UNL A   1      32.520  28.316  27.288  1.00  0.00    -0.252 OA
BRANCH   6   8
ATOM      8  C   UNL A   1      31.571  29.619  25.528  1.00  0.00     0.152 C 
BRANCH   8   9
ATOM      9  C   UNL A   1      31.351  28.990  24.141  1.00  0.00     0.128 C 
BRANCH   9  10
ATOM     10  N   UNL A   1      32.545  29.078  23.309  1.00  0.00    -0.314 N 
ATOM     11  C   UNL A   1      33.101  28.056  22.598  1.00  0.00     0.408 C 
ATOM     12  O   UNL A   1      34.092  28.207  21.906  1.00  0.00    -0.225 OA
ATOM     13  H   UNL A   1      32.991  29.955  23.256  1.00  0.00     0.167 HD
BRANCH  11  14
ATOM     14  O   UNL A   1      32.407  26.910  22.763  1.00  0.00    -0.444 OA
BRANCH  14  15
ATOM     15  C   UNL A   1      32.936  25.780  23.490  1.00  0.00     0.106 C 
ATOM     16  C   UNL A   1      31.700  25.145  24.146  1.00  0.00     0.056 C 
ATOM     17  C   UNL A   1      33.890  26.274  24.577  1.00  0.00     0.056 C 
ATOM     18  C   UNL A   1      33.580  24.751  22.560  1.00  0.00     0.056 C 
ENDBRANCH  14  15
ENDBRANCH  11  14
ENDBRANCH   9  10
BRANCH   9  19
ATOM     19  C   UNL A   1      30.097  29.276  23.326  1.00  0.00    -0.007 A 
ATOM     20  C   UNL A   1      28.892  28.585  23.429  1.00  0.00     0.009 A 
ATOM     21  C   UNL A   1      30.147  30.250  22.315  1.00  0.00     0.116 A 
ATOM     22  C   UNL A   1      27.823  28.933  22.591  1.00  0.00     0.020 A 
ATOM     23  N   UNL A   1      29.120  30.627  21.520  1.00  0.00    -0.264 NA
ATOM     24  C   UNL A   1      27.965  29.971  21.689  1.00  0.00     0.111 A 
ENDBRANCH   9  19
ENDBRANCH   8   9
ENDBRANCH   6   8
ENDBRANCH   5   6
ENDBRANCH   4   5
ENDBRANCH   3   4
ENDBRANCH   2   3
ENDBRANCH   1   2
BRANCH   1  25
ATOM     25  C   UNL A   1      34.403  33.571  30.339  1.00  0.00     0.188 C 
BRANCH  25  26
ATOM     26  O   UNL A   1      34.378  32.533  31.301  1.00  0.00    -0.376 OA
BRANCH  26  27
ATOM     27  C   UNL A   1      35.192  32.695  32.455  1.00  0.00     0.202 C 
BRANCH  27  28
ATOM     28  C   UNL A   1      36.664  32.306  32.303  1.00  0.00     0.261 C 
BRANCH  28  29
ATOM     29  O   UNL A   1      36.939  30.988  32.822  1.00  0.00    -0.460 OA
BRANCH  29  30
ATOM     30  C   UNL A   1      37.187  30.059  31.867  1.00  0.00     0.338 C 
ATOM     31  O   UNL A   1      36.445  29.146  31.540  1.00  0.00    -0.246 OA
BRANCH  30  32
ATOM     32  C   UNL A   1      38.489  30.261  31.196  1.00  0.00     0.060 A 
ATOM     33  C   UNL A   1      38.560  30.591  29.845  1.00  0.00     0.016 A 
ATOM     34  C   UNL A   1      39.645  29.850  31.858  1.00  0.00     0.016 A 
ATOM     35  C   UNL A   1      39.744  30.387  29.130  1.00  0.00     0.010 A 
ATOM     36  C   UNL A   1      40.853  29.732  31.158  1.00  0.00     0.010 A 
ATOM     37  C   UNL A   1      40.909  29.946  29.770  1.00  0.00    -0.014 A 
BRANCH  37  38
ATOM     38  C   UNL A   1      42.157  29.644  29.004  1.00  0.00     0.031 A 
ATOM     39  C   UNL A   1      42.380  28.260  28.436  1.00  0.00     0.074 A 
ATOM     40  C   UNL A   1      43.099  30.590  28.806  1.00  0.00     0.049 A 
ATOM     41  N   UNL A   1      43.488  27.695  28.031  1.00  0.00    -0.248 NA
ATOM     42  C   UNL A   1      41.193  27.397  28.316  1.00  0.00     0.031 C 
ATOM     43  C   UNL A   1      42.990  31.998  29.195  1.00  0.00     0.029 A 
ATOM     44  N   UNL A   1      44.348  30.507  28.236  1.00  0.00    -0.354 N 
ATOM     45  C   UNL A   1      43.149  26.390  27.682  1.00  0.00     0.074 A 
ATOM     46  C   UNL A   1      41.726  26.254  27.903  1.00  0.00     0.031 C 
ATOM     47  C   UNL A   1      44.106  32.647  28.836  1.00  0.00     0.029 A 
ATOM     48  C   UNL A   1      45.065  31.679  28.320  1.00  0.00     0.049 A 
ATOM     49  H   UNL A   1      44.696  29.690  27.811  1.00  0.00     0.167 HD
ATOM     50  C   UNL A   1      43.961  25.398  27.236  1.00  0.00     0.037 A 
ATOM     51  C   UNL A   1      46.369  31.939  28.099  1.00  0.00     0.037 A 
ATOM     52  C   UNL A   1      45.368  25.575  26.975  1.00  0.00     0.049 A 
ATOM     53  C   UNL A   1      47.273  30.811  27.691  1.00  0.00     0.074 A 
ATOM     54  C   UNL A   1      46.290  24.641  26.534  1.00  0.00     0.029 A 
ATOM     55  N   UNL A   1      46.056  26.773  27.117  1.00  0.00    -0.354 N 
ATOM     56  N   UNL A   1      46.971  29.554  27.469  1.00  0.00    -0.248 NA
ATOM     57  C   UNL A   1      48.698  31.127  27.533  1.00  0.00     0.031 C 
ATOM     58  C   UNL A   1      47.541  25.261  26.457  1.00  0.00     0.029 A 
ATOM     59  C   UNL A   1      47.390  26.597  26.792  1.00  0.00     0.049 A 
ATOM     60  H   UNL A   1      45.653  27.623  27.406  1.00  0.00     0.167 HD
ATOM     61  C   UNL A   1      48.166  28.932  27.126  1.00  0.00     0.074 A 
ATOM     62  C   UNL A   1      49.192  29.956  27.156  1.00  0.00     0.031 C 
ATOM     63  C   UNL A   1      48.394  27.632  26.817  1.00  0.00     0.037 A 
BRANCH  50  64
ATOM     64  C   UNL A   1      43.372  24.020  27.065  1.00  0.00     0.058 A 
ATOM     65  C   UNL A   1      43.180  23.139  28.140  1.00  0.00     0.135 A 
ATOM     66  C   UNL A   1      42.951  23.591  25.792  1.00  0.00     0.135 A 
ATOM     67  F   UNL A   1      43.573  23.487  29.376  1.00  0.00    -0.206 F 
ATOM     68  C   UNL A   1      42.624  21.875  27.956  1.00  0.00     0.059 A 
ATOM     69  C   UNL A   1      42.366  22.344  25.590  1.00  0.00     0.059 A 
ATOM     70  F   UNL A   1      43.104  24.392  24.725  1.00  0.00    -0.206 F 
ATOM     71  C   UNL A   1      42.221  21.485  26.677  1.00  0.00     0.060 A 
BRANCH  71  72
ATOM     72  S   UNL A   1      41.509  19.840  26.454  1.00  0.00     0.124 S 
ATOM     73  O   UNL A   1      42.270  19.346  25.311  1.00  0.00    -0.237 OA
ATOM     74  O   UNL A   1      41.799  19.198  27.733  1.00  0.00    -0.237 OA
ATOM     75  O   UNL A   1      40.098  20.110  26.198  1.00  0.00    -0.744 OA
ENDBRANCH  71  72
ENDBRANCH  50  64
BRANCH  51  76
ATOM     76  C   UNL A   1      46.906  33.306  28.350  1.00  0.00     0.058 A 
ATOM     77  C   UNL A   1      47.381  33.679  29.614  1.00  0.00     0.135 A 
ATOM     78  C   UNL A   1      46.978  34.259  27.319  1.00  0.00     0.135 A 
ATOM     79  F   UNL A   1      47.321  32.810  30.635  1.00  0.00    -0.206 F 
ATOM     80  C   UNL A   1      47.906  34.946  29.850  1.00  0.00     0.059 A 
ATOM     81  C   UNL A   1      47.530  35.519  27.522  1.00  0.00     0.059 A 
ATOM     82  F   UNL A   1      46.544  33.954  26.086  1.00  0.00    -0.206 F 
ATOM     83  C   UNL A   1      47.983  35.857  28.795  1.00  0.00     0.060 A 
BRANCH  83  84
ATOM     84  S   UNL A   1      48.719  37.477  29.099  1.00  0.00     0.124 S 
ATOM     85  O   UNL A   1      49.542  37.209  30.273  1.00  0.00    -0.237 OA
ATOM     86  O   UNL A   1      49.443  37.723  27.855  1.00  0.00    -0.237 OA
ATOM     87  O   UNL A   1      47.560  38.336  29.322  1.00  0.00    -0.744 OA
ENDBRANCH  83  84
ENDBRANCH  51  76
BRANCH  63  88
ATOM     88  C   UNL A   1      49.799  27.253  26.439  1.00  0.00     0.058 A 
ATOM     89  C   UNL A   1      50.258  27.340  25.116  1.00  0.00     0.135 A 
ATOM     90  C   UNL A   1      50.708  26.838  27.425  1.00  0.00     0.135 A 
ATOM     91  F   UNL A   1      49.424  27.718  24.134  1.00  0.00    -0.206 F 
ATOM     92  C   UNL A   1      51.567  27.011  24.781  1.00  0.00     0.059 A 
ATOM     93  C   UNL A   1      52.029  26.533  27.118  1.00  0.00     0.059 A 
ATOM     94  F   UNL A   1      50.318  26.744  28.707  1.00  0.00    -0.206 F 
ATOM     95  C   UNL A   1      52.446  26.613  25.790  1.00  0.00     0.060 A 
BRANCH  95  96
ATOM     96  S   UNL A   1      54.154  26.230  25.347  1.00  0.00     0.124 S 
ATOM     97  O   UNL A   1      53.988  25.632  24.026  1.00  0.00    -0.237 OA
ATOM     98  O   UNL A   1      54.786  27.544  25.375  1.00  0.00    -0.237 OA
ATOM     99  O   UNL A   1      54.580  25.313  26.400  1.00  0.00    -0.744 OA
ENDBRANCH  95  96
ENDBRANCH  63  88
ENDBRANCH  37  38
ENDBRANCH  30  32
ENDBRANCH  29  30
ENDBRANCH  28  29
ENDBRANCH  27  28
ENDBRANCH  26  27
ENDBRANCH  25  26
ENDBRANCH   1  25
TORSDOF 25
ENDMDL
MODEL 2
REMARK VINA RESULT:      -9.4      3.253      9.100
REMARK SMILES CC(C)(C)OC(=O)N[C@@H](CC(=O)OCCOCCOCCOC(=O)c1ccc(-c2c3nc(c(-c4c(F)cc(S(=O)(=O)[O-])cc4F)c4ccc([nH]4)c(-c4c(F)cc(S(=O)(=O)[O-])cc4F)c4nc(c(-c5c(F)cc(S(=O)(=O)[O-])cc5F)c5ccc2[nH]5)C=C4)C=C3)cc1)c1cccnc1
REMARK SMILES IDX 17 1 16 2 15 3 14 4 13 5 11 6 12 7 10 8 9 9 8 10 6 11 7 12
REMARK SMILES IDX 5 14 2 15 1 16 3 17 4 18 91 19 92 20 96 21 93 22 95 23 94 24
REMARK SMILES IDX 18 25 19 26 20 27 21 28 22 29 23 30 24 31 25 32 26 33 90 34
REMARK SMILES IDX 27 35 89 36 28 37 29 38 30 39 83 40 31 41 88 42 82 43 84 44
REMARK SMILES IDX 32 45 87 46 81 47 80 48 33 50 67 51 46 52 66 53 47 54 50 55
REMARK SMILES IDX 65 56 85 57 48 58 49 59 64 61 86 62 51 63 34 64 35 65 44 66
REMARK SMILES IDX 36 67 37 68 43 69 45 70 38 71 39 72 40 73 41 74 42 75 68 76
REMARK SMILES IDX 69 77 78 78 70 79 71 80 77 81 79 82 72 83 73 84 74 85 75 86
REMARK SMILES IDX 76 87 52 88 53 89 62 90 54 91 55 92 61 93 63 94 56 95 57 96
REMARK SMILES IDX 58 97 59 98 60 99
REMARK H PARENT 8 13 84 49 50 60
REMARK Flexibility Score: inf
ROOT
ATOM      1  C   UNL A   1      33.817  21.500  26.946  1.00  0.00     0.188 C 
ENDROOT
BRANCH   1   2
ATOM      2  O   UNL A   1      32.758  22.380  27.271  1.00  0.00    -0.376 OA
BRANCH   2   3
ATOM      3  C   UNL A   1      31.635  22.459  26.416  1.00  0.00     0.202 C 
BRANCH   3   4
ATOM      4  C   UNL A   1      31.258  23.844  25.887  1.00  0.00     0.261 C 
BRANCH   4   5
ATOM      5  O   UNL A   1      31.862  24.195  24.622  1.00  0.00    -0.463 OA
BRANCH   5   6
ATOM      6  C   UNL A   1      30.999  24.478  23.611  1.00  0.00     0.308 C 
ATOM      7  O   UNL A   1      30.199  23.672  23.149  1.00  0.00    -0.252 OA
BRANCH   6   8
ATOM      8  C   UNL A   1      31.188  25.837  22.973  1.00  0.00     0.152 C 
BRANCH   8   9
ATOM      9  C   UNL A   1      30.829  27.158  23.678  1.00  0.00     0.128 C 
BRANCH   9  10
ATOM     10  N   UNL A   1      30.647  26.975  25.113  1.00  0.00    -0.314 N 
ATOM     11  C   UNL A   1      31.352  27.607  26.095  1.00  0.00     0.408 C 
ATOM     12  O   UNL A   1      31.132  27.420  27.278  1.00  0.00    -0.225 OA
ATOM     13  H   UNL A   1      29.954  26.336  25.399  1.00  0.00     0.167 HD
BRANCH  11  14
ATOM     14  O   UNL A   1      32.277  28.442  25.574  1.00  0.00    -0.444 OA
BRANCH  14  15
ATOM     15  C   UNL A   1      33.675  28.096  25.490  1.00  0.00     0.106 C 
ATOM     16  C   UNL A   1      34.328  28.892  26.631  1.00  0.00     0.056 C 
ATOM     17  C   UNL A   1      34.240  28.572  24.152  1.00  0.00     0.056 C 
ATOM     18  C   UNL A   1      33.913  26.605  25.736  1.00  0.00     0.056 C 
ENDBRANCH  14  15
ENDBRANCH  11  14
ENDBRANCH   9  10
BRANCH   9  19
ATOM     19  C   UNL A   1      29.779  28.103  23.112  1.00  0.00    -0.007 A 
ATOM     20  C   UNL A   1      28.409  28.023  23.348  1.00  0.00     0.009 A 
ATOM     21  C   UNL A   1      30.174  29.096  22.201  1.00  0.00     0.116 A 
ATOM     22  C   UNL A   1      27.547  28.943  22.734  1.00  0.00     0.020 A 
ATOM     23  N   UNL A   1      29.368  30.016  21.624  1.00  0.00    -0.264 NA
ATOM     24  C   UNL A   1      28.065  29.933  21.921  1.00  0.00     0.111 A 
ENDBRANCH   9  19
ENDBRANCH   8   9
ENDBRANCH   6   8
ENDBRANCH   5   6
ENDBRANCH   4   5
ENDBRANCH   3   4
ENDBRANCH   2   3
ENDBRANCH   1   2
BRANCH   1  25
ATOM     25  C   UNL A   1      33.880  20.814  25.565  1.00  0.00     0.188 C 
BRANCH  25  26
ATOM     26  O   UNL A   1      34.965  21.079  24.696  1.00  0.00    -0.376 OA
BRANCH  26  27
ATOM     27  C   UNL A   1      36.275  20.901  25.216  1.00  0.00     0.202 C 
BRANCH  27  28
ATOM     28  C   UNL A   1      37.359  21.818  24.646  1.00  0.00     0.261 C 
BRANCH  28  29
ATOM     29  O   UNL A   1      38.189  22.394  25.676  1.00  0.00    -0.460 OA
BRANCH  29  30
ATOM     30  C   UNL A   1      37.812  23.639  26.059  1.00  0.00     0.338 C 
ATOM     31  O   UNL A   1      36.709  24.137  25.905  1.00  0.00    -0.246 OA
BRANCH  30  32
ATOM     32  C   UNL A   1      38.896  24.381  26.737  1.00  0.00     0.060 A 
ATOM     33  C   UNL A   1      38.875  24.589  28.114  1.00  0.00     0.016 A 
ATOM     34  C   UNL A   1      39.794  25.104  25.953  1.00  0.00     0.016 A 
ATOM     35  C   UNL A   1      39.650  25.603  28.686  1.00  0.00     0.010 A 
ATOM     36  C   UNL A   1      40.634  26.058  26.542  1.00  0.00     0.010 A 
ATOM     37  C   UNL A   1      40.536  26.362  27.911  1.00  0.00    -0.014 A 
BRANCH  37  38
ATOM     38  C   UNL A   1      41.307  27.502  28.494  1.00  0.00     0.031 A 
ATOM     39  C   UNL A   1      40.575  28.661  29.135  1.00  0.00     0.074 A 
ATOM     40  C   UNL A   1      42.656  27.521  28.462  1.00  0.00     0.049 A 
ATOM     41  N   UNL A   1      41.002  29.867  29.407  1.00  0.00    -0.248 NA
ATOM     42  C   UNL A   1      39.170  28.428  29.511  1.00  0.00     0.031 C 
ATOM     43  C   UNL A   1      43.512  26.435  27.979  1.00  0.00     0.029 A 
ATOM     44  N   UNL A   1      43.549  28.498  28.834  1.00  0.00    -0.354 N 
ATOM     45  C   UNL A   1      39.905  30.559  29.913  1.00  0.00     0.074 A 
ATOM     46  C   UNL A   1      38.796  29.630  29.930  1.00  0.00     0.031 C 
ATOM     47  C   UNL A   1      44.798  26.794  28.102  1.00  0.00     0.029 A 
ATOM     48  C   UNL A   1      44.857  28.183  28.541  1.00  0.00     0.049 A 
ATOM     49  H   UNL A   1      43.280  29.341  29.267  1.00  0.00     0.167 HD
ATOM     50  C   UNL A   1      39.833  31.855  30.307  1.00  0.00     0.037 A 
ATOM     51  C   UNL A   1      45.971  28.940  28.531  1.00  0.00     0.037 A 
ATOM     52  C   UNL A   1      40.967  32.747  30.328  1.00  0.00     0.049 A 
ATOM     53  C   UNL A   1      45.861  30.396  28.885  1.00  0.00     0.074 A 
ATOM     54  C   UNL A   1      41.011  34.081  30.696  1.00  0.00     0.029 A 
ATOM     55  N   UNL A   1      42.262  32.389  29.981  1.00  0.00    -0.354 N 
ATOM     56  N   UNL A   1      44.800  31.073  29.257  1.00  0.00    -0.248 NA
ATOM     57  C   UNL A   1      47.087  31.196  28.791  1.00  0.00     0.031 C 
ATOM     58  C   UNL A   1      42.320  34.541  30.524  1.00  0.00     0.029 A 
ATOM     59  C   UNL A   1      43.107  33.480  30.105  1.00  0.00     0.049 A 
ATOM     60  H   UNL A   1      42.540  31.492  29.687  1.00  0.00     0.167 HD
ATOM     61  C   UNL A   1      45.236  32.377  29.460  1.00  0.00     0.074 A 
ATOM     62  C   UNL A   1      46.659  32.389  29.183  1.00  0.00     0.031 C 
ATOM     63  C   UNL A   1      44.524  33.467  29.836  1.00  0.00     0.037 A 
BRANCH  50  64
ATOM     64  C   UNL A   1      38.482  32.411  30.684  1.00  0.00     0.058 A 
ATOM     65  C   UNL A   1      37.924  32.244  31.960  1.00  0.00     0.135 A 
ATOM     66  C   UNL A   1      37.750  33.166  29.749  1.00  0.00     0.135 A 
ATOM     67  F   UNL A   1      38.570  31.523  32.891  1.00  0.00    -0.206 F 
ATOM     68  C   UNL A   1      36.678  32.777  32.286  1.00  0.00     0.059 A 
ATOM     69  C   UNL A   1      36.517  33.732  30.062  1.00  0.00     0.059 A 
ATOM     70  F   UNL A   1      38.234  33.364  28.512  1.00  0.00    -0.206 F 
ATOM     71  C   UNL A   1      35.981  33.518  31.330  1.00  0.00     0.060 A 
BRANCH  71  72
ATOM     72  S   UNL A   1      34.363  34.195  31.765  1.00  0.00     0.124 S 
ATOM     73  O   UNL A   1      34.733  35.477  32.355  1.00  0.00    -0.237 OA
ATOM     74  O   UNL A   1      33.696  34.264  30.468  1.00  0.00    -0.237 OA
ATOM     75  O   UNL A   1      33.820  33.210  32.694  1.00  0.00    -0.744 OA
ENDBRANCH  71  72
ENDBRANCH  50  64
BRANCH  51  76
ATOM     76  C   UNL A   1      47.265  28.351  28.086  1.00  0.00     0.058 A 
ATOM     77  C   UNL A   1      48.169  27.803  29.006  1.00  0.00     0.135 A 
ATOM     78  C   UNL A   1      47.611  28.301  26.724  1.00  0.00     0.135 A 
ATOM     79  F   UNL A   1      47.892  27.839  30.319  1.00  0.00    -0.206 F 
ATOM     80  C   UNL A   1      49.369  27.231  28.597  1.00  0.00     0.059 A 
ATOM     81  C   UNL A   1      48.787  27.702  26.288  1.00  0.00     0.059 A 
ATOM     82  F   UNL A   1      46.779  28.803  25.798  1.00  0.00    -0.206 F 
ATOM     83  C   UNL A   1      49.666  27.178  27.233  1.00  0.00     0.060 A 
BRANCH  83  84
ATOM     84  S   UNL A   1      51.198  26.380  26.709  1.00  0.00     0.124 S 
ATOM     85  O   UNL A   1      52.175  27.018  27.585  1.00  0.00    -0.237 OA
ATOM     86  O   UNL A   1      50.919  24.973  26.980  1.00  0.00    -0.237 OA
ATOM     87  O   UNL A   1      51.292  26.731  25.295  1.00  0.00    -0.744 OA
ENDBRANCH  83  84
ENDBRANCH  51  76
BRANCH  63  88
ATOM     88  C   UNL A   1      45.281  34.753  30.020  1.00  0.00     0.058 A 
ATOM     89  C   UNL A   1      45.446  35.671  28.971  1.00  0.00     0.135 A 
ATOM     90  C   UNL A   1      45.809  35.088  31.277  1.00  0.00     0.135 A 
ATOM     91  F   UNL A   1      44.971  35.392  27.747  1.00  0.00    -0.206 F 
ATOM     92  C   UNL A   1      46.126  36.870  29.159  1.00  0.00     0.059 A 
ATOM     93  C   UNL A   1      46.466  36.293  31.495  1.00  0.00     0.059 A 
ATOM     94  F   UNL A   1      45.673  34.245  32.314  1.00  0.00    -0.206 F 
ATOM     95  C   UNL A   1      46.629  37.174  30.426  1.00  0.00     0.060 A 
BRANCH  95  96
ATOM     96  S   UNL A   1      47.472  38.751  30.665  1.00  0.00     0.124 S 
ATOM     97  O   UNL A   1      46.350  39.683  30.701  1.00  0.00    -0.237 OA
ATOM     98  O   UNL A   1      48.167  38.544  31.931  1.00  0.00    -0.237 OA
ATOM     99  O   UNL A   1      48.337  38.856  29.492  1.00  0.00    -0.744 OA
ENDBRANCH  95  96
ENDBRANCH  63  88
ENDBRANCH  37  38
ENDBRANCH  30  32
ENDBRANCH  29  30
ENDBRANCH  28  29
ENDBRANCH  27  28
ENDBRANCH  26  27
ENDBRANCH  25  26
ENDBRANCH   1  25
TORSDOF 25
ENDMDL
MODEL 3
REMARK VINA RESULT:      -9.4      2.473      8.656
REMARK SMILES CC(C)(C)OC(=O)N[C@@H](CC(=O)OCCOCCOCCOC(=O)c1ccc(-c2c3nc(c(-c4c(F)cc(S(=O)(=O)[O-])cc4F)c4ccc([nH]4)c(-c4c(F)cc(S(=O)(=O)[O-])cc4F)c4nc(c(-c5c(F)cc(S(=O)(=O)[O-])cc5F)c5ccc2[nH]5)C=C4)C=C3)cc1)c1cccnc1
REMARK SMILES IDX 17 1 16 2 15 3 14 4 13 5 11 6 12 7 10 8 9 9 8 10 6 11 7 12
REMARK SMILES IDX 5 14 2 15 1 16 3 17 4 18 91 19 92 20 96 21 93 22 95 23 94 24
REMARK SMILES IDX 18 25 19 26 20 27 21 28 22 29 23 30 24 31 25 32 26 33 90 34
REMARK SMILES IDX 27 35 89 36 28 37 29 38 30 39 83 40 31 41 88 42 82 43 84 44
REMARK SMILES IDX 32 45 87 46 81 47 80 48 33 50 67 51 46 52 66 53 47 54 50 55
REMARK SMILES IDX 65 56 85 57 48 58 49 59 64 61 86 62 51 63 34 64 35 65 44 66
REMARK SMILES IDX 36 67 37 68 43 69 45 70 38 71 39 72 40 73 41 74 42 75 68 76
REMARK SMILES IDX 69 77 78 78 70 79 71 80 77 81 79 82 72 83 73 84 74 85 75 86
REMARK SMILES IDX 76 87 52 88 53 89 62 90 54 91 55 92 61 93 63 94 56 95 57 96
REMARK SMILES IDX 58 97 59 98 60 99
REMARK H PARENT 8 13 84 49 50 60
REMARK Flexibility Score: inf
ROOT
ATOM      1  C   UNL A   1      34.629  21.386  24.868  1.00  0.00     0.188 C 
ENDROOT
BRANCH   1   2
ATOM      2  O   UNL A   1      34.092  22.513  24.201  1.00  0.00    -0.376 OA
BRANCH   2   3
ATOM      3  C   UNL A   1      33.265  22.320  23.072  1.00  0.00     0.202 C 
BRANCH   3   4
ATOM      4  C   UNL A   1      33.280  23.413  22.002  1.00  0.00     0.261 C 
BRANCH   4   5
ATOM      5  O   UNL A   1      33.978  24.621  22.380  1.00  0.00    -0.463 OA
BRANCH   5   6
ATOM      6  C   UNL A   1      33.511  25.773  21.828  1.00  0.00     0.308 C 
ATOM      7  O   UNL A   1      33.278  25.913  20.633  1.00  0.00    -0.252 OA
BRANCH   6   8
ATOM      8  C   UNL A   1      33.430  26.948  22.778  1.00  0.00     0.152 C 
BRANCH   8   9
ATOM      9  C   UNL A   1      32.585  26.938  24.064  1.00  0.00     0.128 C 
BRANCH   9  10
ATOM     10  N   UNL A   1      31.164  26.781  23.778  1.00  0.00    -0.314 N 
ATOM     11  C   UNL A   1      30.428  25.651  23.982  1.00  0.00     0.408 C 
ATOM     12  O   UNL A   1      29.236  25.597  23.738  1.00  0.00    -0.225 OA
ATOM     13  H   UNL A   1      30.693  27.560  23.403  1.00  0.00     0.167 HD
BRANCH  11  14
ATOM     14  O   UNL A   1      31.188  24.655  24.485  1.00  0.00    -0.444 OA
BRANCH  14  15
ATOM     15  C   UNL A   1      30.970  24.099  25.799  1.00  0.00     0.106 C 
ATOM     16  C   UNL A   1      32.319  24.277  26.512  1.00  0.00     0.056 C 
ATOM     17  C   UNL A   1      30.653  22.609  25.677  1.00  0.00     0.056 C 
ATOM     18  C   UNL A   1      29.900  24.869  26.576  1.00  0.00     0.056 C 
ENDBRANCH  14  15
ENDBRANCH  11  14
ENDBRANCH   9  10
BRANCH   9  19
ATOM     19  C   UNL A   1      32.809  27.957  25.172  1.00  0.00    -0.007 A 
ATOM     20  C   UNL A   1      33.070  27.655  26.507  1.00  0.00     0.009 A 
ATOM     21  C   UNL A   1      32.661  29.323  24.883  1.00  0.00     0.116 A 
ATOM     22  C   UNL A   1      33.223  28.696  27.433  1.00  0.00     0.020 A 
ATOM     23  N   UNL A   1      32.839  30.346  25.751  1.00  0.00    -0.264 NA
ATOM     24  C   UNL A   1      33.139  30.010  27.012  1.00  0.00     0.111 A 
ENDBRANCH   9  19
ENDBRANCH   8   9
ENDBRANCH   6   8
ENDBRANCH   5   6
ENDBRANCH   4   5
ENDBRANCH   3   4
ENDBRANCH   2   3
ENDBRANCH   1   2
BRANCH   1  25
ATOM     25  C   UNL A   1      36.135  21.305  25.196  1.00  0.00     0.188 C 
BRANCH  25  26
ATOM     26  O   UNL A   1      36.840  22.477  25.562  1.00  0.00    -0.376 OA
BRANCH  26  27
ATOM     27  C   UNL A   1      38.234  22.351  25.803  1.00  0.00     0.202 C 
BRANCH  27  28
ATOM     28  C   UNL A   1      38.814  20.940  25.691  1.00  0.00     0.261 C 
BRANCH  28  29
ATOM     29  O   UNL A   1      39.742  20.641  26.755  1.00  0.00    -0.460 OA
BRANCH  29  30
ATOM     30  C   UNL A   1      40.972  20.267  26.328  1.00  0.00     0.338 C 
ATOM     31  O   UNL A   1      41.250  19.228  25.751  1.00  0.00    -0.246 OA
BRANCH  30  32
ATOM     32  C   UNL A   1      42.009  21.283  26.610  1.00  0.00     0.060 A 
ATOM     33  C   UNL A   1      42.497  21.476  27.900  1.00  0.00     0.016 A 
ATOM     34  C   UNL A   1      42.292  22.230  25.627  1.00  0.00     0.016 A 
ATOM     35  C   UNL A   1      43.149  22.666  28.237  1.00  0.00     0.010 A 
ATOM     36  C   UNL A   1      43.025  23.380  25.947  1.00  0.00     0.010 A 
ATOM     37  C   UNL A   1      43.418  23.643  27.271  1.00  0.00    -0.014 A 
BRANCH  37  38
ATOM     38  C   UNL A   1      44.039  24.954  27.633  1.00  0.00     0.031 A 
ATOM     39  C   UNL A   1      43.177  26.080  28.159  1.00  0.00     0.074 A 
ATOM     40  C   UNL A   1      45.367  25.156  27.502  1.00  0.00     0.049 A 
ATOM     41  N   UNL A   1      43.433  27.361  28.230  1.00  0.00    -0.248 NA
ATOM     42  C   UNL A   1      41.844  25.711  28.665  1.00  0.00     0.031 C 
ATOM     43  C   UNL A   1      46.349  24.142  27.112  1.00  0.00     0.029 A 
ATOM     44  N   UNL A   1      46.122  26.293  27.670  1.00  0.00    -0.354 N 
ATOM     45  C   UNL A   1      42.272  27.959  28.713  1.00  0.00     0.074 A 
ATOM     46  C   UNL A   1      41.316  26.897  28.939  1.00  0.00     0.031 C 
ATOM     47  C   UNL A   1      47.572  24.692  27.092  1.00  0.00     0.029 A 
ATOM     48  C   UNL A   1      47.446  26.124  27.329  1.00  0.00     0.049 A 
ATOM     49  H   UNL A   1      45.754  27.144  28.000  1.00  0.00     0.167 HD
ATOM     50  C   UNL A   1      42.029  29.277  28.929  1.00  0.00     0.037 A 
ATOM     51  C   UNL A   1      48.433  27.019  27.135  1.00  0.00     0.037 A 
ATOM     52  C   UNL A   1      43.017  30.311  28.744  1.00  0.00     0.049 A 
ATOM     53  C   UNL A   1      48.125  28.482  27.291  1.00  0.00     0.074 A 
ATOM     54  C   UNL A   1      42.880  31.678  28.921  1.00  0.00     0.029 A 
ATOM     55  N   UNL A   1      44.331  30.092  28.357  1.00  0.00    -0.354 N 
ATOM     56  N   UNL A   1      46.996  29.051  27.641  1.00  0.00    -0.248 NA
ATOM     57  C   UNL A   1      49.212  29.423  26.999  1.00  0.00     0.031 C 
ATOM     58  C   UNL A   1      44.096  32.286  28.592  1.00  0.00     0.029 A 
ATOM     59  C   UNL A   1      45.010  31.295  28.269  1.00  0.00     0.049 A 
ATOM     60  H   UNL A   1      44.724  29.208  28.171  1.00  0.00     0.167 HD
ATOM     61  C   UNL A   1      47.243  30.419  27.629  1.00  0.00     0.074 A 
ATOM     62  C   UNL A   1      48.633  30.589  27.251  1.00  0.00     0.031 C 
ATOM     63  C   UNL A   1      46.397  31.442  27.902  1.00  0.00     0.037 A 
BRANCH  50  64
ATOM     64  C   UNL A   1      40.632  29.687  29.322  1.00  0.00     0.058 A 
ATOM     65  C   UNL A   1      39.556  29.671  28.421  1.00  0.00     0.135 A 
ATOM     66  C   UNL A   1      40.360  30.066  30.649  1.00  0.00     0.135 A 
ATOM     67  F   UNL A   1      39.755  29.331  27.137  1.00  0.00    -0.206 F 
ATOM     68  C   UNL A   1      38.272  30.046  28.811  1.00  0.00     0.059 A 
ATOM     69  C   UNL A   1      39.079  30.415  31.069  1.00  0.00     0.059 A 
ATOM     70  F   UNL A   1      41.347  30.096  31.559  1.00  0.00    -0.206 F 
ATOM     71  C   UNL A   1      38.043  30.418  30.138  1.00  0.00     0.060 A 
BRANCH  71  72
ATOM     72  S   UNL A   1      36.374  30.908  30.628  1.00  0.00     0.124 S 
ATOM     73  O   UNL A   1      35.903  29.703  31.303  1.00  0.00    -0.237 OA
ATOM     74  O   UNL A   1      36.628  32.059  31.490  1.00  0.00    -0.237 OA
ATOM     75  O   UNL A   1      35.721  31.211  29.359  1.00  0.00    -0.744 OA
ENDBRANCH  71  72
ENDBRANCH  50  64
BRANCH  51  76
ATOM     76  C   UNL A   1      49.775  26.558  26.683  1.00  0.00     0.058 A 
ATOM     77  C   UNL A   1      50.729  26.091  27.597  1.00  0.00     0.135 A 
ATOM     78  C   UNL A   1      50.122  26.553  25.320  1.00  0.00     0.135 A 
ATOM     79  F   UNL A   1      50.453  26.090  28.911  1.00  0.00    -0.206 F 
ATOM     80  C   UNL A   1      51.976  25.637  27.181  1.00  0.00     0.059 A 
ATOM     81  C   UNL A   1      51.348  26.070  24.877  1.00  0.00     0.059 A 
ATOM     82  F   UNL A   1      49.245  26.982  24.399  1.00  0.00    -0.206 F 
ATOM     83  C   UNL A   1      52.274  25.623  25.817  1.00  0.00     0.060 A 
BRANCH  83  84
ATOM     84  S   UNL A   1      53.873  24.977  25.284  1.00  0.00     0.124 S 
ATOM     85  O   UNL A   1      54.653  25.077  26.512  1.00  0.00    -0.237 OA
ATOM     86  O   UNL A   1      53.529  23.626  24.853  1.00  0.00    -0.237 OA
ATOM     87  O   UNL A   1      54.263  25.888  24.211  1.00  0.00    -0.744 OA
ENDBRANCH  83  84
ENDBRANCH  51  76
BRANCH  63  88
ATOM     88  C   UNL A   1      46.963  32.834  27.851  1.00  0.00     0.058 A 
ATOM     89  C   UNL A   1      47.779  33.339  28.875  1.00  0.00     0.135 A 
ATOM     90  C   UNL A   1      46.718  33.655  26.739  1.00  0.00     0.135 A 
ATOM     91  F   UNL A   1      48.032  32.599  29.966  1.00  0.00    -0.206 F 
ATOM     92  C   UNL A   1      48.318  34.619  28.806  1.00  0.00     0.059 A 
ATOM     93  C   UNL A   1      47.271  34.926  26.635  1.00  0.00     0.059 A 
ATOM     94  F   UNL A   1      45.948  33.215  25.730  1.00  0.00    -0.206 F 
ATOM     95  C   UNL A   1      48.062  35.403  27.679  1.00  0.00     0.060 A 
BRANCH  95  96
ATOM     96  S   UNL A   1      48.803  37.046  27.584  1.00  0.00     0.124 S 
ATOM     97  O   UNL A   1      48.661  37.352  26.164  1.00  0.00    -0.237 OA
ATOM     98  O   UNL A   1      47.960  37.821  28.488  1.00  0.00    -0.237 OA
ATOM     99  O   UNL A   1      50.172  36.829  28.045  1.00  0.00    -0.744 OA
ENDBRANCH  95  96
ENDBRANCH  63  88
ENDBRANCH  37  38
ENDBRANCH  30  32
ENDBRANCH  29  30
ENDBRANCH  28  29
ENDBRANCH  27  28
ENDBRANCH  26  27
ENDBRANCH  25  26
ENDBRANCH   1  25
TORSDOF 25
ENDMDL
