MODEL 1
REMARK VINA RESULT:      -7.7      0.000      0.000
REMARK SMILES CC(C)(O)CCOc1ccc(C(=O)OCCOCCOCCOC(=O)c2ccc(-c3c4nc(c(-c5c(F)cc(S(=O)(=O)[O-])cc5F)c5ccc([nH]5)c(-c5c(F)cc(S(=O)(=O)[O-])cc5F)c5nc(c(-c6c(F)cc(S(=O)(=O)[O-])cc6F)c6ccc3[nH]6)C=C5)C=C4)cc2)cc1
REMARK SMILES IDX 18 1 17 2 16 3 15 4 14 5 12 6 13 7 11 8 8 9 9 10 93 11 10 12
REMARK SMILES IDX 92 13 7 14 6 15 5 16 2 17 1 18 3 19 4 20 19 22 20 23 21 24
REMARK SMILES IDX 22 25 23 26 24 27 25 28 26 29 27 30 91 31 28 32 90 33 29 34
REMARK SMILES IDX 30 35 31 36 84 37 32 38 89 39 83 40 85 41 33 42 88 43 82 44
REMARK SMILES IDX 81 45 34 47 68 48 47 49 67 50 48 51 51 52 66 53 86 54 49 55
REMARK SMILES IDX 50 56 65 58 87 59 52 60 35 61 36 62 45 63 37 64 38 65 44 66
REMARK SMILES IDX 46 67 39 68 40 69 41 70 42 71 43 72 69 73 70 74 79 75 71 76
REMARK SMILES IDX 72 77 78 78 80 79 73 80 74 81 75 82 76 83 77 84 53 85 54 86
REMARK SMILES IDX 63 87 55 88 56 89 62 90 64 91 57 92 58 93 59 94 60 95 61 96
REMARK H PARENT 4 21 85 46 51 57
REMARK Flexibility Score: inf
ROOT
ATOM      1  C   UNL A   1      45.925  44.531  25.287  1.00  0.00     0.188 C 
ENDROOT
BRANCH   1   2
ATOM      2  O   UNL A   1      45.382  44.919  24.034  1.00  0.00    -0.376 OA
BRANCH   2   3
ATOM      3  C   UNL A   1      45.754  44.076  22.949  1.00  0.00     0.202 C 
BRANCH   3   4
ATOM      4  C   UNL A   1      45.039  44.417  21.638  1.00  0.00     0.261 C 
BRANCH   4   5
ATOM      5  O   UNL A   1      43.642  44.075  21.573  1.00  0.00    -0.460 OA
BRANCH   5   6
ATOM      6  C   UNL A   1      43.256  43.043  20.782  1.00  0.00     0.338 C 
ATOM      7  O   UNL A   1      43.239  41.861  21.061  1.00  0.00    -0.246 OA
BRANCH   6   8
ATOM      8  C   UNL A   1      42.772  43.646  19.527  1.00  0.00     0.060 A 
ATOM      9  C   UNL A   1      42.049  45.168  17.295  1.00  0.00     0.119 A 
ATOM     10  C   UNL A   1      41.099  44.859  18.277  1.00  0.00     0.047 A 
ATOM     11  C   UNL A   1      43.310  44.582  17.376  1.00  0.00     0.047 A 
ATOM     12  C   UNL A   1      41.449  44.078  19.387  1.00  0.00     0.019 A 
ATOM     13  C   UNL A   1      43.694  43.870  18.509  1.00  0.00     0.019 A 
BRANCH   9  14
ATOM     14  O   UNL A   1      41.674  46.118  16.384  1.00  0.00    -0.493 OA
BRANCH  14  15
ATOM     15  C   UNL A   1      41.531  47.477  16.806  1.00  0.00     0.232 C 
BRANCH  15  16
ATOM     16  C   UNL A   1      42.580  48.475  16.263  1.00  0.00     0.076 C 
BRANCH  16  17
ATOM     17  C   UNL A   1      43.926  48.636  17.006  1.00  0.00     0.062 C 
ATOM     18  C   UNL A   1      43.807  48.318  18.503  1.00  0.00     0.042 C 
ATOM     19  C   UNL A   1      44.457  50.069  16.861  1.00  0.00     0.042 C 
BRANCH  17  20
ATOM     20  O   UNL A   1      44.916  47.824  16.381  1.00  0.00    -0.390 OA
ATOM     21  H   UNL A   1      44.681  47.683  15.451  1.00  0.00     0.211 HD
ENDBRANCH  17  20
ENDBRANCH  16  17
ENDBRANCH  15  16
ENDBRANCH  14  15
ENDBRANCH   9  14
ENDBRANCH   6   8
ENDBRANCH   5   6
ENDBRANCH   4   5
ENDBRANCH   3   4
ENDBRANCH   2   3
ENDBRANCH   1   2
BRANCH   1  22
ATOM     22  C   UNL A   1      46.356  43.055  25.326  1.00  0.00     0.188 C 
BRANCH  22  23
ATOM     23  O   UNL A   1      45.391  42.028  25.468  1.00  0.00    -0.376 OA
BRANCH  23  24
ATOM     24  C   UNL A   1      44.062  42.315  25.861  1.00  0.00     0.202 C 
BRANCH  24  25
ATOM     25  C   UNL A   1      42.836  42.164  24.936  1.00  0.00     0.261 C 
BRANCH  25  26
ATOM     26  O   UNL A   1      42.085  40.951  24.989  1.00  0.00    -0.460 OA
BRANCH  26  27
ATOM     27  C   UNL A   1      41.381  40.717  26.121  1.00  0.00     0.338 C 
ATOM     28  O   UNL A   1      40.391  41.310  26.507  1.00  0.00    -0.246 OA
BRANCH  27  29
ATOM     29  C   UNL A   1      41.922  39.487  26.746  1.00  0.00     0.060 A 
ATOM     30  C   UNL A   1      42.642  39.590  27.945  1.00  0.00     0.016 A 
ATOM     31  C   UNL A   1      41.710  38.237  26.160  1.00  0.00     0.016 A 
ATOM     32  C   UNL A   1      43.167  38.445  28.551  1.00  0.00     0.010 A 
ATOM     33  C   UNL A   1      42.258  37.095  26.756  1.00  0.00     0.010 A 
ATOM     34  C   UNL A   1      43.010  37.195  27.940  1.00  0.00    -0.014 A 
BRANCH  34  35
ATOM     35  C   UNL A   1      43.775  36.016  28.423  1.00  0.00     0.031 A 
ATOM     36  C   UNL A   1      45.248  35.949  28.123  1.00  0.00     0.074 A 
ATOM     37  C   UNL A   1      43.180  35.013  29.097  1.00  0.00     0.049 A 
ATOM     38  N   UNL A   1      46.098  34.978  28.335  1.00  0.00    -0.248 NA
ATOM     39  C   UNL A   1      45.840  37.140  27.490  1.00  0.00     0.031 C 
ATOM     40  C   UNL A   1      41.773  34.976  29.491  1.00  0.00     0.029 A 
ATOM     41  N   UNL A   1      43.689  33.821  29.551  1.00  0.00    -0.354 N 
ATOM     42  C   UNL A   1      47.319  35.433  27.850  1.00  0.00     0.074 A 
ATOM     43  C   UNL A   1      47.094  36.755  27.311  1.00  0.00     0.031 C 
ATOM     44  C   UNL A   1      41.525  33.806  30.108  1.00  0.00     0.029 A 
ATOM     45  C   UNL A   1      42.744  32.997  30.119  1.00  0.00     0.049 A 
ATOM     46  H   UNL A   1      44.640  33.578  29.478  1.00  0.00     0.167 HD
ATOM     47  C   UNL A   1      48.519  34.805  27.856  1.00  0.00     0.037 A 
ATOM     48  C   UNL A   1      42.844  31.727  30.562  1.00  0.00     0.037 A 
ATOM     49  C   UNL A   1      48.737  33.486  28.391  1.00  0.00     0.049 A 
ATOM     50  C   UNL A   1      44.174  31.016  30.488  1.00  0.00     0.074 A 
ATOM     51  C   UNL A   1      49.920  32.773  28.456  1.00  0.00     0.029 A 
ATOM     52  N   UNL A   1      47.753  32.680  28.941  1.00  0.00    -0.354 N 
ATOM     53  N   UNL A   1      45.325  31.461  30.043  1.00  0.00    -0.248 NA
ATOM     54  C   UNL A   1      44.220  29.627  30.974  1.00  0.00     0.031 C 
ATOM     55  C   UNL A   1      49.640  31.512  28.994  1.00  0.00     0.029 A 
ATOM     56  C   UNL A   1      48.295  31.464  29.325  1.00  0.00     0.049 A 
ATOM     57  H   UNL A   1      46.806  32.934  29.043  1.00  0.00     0.167 HD
ATOM     58  C   UNL A   1      46.236  30.424  30.231  1.00  0.00     0.074 A 
ATOM     59  C   UNL A   1      45.504  29.328  30.829  1.00  0.00     0.031 C 
ATOM     60  C   UNL A   1      47.561  30.387  29.939  1.00  0.00     0.037 A 
BRANCH  47  61
ATOM     61  C   UNL A   1      49.685  35.525  27.237  1.00  0.00     0.058 A 
ATOM     62  C   UNL A   1      50.484  36.415  27.976  1.00  0.00     0.135 A 
ATOM     63  C   UNL A   1      50.030  35.297  25.895  1.00  0.00     0.135 A 
ATOM     64  F   UNL A   1      50.189  36.684  29.257  1.00  0.00    -0.206 F 
ATOM     65  C   UNL A   1      51.566  37.070  27.397  1.00  0.00     0.059 A 
ATOM     66  C   UNL A   1      51.126  35.919  25.305  1.00  0.00     0.059 A 
ATOM     67  F   UNL A   1      49.299  34.459  25.144  1.00  0.00    -0.206 F 
ATOM     68  C   UNL A   1      51.879  36.814  26.061  1.00  0.00     0.060 A 
BRANCH  68  69
ATOM     69  S   UNL A   1      53.289  37.670  25.328  1.00  0.00     0.124 S 
ATOM     70  O   UNL A   1      52.994  37.550  23.903  1.00  0.00    -0.237 OA
ATOM     71  O   UNL A   1      53.166  39.011  25.890  1.00  0.00    -0.237 OA
ATOM     72  O   UNL A   1      54.437  36.900  25.796  1.00  0.00    -0.744 OA
ENDBRANCH  68  69
ENDBRANCH  47  61
BRANCH  48  73
ATOM     73  C   UNL A   1      41.645  31.027  31.101  1.00  0.00     0.058 A 
ATOM     74  C   UNL A   1      40.826  30.245  30.273  1.00  0.00     0.135 A 
ATOM     75  C   UNL A   1      41.286  31.135  32.454  1.00  0.00     0.135 A 
ATOM     76  F   UNL A   1      41.115  30.124  28.967  1.00  0.00    -0.206 F 
ATOM     77  C   UNL A   1      39.689  29.607  30.760  1.00  0.00     0.059 A 
ATOM     78  C   UNL A   1      40.169  30.484  32.972  1.00  0.00     0.059 A 
ATOM     79  F   UNL A   1      42.036  31.867  33.293  1.00  0.00    -0.206 F 
ATOM     80  C   UNL A   1      39.372  29.729  32.114  1.00  0.00     0.060 A 
BRANCH  80  81
ATOM     81  S   UNL A   1      37.919  28.861  32.743  1.00  0.00     0.124 S 
ATOM     82  O   UNL A   1      38.413  27.493  32.842  1.00  0.00    -0.237 OA
ATOM     83  O   UNL A   1      37.679  29.545  34.010  1.00  0.00    -0.237 OA
ATOM     84  O   UNL A   1      36.913  29.096  31.711  1.00  0.00    -0.744 OA
ENDBRANCH  80  81
ENDBRANCH  48  73
BRANCH  60  85
ATOM     85  C   UNL A   1      48.333  29.148  30.309  1.00  0.00     0.058 A 
ATOM     86  C   UNL A   1      48.947  28.998  31.561  1.00  0.00     0.135 A 
ATOM     87  C   UNL A   1      48.380  28.056  29.424  1.00  0.00     0.135 A 
ATOM     88  F   UNL A   1      48.938  30.010  32.443  1.00  0.00    -0.206 F 
ATOM     89  C   UNL A   1      49.590  27.816  31.920  1.00  0.00     0.059 A 
ATOM     90  C   UNL A   1      48.992  26.856  29.772  1.00  0.00     0.059 A 
ATOM     91  F   UNL A   1      47.800  28.140  28.216  1.00  0.00    -0.206 F 
ATOM     92  C   UNL A   1      49.600  26.747  31.022  1.00  0.00     0.060 A 
BRANCH  92  93
ATOM     93  S   UNL A   1      50.385  25.200  31.522  1.00  0.00     0.124 S 
ATOM     94  O   UNL A   1      50.435  24.471  30.260  1.00  0.00    -0.237 OA
ATOM     95  O   UNL A   1      51.672  25.658  32.041  1.00  0.00    -0.237 OA
ATOM     96  O   UNL A   1      49.470  24.661  32.523  1.00  0.00    -0.744 OA
ENDBRANCH  92  93
ENDBRANCH  60  85
ENDBRANCH  34  35
ENDBRANCH  27  29
ENDBRANCH  26  27
ENDBRANCH  25  26
ENDBRANCH  24  25
ENDBRANCH  23  24
ENDBRANCH  22  23
ENDBRANCH   1  22
TORSDOF 25
ENDMDL
MODEL 2
REMARK VINA RESULT:      -7.6      6.583     10.378
REMARK SMILES CC(C)(O)CCOc1ccc(C(=O)OCCOCCOCCOC(=O)c2ccc(-c3c4nc(c(-c5c(F)cc(S(=O)(=O)[O-])cc5F)c5ccc([nH]5)c(-c5c(F)cc(S(=O)(=O)[O-])cc5F)c5nc(c(-c6c(F)cc(S(=O)(=O)[O-])cc6F)c6ccc3[nH]6)C=C5)C=C4)cc2)cc1
REMARK SMILES IDX 18 1 17 2 16 3 15 4 14 5 12 6 13 7 11 8 8 9 9 10 93 11 10 12
REMARK SMILES IDX 92 13 7 14 6 15 5 16 2 17 1 18 3 19 4 20 19 22 20 23 21 24
REMARK SMILES IDX 22 25 23 26 24 27 25 28 26 29 27 30 91 31 28 32 90 33 29 34
REMARK SMILES IDX 30 35 31 36 84 37 32 38 89 39 83 40 85 41 33 42 88 43 82 44
REMARK SMILES IDX 81 45 34 47 68 48 47 49 67 50 48 51 51 52 66 53 86 54 49 55
REMARK SMILES IDX 50 56 65 58 87 59 52 60 35 61 36 62 45 63 37 64 38 65 44 66
REMARK SMILES IDX 46 67 39 68 40 69 41 70 42 71 43 72 69 73 70 74 79 75 71 76
REMARK SMILES IDX 72 77 78 78 80 79 73 80 74 81 75 82 76 83 77 84 53 85 54 86
REMARK SMILES IDX 63 87 55 88 56 89 62 90 64 91 57 92 58 93 59 94 60 95 61 96
REMARK H PARENT 4 21 85 46 51 57
REMARK Flexibility Score: inf
ROOT
ATOM      1  C   UNL A   1      46.105  43.148  23.449  1.00  0.00     0.188 C 
ENDROOT
BRANCH   1   2
ATOM      2  O   UNL A   1      45.235  43.893  24.287  1.00  0.00    -0.376 OA
BRANCH   2   3
ATOM      3  C   UNL A   1      43.945  44.126  23.733  1.00  0.00     0.202 C 
BRANCH   3   4
ATOM      4  C   UNL A   1      43.364  42.911  23.005  1.00  0.00     0.261 C 
BRANCH   4   5
ATOM      5  O   UNL A   1      43.129  41.742  23.813  1.00  0.00    -0.460 OA
BRANCH   5   6
ATOM      6  C   UNL A   1      41.980  41.660  24.527  1.00  0.00     0.338 C 
ATOM      7  O   UNL A   1      40.846  41.838  24.131  1.00  0.00    -0.246 OA
BRANCH   6   8
ATOM      8  C   UNL A   1      42.367  41.220  25.880  1.00  0.00     0.060 A 
ATOM      9  C   UNL A   1      42.891  40.757  28.587  1.00  0.00     0.119 A 
ATOM     10  C   UNL A   1      43.903  41.233  27.743  1.00  0.00     0.047 A 
ATOM     11  C   UNL A   1      41.673  40.381  28.026  1.00  0.00     0.047 A 
ATOM     12  C   UNL A   1      43.654  41.445  26.380  1.00  0.00     0.019 A 
ATOM     13  C   UNL A   1      41.387  40.659  26.692  1.00  0.00     0.019 A 
BRANCH   9  14
ATOM     14  O   UNL A   1      43.165  40.805  29.928  1.00  0.00    -0.493 OA
BRANCH  14  15
ATOM     15  C   UNL A   1      42.205  41.379  30.820  1.00  0.00     0.232 C 
BRANCH  15  16
ATOM     16  C   UNL A   1      42.458  42.843  31.246  1.00  0.00     0.076 C 
BRANCH  16  17
ATOM     17  C   UNL A   1      43.870  43.261  31.715  1.00  0.00     0.062 C 
ATOM     18  C   UNL A   1      44.352  42.437  32.917  1.00  0.00     0.042 C 
ATOM     19  C   UNL A   1      43.892  44.744  32.110  1.00  0.00     0.042 C 
BRANCH  17  20
ATOM     20  O   UNL A   1      44.783  43.169  30.624  1.00  0.00    -0.390 OA
ATOM     21  H   UNL A   1      44.919  44.049  30.241  1.00  0.00     0.211 HD
ENDBRANCH  17  20
ENDBRANCH  16  17
ENDBRANCH  15  16
ENDBRANCH  14  15
ENDBRANCH   9  14
ENDBRANCH   6   8
ENDBRANCH   5   6
ENDBRANCH   4   5
ENDBRANCH   3   4
ENDBRANCH   2   3
ENDBRANCH   1   2
BRANCH   1  22
ATOM     22  C   UNL A   1      46.797  41.986  24.181  1.00  0.00     0.188 C 
BRANCH  22  23
ATOM     23  O   UNL A   1      46.340  40.656  24.010  1.00  0.00    -0.376 OA
BRANCH  23  24
ATOM     24  C   UNL A   1      47.083  39.553  24.494  1.00  0.00     0.202 C 
BRANCH  24  25
ATOM     25  C   UNL A   1      46.971  39.001  25.931  1.00  0.00     0.261 C 
BRANCH  25  26
ATOM     26  O   UNL A   1      46.133  37.869  26.165  1.00  0.00    -0.460 OA
BRANCH  26  27
ATOM     27  C   UNL A   1      46.661  36.857  26.892  1.00  0.00     0.338 C 
ATOM     28  O   UNL A   1      47.569  36.115  26.567  1.00  0.00    -0.246 OA
BRANCH  27  29
ATOM     29  C   UNL A   1      46.055  36.903  28.244  1.00  0.00     0.060 A 
ATOM     30  C   UNL A   1      46.649  36.174  29.285  1.00  0.00     0.016 A 
ATOM     31  C   UNL A   1      44.913  37.671  28.487  1.00  0.00     0.016 A 
ATOM     32  C   UNL A   1      46.092  36.198  30.567  1.00  0.00     0.010 A 
ATOM     33  C   UNL A   1      44.345  37.674  29.765  1.00  0.00     0.010 A 
ATOM     34  C   UNL A   1      44.916  36.918  30.806  1.00  0.00    -0.014 A 
BRANCH  34  35
ATOM     35  C   UNL A   1      44.170  36.747  32.080  1.00  0.00     0.031 A 
ATOM     36  C   UNL A   1      44.541  37.622  33.248  1.00  0.00     0.074 A 
ATOM     37  C   UNL A   1      43.198  35.824  32.213  1.00  0.00     0.049 A 
ATOM     38  N   UNL A   1      44.119  37.583  34.484  1.00  0.00    -0.248 NA
ATOM     39  C   UNL A   1      45.527  38.683  32.980  1.00  0.00     0.031 C 
ATOM     40  C   UNL A   1      42.714  34.946  31.151  1.00  0.00     0.029 A 
ATOM     41  N   UNL A   1      42.459  35.463  33.313  1.00  0.00    -0.354 N 
ATOM     42  C   UNL A   1      44.797  38.600  35.146  1.00  0.00     0.074 A 
ATOM     43  C   UNL A   1      45.675  39.222  34.181  1.00  0.00     0.031 C 
ATOM     44  C   UNL A   1      41.772  34.129  31.658  1.00  0.00     0.029 A 
ATOM     45  C   UNL A   1      41.616  34.400  33.087  1.00  0.00     0.049 A 
ATOM     46  H   UNL A   1      42.525  35.921  34.182  1.00  0.00     0.167 HD
ATOM     47  C   UNL A   1      44.696  38.981  36.442  1.00  0.00     0.037 A 
ATOM     48  C   UNL A   1      40.836  33.704  33.940  1.00  0.00     0.037 A 
ATOM     49  C   UNL A   1      43.822  38.356  37.402  1.00  0.00     0.049 A 
ATOM     50  C   UNL A   1      40.796  34.096  35.398  1.00  0.00     0.074 A 
ATOM     51  C   UNL A   1      43.638  38.682  38.733  1.00  0.00     0.029 A 
ATOM     52  N   UNL A   1      42.998  37.273  37.137  1.00  0.00    -0.354 N 
ATOM     53  N   UNL A   1      41.428  35.069  36.010  1.00  0.00    -0.248 NA
ATOM     54  C   UNL A   1      39.938  33.293  36.284  1.00  0.00     0.031 C 
ATOM     55  C   UNL A   1      42.744  37.760  39.288  1.00  0.00     0.029 A 
ATOM     56  C   UNL A   1      42.322  36.900  38.287  1.00  0.00     0.049 A 
ATOM     57  H   UNL A   1      42.907  36.833  36.260  1.00  0.00     0.167 HD
ATOM     58  C   UNL A   1      41.015  35.019  37.339  1.00  0.00     0.074 A 
ATOM     59  C   UNL A   1      40.080  33.920  37.445  1.00  0.00     0.031 C 
ATOM     60  C   UNL A   1      41.375  35.817  38.377  1.00  0.00     0.037 A 
BRANCH  47  61
ATOM     61  C   UNL A   1      45.573  40.109  36.907  1.00  0.00     0.058 A 
ATOM     62  C   UNL A   1      46.845  39.880  37.460  1.00  0.00     0.135 A 
ATOM     63  C   UNL A   1      45.152  41.442  36.768  1.00  0.00     0.135 A 
ATOM     64  F   UNL A   1      47.291  38.626  37.634  1.00  0.00    -0.206 F 
ATOM     65  C   UNL A   1      47.654  40.931  37.881  1.00  0.00     0.059 A 
ATOM     66  C   UNL A   1      45.957  42.508  37.155  1.00  0.00     0.059 A 
ATOM     67  F   UNL A   1      43.945  41.717  36.249  1.00  0.00    -0.206 F 
ATOM     68  C   UNL A   1      47.201  42.242  37.723  1.00  0.00     0.060 A 
BRANCH  68  69
ATOM     69  S   UNL A   1      48.265  43.593  38.270  1.00  0.00     0.124 S 
ATOM     70  O   UNL A   1      48.031  44.588  37.228  1.00  0.00    -0.237 OA
ATOM     71  O   UNL A   1      47.716  43.910  39.584  1.00  0.00    -0.237 OA
ATOM     72  O   UNL A   1      49.597  42.997  38.278  1.00  0.00    -0.744 OA
ENDBRANCH  68  69
ENDBRANCH  47  61
BRANCH  48  73
ATOM     73  C   UNL A   1      40.038  32.547  33.449  1.00  0.00     0.058 A 
ATOM     74  C   UNL A   1      40.580  31.254  33.412  1.00  0.00     0.135 A 
ATOM     75  C   UNL A   1      38.719  32.712  32.995  1.00  0.00     0.135 A 
ATOM     76  F   UNL A   1      41.842  31.044  33.818  1.00  0.00    -0.206 F 
ATOM     77  C   UNL A   1      39.851  30.169  32.932  1.00  0.00     0.059 A 
ATOM     78  C   UNL A   1      37.961  31.639  32.536  1.00  0.00     0.059 A 
ATOM     79  F   UNL A   1      38.149  33.927  33.012  1.00  0.00    -0.206 F 
ATOM     80  C   UNL A   1      38.540  30.371  32.500  1.00  0.00     0.060 A 
BRANCH  80  81
ATOM     81  S   UNL A   1      37.590  28.948  31.921  1.00  0.00     0.124 S 
ATOM     82  O   UNL A   1      38.458  28.420  30.876  1.00  0.00    -0.237 OA
ATOM     83  O   UNL A   1      37.482  28.140  33.131  1.00  0.00    -0.237 OA
ATOM     84  O   UNL A   1      36.339  29.544  31.460  1.00  0.00    -0.744 OA
ENDBRANCH  80  81
ENDBRANCH  48  73
BRANCH  60  85
ATOM     85  C   UNL A   1      40.721  35.579  39.712  1.00  0.00     0.058 A 
ATOM     86  C   UNL A   1      39.494  36.165  40.056  1.00  0.00     0.135 A 
ATOM     87  C   UNL A   1      41.293  34.678  40.626  1.00  0.00     0.135 A 
ATOM     88  F   UNL A   1      38.906  37.038  39.222  1.00  0.00    -0.206 F 
ATOM     89  C   UNL A   1      38.861  35.875  41.261  1.00  0.00     0.059 A 
ATOM     90  C   UNL A   1      40.665  34.351  41.825  1.00  0.00     0.059 A 
ATOM     91  F   UNL A   1      42.462  34.080  40.345  1.00  0.00    -0.206 F 
ATOM     92  C   UNL A   1      39.451  34.960  42.136  1.00  0.00     0.060 A 
BRANCH  92  93
ATOM     93  S   UNL A   1      38.591  34.548  43.670  1.00  0.00     0.124 S 
ATOM     94  O   UNL A   1      39.696  34.137  44.528  1.00  0.00    -0.237 OA
ATOM     95  O   UNL A   1      37.954  35.815  44.020  1.00  0.00    -0.237 OA
ATOM     96  O   UNL A   1      37.676  33.483  43.272  1.00  0.00    -0.744 OA
ENDBRANCH  92  93
ENDBRANCH  60  85
ENDBRANCH  34  35
ENDBRANCH  27  29
ENDBRANCH  26  27
ENDBRANCH  25  26
ENDBRANCH  24  25
ENDBRANCH  23  24
ENDBRANCH  22  23
ENDBRANCH   1  22
TORSDOF 25
ENDMDL
MODEL 3
REMARK VINA RESULT:      -7.6      7.315     13.879
REMARK SMILES CC(C)(O)CCOc1ccc(C(=O)OCCOCCOCCOC(=O)c2ccc(-c3c4nc(c(-c5c(F)cc(S(=O)(=O)[O-])cc5F)c5ccc([nH]5)c(-c5c(F)cc(S(=O)(=O)[O-])cc5F)c5nc(c(-c6c(F)cc(S(=O)(=O)[O-])cc6F)c6ccc3[nH]6)C=C5)C=C4)cc2)cc1
REMARK SMILES IDX 18 1 17 2 16 3 15 4 14 5 12 6 13 7 11 8 8 9 9 10 93 11 10 12
REMARK SMILES IDX 92 13 7 14 6 15 5 16 2 17 1 18 3 19 4 20 19 22 20 23 21 24
REMARK SMILES IDX 22 25 23 26 24 27 25 28 26 29 27 30 91 31 28 32 90 33 29 34
REMARK SMILES IDX 30 35 31 36 84 37 32 38 89 39 83 40 85 41 33 42 88 43 82 44
REMARK SMILES IDX 81 45 34 47 68 48 47 49 67 50 48 51 51 52 66 53 86 54 49 55
REMARK SMILES IDX 50 56 65 58 87 59 52 60 35 61 36 62 45 63 37 64 38 65 44 66
REMARK SMILES IDX 46 67 39 68 40 69 41 70 42 71 43 72 69 73 70 74 79 75 71 76
REMARK SMILES IDX 72 77 78 78 80 79 73 80 74 81 75 82 76 83 77 84 53 85 54 86
REMARK SMILES IDX 63 87 55 88 56 89 62 90 64 91 57 92 58 93 59 94 60 95 61 96
REMARK H PARENT 4 21 85 46 51 57
REMARK Flexibility Score: inf
ROOT
ATOM      1  C   UNL A   1      43.274  21.926  25.664  1.00  0.00     0.188 C 
ENDROOT
BRANCH   1   2
ATOM      2  O   UNL A   1      42.536  21.648  26.844  1.00  0.00    -0.376 OA
BRANCH   2   3
ATOM      3  C   UNL A   1      41.406  22.491  27.040  1.00  0.00     0.202 C 
BRANCH   3   4
ATOM      4  C   UNL A   1      40.069  21.749  26.960  1.00  0.00     0.261 C 
BRANCH   4   5
ATOM      5  O   UNL A   1      39.141  22.223  25.966  1.00  0.00    -0.460 OA
BRANCH   5   6
ATOM      6  C   UNL A   1      38.393  23.321  26.239  1.00  0.00     0.338 C 
ATOM      7  O   UNL A   1      38.768  24.374  26.715  1.00  0.00    -0.246 OA
BRANCH   6   8
ATOM      8  C   UNL A   1      37.032  23.021  25.759  1.00  0.00     0.060 A 
ATOM      9  C   UNL A   1      34.607  22.565  24.444  1.00  0.00     0.119 A 
ATOM     10  C   UNL A   1      34.784  23.718  25.219  1.00  0.00     0.047 A 
ATOM     11  C   UNL A   1      35.598  21.587  24.463  1.00  0.00     0.047 A 
ATOM     12  C   UNL A   1      35.989  23.942  25.900  1.00  0.00     0.019 A 
ATOM     13  C   UNL A   1      36.828  21.830  25.069  1.00  0.00     0.019 A 
BRANCH   9  14
ATOM     14  O   UNL A   1      33.497  22.553  23.643  1.00  0.00    -0.493 OA
BRANCH  14  15
ATOM     15  C   UNL A   1      32.745  23.757  23.468  1.00  0.00     0.232 C 
BRANCH  15  16
ATOM     16  C   UNL A   1      32.943  24.499  22.127  1.00  0.00     0.076 C 
BRANCH  16  17
ATOM     17  C   UNL A   1      32.851  26.041  22.096  1.00  0.00     0.062 C 
ATOM     18  C   UNL A   1      33.476  26.688  23.339  1.00  0.00     0.042 C 
ATOM     19  C   UNL A   1      31.387  26.494  22.003  1.00  0.00     0.042 C 
BRANCH  17  20
ATOM     20  O   UNL A   1      33.452  26.531  20.900  1.00  0.00    -0.390 OA
ATOM     21  H   UNL A   1      33.378  25.863  20.202  1.00  0.00     0.211 HD
ENDBRANCH  17  20
ENDBRANCH  16  17
ENDBRANCH  15  16
ENDBRANCH  14  15
ENDBRANCH   9  14
ENDBRANCH   6   8
ENDBRANCH   5   6
ENDBRANCH   4   5
ENDBRANCH   3   4
ENDBRANCH   2   3
ENDBRANCH   1   2
BRANCH   1  22
ATOM     22  C   UNL A   1      44.403  22.947  25.886  1.00  0.00     0.188 C 
BRANCH  22  23
ATOM     23  O   UNL A   1      44.893  23.721  24.806  1.00  0.00    -0.376 OA
BRANCH  23  24
ATOM     24  C   UNL A   1      45.867  24.729  25.005  1.00  0.00     0.202 C 
BRANCH  24  25
ATOM     25  C   UNL A   1      45.543  26.163  25.472  1.00  0.00     0.261 C 
BRANCH  25  26
ATOM     26  O   UNL A   1      44.179  26.512  25.713  1.00  0.00    -0.460 OA
BRANCH  26  27
ATOM     27  C   UNL A   1      43.788  26.591  27.007  1.00  0.00     0.338 C 
ATOM     28  O   UNL A   1      43.442  25.673  27.727  1.00  0.00    -0.246 OA
BRANCH  27  29
ATOM     29  C   UNL A   1      44.012  27.983  27.465  1.00  0.00     0.060 A 
ATOM     30  C   UNL A   1      44.834  28.211  28.578  1.00  0.00     0.016 A 
ATOM     31  C   UNL A   1      43.424  29.057  26.793  1.00  0.00     0.016 A 
ATOM     32  C   UNL A   1      45.055  29.514  29.033  1.00  0.00     0.010 A 
ATOM     33  C   UNL A   1      43.629  30.358  27.265  1.00  0.00     0.010 A 
ATOM     34  C   UNL A   1      44.424  30.593  28.401  1.00  0.00    -0.014 A 
BRANCH  34  35
ATOM     35  C   UNL A   1      44.435  31.944  29.021  1.00  0.00     0.031 A 
ATOM     36  C   UNL A   1      45.512  32.911  28.606  1.00  0.00     0.074 A 
ATOM     37  C   UNL A   1      43.526  32.306  29.946  1.00  0.00     0.049 A 
ATOM     38  N   UNL A   1      45.797  34.094  29.084  1.00  0.00    -0.248 NA
ATOM     39  C   UNL A   1      46.388  32.478  27.505  1.00  0.00     0.031 C 
ATOM     40  C   UNL A   1      42.408  31.483  30.402  1.00  0.00     0.029 A 
ATOM     41  N   UNL A   1      43.417  33.461  30.682  1.00  0.00    -0.354 N 
ATOM     42  C   UNL A   1      46.893  34.540  28.355  1.00  0.00     0.074 A 
ATOM     43  C   UNL A   1      47.235  33.492  27.420  1.00  0.00     0.031 C 
ATOM     44  C   UNL A   1      41.738  32.151  31.359  1.00  0.00     0.029 A 
ATOM     45  C   UNL A   1      42.402  33.430  31.610  1.00  0.00     0.049 A 
ATOM     46  H   UNL A   1      44.008  34.237  30.558  1.00  0.00     0.167 HD
ATOM     47  C   UNL A   1      47.553  35.719  28.455  1.00  0.00     0.037 A 
ATOM     48  C   UNL A   1      42.069  34.315  32.573  1.00  0.00     0.037 A 
ATOM     49  C   UNL A   1      47.211  36.759  29.391  1.00  0.00     0.049 A 
ATOM     50  C   UNL A   1      42.867  35.589  32.719  1.00  0.00     0.074 A 
ATOM     51  C   UNL A   1      47.811  37.994  29.557  1.00  0.00     0.029 A 
ATOM     52  N   UNL A   1      46.188  36.682  30.324  1.00  0.00    -0.354 N 
ATOM     53  N   UNL A   1      43.890  36.008  32.014  1.00  0.00    -0.248 NA
ATOM     54  C   UNL A   1      42.467  36.510  33.795  1.00  0.00     0.031 C 
ATOM     55  C   UNL A   1      47.187  38.642  30.628  1.00  0.00     0.029 A 
ATOM     56  C   UNL A   1      46.156  37.837  31.087  1.00  0.00     0.049 A 
ATOM     57  H   UNL A   1      45.575  35.917  30.429  1.00  0.00     0.167 HD
ATOM     58  C   UNL A   1      44.230  37.255  32.534  1.00  0.00     0.074 A 
ATOM     59  C   UNL A   1      43.304  37.523  33.614  1.00  0.00     0.031 C 
ATOM     60  C   UNL A   1      45.216  38.103  32.147  1.00  0.00     0.037 A 
BRANCH  47  61
ATOM     61  C   UNL A   1      48.733  35.936  27.549  1.00  0.00     0.058 A 
ATOM     62  C   UNL A   1      50.039  35.588  27.935  1.00  0.00     0.135 A 
ATOM     63  C   UNL A   1      48.553  36.470  26.262  1.00  0.00     0.135 A 
ATOM     64  F   UNL A   1      50.271  35.091  29.160  1.00  0.00    -0.206 F 
ATOM     65  C   UNL A   1      51.124  35.785  27.087  1.00  0.00     0.059 A 
ATOM     66  C   UNL A   1      49.620  36.647  25.388  1.00  0.00     0.059 A 
ATOM     67  F   UNL A   1      47.328  36.822  25.844  1.00  0.00    -0.206 F 
ATOM     68  C   UNL A   1      50.903  36.315  25.815  1.00  0.00     0.060 A 
BRANCH  68  69
ATOM     69  S   UNL A   1      52.322  36.559  24.727  1.00  0.00     0.124 S 
ATOM     70  O   UNL A   1      51.726  36.328  23.414  1.00  0.00    -0.237 OA
ATOM     71  O   UNL A   1      52.703  37.938  25.015  1.00  0.00    -0.237 OA
ATOM     72  O   UNL A   1      53.272  35.544  25.170  1.00  0.00    -0.744 OA
ENDBRANCH  68  69
ENDBRANCH  47  61
BRANCH  48  73
ATOM     73  C   UNL A   1      40.937  34.025  33.496  1.00  0.00     0.058 A 
ATOM     74  C   UNL A   1      41.150  33.403  34.735  1.00  0.00     0.135 A 
ATOM     75  C   UNL A   1      39.615  34.354  33.153  1.00  0.00     0.135 A 
ATOM     76  F   UNL A   1      42.392  33.052  35.104  1.00  0.00    -0.206 F 
ATOM     77  C   UNL A   1      40.097  33.105  35.595  1.00  0.00     0.059 A 
ATOM     78  C   UNL A   1      38.548  34.091  34.007  1.00  0.00     0.059 A 
ATOM     79  F   UNL A   1      39.354  34.953  31.980  1.00  0.00    -0.206 F 
ATOM     80  C   UNL A   1      38.799  33.457  35.223  1.00  0.00     0.060 A 
BRANCH  80  81
ATOM     81  S   UNL A   1      37.445  33.105  36.366  1.00  0.00     0.124 S 
ATOM     82  O   UNL A   1      37.596  31.670  36.569  1.00  0.00    -0.237 OA
ATOM     83  O   UNL A   1      37.782  33.950  37.507  1.00  0.00    -0.237 OA
ATOM     84  O   UNL A   1      36.260  33.516  35.619  1.00  0.00    -0.744 OA
ENDBRANCH  80  81
ENDBRANCH  48  73
BRANCH  60  85
ATOM     85  C   UNL A   1      45.323  39.431  32.849  1.00  0.00     0.058 A 
ATOM     86  C   UNL A   1      46.196  39.636  33.927  1.00  0.00     0.135 A 
ATOM     87  C   UNL A   1      44.603  40.540  32.372  1.00  0.00     0.135 A 
ATOM     88  F   UNL A   1      46.904  38.611  34.427  1.00  0.00    -0.206 F 
ATOM     89  C   UNL A   1      46.344  40.889  34.516  1.00  0.00     0.059 A 
ATOM     90  C   UNL A   1      44.756  41.808  32.926  1.00  0.00     0.059 A 
ATOM     91  F   UNL A   1      43.760  40.404  31.335  1.00  0.00    -0.206 F 
ATOM     92  C   UNL A   1      45.626  41.971  34.003  1.00  0.00     0.060 A 
BRANCH  92  93
ATOM     93  S   UNL A   1      45.871  43.603  34.738  1.00  0.00     0.124 S 
ATOM     94  O   UNL A   1      46.223  43.259  36.111  1.00  0.00    -0.237 OA
ATOM     95  O   UNL A   1      46.954  44.150  33.924  1.00  0.00    -0.237 OA
ATOM     96  O   UNL A   1      44.576  44.253  34.565  1.00  0.00    -0.744 OA
ENDBRANCH  92  93
ENDBRANCH  60  85
ENDBRANCH  34  35
ENDBRANCH  27  29
ENDBRANCH  26  27
ENDBRANCH  25  26
ENDBRANCH  24  25
ENDBRANCH  23  24
ENDBRANCH  22  23
ENDBRANCH   1  22
TORSDOF 25
ENDMDL
