MODEL 1
REMARK VINA RESULT:     -10.0      0.000      0.000
REMARK SMILES O=C(OCCOCCOCCOC(=O)[C@H]1CCO[C@H]1Cc1ccccc1)c1ccc(-c2c3nc(c(-c4c(F)cc(S(=O)(=O)[O-])cc4F)c4ccc([nH]4)c(-c4c(F)cc(S(=O)(=O)[O-])cc4F)c4nc(c(-c5c(F)cc(S(=O)(=O)[O-])cc5F)c5ccc2[nH]5)C=C4)C=C3)cc1
REMARK SMILES IDX 7 1 6 2 5 3 4 4 3 5 2 6 1 7 27 8 28 9 92 10 29 11 91 12
REMARK SMILES IDX 30 13 31 14 32 15 85 16 33 17 90 18 84 19 86 20 34 21 89 22
REMARK SMILES IDX 83 23 82 24 35 26 69 27 48 28 68 29 49 30 52 31 67 32 87 33
REMARK SMILES IDX 50 34 51 35 66 37 88 38 53 39 36 40 37 41 46 42 38 43 39 44
REMARK SMILES IDX 45 45 47 46 40 47 41 48 42 49 43 50 44 51 70 52 71 53 80 54
REMARK SMILES IDX 72 55 73 56 79 57 81 58 74 59 75 60 76 61 77 62 78 63 54 64
REMARK SMILES IDX 55 65 64 66 56 67 57 68 63 69 65 70 58 71 59 72 60 73 61 74
REMARK SMILES IDX 62 75 8 76 9 77 10 78 11 79 12 80 13 81 14 82 15 83 16 84
REMARK SMILES IDX 19 85 17 86 18 87 20 88 21 89 22 90 26 91 23 92 25 93 24 94
REMARK H PARENT 86 25 52 36
REMARK Flexibility Score: inf
ROOT
ATOM      1  C   UNL A   1      31.355  27.863  25.440  1.00  0.00     0.188 C 
ENDROOT
BRANCH   1   2
ATOM      2  O   UNL A   1      32.373  27.259  26.239  1.00  0.00    -0.376 OA
BRANCH   2   3
ATOM      3  C   UNL A   1      33.577  28.003  26.316  1.00  0.00     0.202 C 
BRANCH   3   4
ATOM      4  C   UNL A   1      33.387  29.524  26.295  1.00  0.00     0.261 C 
BRANCH   4   5
ATOM      5  O   UNL A   1      33.445  30.099  27.614  1.00  0.00    -0.460 OA
BRANCH   5   6
ATOM      6  C   UNL A   1      34.468  30.764  28.210  1.00  0.00     0.338 C 
ATOM      7  O   UNL A   1      34.306  31.957  28.470  1.00  0.00    -0.246 OA
BRANCH   6   8
ATOM      8  C   UNL A   1      35.820  30.169  28.488  1.00  0.00     0.060 A 
ATOM      9  C   UNL A   1      36.239  29.652  29.716  1.00  0.00     0.016 A 
ATOM     10  C   UNL A   1      36.716  30.067  27.405  1.00  0.00     0.016 A 
ATOM     11  C   UNL A   1      37.510  29.118  29.893  1.00  0.00     0.010 A 
ATOM     12  C   UNL A   1      38.002  29.537  27.570  1.00  0.00     0.010 A 
ATOM     13  C   UNL A   1      38.413  29.107  28.835  1.00  0.00    -0.014 A 
BRANCH  13  14
ATOM     14  C   UNL A   1      39.834  28.928  29.187  1.00  0.00     0.031 A 
ATOM     15  C   UNL A   1      40.468  27.622  28.794  1.00  0.00     0.074 A 
ATOM     16  C   UNL A   1      40.562  29.962  29.641  1.00  0.00     0.049 A 
ATOM     17  N   UNL A   1      41.710  27.237  28.887  1.00  0.00    -0.248 NA
ATOM     18  C   UNL A   1      39.575  26.625  28.175  1.00  0.00     0.031 C 
ATOM     19  C   UNL A   1      40.045  31.307  29.900  1.00  0.00     0.029 A 
ATOM     20  N   UNL A   1      41.898  30.057  29.922  1.00  0.00    -0.354 N 
ATOM     21  C   UNL A   1      41.743  25.952  28.355  1.00  0.00     0.074 A 
ATOM     22  C   UNL A   1      40.400  25.618  27.945  1.00  0.00     0.031 C 
ATOM     23  C   UNL A   1      41.060  32.099  30.284  1.00  0.00     0.029 A 
ATOM     24  C   UNL A   1      42.285  31.306  30.345  1.00  0.00     0.049 A 
ATOM     25  H   UNL A   1      42.523  29.302  29.830  1.00  0.00     0.167 HD
ATOM     26  C   UNL A   1      42.804  25.123  28.231  1.00  0.00     0.037 A 
ATOM     27  C   UNL A   1      43.496  31.739  30.749  1.00  0.00     0.037 A 
ATOM     28  C   UNL A   1      44.124  25.480  28.672  1.00  0.00     0.049 A 
ATOM     29  C   UNL A   1      44.641  30.758  30.716  1.00  0.00     0.074 A 
ATOM     30  C   UNL A   1      45.273  24.713  28.678  1.00  0.00     0.029 A 
ATOM     31  N   UNL A   1      44.462  26.720  29.203  1.00  0.00    -0.354 N 
ATOM     32  N   UNL A   1      44.654  29.520  30.272  1.00  0.00    -0.248 NA
ATOM     33  C   UNL A   1      45.931  31.222  31.240  1.00  0.00     0.031 C 
ATOM     34  C   UNL A   1      46.289  25.469  29.272  1.00  0.00     0.029 A 
ATOM     35  C   UNL A   1      45.794  26.732  29.566  1.00  0.00     0.049 A 
ATOM     36  H   UNL A   1      43.841  27.477  29.306  1.00  0.00     0.167 HD
ATOM     37  C   UNL A   1      45.959  29.069  30.431  1.00  0.00     0.074 A 
ATOM     38  C   UNL A   1      46.706  30.171  31.008  1.00  0.00     0.031 C 
ATOM     39  C   UNL A   1      46.499  27.860  30.127  1.00  0.00     0.037 A 
BRANCH  26  40
ATOM     40  C   UNL A   1      42.534  23.741  27.703  1.00  0.00     0.058 A 
ATOM     41  C   UNL A   1      42.357  22.631  28.547  1.00  0.00     0.135 A 
ATOM     42  C   UNL A   1      42.522  23.513  26.318  1.00  0.00     0.135 A 
ATOM     43  F   UNL A   1      42.395  22.782  29.881  1.00  0.00    -0.206 F 
ATOM     44  C   UNL A   1      42.225  21.342  28.036  1.00  0.00     0.059 A 
ATOM     45  C   UNL A   1      42.362  22.238  25.785  1.00  0.00     0.059 A 
ATOM     46  F   UNL A   1      42.701  24.534  25.464  1.00  0.00    -0.206 F 
ATOM     47  C   UNL A   1      42.236  21.156  26.653  1.00  0.00     0.060 A 
BRANCH  47  48
ATOM     48  S   UNL A   1      42.109  19.476  26.003  1.00  0.00     0.124 S 
ATOM     49  O   UNL A   1      42.634  18.692  27.117  1.00  0.00    -0.237 OA
ATOM     50  O   UNL A   1      40.676  19.345  25.758  1.00  0.00    -0.237 OA
ATOM     51  O   UNL A   1      42.947  19.507  24.810  1.00  0.00    -0.744 OA
ENDBRANCH  47  48
ENDBRANCH  26  40
BRANCH  27  52
ATOM     52  C   UNL A   1      43.677  33.136  31.235  1.00  0.00     0.058 A 
ATOM     53  C   UNL A   1      43.951  34.193  30.353  1.00  0.00     0.135 A 
ATOM     54  C   UNL A   1      43.580  33.446  32.602  1.00  0.00     0.135 A 
ATOM     55  F   UNL A   1      44.065  33.956  29.038  1.00  0.00    -0.206 F 
ATOM     56  C   UNL A   1      44.129  35.498  30.807  1.00  0.00     0.059 A 
ATOM     57  C   UNL A   1      43.726  34.745  33.077  1.00  0.00     0.059 A 
ATOM     58  F   UNL A   1      43.315  32.477  33.493  1.00  0.00    -0.206 F 
ATOM     59  C   UNL A   1      44.009  35.765  32.172  1.00  0.00     0.060 A 
BRANCH  59  60
ATOM     60  S   UNL A   1      44.192  37.469  32.744  1.00  0.00     0.124 S 
ATOM     61  O   UNL A   1      43.044  37.607  33.633  1.00  0.00    -0.237 OA
ATOM     62  O   UNL A   1      45.501  37.433  33.390  1.00  0.00    -0.237 OA
ATOM     63  O   UNL A   1      44.132  38.246  31.510  1.00  0.00    -0.744 OA
ENDBRANCH  59  60
ENDBRANCH  27  52
BRANCH  39  64
ATOM     64  C   UNL A   1      47.974  27.691  30.355  1.00  0.00     0.058 A 
ATOM     65  C   UNL A   1      48.487  27.153  31.544  1.00  0.00     0.135 A 
ATOM     66  C   UNL A   1      48.880  28.016  29.331  1.00  0.00     0.135 A 
ATOM     67  F   UNL A   1      47.662  26.829  32.551  1.00  0.00    -0.206 F 
ATOM     68  C   UNL A   1      49.853  26.969  31.723  1.00  0.00     0.059 A 
ATOM     69  C   UNL A   1      50.245  27.809  29.475  1.00  0.00     0.059 A 
ATOM     70  F   UNL A   1      48.435  28.520  28.169  1.00  0.00    -0.206 F 
ATOM     71  C   UNL A   1      50.723  27.298  30.680  1.00  0.00     0.060 A 
BRANCH  71  72
ATOM     72  S   UNL A   1      52.491  27.028  30.913  1.00  0.00     0.124 S 
ATOM     73  O   UNL A   1      52.515  26.327  32.192  1.00  0.00    -0.237 OA
ATOM     74  O   UNL A   1      52.841  26.226  29.744  1.00  0.00    -0.237 OA
ATOM     75  O   UNL A   1      53.042  28.380  30.926  1.00  0.00    -0.744 OA
ENDBRANCH  71  72
ENDBRANCH  39  64
ENDBRANCH  13  14
ENDBRANCH   6   8
ENDBRANCH   5   6
ENDBRANCH   4   5
ENDBRANCH   3   4
ENDBRANCH   2   3
ENDBRANCH   1   2
BRANCH   1  76
ATOM     76  C   UNL A   1      31.434  27.192  24.095  1.00  0.00     0.188 C 
BRANCH  76  77
ATOM     77  O   UNL A   1      30.288  26.365  23.895  1.00  0.00    -0.376 OA
BRANCH  77  78
ATOM     78  C   UNL A   1      30.627  25.033  23.519  1.00  0.00     0.202 C 
BRANCH  78  79
ATOM     79  C   UNL A   1      31.101  24.219  24.730  1.00  0.00     0.261 C 
BRANCH  79  80
ATOM     80  O   UNL A   1      32.359  23.593  24.414  1.00  0.00    -0.463 OA
BRANCH  80  81
ATOM     81  C   UNL A   1      33.379  23.751  25.308  1.00  0.00     0.311 C 
ATOM     82  O   UNL A   1      33.253  24.133  26.455  1.00  0.00    -0.252 OA
BRANCH  81  83
ATOM     83  C   UNL A   1      34.693  23.413  24.636  1.00  0.00     0.131 C 
ATOM     84  C   UNL A   1      35.856  23.980  25.417  1.00  0.00     0.046 C 
ATOM     85  C   UNL A   1      35.065  21.936  24.421  1.00  0.00     0.136 C 
ATOM     86  C   UNL A   1      37.016  23.180  24.888  1.00  0.00     0.161 C 
ATOM     87  O   UNL A   1      36.512  21.875  24.587  1.00  0.00    -0.377 OA
BRANCH  85  88
ATOM     88  C   UNL A   1      34.485  20.817  25.319  1.00  0.00     0.068 C 
BRANCH  88  89
ATOM     89  C   UNL A   1      34.000  19.567  24.614  1.00  0.00    -0.045 A 
ATOM     90  C   UNL A   1      32.762  19.560  23.958  1.00  0.00     0.004 A 
ATOM     91  C   UNL A   1      34.790  18.405  24.557  1.00  0.00     0.004 A 
ATOM     92  C   UNL A   1      32.366  18.470  23.182  1.00  0.00     0.000 A 
ATOM     93  C   UNL A   1      34.388  17.307  23.786  1.00  0.00     0.000 A 
ATOM     94  C   UNL A   1      33.187  17.350  23.080  1.00  0.00     0.000 A 
ENDBRANCH  88  89
ENDBRANCH  85  88
ENDBRANCH  81  83
ENDBRANCH  80  81
ENDBRANCH  79  80
ENDBRANCH  78  79
ENDBRANCH  77  78
ENDBRANCH  76  77
ENDBRANCH   1  76
TORSDOF 22
ENDMDL
MODEL 2
REMARK VINA RESULT:      -9.7      4.629      9.795
REMARK SMILES O=C(OCCOCCOCCOC(=O)[C@H]1CCO[C@H]1Cc1ccccc1)c1ccc(-c2c3nc(c(-c4c(F)cc(S(=O)(=O)[O-])cc4F)c4ccc([nH]4)c(-c4c(F)cc(S(=O)(=O)[O-])cc4F)c4nc(c(-c5c(F)cc(S(=O)(=O)[O-])cc5F)c5ccc2[nH]5)C=C4)C=C3)cc1
REMARK SMILES IDX 7 1 6 2 5 3 4 4 3 5 2 6 1 7 27 8 28 9 92 10 29 11 91 12
REMARK SMILES IDX 30 13 31 14 32 15 85 16 33 17 90 18 84 19 86 20 34 21 89 22
REMARK SMILES IDX 83 23 82 24 35 26 69 27 48 28 68 29 49 30 52 31 67 32 87 33
REMARK SMILES IDX 50 34 51 35 66 37 88 38 53 39 36 40 37 41 46 42 38 43 39 44
REMARK SMILES IDX 45 45 47 46 40 47 41 48 42 49 43 50 44 51 70 52 71 53 80 54
REMARK SMILES IDX 72 55 73 56 79 57 81 58 74 59 75 60 76 61 77 62 78 63 54 64
REMARK SMILES IDX 55 65 64 66 56 67 57 68 63 69 65 70 58 71 59 72 60 73 61 74
REMARK SMILES IDX 62 75 8 76 9 77 10 78 11 79 12 80 13 81 14 82 15 83 16 84
REMARK SMILES IDX 19 85 17 86 18 87 20 88 21 89 22 90 26 91 23 92 25 93 24 94
REMARK H PARENT 86 25 52 36
REMARK Flexibility Score: inf
ROOT
ATOM      1  C   UNL A   1      40.382  21.101  26.256  1.00  0.00     0.188 C 
ENDROOT
BRANCH   1   2
ATOM      2  O   UNL A   1      41.793  21.286  26.382  1.00  0.00    -0.376 OA
BRANCH   2   3
ATOM      3  C   UNL A   1      42.174  22.537  26.930  1.00  0.00     0.202 C 
BRANCH   3   4
ATOM      4  C   UNL A   1      42.866  23.481  25.939  1.00  0.00     0.261 C 
BRANCH   4   5
ATOM      5  O   UNL A   1      41.992  24.532  25.487  1.00  0.00    -0.460 OA
BRANCH   5   6
ATOM      6  C   UNL A   1      42.043  25.861  25.760  1.00  0.00     0.338 C 
ATOM      7  O   UNL A   1      42.306  26.630  24.835  1.00  0.00    -0.246 OA
BRANCH   6   8
ATOM      8  C   UNL A   1      41.894  26.452  27.134  1.00  0.00     0.060 A 
ATOM      9  C   UNL A   1      40.921  26.092  28.069  1.00  0.00     0.016 A 
ATOM     10  C   UNL A   1      42.854  27.403  27.535  1.00  0.00     0.016 A 
ATOM     11  C   UNL A   1      40.850  26.688  29.321  1.00  0.00     0.010 A 
ATOM     12  C   UNL A   1      42.791  28.017  28.792  1.00  0.00     0.010 A 
ATOM     13  C   UNL A   1      41.752  27.689  29.668  1.00  0.00    -0.014 A 
BRANCH  13  14
ATOM     14  C   UNL A   1      41.371  28.551  30.803  1.00  0.00     0.031 A 
ATOM     15  C   UNL A   1      42.292  28.545  31.992  1.00  0.00     0.074 A 
ATOM     16  C   UNL A   1      40.374  29.443  30.682  1.00  0.00     0.049 A 
ATOM     17  N   UNL A   1      42.259  29.270  33.075  1.00  0.00    -0.248 NA
ATOM     18  C   UNL A   1      43.432  27.611  31.930  1.00  0.00     0.031 C 
ATOM     19  C   UNL A   1      39.536  29.612  29.493  1.00  0.00     0.029 A 
ATOM     20  N   UNL A   1      39.927  30.404  31.547  1.00  0.00    -0.354 N 
ATOM     21  C   UNL A   1      43.359  28.869  33.827  1.00  0.00     0.074 A 
ATOM     22  C   UNL A   1      44.038  27.835  33.083  1.00  0.00     0.031 C 
ATOM     23  C   UNL A   1      38.686  30.633  29.700  1.00  0.00     0.029 A 
ATOM     24  C   UNL A   1      38.888  31.154  31.049  1.00  0.00     0.049 A 
ATOM     25  H   UNL A   1      40.313  30.545  32.441  1.00  0.00     0.167 HD
ATOM     26  C   UNL A   1      43.757  29.321  35.037  1.00  0.00     0.037 A 
ATOM     27  C   UNL A   1      38.180  32.138  31.638  1.00  0.00     0.037 A 
ATOM     28  C   UNL A   1      43.042  30.336  35.761  1.00  0.00     0.049 A 
ATOM     29  C   UNL A   1      38.568  32.543  33.039  1.00  0.00     0.074 A 
ATOM     30  C   UNL A   1      43.288  30.834  37.026  1.00  0.00     0.029 A 
ATOM     31  N   UNL A   1      41.922  31.000  35.274  1.00  0.00    -0.354 N 
ATOM     32  N   UNL A   1      39.571  32.114  33.773  1.00  0.00    -0.248 NA
ATOM     33  C   UNL A   1      37.732  33.554  33.695  1.00  0.00     0.031 C 
ATOM     34  C   UNL A   1      42.277  31.754  37.327  1.00  0.00     0.029 A 
ATOM     35  C   UNL A   1      41.447  31.885  36.223  1.00  0.00     0.049 A 
ATOM     36  H   UNL A   1      41.526  30.859  34.384  1.00  0.00     0.167 HD
ATOM     37  C   UNL A   1      39.507  32.828  34.964  1.00  0.00     0.074 A 
ATOM     38  C   UNL A   1      38.368  33.720  34.846  1.00  0.00     0.031 C 
ATOM     39  C   UNL A   1      40.314  32.763  36.055  1.00  0.00     0.037 A 
BRANCH  26  40
ATOM     40  C   UNL A   1      44.939  28.637  35.668  1.00  0.00     0.058 A 
ATOM     41  C   UNL A   1      44.807  27.498  36.482  1.00  0.00     0.135 A 
ATOM     42  C   UNL A   1      46.225  29.178  35.508  1.00  0.00     0.135 A 
ATOM     43  F   UNL A   1      43.596  26.960  36.701  1.00  0.00    -0.206 F 
ATOM     44  C   UNL A   1      45.899  26.951  37.150  1.00  0.00     0.059 A 
ATOM     45  C   UNL A   1      47.335  28.629  36.142  1.00  0.00     0.059 A 
ATOM     46  F   UNL A   1      46.408  30.273  34.754  1.00  0.00    -0.206 F 
ATOM     47  C   UNL A   1      47.159  27.529  36.979  1.00  0.00     0.060 A 
BRANCH  47  48
ATOM     48  S   UNL A   1      48.560  26.838  37.885  1.00  0.00     0.124 S 
ATOM     49  O   UNL A   1      48.000  25.582  38.375  1.00  0.00    -0.237 OA
ATOM     50  O   UNL A   1      49.574  26.714  36.842  1.00  0.00    -0.237 OA
ATOM     51  O   UNL A   1      48.834  27.843  38.907  1.00  0.00    -0.744 OA
ENDBRANCH  47  48
ENDBRANCH  26  40
BRANCH  27  52
ATOM     52  C   UNL A   1      37.038  32.778  30.928  1.00  0.00     0.058 A 
ATOM     53  C   UNL A   1      35.706  32.506  31.280  1.00  0.00     0.135 A 
ATOM     54  C   UNL A   1      37.254  33.683  29.875  1.00  0.00     0.135 A 
ATOM     55  F   UNL A   1      35.438  31.643  32.271  1.00  0.00    -0.206 F 
ATOM     56  C   UNL A   1      34.636  33.097  30.612  1.00  0.00     0.059 A 
ATOM     57  C   UNL A   1      36.203  34.308  29.211  1.00  0.00     0.059 A 
ATOM     58  F   UNL A   1      38.506  33.987  29.497  1.00  0.00    -0.206 F 
ATOM     59  C   UNL A   1      34.895  34.002  29.580  1.00  0.00     0.060 A 
BRANCH  59  60
ATOM     60  S   UNL A   1      33.502  34.801  28.754  1.00  0.00     0.124 S 
ATOM     61  O   UNL A   1      32.532  34.899  29.838  1.00  0.00    -0.237 OA
ATOM     62  O   UNL A   1      34.094  36.058  28.308  1.00  0.00    -0.237 OA
ATOM     63  O   UNL A   1      33.163  33.864  27.687  1.00  0.00    -0.744 OA
ENDBRANCH  59  60
ENDBRANCH  27  52
BRANCH  39  64
ATOM     64  C   UNL A   1      40.029  33.721  37.176  1.00  0.00     0.058 A 
ATOM     65  C   UNL A   1      40.662  34.969  37.269  1.00  0.00     0.135 A 
ATOM     66  C   UNL A   1      39.053  33.402  38.136  1.00  0.00     0.135 A 
ATOM     67  F   UNL A   1      41.602  35.318  36.377  1.00  0.00    -0.206 F 
ATOM     68  C   UNL A   1      40.359  35.857  38.293  1.00  0.00     0.059 A 
ATOM     69  C   UNL A   1      38.710  34.289  39.147  1.00  0.00     0.059 A 
ATOM     70  F   UNL A   1      38.408  32.226  38.080  1.00  0.00    -0.206 F 
ATOM     71  C   UNL A   1      39.379  35.509  39.226  1.00  0.00     0.060 A 
BRANCH  71  72
ATOM     72  S   UNL A   1      38.973  36.683  40.534  1.00  0.00     0.124 S 
ATOM     73  O   UNL A   1      38.045  35.906  41.349  1.00  0.00    -0.237 OA
ATOM     74  O   UNL A   1      40.279  36.945  41.133  1.00  0.00    -0.237 OA
ATOM     75  O   UNL A   1      38.386  37.806  39.810  1.00  0.00    -0.744 OA
ENDBRANCH  71  72
ENDBRANCH  39  64
ENDBRANCH  13  14
ENDBRANCH   6   8
ENDBRANCH   5   6
ENDBRANCH   4   5
ENDBRANCH   3   4
ENDBRANCH   2   3
ENDBRANCH   1   2
BRANCH   1  76
ATOM     76  C   UNL A   1      39.750  22.334  26.844  1.00  0.00     0.188 C 
BRANCH  76  77
ATOM     77  O   UNL A   1      38.420  22.483  26.352  1.00  0.00    -0.376 OA
BRANCH  77  78
ATOM     78  C   UNL A   1      38.095  21.532  25.341  1.00  0.00     0.202 C 
BRANCH  78  79
ATOM     79  C   UNL A   1      36.718  21.820  24.732  1.00  0.00     0.261 C 
BRANCH  79  80
ATOM     80  O   UNL A   1      35.781  22.093  25.791  1.00  0.00    -0.463 OA
BRANCH  80  81
ATOM     81  C   UNL A   1      34.909  23.126  25.605  1.00  0.00     0.311 C 
ATOM     82  O   UNL A   1      35.145  24.137  24.972  1.00  0.00    -0.252 OA
BRANCH  81  83
ATOM     83  C   UNL A   1      33.618  22.834  26.341  1.00  0.00     0.131 C 
ATOM     84  C   UNL A   1      32.737  24.061  26.386  1.00  0.00     0.046 C 
ATOM     85  C   UNL A   1      32.693  21.723  25.817  1.00  0.00     0.136 C 
ATOM     86  C   UNL A   1      31.389  23.475  26.712  1.00  0.00     0.161 C 
ATOM     87  O   UNL A   1      31.339  22.188  26.087  1.00  0.00    -0.377 OA
BRANCH  85  88
ATOM     88  C   UNL A   1      32.708  21.293  24.330  1.00  0.00     0.068 C 
BRANCH  88  89
ATOM     89  C   UNL A   1      33.041  19.841  24.049  1.00  0.00    -0.045 A 
ATOM     90  C   UNL A   1      32.292  19.112  23.117  1.00  0.00     0.004 A 
ATOM     91  C   UNL A   1      34.129  19.204  24.672  1.00  0.00     0.004 A 
ATOM     92  C   UNL A   1      32.672  17.824  22.738  1.00  0.00     0.000 A 
ATOM     93  C   UNL A   1      34.505  17.909  24.299  1.00  0.00     0.000 A 
ATOM     94  C   UNL A   1      33.790  17.228  23.314  1.00  0.00     0.000 A 
ENDBRANCH  88  89
ENDBRANCH  85  88
ENDBRANCH  81  83
ENDBRANCH  80  81
ENDBRANCH  79  80
ENDBRANCH  78  79
ENDBRANCH  77  78
ENDBRANCH  76  77
ENDBRANCH   1  76
TORSDOF 22
ENDMDL
MODEL 3
REMARK VINA RESULT:      -9.4      5.482     11.146
REMARK SMILES O=C(OCCOCCOCCOC(=O)[C@H]1CCO[C@H]1Cc1ccccc1)c1ccc(-c2c3nc(c(-c4c(F)cc(S(=O)(=O)[O-])cc4F)c4ccc([nH]4)c(-c4c(F)cc(S(=O)(=O)[O-])cc4F)c4nc(c(-c5c(F)cc(S(=O)(=O)[O-])cc5F)c5ccc2[nH]5)C=C4)C=C3)cc1
REMARK SMILES IDX 7 1 6 2 5 3 4 4 3 5 2 6 1 7 27 8 28 9 92 10 29 11 91 12
REMARK SMILES IDX 30 13 31 14 32 15 85 16 33 17 90 18 84 19 86 20 34 21 89 22
REMARK SMILES IDX 83 23 82 24 35 26 69 27 48 28 68 29 49 30 52 31 67 32 87 33
REMARK SMILES IDX 50 34 51 35 66 37 88 38 53 39 36 40 37 41 46 42 38 43 39 44
REMARK SMILES IDX 45 45 47 46 40 47 41 48 42 49 43 50 44 51 70 52 71 53 80 54
REMARK SMILES IDX 72 55 73 56 79 57 81 58 74 59 75 60 76 61 77 62 78 63 54 64
REMARK SMILES IDX 55 65 64 66 56 67 57 68 63 69 65 70 58 71 59 72 60 73 61 74
REMARK SMILES IDX 62 75 8 76 9 77 10 78 11 79 12 80 13 81 14 82 15 83 16 84
REMARK SMILES IDX 19 85 17 86 18 87 20 88 21 89 22 90 26 91 23 92 25 93 24 94
REMARK H PARENT 86 25 52 36
REMARK Flexibility Score: inf
ROOT
ATOM      1  C   UNL A   1      42.471  20.025  26.519  1.00  0.00     0.188 C 
ENDROOT
BRANCH   1   2
ATOM      2  O   UNL A   1      41.160  19.727  26.035  1.00  0.00    -0.376 OA
BRANCH   2   3
ATOM      3  C   UNL A   1      40.215  20.767  26.224  1.00  0.00     0.202 C 
BRANCH   3   4
ATOM      4  C   UNL A   1      40.585  21.769  27.325  1.00  0.00     0.261 C 
BRANCH   4   5
ATOM      5  O   UNL A   1      40.491  23.133  26.873  1.00  0.00    -0.460 OA
BRANCH   5   6
ATOM      6  C   UNL A   1      41.350  24.163  27.083  1.00  0.00     0.338 C 
ATOM      7  O   UNL A   1      42.487  24.068  26.621  1.00  0.00    -0.246 OA
BRANCH   6   8
ATOM      8  C   UNL A   1      41.040  25.371  27.923  1.00  0.00     0.060 A 
ATOM      9  C   UNL A   1      41.911  26.434  28.165  1.00  0.00     0.016 A 
ATOM     10  C   UNL A   1      39.739  25.467  28.458  1.00  0.00     0.016 A 
ATOM     11  C   UNL A   1      41.548  27.516  28.956  1.00  0.00     0.010 A 
ATOM     12  C   UNL A   1      39.360  26.549  29.262  1.00  0.00     0.010 A 
ATOM     13  C   UNL A   1      40.290  27.552  29.550  1.00  0.00    -0.014 A 
BRANCH  13  14
ATOM     14  C   UNL A   1      40.126  28.483  30.682  1.00  0.00     0.031 A 
ATOM     15  C   UNL A   1      41.131  28.375  31.796  1.00  0.00     0.074 A 
ATOM     16  C   UNL A   1      39.255  29.504  30.609  1.00  0.00     0.049 A 
ATOM     17  N   UNL A   1      41.287  29.121  32.854  1.00  0.00    -0.248 NA
ATOM     18  C   UNL A   1      42.121  27.288  31.677  1.00  0.00     0.031 C 
ATOM     19  C   UNL A   1      38.354  29.763  29.485  1.00  0.00     0.029 A 
ATOM     20  N   UNL A   1      39.017  30.537  31.474  1.00  0.00    -0.354 N 
ATOM     21  C   UNL A   1      42.378  28.586  33.530  1.00  0.00     0.074 A 
ATOM     22  C   UNL A   1      42.845  27.451  32.771  1.00  0.00     0.031 C 
ATOM     23  C   UNL A   1      37.673  30.897  29.723  1.00  0.00     0.029 A 
ATOM     24  C   UNL A   1      38.055  31.414  31.034  1.00  0.00     0.049 A 
ATOM     25  H   UNL A   1      39.490  30.642  32.331  1.00  0.00     0.167 HD
ATOM     26  C   UNL A   1      42.932  29.004  34.691  1.00  0.00     0.037 A 
ATOM     27  C   UNL A   1      37.540  32.501  31.643  1.00  0.00     0.037 A 
ATOM     28  C   UNL A   1      42.426  30.125  35.433  1.00  0.00     0.049 A 
ATOM     29  C   UNL A   1      38.093  32.877  32.995  1.00  0.00     0.074 A 
ATOM     30  C   UNL A   1      42.841  30.611  36.658  1.00  0.00     0.029 A 
ATOM     31  N   UNL A   1      41.372  30.929  35.013  1.00  0.00    -0.354 N 
ATOM     32  N   UNL A   1      39.083  32.328  33.664  1.00  0.00    -0.248 NA
ATOM     33  C   UNL A   1      37.461  34.010  33.681  1.00  0.00     0.031 C 
ATOM     34  C   UNL A   1      41.994  31.670  37.006  1.00  0.00     0.029 A 
ATOM     35  C   UNL A   1      41.102  31.892  35.967  1.00  0.00     0.049 A 
ATOM     36  H   UNL A   1      40.889  30.825  34.162  1.00  0.00     0.167 HD
ATOM     37  C   UNL A   1      39.216  33.070  34.832  1.00  0.00     0.074 A 
ATOM     38  C   UNL A   1      38.205  34.110  34.773  1.00  0.00     0.031 C 
ATOM     39  C   UNL A   1      40.092  32.917  35.858  1.00  0.00     0.037 A 
BRANCH  26  40
ATOM     40  C   UNL A   1      44.056  28.174  35.250  1.00  0.00     0.058 A 
ATOM     41  C   UNL A   1      45.406  28.436  34.959  1.00  0.00     0.135 A 
ATOM     42  C   UNL A   1      43.766  27.049  36.037  1.00  0.00     0.135 A 
ATOM     43  F   UNL A   1      45.740  29.478  34.180  1.00  0.00    -0.206 F 
ATOM     44  C   UNL A   1      46.421  27.586  35.391  1.00  0.00     0.059 A 
ATOM     45  C   UNL A   1      44.767  26.203  36.505  1.00  0.00     0.059 A 
ATOM     46  F   UNL A   1      42.493  26.741  36.334  1.00  0.00    -0.206 F 
ATOM     47  C   UNL A   1      46.090  26.467  36.158  1.00  0.00     0.060 A 
BRANCH  47  48
ATOM     48  S   UNL A   1      47.410  25.349  36.674  1.00  0.00     0.124 S 
ATOM     49  O   UNL A   1      47.872  24.831  35.391  1.00  0.00    -0.237 OA
ATOM     50  O   UNL A   1      48.329  26.251  37.362  1.00  0.00    -0.237 OA
ATOM     51  O   UNL A   1      46.725  24.385  37.529  1.00  0.00    -0.744 OA
ENDBRANCH  47  48
ENDBRANCH  26  40
BRANCH  27  52
ATOM     52  C   UNL A   1      36.443  33.279  31.003  1.00  0.00     0.058 A 
ATOM     53  C   UNL A   1      36.664  34.057  29.856  1.00  0.00     0.135 A 
ATOM     54  C   UNL A   1      35.139  33.261  31.529  1.00  0.00     0.135 A 
ATOM     55  F   UNL A   1      37.889  34.120  29.315  1.00  0.00    -0.206 F 
ATOM     56  C   UNL A   1      35.641  34.792  29.260  1.00  0.00     0.059 A 
ATOM     57  C   UNL A   1      34.095  33.964  30.937  1.00  0.00     0.059 A 
ATOM     58  F   UNL A   1      34.866  32.531  32.622  1.00  0.00    -0.206 F 
ATOM     59  C   UNL A   1      34.356  34.735  29.806  1.00  0.00     0.060 A 
BRANCH  59  60
ATOM     60  S   UNL A   1      33.026  35.651  28.998  1.00  0.00     0.124 S 
ATOM     61  O   UNL A   1      32.262  36.133  30.143  1.00  0.00    -0.237 OA
ATOM     62  O   UNL A   1      33.766  36.663  28.250  1.00  0.00    -0.237 OA
ATOM     63  O   UNL A   1      32.366  34.636  28.182  1.00  0.00    -0.744 OA
ENDBRANCH  59  60
ENDBRANCH  27  52
BRANCH  39  64
ATOM     64  C   UNL A   1      40.034  33.929  36.966  1.00  0.00     0.058 A 
ATOM     65  C   UNL A   1      39.209  33.760  38.087  1.00  0.00     0.135 A 
ATOM     66  C   UNL A   1      40.873  35.055  36.926  1.00  0.00     0.135 A 
ATOM     67  F   UNL A   1      38.389  32.701  38.170  1.00  0.00    -0.206 F 
ATOM     68  C   UNL A   1      39.197  34.689  39.121  1.00  0.00     0.059 A 
ATOM     69  C   UNL A   1      40.902  35.978  37.963  1.00  0.00     0.059 A 
ATOM     70  F   UNL A   1      41.692  35.252  35.881  1.00  0.00    -0.206 F 
ATOM     71  C   UNL A   1      40.050  35.794  39.050  1.00  0.00     0.060 A 
BRANCH  71  72
ATOM     72  S   UNL A   1      40.045  36.978  40.411  1.00  0.00     0.124 S 
ATOM     73  O   UNL A   1      39.989  38.248  39.695  1.00  0.00    -0.237 OA
ATOM     74  O   UNL A   1      38.837  36.607  41.142  1.00  0.00    -0.237 OA
ATOM     75  O   UNL A   1      41.300  36.701  41.104  1.00  0.00    -0.744 OA
ENDBRANCH  71  72
ENDBRANCH  39  64
ENDBRANCH  13  14
ENDBRANCH   6   8
ENDBRANCH   5   6
ENDBRANCH   4   5
ENDBRANCH   3   4
ENDBRANCH   2   3
ENDBRANCH   1   2
BRANCH   1  76
ATOM     76  C   UNL A   1      43.407  19.733  25.377  1.00  0.00     0.188 C 
BRANCH  76  77
ATOM     77  O   UNL A   1      43.923  20.953  24.846  1.00  0.00    -0.376 OA
BRANCH  77  78
ATOM     78  C   UNL A   1      45.247  21.235  25.295  1.00  0.00     0.202 C 
BRANCH  78  79
ATOM     79  C   UNL A   1      45.869  22.386  24.495  1.00  0.00     0.261 C 
BRANCH  79  80
ATOM     80  O   UNL A   1      45.028  23.549  24.610  1.00  0.00    -0.463 OA
BRANCH  80  81
ATOM     81  C   UNL A   1      45.611  24.703  25.050  1.00  0.00     0.311 C 
ATOM     82  O   UNL A   1      45.246  25.826  24.762  1.00  0.00    -0.252 OA
BRANCH  81  83
ATOM     83  C   UNL A   1      46.804  24.364  25.919  1.00  0.00     0.131 C 
ATOM     84  C   UNL A   1      47.920  25.361  25.708  1.00  0.00     0.046 C 
ATOM     85  C   UNL A   1      46.626  24.313  27.445  1.00  0.00     0.136 C 
ATOM     86  C   UNL A   1      48.773  25.149  26.931  1.00  0.00     0.161 C 
ATOM     87  O   UNL A   1      47.882  24.806  27.997  1.00  0.00    -0.377 OA
BRANCH  85  88
ATOM     88  C   UNL A   1      45.506  25.109  28.157  1.00  0.00     0.068 C 
BRANCH  88  89
ATOM     89  C   UNL A   1      45.204  24.721  29.590  1.00  0.00    -0.045 A 
ATOM     90  C   UNL A   1      45.794  25.420  30.651  1.00  0.00     0.004 A 
ATOM     91  C   UNL A   1      44.296  23.691  29.895  1.00  0.00     0.004 A 
ATOM     92  C   UNL A   1      45.417  25.174  31.972  1.00  0.00     0.000 A 
ATOM     93  C   UNL A   1      43.925  23.438  31.221  1.00  0.00     0.000 A 
ATOM     94  C   UNL A   1      44.468  24.196  32.257  1.00  0.00     0.000 A 
ENDBRANCH  88  89
ENDBRANCH  85  88
ENDBRANCH  81  83
ENDBRANCH  80  81
ENDBRANCH  79  80
ENDBRANCH  78  79
ENDBRANCH  77  78
ENDBRANCH  76  77
ENDBRANCH   1  76
TORSDOF 22
ENDMDL
