MODEL 1
REMARK VINA RESULT:      -7.6      0.000      0.000
REMARK SMILES CC[C@H]1CO[C@H](C)C[N@H+]1[C@@H]1CC[C@]([NH2+]C(C)C)(C(=O)OCCOCCOCCOC(=O)c2ccc(-c3c4nc(c(-c5c(F)cc(S(=O)(=O)[O-])cc5F)c5ccc([nH]5)c(-c5c(F)cc(S(=O)(=O)[O-])cc5F)c5nc(c(-c6c(F)cc(S(=O)(=O)[O-])cc6F)c6ccc3[nH]6)C=C5)C=C4)cc2)C1
REMARK SMILES IDX 25 1 24 2 23 3 22 4 21 5 20 6 18 7 19 8 13 9 10 10 11 11
REMARK SMILES IDX 98 12 12 13 9 14 3 15 4 16 5 17 8 18 6 20 7 21 2 22 1 23
REMARK SMILES IDX 14 24 15 27 16 28 17 29 26 30 27 31 28 32 29 33 30 34 31 35
REMARK SMILES IDX 32 36 33 37 97 38 34 39 96 40 35 41 36 42 37 43 90 44 38 45
REMARK SMILES IDX 95 46 89 47 91 48 39 49 94 50 88 51 87 52 40 54 74 55 53 56
REMARK SMILES IDX 73 57 54 58 57 59 72 60 92 61 55 62 56 63 71 65 93 66 58 67
REMARK SMILES IDX 41 68 42 69 51 70 43 71 44 72 50 73 52 74 45 75 46 76 47 77
REMARK SMILES IDX 48 78 49 79 75 80 76 81 85 82 77 83 78 84 84 85 86 86 79 87
REMARK SMILES IDX 80 88 81 89 82 90 83 91 59 92 60 93 69 94 61 95 62 96 68 97
REMARK SMILES IDX 70 98 63 99 64 100 65 101 66 102 67 103
REMARK H PARENT 9 19 14 25 14 26 91 53 57 64
REMARK Flexibility Score: inf
ROOT
ATOM      1  C   UNL A   1      46.444  23.962  25.088  1.00  0.00     0.188 C 
ENDROOT
BRANCH   1   2
ATOM      2  C   UNL A   1      47.099  25.340  24.872  1.00  0.00     0.188 C 
BRANCH   2   3
ATOM      3  O   UNL A   1      46.339  26.515  25.089  1.00  0.00    -0.376 OA
BRANCH   3   4
ATOM      4  C   UNL A   1      46.309  27.098  26.383  1.00  0.00     0.202 C 
BRANCH   4   5
ATOM      5  C   UNL A   1      47.153  28.340  26.709  1.00  0.00     0.261 C 
BRANCH   5   6
ATOM      6  O   UNL A   1      46.458  29.384  27.416  1.00  0.00    -0.459 OA
BRANCH   6   7
ATOM      7  C   UNL A   1      46.285  30.548  26.722  1.00  0.00     0.368 C 
ATOM      8  O   UNL A   1      46.143  30.597  25.504  1.00  0.00    -0.245 OA
BRANCH   7   9
ATOM      9  C   UNL A   1      46.198  31.810  27.637  1.00  0.00     0.200 C 
ATOM     10  C   UNL A   1      44.652  33.710  27.939  1.00  0.00     0.191 C 
ATOM     11  C   UNL A   1      45.883  34.214  27.170  1.00  0.00     0.072 C 
ATOM     12  C   UNL A   1      44.695  32.187  27.748  1.00  0.00     0.146 C 
ATOM     13  C   UNL A   1      46.757  33.007  26.855  1.00  0.00     0.087 C 
BRANCH  10  14
ATOM     14  N   UNL A   1      43.331  34.343  27.749  1.00  0.00    -0.326 N 
ATOM     15  C   UNL A   1      42.481  34.527  28.955  1.00  0.00     0.210 C 
ATOM     16  C   UNL A   1      42.875  35.766  29.804  1.00  0.00     0.225 C 
ATOM     17  O   UNL A   1      43.025  36.969  29.036  1.00  0.00    -0.366 OA
ATOM     18  C   UNL A   1      43.300  35.625  27.009  1.00  0.00     0.294 C 
ATOM     19  H   UNL A   1      42.934  33.604  27.167  1.00  0.00     0.348 HD
ATOM     20  C   UNL A   1      43.818  36.804  27.848  1.00  0.00     0.170 C 
ATOM     21  C   UNL A   1      43.757  38.106  27.057  1.00  0.00     0.045 C 
BRANCH  15  22
ATOM     22  C   UNL A   1      42.301  33.267  29.823  1.00  0.00     0.064 C 
ATOM     23  C   UNL A   1      42.357  33.571  31.317  1.00  0.00     0.010 C 
ENDBRANCH  15  22
ENDBRANCH  10  14
BRANCH   9  24
ATOM     24  N   UNL A   1      46.732  31.555  28.996  1.00  0.00    -0.330 N 
ATOM     25  H   UNL A   1      47.418  32.287  29.179  1.00  0.00     0.347 HD
ATOM     26  H   UNL A   1      47.056  30.590  28.928  1.00  0.00     0.347 HD
BRANCH  24  27
ATOM     27  C   UNL A   1      45.858  31.511  30.158  1.00  0.00     0.176 C 
ATOM     28  C   UNL A   1      45.770  30.050  30.620  1.00  0.00     0.075 C 
ATOM     29  C   UNL A   1      46.389  32.359  31.313  1.00  0.00     0.075 C 
ENDBRANCH  24  27
ENDBRANCH   9  24
ENDBRANCH   7   9
ENDBRANCH   6   7
ENDBRANCH   5   6
ENDBRANCH   4   5
ENDBRANCH   3   4
ENDBRANCH   2   3
ENDBRANCH   1   2
BRANCH   1  30
ATOM     30  O   UNL A   1      45.811  23.364  23.986  1.00  0.00    -0.376 OA
BRANCH  30  31
ATOM     31  C   UNL A   1      44.604  22.648  24.178  1.00  0.00     0.202 C 
BRANCH  31  32
ATOM     32  C   UNL A   1      43.258  23.240  24.649  1.00  0.00     0.261 C 
BRANCH  32  33
ATOM     33  O   UNL A   1      43.059  23.486  26.043  1.00  0.00    -0.460 OA
BRANCH  33  34
ATOM     34  C   UNL A   1      41.768  23.575  26.451  1.00  0.00     0.338 C 
ATOM     35  O   UNL A   1      40.898  22.722  26.337  1.00  0.00    -0.246 OA
BRANCH  34  36
ATOM     36  C   UNL A   1      41.608  24.815  27.232  1.00  0.00     0.060 A 
ATOM     37  C   UNL A   1      42.541  25.856  27.092  1.00  0.00     0.016 A 
ATOM     38  C   UNL A   1      40.541  24.935  28.119  1.00  0.00     0.016 A 
ATOM     39  C   UNL A   1      42.410  27.021  27.851  1.00  0.00     0.010 A 
ATOM     40  C   UNL A   1      40.428  26.087  28.896  1.00  0.00     0.010 A 
ATOM     41  C   UNL A   1      41.373  27.125  28.785  1.00  0.00    -0.014 A 
BRANCH  41  42
ATOM     42  C   UNL A   1      41.352  28.202  29.805  1.00  0.00     0.031 A 
ATOM     43  C   UNL A   1      42.304  28.086  30.964  1.00  0.00     0.074 A 
ATOM     44  C   UNL A   1      40.460  29.205  29.756  1.00  0.00     0.049 A 
ATOM     45  N   UNL A   1      42.318  28.733  32.097  1.00  0.00    -0.248 NA
ATOM     46  C   UNL A   1      43.375  27.084  30.826  1.00  0.00     0.031 C 
ATOM     47  C   UNL A   1      39.530  29.462  28.659  1.00  0.00     0.029 A 
ATOM     48  N   UNL A   1      40.166  30.178  30.683  1.00  0.00    -0.354 N 
ATOM     49  C   UNL A   1      43.377  28.200  32.821  1.00  0.00     0.074 A 
ATOM     50  C   UNL A   1      43.974  27.167  32.004  1.00  0.00     0.031 C 
ATOM     51  C   UNL A   1      38.743  30.501  28.990  1.00  0.00     0.029 A 
ATOM     52  C   UNL A   1      39.077  30.946  30.344  1.00  0.00     0.049 A 
ATOM     53  H   UNL A   1      40.686  30.312  31.508  1.00  0.00     0.167 HD
ATOM     54  C   UNL A   1      43.808  28.540  34.058  1.00  0.00     0.037 A 
ATOM     55  C   UNL A   1      38.399  31.863  31.065  1.00  0.00     0.037 A 
ATOM     56  C   UNL A   1      43.201  29.568  34.862  1.00  0.00     0.049 A 
ATOM     57  C   UNL A   1      38.841  32.170  32.477  1.00  0.00     0.074 A 
ATOM     58  C   UNL A   1      43.563  29.995  36.127  1.00  0.00     0.029 A 
ATOM     59  N   UNL A   1      42.103  30.324  34.481  1.00  0.00    -0.354 N 
ATOM     60  N   UNL A   1      39.839  31.659  33.159  1.00  0.00    -0.248 NA
ATOM     61  C   UNL A   1      38.063  33.173  33.221  1.00  0.00     0.031 C 
ATOM     62  C   UNL A   1      42.649  30.970  36.535  1.00  0.00     0.029 A 
ATOM     63  C   UNL A   1      41.760  31.202  35.496  1.00  0.00     0.049 A 
ATOM     64  H   UNL A   1      41.636  30.250  33.618  1.00  0.00     0.167 HD
ATOM     65  C   UNL A   1      39.836  32.310  34.390  1.00  0.00     0.074 A 
ATOM     66  C   UNL A   1      38.732  33.245  34.365  1.00  0.00     0.031 C 
ATOM     67  C   UNL A   1      40.679  32.155  35.441  1.00  0.00     0.037 A 
BRANCH  54  68
ATOM     68  C   UNL A   1      44.961  27.766  34.634  1.00  0.00     0.058 A 
ATOM     69  C   UNL A   1      46.290  28.194  34.489  1.00  0.00     0.135 A 
ATOM     70  C   UNL A   1      44.729  26.593  35.373  1.00  0.00     0.135 A 
ATOM     71  F   UNL A   1      46.570  29.298  33.777  1.00  0.00    -0.206 F 
ATOM     72  C   UNL A   1      47.349  27.473  35.029  1.00  0.00     0.059 A 
ATOM     73  C   UNL A   1      45.770  25.874  35.949  1.00  0.00     0.059 A 
ATOM     74  F   UNL A   1      43.478  26.136  35.540  1.00  0.00    -0.206 F 
ATOM     75  C   UNL A   1      47.079  26.314  35.759  1.00  0.00     0.060 A 
BRANCH  75  76
ATOM     76  S   UNL A   1      48.465  25.394  36.459  1.00  0.00     0.124 S 
ATOM     77  O   UNL A   1      47.784  24.247  37.051  1.00  0.00    -0.237 OA
ATOM     78  O   UNL A   1      49.276  25.109  35.280  1.00  0.00    -0.237 OA
ATOM     79  O   UNL A   1      49.054  26.332  37.409  1.00  0.00    -0.744 OA
ENDBRANCH  75  76
ENDBRANCH  54  68
BRANCH  55  80
ATOM     80  C   UNL A   1      37.211  32.546  30.480  1.00  0.00     0.058 A 
ATOM     81  C   UNL A   1      35.914  32.063  30.711  1.00  0.00     0.135 A 
ATOM     82  C   UNL A   1      37.346  33.688  29.675  1.00  0.00     0.135 A 
ATOM     83  F   UNL A   1      35.731  30.964  31.459  1.00  0.00    -0.206 F 
ATOM     84  C   UNL A   1      34.796  32.678  30.154  1.00  0.00     0.059 A 
ATOM     85  C   UNL A   1      36.241  34.338  29.132  1.00  0.00     0.059 A 
ATOM     86  F   UNL A   1      38.563  34.196  29.425  1.00  0.00    -0.206 F 
ATOM     87  C   UNL A   1      34.969  33.818  29.369  1.00  0.00     0.060 A 
BRANCH  87  88
ATOM     88  S   UNL A   1      33.506  34.632  28.691  1.00  0.00     0.124 S 
ATOM     89  O   UNL A   1      32.688  34.810  29.885  1.00  0.00    -0.237 OA
ATOM     90  O   UNL A   1      34.074  35.850  28.119  1.00  0.00    -0.237 OA
ATOM     91  O   UNL A   1      33.003  33.666  27.719  1.00  0.00    -0.744 OA
ENDBRANCH  87  88
ENDBRANCH  55  80
BRANCH  67  92
ATOM     92  C   UNL A   1      40.513  33.061  36.631  1.00  0.00     0.058 A 
ATOM     93  C   UNL A   1      39.574  32.804  37.641  1.00  0.00     0.135 A 
ATOM     94  C   UNL A   1      41.400  34.136  36.820  1.00  0.00     0.135 A 
ATOM     95  F   UNL A   1      38.698  31.795  37.509  1.00  0.00    -0.206 F 
ATOM     96  C   UNL A   1      39.523  33.576  38.798  1.00  0.00     0.059 A 
ATOM     97  C   UNL A   1      41.386  34.903  37.980  1.00  0.00     0.059 A 
ATOM     98  F   UNL A   1      42.324  34.420  35.888  1.00  0.00    -0.206 F 
ATOM     99  C   UNL A   1      40.442  34.615  38.964  1.00  0.00     0.060 A 
BRANCH  99 100
ATOM    100  S   UNL A   1      40.424  35.550  40.510  1.00  0.00     0.124 S 
ATOM    101  O   UNL A   1      40.560  36.921  40.028  1.00  0.00    -0.237 OA
ATOM    102  O   UNL A   1      39.122  35.201  41.069  1.00  0.00    -0.237 OA
ATOM    103  O   UNL A   1      41.574  35.025  41.239  1.00  0.00    -0.744 OA
ENDBRANCH  99 100
ENDBRANCH  67  92
ENDBRANCH  41  42
ENDBRANCH  34  36
ENDBRANCH  33  34
ENDBRANCH  32  33
ENDBRANCH  31  32
ENDBRANCH  30  31
ENDBRANCH   1  30
TORSDOF 24
ENDMDL
MODEL 2
REMARK VINA RESULT:      -7.0      6.266     12.593
REMARK SMILES CC[C@H]1CO[C@H](C)C[N@H+]1[C@@H]1CC[C@]([NH2+]C(C)C)(C(=O)OCCOCCOCCOC(=O)c2ccc(-c3c4nc(c(-c5c(F)cc(S(=O)(=O)[O-])cc5F)c5ccc([nH]5)c(-c5c(F)cc(S(=O)(=O)[O-])cc5F)c5nc(c(-c6c(F)cc(S(=O)(=O)[O-])cc6F)c6ccc3[nH]6)C=C5)C=C4)cc2)C1
REMARK SMILES IDX 25 1 24 2 23 3 22 4 21 5 20 6 18 7 19 8 13 9 10 10 11 11
REMARK SMILES IDX 98 12 12 13 9 14 3 15 4 16 5 17 8 18 6 20 7 21 2 22 1 23
REMARK SMILES IDX 14 24 15 27 16 28 17 29 26 30 27 31 28 32 29 33 30 34 31 35
REMARK SMILES IDX 32 36 33 37 97 38 34 39 96 40 35 41 36 42 37 43 90 44 38 45
REMARK SMILES IDX 95 46 89 47 91 48 39 49 94 50 88 51 87 52 40 54 74 55 53 56
REMARK SMILES IDX 73 57 54 58 57 59 72 60 92 61 55 62 56 63 71 65 93 66 58 67
REMARK SMILES IDX 41 68 42 69 51 70 43 71 44 72 50 73 52 74 45 75 46 76 47 77
REMARK SMILES IDX 48 78 49 79 75 80 76 81 85 82 77 83 78 84 84 85 86 86 79 87
REMARK SMILES IDX 80 88 81 89 82 90 83 91 59 92 60 93 69 94 61 95 62 96 68 97
REMARK SMILES IDX 70 98 63 99 64 100 65 101 66 102 67 103
REMARK H PARENT 9 19 14 25 14 26 91 53 57 64
REMARK Flexibility Score: inf
ROOT
ATOM      1  C   UNL A   1      43.323  41.641  25.527  1.00  0.00     0.188 C 
ENDROOT
BRANCH   1   2
ATOM      2  C   UNL A   1      44.593  42.504  25.409  1.00  0.00     0.188 C 
BRANCH   2   3
ATOM      3  O   UNL A   1      44.880  43.463  26.411  1.00  0.00    -0.376 OA
BRANCH   3   4
ATOM      4  C   UNL A   1      45.593  44.641  26.066  1.00  0.00     0.202 C 
BRANCH   4   5
ATOM      5  C   UNL A   1      47.066  44.818  26.468  1.00  0.00     0.261 C 
BRANCH   5   6
ATOM      6  O   UNL A   1      48.021  44.215  25.575  1.00  0.00    -0.459 OA
BRANCH   6   7
ATOM      7  C   UNL A   1      48.624  45.070  24.697  1.00  0.00     0.368 C 
ATOM      8  O   UNL A   1      49.382  45.973  25.041  1.00  0.00    -0.245 OA
BRANCH   7   9
ATOM      9  C   UNL A   1      48.328  44.736  23.201  1.00  0.00     0.200 C 
ATOM     10  C   UNL A   1      46.354  44.717  21.720  1.00  0.00     0.191 C 
ATOM     11  C   UNL A   1      46.684  43.264  22.094  1.00  0.00     0.072 C 
ATOM     12  C   UNL A   1      47.065  45.547  22.797  1.00  0.00     0.146 C 
ATOM     13  C   UNL A   1      47.803  43.296  23.127  1.00  0.00     0.087 C 
BRANCH  10  14
ATOM     14  N   UNL A   1      44.967  45.121  21.410  1.00  0.00    -0.326 N 
ATOM     15  C   UNL A   1      44.649  45.440  19.993  1.00  0.00     0.210 C 
ATOM     16  C   UNL A   1      44.405  44.182  19.116  1.00  0.00     0.225 C 
ATOM     17  O   UNL A   1      43.489  43.242  19.698  1.00  0.00    -0.366 OA
ATOM     18  C   UNL A   1      43.884  44.238  21.898  1.00  0.00     0.294 C 
ATOM     19  H   UNL A   1      44.976  45.983  21.955  1.00  0.00     0.348 HD
ATOM     20  C   UNL A   1      43.761  42.944  21.078  1.00  0.00     0.170 C 
ATOM     21  C   UNL A   1      42.628  42.070  21.602  1.00  0.00     0.045 C 
BRANCH  15  22
ATOM     22  C   UNL A   1      45.613  46.435  19.317  1.00  0.00     0.064 C 
ATOM     23  C   UNL A   1      45.165  47.885  19.475  1.00  0.00     0.010 C 
ENDBRANCH  15  22
ENDBRANCH  10  14
BRANCH   9  24
ATOM     24  N   UNL A   1      49.450  45.116  22.309  1.00  0.00    -0.330 N 
ATOM     25  H   UNL A   1      49.800  46.010  22.651  1.00  0.00     0.347 HD
ATOM     26  H   UNL A   1      49.017  45.084  21.385  1.00  0.00     0.347 HD
BRANCH  24  27
ATOM     27  C   UNL A   1      50.610  44.255  22.144  1.00  0.00     0.176 C 
ATOM     28  C   UNL A   1      50.845  44.073  20.637  1.00  0.00     0.075 C 
ATOM     29  C   UNL A   1      51.870  44.857  22.766  1.00  0.00     0.075 C 
ENDBRANCH  24  27
ENDBRANCH   9  24
ENDBRANCH   7   9
ENDBRANCH   6   7
ENDBRANCH   5   6
ENDBRANCH   4   5
ENDBRANCH   3   4
ENDBRANCH   2   3
ENDBRANCH   1   2
BRANCH   1  30
ATOM     30  O   UNL A   1      43.281  40.683  26.554  1.00  0.00    -0.376 OA
BRANCH  30  31
ATOM     31  C   UNL A   1      44.492  40.193  27.101  1.00  0.00     0.202 C 
BRANCH  31  32
ATOM     32  C   UNL A   1      45.430  39.152  26.453  1.00  0.00     0.261 C 
BRANCH  32  33
ATOM     33  O   UNL A   1      45.707  37.938  27.154  1.00  0.00    -0.460 OA
BRANCH  33  34
ATOM     34  C   UNL A   1      46.934  37.398  26.945  1.00  0.00     0.338 C 
ATOM     35  O   UNL A   1      47.984  38.001  26.768  1.00  0.00    -0.246 OA
BRANCH  34  36
ATOM     36  C   UNL A   1      46.845  35.940  27.141  1.00  0.00     0.060 A 
ATOM     37  C   UNL A   1      47.038  35.074  26.053  1.00  0.00     0.016 A 
ATOM     38  C   UNL A   1      46.549  35.435  28.406  1.00  0.00     0.016 A 
ATOM     39  C   UNL A   1      46.927  33.692  26.229  1.00  0.00     0.010 A 
ATOM     40  C   UNL A   1      46.410  34.058  28.572  1.00  0.00     0.010 A 
ATOM     41  C   UNL A   1      46.574  33.181  27.483  1.00  0.00    -0.014 A 
BRANCH  41  42
ATOM     42  C   UNL A   1      46.167  31.765  27.657  1.00  0.00     0.031 A 
ATOM     43  C   UNL A   1      47.116  30.701  27.176  1.00  0.00     0.074 A 
ATOM     44  C   UNL A   1      44.961  31.430  28.145  1.00  0.00     0.049 A 
ATOM     45  N   UNL A   1      46.907  29.428  26.979  1.00  0.00    -0.248 NA
ATOM     46  C   UNL A   1      48.483  31.147  26.859  1.00  0.00     0.031 C 
ATOM     47  C   UNL A   1      43.980  32.361  28.699  1.00  0.00     0.029 A 
ATOM     48  N   UNL A   1      44.340  30.205  28.213  1.00  0.00    -0.354 N 
ATOM     49  C   UNL A   1      48.103  28.924  26.485  1.00  0.00     0.074 A 
ATOM     50  C   UNL A   1      49.031  30.032  26.402  1.00  0.00     0.031 C 
ATOM     51  C   UNL A   1      42.866  31.679  29.018  1.00  0.00     0.029 A 
ATOM     52  C   UNL A   1      43.034  30.276  28.640  1.00  0.00     0.049 A 
ATOM     53  H   UNL A   1      44.787  29.359  27.981  1.00  0.00     0.167 HD
ATOM     54  C   UNL A   1      48.399  27.652  26.129  1.00  0.00     0.037 A 
ATOM     55  C   UNL A   1      42.074  29.328  28.669  1.00  0.00     0.037 A 
ATOM     56  C   UNL A   1      47.465  26.561  26.213  1.00  0.00     0.049 A 
ATOM     57  C   UNL A   1      42.397  27.932  28.188  1.00  0.00     0.074 A 
ATOM     58  C   UNL A   1      47.664  25.233  25.883  1.00  0.00     0.029 A 
ATOM     59  N   UNL A   1      46.155  26.673  26.653  1.00  0.00    -0.354 N 
ATOM     60  N   UNL A   1      43.528  27.462  27.716  1.00  0.00    -0.248 NA
ATOM     61  C   UNL A   1      41.313  26.938  28.236  1.00  0.00     0.031 C 
ATOM     62  C   UNL A   1      46.458  24.552  26.069  1.00  0.00     0.029 A 
ATOM     63  C   UNL A   1      45.526  25.441  26.583  1.00  0.00     0.049 A 
ATOM     64  H   UNL A   1      45.733  27.505  26.969  1.00  0.00     0.167 HD
ATOM     65  C   UNL A   1      43.304  26.112  27.457  1.00  0.00     0.074 A 
ATOM     66  C   UNL A   1      41.927  25.841  27.813  1.00  0.00     0.031 C 
ATOM     67  C   UNL A   1      44.164  25.180  26.978  1.00  0.00     0.037 A 
BRANCH  54  68
ATOM     68  C   UNL A   1      49.771  27.381  25.577  1.00  0.00     0.058 A 
ATOM     69  C   UNL A   1      50.025  27.357  24.196  1.00  0.00     0.135 A 
ATOM     70  C   UNL A   1      50.856  27.174  26.445  1.00  0.00     0.135 A 
ATOM     71  F   UNL A   1      49.021  27.528  23.321  1.00  0.00    -0.206 F 
ATOM     72  C   UNL A   1      51.298  27.109  23.696  1.00  0.00     0.059 A 
ATOM     73  C   UNL A   1      52.144  26.956  25.967  1.00  0.00     0.059 A 
ATOM     74  F   UNL A   1      50.670  27.183  27.775  1.00  0.00    -0.206 F 
ATOM     75  C   UNL A   1      52.352  26.911  24.590  1.00  0.00     0.060 A 
BRANCH  75  76
ATOM     76  S   UNL A   1      54.000  26.597  23.923  1.00  0.00     0.124 S 
ATOM     77  O   UNL A   1      54.454  25.501  24.774  1.00  0.00    -0.237 OA
ATOM     78  O   UNL A   1      53.713  26.245  22.537  1.00  0.00    -0.237 OA
ATOM     79  O   UNL A   1      54.694  27.867  24.114  1.00  0.00    -0.744 OA
ENDBRANCH  75  76
ENDBRANCH  54  68
BRANCH  55  80
ATOM     80  C   UNL A   1      40.705  29.664  29.148  1.00  0.00     0.058 A 
ATOM     81  C   UNL A   1      39.626  29.746  28.255  1.00  0.00     0.135 A 
ATOM     82  C   UNL A   1      40.446  29.917  30.505  1.00  0.00     0.135 A 
ATOM     83  F   UNL A   1      39.823  29.531  26.946  1.00  0.00    -0.206 F 
ATOM     84  C   UNL A   1      38.345  30.080  28.685  1.00  0.00     0.059 A 
ATOM     85  C   UNL A   1      39.168  30.223  30.964  1.00  0.00     0.059 A 
ATOM     86  F   UNL A   1      41.439  29.848  31.405  1.00  0.00    -0.206 F 
ATOM     87  C   UNL A   1      38.124  30.312  30.043  1.00  0.00     0.060 A 
BRANCH  87  88
ATOM     88  S   UNL A   1      36.448  30.699  30.594  1.00  0.00     0.124 S 
ATOM     89  O   UNL A   1      36.624  32.034  31.153  1.00  0.00    -0.237 OA
ATOM     90  O   UNL A   1      35.693  30.624  29.346  1.00  0.00    -0.237 OA
ATOM     91  O   UNL A   1      36.158  29.643  31.559  1.00  0.00    -0.744 OA
ENDBRANCH  87  88
ENDBRANCH  55  80
BRANCH  67  92
ATOM     92  C   UNL A   1      43.692  23.754  26.879  1.00  0.00     0.058 A 
ATOM     93  C   UNL A   1      43.552  22.933  28.008  1.00  0.00     0.135 A 
ATOM     94  C   UNL A   1      43.252  23.248  25.643  1.00  0.00     0.135 A 
ATOM     95  F   UNL A   1      43.963  23.362  29.211  1.00  0.00    -0.206 F 
ATOM     96  C   UNL A   1      42.991  21.663  27.916  1.00  0.00     0.059 A 
ATOM     97  C   UNL A   1      42.662  21.994  25.532  1.00  0.00     0.059 A 
ATOM     98  F   UNL A   1      43.353  23.997  24.533  1.00  0.00    -0.206 F 
ATOM     99  C   UNL A   1      42.535  21.207  26.676  1.00  0.00     0.060 A 
BRANCH  99 100
ATOM    100  S   UNL A   1      41.725  19.595  26.588  1.00  0.00     0.124 S 
ATOM    101  O   UNL A   1      40.315  19.973  26.576  1.00  0.00    -0.237 OA
ATOM    102  O   UNL A   1      42.247  19.053  25.337  1.00  0.00    -0.237 OA
ATOM    103  O   UNL A   1      42.182  18.918  27.797  1.00  0.00    -0.744 OA
ENDBRANCH  99 100
ENDBRANCH  67  92
ENDBRANCH  41  42
ENDBRANCH  34  36
ENDBRANCH  33  34
ENDBRANCH  32  33
ENDBRANCH  31  32
ENDBRANCH  30  31
ENDBRANCH   1  30
TORSDOF 24
ENDMDL
MODEL 3
REMARK VINA RESULT:      -7.0      5.282     11.250
REMARK SMILES CC[C@H]1CO[C@H](C)C[N@H+]1[C@@H]1CC[C@]([NH2+]C(C)C)(C(=O)OCCOCCOCCOC(=O)c2ccc(-c3c4nc(c(-c5c(F)cc(S(=O)(=O)[O-])cc5F)c5ccc([nH]5)c(-c5c(F)cc(S(=O)(=O)[O-])cc5F)c5nc(c(-c6c(F)cc(S(=O)(=O)[O-])cc6F)c6ccc3[nH]6)C=C5)C=C4)cc2)C1
REMARK SMILES IDX 25 1 24 2 23 3 22 4 21 5 20 6 18 7 19 8 13 9 10 10 11 11
REMARK SMILES IDX 98 12 12 13 9 14 3 15 4 16 5 17 8 18 6 20 7 21 2 22 1 23
REMARK SMILES IDX 14 24 15 27 16 28 17 29 26 30 27 31 28 32 29 33 30 34 31 35
REMARK SMILES IDX 32 36 33 37 97 38 34 39 96 40 35 41 36 42 37 43 90 44 38 45
REMARK SMILES IDX 95 46 89 47 91 48 39 49 94 50 88 51 87 52 40 54 74 55 53 56
REMARK SMILES IDX 73 57 54 58 57 59 72 60 92 61 55 62 56 63 71 65 93 66 58 67
REMARK SMILES IDX 41 68 42 69 51 70 43 71 44 72 50 73 52 74 45 75 46 76 47 77
REMARK SMILES IDX 48 78 49 79 75 80 76 81 85 82 77 83 78 84 84 85 86 86 79 87
REMARK SMILES IDX 80 88 81 89 82 90 83 91 59 92 60 93 69 94 61 95 62 96 68 97
REMARK SMILES IDX 70 98 63 99 64 100 65 101 66 102 67 103
REMARK H PARENT 9 19 14 25 14 26 91 53 57 64
REMARK Flexibility Score: inf
ROOT
ATOM      1  C   UNL A   1      47.483  37.763  32.373  1.00  0.00     0.188 C 
ENDROOT
BRANCH   1   2
ATOM      2  C   UNL A   1      46.055  37.732  32.952  1.00  0.00     0.188 C 
BRANCH   2   3
ATOM      3  O   UNL A   1      45.750  38.507  34.097  1.00  0.00    -0.376 OA
BRANCH   3   4
ATOM      4  C   UNL A   1      44.797  39.554  33.997  1.00  0.00     0.202 C 
BRANCH   4   5
ATOM      5  C   UNL A   1      43.344  39.264  33.589  1.00  0.00     0.261 C 
BRANCH   5   6
ATOM      6  O   UNL A   1      43.044  39.482  32.198  1.00  0.00    -0.459 OA
BRANCH   6   7
ATOM      7  C   UNL A   1      42.717  40.766  31.863  1.00  0.00     0.368 C 
ATOM      8  O   UNL A   1      41.879  41.431  32.465  1.00  0.00    -0.245 OA
BRANCH   7   9
ATOM      9  C   UNL A   1      43.572  41.340  30.690  1.00  0.00     0.200 C 
ATOM     10  C   UNL A   1      44.177  40.648  28.399  1.00  0.00     0.191 C 
ATOM     11  C   UNL A   1      45.390  40.398  29.309  1.00  0.00     0.072 C 
ATOM     12  C   UNL A   1      42.997  40.745  29.375  1.00  0.00     0.146 C 
ATOM     13  C   UNL A   1      44.958  40.682  30.742  1.00  0.00     0.087 C 
BRANCH  10  14
ATOM     14  N   UNL A   1      43.951  39.820  27.197  1.00  0.00    -0.326 N 
ATOM     15  C   UNL A   1      42.821  38.855  27.236  1.00  0.00     0.210 C 
ATOM     16  C   UNL A   1      41.440  39.509  26.960  1.00  0.00     0.225 C 
ATOM     17  O   UNL A   1      41.421  40.348  25.794  1.00  0.00    -0.366 OA
ATOM     18  C   UNL A   1      43.859  40.527  25.900  1.00  0.00     0.294 C 
ATOM     19  H   UNL A   1      44.832  39.308  27.245  1.00  0.00     0.348 HD
ATOM     20  C   UNL A   1      42.524  41.267  25.723  1.00  0.00     0.170 C 
ATOM     21  C   UNL A   1      42.463  41.970  24.372  1.00  0.00     0.045 C 
BRANCH  15  22
ATOM     22  C   UNL A   1      42.787  37.940  28.475  1.00  0.00     0.064 C 
ATOM     23  C   UNL A   1      42.604  36.469  28.114  1.00  0.00     0.010 C 
ENDBRANCH  15  22
ENDBRANCH  10  14
BRANCH   9  24
ATOM     24  N   UNL A   1      43.506  42.819  30.619  1.00  0.00    -0.330 N 
ATOM     25  H   UNL A   1      42.686  43.097  31.158  1.00  0.00     0.347 HD
ATOM     26  H   UNL A   1      43.509  42.992  29.613  1.00  0.00     0.347 HD
BRANCH  24  27
ATOM     27  C   UNL A   1      44.605  43.650  31.085  1.00  0.00     0.176 C 
ATOM     28  C   UNL A   1      45.294  44.247  29.848  1.00  0.00     0.075 C 
ATOM     29  C   UNL A   1      44.127  44.793  31.979  1.00  0.00     0.075 C 
ENDBRANCH  24  27
ENDBRANCH   9  24
ENDBRANCH   7   9
ENDBRANCH   6   7
ENDBRANCH   5   6
ENDBRANCH   4   5
ENDBRANCH   3   4
ENDBRANCH   2   3
ENDBRANCH   1   2
BRANCH   1  30
ATOM     30  O   UNL A   1      47.624  37.603  30.985  1.00  0.00    -0.376 OA
BRANCH  30  31
ATOM     31  C   UNL A   1      48.674  38.270  30.308  1.00  0.00     0.202 C 
BRANCH  31  32
ATOM     32  C   UNL A   1      48.725  38.596  28.800  1.00  0.00     0.261 C 
BRANCH  32  33
ATOM     33  O   UNL A   1      47.937  37.817  27.896  1.00  0.00    -0.460 OA
BRANCH  33  34
ATOM     34  C   UNL A   1      48.583  36.800  27.272  1.00  0.00     0.338 C 
ATOM     35  O   UNL A   1      49.662  36.853  26.698  1.00  0.00    -0.246 OA
BRANCH  34  36
ATOM     36  C   UNL A   1      47.858  35.546  27.548  1.00  0.00     0.060 A 
ATOM     37  C   UNL A   1      48.025  34.897  28.782  1.00  0.00     0.016 A 
ATOM     38  C   UNL A   1      47.026  35.005  26.570  1.00  0.00     0.016 A 
ATOM     39  C   UNL A   1      47.363  33.694  29.037  1.00  0.00     0.010 A 
ATOM     40  C   UNL A   1      46.388  33.790  26.816  1.00  0.00     0.010 A 
ATOM     41  C   UNL A   1      46.571  33.116  28.039  1.00  0.00    -0.014 A 
BRANCH  41  42
ATOM     42  C   UNL A   1      46.080  31.720  28.148  1.00  0.00     0.031 A 
ATOM     43  C   UNL A   1      46.967  30.625  27.621  1.00  0.00     0.074 A 
ATOM     44  C   UNL A   1      44.853  31.436  28.616  1.00  0.00     0.049 A 
ATOM     45  N   UNL A   1      46.683  29.376  27.365  1.00  0.00    -0.248 NA
ATOM     46  C   UNL A   1      48.359  31.002  27.328  1.00  0.00     0.031 C 
ATOM     47  C   UNL A   1      43.927  32.398  29.209  1.00  0.00     0.029 A 
ATOM     48  N   UNL A   1      44.161  30.249  28.627  1.00  0.00    -0.354 N 
ATOM     49  C   UNL A   1      47.850  28.824  26.853  1.00  0.00     0.074 A 
ATOM     50  C   UNL A   1      48.843  29.877  26.823  1.00  0.00     0.031 C 
ATOM     51  C   UNL A   1      42.772  31.770  29.494  1.00  0.00     0.029 A 
ATOM     52  C   UNL A   1      42.859  30.377  29.053  1.00  0.00     0.049 A 
ATOM     53  H   UNL A   1      44.557  29.389  28.358  1.00  0.00     0.167 HD
ATOM     54  C   UNL A   1      48.072  27.555  26.440  1.00  0.00     0.037 A 
ATOM     55  C   UNL A   1      41.844  29.488  29.037  1.00  0.00     0.037 A 
ATOM     56  C   UNL A   1      47.074  26.518  26.472  1.00  0.00     0.049 A 
ATOM     57  C   UNL A   1      42.086  28.099  28.493  1.00  0.00     0.074 A 
ATOM     58  C   UNL A   1      47.196  25.197  26.082  1.00  0.00     0.029 A 
ATOM     59  N   UNL A   1      45.771  26.689  26.913  1.00  0.00    -0.354 N 
ATOM     60  N   UNL A   1      43.189  27.584  28.004  1.00  0.00    -0.248 NA
ATOM     61  C   UNL A   1      40.944  27.170  28.493  1.00  0.00     0.031 C 
ATOM     62  C   UNL A   1      45.950  24.582  26.234  1.00  0.00     0.029 A 
ATOM     63  C   UNL A   1      45.071  25.501  26.786  1.00  0.00     0.049 A 
ATOM     64  H   UNL A   1      45.397  27.529  27.265  1.00  0.00     0.167 HD
ATOM     65  C   UNL A   1      42.887  26.263  27.683  1.00  0.00     0.074 A 
ATOM     66  C   UNL A   1      41.495  26.058  28.023  1.00  0.00     0.031 C 
ATOM     67  C   UNL A   1      43.693  25.303  27.164  1.00  0.00     0.037 A 
BRANCH  54  68
ATOM     68  C   UNL A   1      49.428  27.228  25.880  1.00  0.00     0.058 A 
ATOM     69  C   UNL A   1      49.751  27.456  24.533  1.00  0.00     0.135 A 
ATOM     70  C   UNL A   1      50.432  26.707  26.714  1.00  0.00     0.135 A 
ATOM     71  F   UNL A   1      48.823  27.933  23.688  1.00  0.00    -0.206 F 
ATOM     72  C   UNL A   1      51.010  27.153  24.026  1.00  0.00     0.059 A 
ATOM     73  C   UNL A   1      51.708  26.427  26.235  1.00  0.00     0.059 A 
ATOM     74  F   UNL A   1      50.178  26.465  28.010  1.00  0.00    -0.206 F 
ATOM     75  C   UNL A   1      51.983  26.640  24.886  1.00  0.00     0.060 A 
BRANCH  75  76
ATOM     76  S   UNL A   1      53.613  26.259  24.212  1.00  0.00     0.124 S 
ATOM     77  O   UNL A   1      54.207  27.589  24.117  1.00  0.00    -0.237 OA
ATOM     78  O   UNL A   1      54.177  25.386  25.236  1.00  0.00    -0.237 OA
ATOM     79  O   UNL A   1      53.314  25.614  22.937  1.00  0.00    -0.744 OA
ENDBRANCH  75  76
ENDBRANCH  54  68
BRANCH  55  80
ATOM     80  C   UNL A   1      40.495  29.883  29.527  1.00  0.00     0.058 A 
ATOM     81  C   UNL A   1      40.248  30.066  30.896  1.00  0.00     0.135 A 
ATOM     82  C   UNL A   1      39.423  30.081  28.641  1.00  0.00     0.135 A 
ATOM     83  F   UNL A   1      41.232  29.872  31.786  1.00  0.00    -0.206 F 
ATOM     84  C   UNL A   1      38.987  30.415  31.371  1.00  0.00     0.059 A 
ATOM     85  C   UNL A   1      38.161  30.461  29.088  1.00  0.00     0.059 A 
ATOM     86  F   UNL A   1      39.604  29.926  27.320  1.00  0.00    -0.206 F 
ATOM     87  C   UNL A   1      37.950  30.616  30.458  1.00  0.00     0.060 A 
BRANCH  87  88
ATOM     88  S   UNL A   1      36.330  31.113  31.084  1.00  0.00     0.124 S 
ATOM     89  O   UNL A   1      36.675  32.267  31.906  1.00  0.00    -0.237 OA
ATOM     90  O   UNL A   1      35.603  31.401  29.851  1.00  0.00    -0.237 OA
ATOM     91  O   UNL A   1      35.873  29.934  31.813  1.00  0.00    -0.744 OA
ENDBRANCH  87  88
ENDBRANCH  55  80
BRANCH  67  92
ATOM     92  C   UNL A   1      43.137  23.914  27.000  1.00  0.00     0.058 A 
ATOM     93  C   UNL A   1      42.768  23.400  25.748  1.00  0.00     0.135 A 
ATOM     94  C   UNL A   1      43.095  23.044  28.103  1.00  0.00     0.135 A 
ATOM     95  F   UNL A   1      42.782  24.189  24.662  1.00  0.00    -0.206 F 
ATOM     96  C   UNL A   1      42.381  22.072  25.594  1.00  0.00     0.059 A 
ATOM     97  C   UNL A   1      42.739  21.706  27.969  1.00  0.00     0.059 A 
ATOM     98  F   UNL A   1      43.448  23.482  29.322  1.00  0.00    -0.206 F 
ATOM     99  C   UNL A   1      42.383  21.229  26.709  1.00  0.00     0.060 A 
BRANCH  99 100
ATOM    100  S   UNL A   1      41.967  19.486  26.478  1.00  0.00     0.124 S 
ATOM    101  O   UNL A   1      42.582  19.204  25.185  1.00  0.00    -0.237 OA
ATOM    102  O   UNL A   1      42.604  18.860  27.633  1.00  0.00    -0.237 OA
ATOM    103  O   UNL A   1      40.508  19.479  26.493  1.00  0.00    -0.744 OA
ENDBRANCH  99 100
ENDBRANCH  67  92
ENDBRANCH  41  42
ENDBRANCH  34  36
ENDBRANCH  33  34
ENDBRANCH  32  33
ENDBRANCH  31  32
ENDBRANCH  30  31
ENDBRANCH   1  30
TORSDOF 24
ENDMDL
