MODEL 1
REMARK VINA RESULT:     -11.7      0.000      0.000
REMARK SMILES Cc1ccc(S(=O)(=O)n2cc(C(=O)C(=O)N[C@@H](Cc3c[nH]c4ccccc34)C(=O)OCCOCCOCCOC(=O)c3ccc(-c4c5nc(c(-c6c(F)cc(S(=O)(=O)[O-])cc6F)c6ccc([nH]6)c(-c6c(F)cc(S(=O)(=O)[O-])cc6F)c6nc(c(-c7c(F)cc(S(=O)(=O)[O-])cc7F)c7ccc4[nH]7)C=C6)C=C5)cc3)c3ccccc32)cc1
REMARK SMILES IDX 34 1 33 2 32 3 31 4 30 5 28 6 29 7 17 8 16 9 14 10 15 11
REMARK SMILES IDX 12 13 13 14 11 15 9 16 10 17 113 18 108 19 112 20 109 21
REMARK SMILES IDX 111 22 110 23 6 24 7 25 8 26 5 27 1 28 2 29 3 30 115 31 4 32
REMARK SMILES IDX 114 33 18 34 19 35 20 36 27 37 21 38 22 39 26 40 23 42 25 43
REMARK SMILES IDX 24 44 35 45 36 46 37 47 38 48 39 49 40 50 41 51 42 52 43 53
REMARK SMILES IDX 107 54 44 55 106 56 45 57 46 58 47 59 100 60 48 61 105 62
REMARK SMILES IDX 99 63 101 64 49 65 104 66 98 67 97 68 50 70 84 71 63 72
REMARK SMILES IDX 83 73 64 74 67 75 82 76 102 77 65 78 66 79 81 81 103 82
REMARK SMILES IDX 68 83 51 84 52 85 61 86 53 87 54 88 60 89 62 90 55 91 56 92
REMARK SMILES IDX 57 93 58 94 59 95 85 96 86 97 95 98 87 99 88 100 94 101
REMARK SMILES IDX 96 102 89 103 90 104 91 105 92 106 93 107 69 108 70 109
REMARK SMILES IDX 79 110 71 111 72 112 78 113 80 114 73 115 74 116 75 117
REMARK SMILES IDX 76 118 77 119
REMARK H PARENT 16 12 21 41 101 69 67 80
REMARK Flexibility Score: inf
ROOT
ATOM      1  C   UNL A   1      37.932  22.774  26.012  1.00  0.00     0.188 C 
ENDROOT
BRANCH   1   2
ATOM      2  O   UNL A   1      36.632  22.617  25.508  1.00  0.00    -0.376 OA
BRANCH   2   3
ATOM      3  C   UNL A   1      36.253  23.683  24.690  1.00  0.00     0.202 C 
BRANCH   3   4
ATOM      4  C   UNL A   1      35.227  24.761  25.161  1.00  0.00     0.261 C 
BRANCH   4   5
ATOM      5  O   UNL A   1      34.272  25.965  24.240  1.00  0.00    -0.462 OA
BRANCH   5   6
ATOM      6  C   UNL A   1      33.541  27.247  24.291  1.00  0.00     0.329 C 
ATOM      7  O   UNL A   1      34.090  28.203  23.741  1.00  0.00    -0.250 OA
BRANCH   6   8
ATOM      8  C   UNL A   1      32.149  27.816  25.101  1.00  0.00     0.197 C 
BRANCH   8   9
ATOM      9  N   UNL A   1      31.483  29.140  25.295  1.00  0.00    -0.335 N 
ATOM     10  C   UNL A   1      31.852  30.165  26.117  1.00  0.00     0.293 C 
ATOM     11  O   UNL A   1      31.260  31.237  26.110  1.00  0.00    -0.265 OA
ATOM     12  H   UNL A   1      30.671  29.293  24.759  1.00  0.00     0.164 HD
BRANCH  10  13
ATOM     13  C   UNL A   1      33.047  29.889  27.002  1.00  0.00     0.252 C 
ATOM     14  O   UNL A   1      33.049  28.809  27.582  1.00  0.00    -0.283 OA
BRANCH  13  15
ATOM     15  C   UNL A   1      33.885  30.952  27.467  1.00  0.00     0.054 A 
ATOM     16  N   UNL A   1      34.693  32.342  28.940  1.00  0.00    -0.240 N 
ATOM     17  C   UNL A   1      33.672  32.218  28.006  1.00  0.00     0.117 A 
ATOM     18  C   UNL A   1      35.314  31.076  29.039  1.00  0.00     0.065 A 
ATOM     19  C   UNL A   1      35.213  30.609  27.745  1.00  0.00     0.012 A 
ATOM     20  C   UNL A   1      36.279  30.571  29.922  1.00  0.00     0.028 A 
ATOM     21  C   UNL A   1      36.143  29.693  27.242  1.00  0.00     0.011 A 
ATOM     22  C   UNL A   1      37.258  29.737  29.374  1.00  0.00     0.002 A 
ATOM     23  C   UNL A   1      37.208  29.320  28.047  1.00  0.00     0.001 A 
BRANCH  16  24
ATOM     24  S   UNL A   1      35.922  33.497  29.093  1.00  0.00     0.268 S 
ATOM     25  O   UNL A   1      35.179  34.750  29.159  1.00  0.00    -0.201 OA
ATOM     26  O   UNL A   1      36.712  33.138  27.914  1.00  0.00    -0.201 OA
BRANCH  24  27
ATOM     27  C   UNL A   1      37.218  33.816  30.182  1.00  0.00     0.088 A 
ATOM     28  C   UNL A   1      41.261  34.028  31.557  1.00  0.00     0.044 C 
ATOM     29  C   UNL A   1      39.823  34.022  31.150  1.00  0.00    -0.051 A 
ATOM     30  C   UNL A   1      39.603  34.227  29.803  1.00  0.00     0.005 A 
ATOM     31  C   UNL A   1      38.727  33.787  32.019  1.00  0.00     0.005 A 
ATOM     32  C   UNL A   1      38.320  34.159  29.349  1.00  0.00     0.022 A 
ATOM     33  C   UNL A   1      37.398  33.668  31.539  1.00  0.00     0.022 A 
ENDBRANCH  24  27
ENDBRANCH  16  24
ENDBRANCH  13  15
ENDBRANCH  10  13
ENDBRANCH   8   9
BRANCH   8  34
ATOM     34  C   UNL A   1      30.928  26.940  24.786  1.00  0.00     0.074 C 
BRANCH  34  35
ATOM     35  C   UNL A   1      31.443  25.620  24.447  1.00  0.00    -0.020 A 
ATOM     36  C   UNL A   1      31.380  25.073  22.738  1.00  0.00     0.087 A 
ATOM     37  C   UNL A   1      31.965  24.088  25.548  1.00  0.00     0.003 A 
ATOM     38  N   UNL A   1      31.757  23.211  22.722  1.00  0.00    -0.361 N 
ATOM     39  C   UNL A   1      32.088  22.643  24.451  1.00  0.00     0.046 A 
ATOM     40  C   UNL A   1      32.332  23.841  26.908  1.00  0.00     0.010 A 
ATOM     41  H   UNL A   1      31.774  22.638  21.921  1.00  0.00     0.166 HD
ATOM     42  C   UNL A   1      32.631  21.461  24.986  1.00  0.00     0.026 A 
ATOM     43  C   UNL A   1      32.740  22.538  27.283  1.00  0.00     0.001 A 
ATOM     44  C   UNL A   1      32.909  21.445  26.382  1.00  0.00     0.002 A 
ENDBRANCH  34  35
ENDBRANCH   8  34
ENDBRANCH   6   8
ENDBRANCH   5   6
ENDBRANCH   4   5
ENDBRANCH   3   4
ENDBRANCH   2   3
ENDBRANCH   1   2
BRANCH   1  45
ATOM     45  C   UNL A   1      38.920  21.628  25.819  1.00  0.00     0.188 C 
BRANCH  45  46
ATOM     46  O   UNL A   1      40.219  21.836  26.315  1.00  0.00    -0.376 OA
BRANCH  46  47
ATOM     47  C   UNL A   1      40.592  22.444  27.515  1.00  0.00     0.202 C 
BRANCH  47  48
ATOM     48  C   UNL A   1      41.492  23.589  27.203  1.00  0.00     0.261 C 
BRANCH  48  49
ATOM     49  O   UNL A   1      40.930  24.702  26.435  1.00  0.00    -0.460 OA
BRANCH  49  50
ATOM     50  C   UNL A   1      40.295  25.827  26.876  1.00  0.00     0.338 C 
ATOM     51  O   UNL A   1      39.277  25.741  27.558  1.00  0.00    -0.246 OA
BRANCH  50  52
ATOM     52  C   UNL A   1      40.923  27.167  26.644  1.00  0.00     0.060 A 
ATOM     53  C   UNL A   1      41.941  27.251  25.743  1.00  0.00     0.016 A 
ATOM     54  C   UNL A   1      40.637  28.355  27.325  1.00  0.00     0.016 A 
ATOM     55  C   UNL A   1      42.674  28.456  25.728  1.00  0.00     0.010 A 
ATOM     56  C   UNL A   1      41.636  29.409  27.472  1.00  0.00     0.010 A 
ATOM     57  C   UNL A   1      42.842  29.436  26.741  1.00  0.00    -0.014 A 
BRANCH  57  58
ATOM     58  C   UNL A   1      44.322  30.559  26.921  1.00  0.00     0.031 A 
ATOM     59  C   UNL A   1      44.486  32.548  25.884  1.00  0.00     0.074 A 
ATOM     60  C   UNL A   1      45.542  29.935  27.881  1.00  0.00     0.049 A 
ATOM     61  N   UNL A   1      45.613  33.332  25.549  1.00  0.00    -0.248 NA
ATOM     62  C   UNL A   1      43.447  33.665  25.176  1.00  0.00     0.031 C 
ATOM     63  C   UNL A   1      46.351  30.602  29.022  1.00  0.00     0.029 A 
ATOM     64  N   UNL A   1      46.292  28.670  28.066  1.00  0.00    -0.354 N 
ATOM     65  C   UNL A   1      45.305  34.604  25.907  1.00  0.00     0.074 A 
ATOM     66  C   UNL A   1      44.093  34.833  25.213  1.00  0.00     0.031 C 
ATOM     67  C   UNL A   1      47.451  29.891  29.398  1.00  0.00     0.029 A 
ATOM     68  C   UNL A   1      47.543  28.658  28.645  1.00  0.00     0.049 A 
ATOM     69  H   UNL A   1      45.890  27.821  27.770  1.00  0.00     0.167 HD
ATOM     70  C   UNL A   1      45.833  35.096  27.066  1.00  0.00     0.037 A 
ATOM     71  C   UNL A   1      48.646  27.918  28.250  1.00  0.00     0.037 A 
ATOM     72  C   UNL A   1      46.937  34.315  27.680  1.00  0.00     0.049 A 
ATOM     73  C   UNL A   1      49.618  28.982  27.787  1.00  0.00     0.074 A 
ATOM     74  C   UNL A   1      47.170  33.858  28.972  1.00  0.00     0.029 A 
ATOM     75  N   UNL A   1      47.960  33.758  26.905  1.00  0.00    -0.354 N 
ATOM     76  N   UNL A   1      49.184  30.173  27.460  1.00  0.00    -0.248 NA
ATOM     77  C   UNL A   1      51.075  28.888  27.750  1.00  0.00     0.031 C 
ATOM     78  C   UNL A   1      48.341  33.049  28.966  1.00  0.00     0.029 A 
ATOM     79  C   UNL A   1      48.820  32.965  27.668  1.00  0.00     0.049 A 
ATOM     80  H   UNL A   1      48.061  33.907  25.937  1.00  0.00     0.167 HD
ATOM     81  C   UNL A   1      50.228  31.020  27.314  1.00  0.00     0.074 A 
ATOM     82  C   UNL A   1      51.399  30.165  27.466  1.00  0.00     0.031 C 
ATOM     83  C   UNL A   1      50.030  32.353  27.099  1.00  0.00     0.037 A 
BRANCH  70  84
ATOM     84  C   UNL A   1      45.176  36.239  27.790  1.00  0.00     0.058 A 
ATOM     85  C   UNL A   1      45.701  37.529  27.620  1.00  0.00     0.135 A 
ATOM     86  C   UNL A   1      44.051  36.144  28.639  1.00  0.00     0.135 A 
ATOM     87  F   UNL A   1      46.844  37.738  26.953  1.00  0.00    -0.206 F 
ATOM     88  C   UNL A   1      45.068  38.654  28.118  1.00  0.00     0.059 A 
ATOM     89  C   UNL A   1      43.348  37.259  29.069  1.00  0.00     0.059 A 
ATOM     90  F   UNL A   1      43.612  34.978  29.132  1.00  0.00    -0.206 F 
ATOM     91  C   UNL A   1      43.854  38.513  28.776  1.00  0.00     0.060 A 
BRANCH  91  92
ATOM     92  S   UNL A   1      42.937  39.993  29.195  1.00  0.00     0.124 S 
ATOM     93  O   UNL A   1      41.648  39.726  28.567  1.00  0.00    -0.237 OA
ATOM     94  O   UNL A   1      42.960  39.955  30.653  1.00  0.00    -0.237 OA
ATOM     95  O   UNL A   1      43.724  41.062  28.587  1.00  0.00    -0.744 OA
ENDBRANCH  91  92
ENDBRANCH  70  84
BRANCH  71  96
ATOM     96  C   UNL A   1      48.556  26.498  27.649  1.00  0.00     0.058 A 
ATOM     97  C   UNL A   1      47.879  25.479  28.351  1.00  0.00     0.135 A 
ATOM     98  C   UNL A   1      48.801  26.187  26.301  1.00  0.00     0.135 A 
ATOM     99  F   UNL A   1      47.826  25.519  29.692  1.00  0.00    -0.206 F 
ATOM    100  C   UNL A   1      47.196  24.423  27.706  1.00  0.00     0.059 A 
ATOM    101  C   UNL A   1      48.008  25.234  25.611  1.00  0.00     0.059 A 
ATOM    102  F   UNL A   1      49.627  26.955  25.572  1.00  0.00    -0.206 F 
ATOM    103  C   UNL A   1      47.135  24.412  26.317  1.00  0.00     0.060 A 
BRANCH 103 104
ATOM    104  S   UNL A   1      45.753  23.577  25.439  1.00  0.00     0.124 S 
ATOM    105  O   UNL A   1      44.585  24.280  25.948  1.00  0.00    -0.237 OA
ATOM    106  O   UNL A   1      46.035  23.800  24.023  1.00  0.00    -0.237 OA
ATOM    107  O   UNL A   1      45.903  22.188  25.850  1.00  0.00    -0.744 OA
ENDBRANCH 103 104
ENDBRANCH  71  96
BRANCH  83 108
ATOM    108  C   UNL A   1      51.050  33.221  26.441  1.00  0.00     0.058 A 
ATOM    109  C   UNL A   1      51.559  34.398  27.015  1.00  0.00     0.135 A 
ATOM    110  C   UNL A   1      51.670  32.796  25.244  1.00  0.00     0.135 A 
ATOM    111  F   UNL A   1      51.182  34.826  28.227  1.00  0.00    -0.206 F 
ATOM    112  C   UNL A   1      52.515  35.168  26.374  1.00  0.00     0.059 A 
ATOM    113  C   UNL A   1      52.712  33.481  24.660  1.00  0.00     0.059 A 
ATOM    114  F   UNL A   1      51.296  31.688  24.590  1.00  0.00    -0.206 F 
ATOM    115  C   UNL A   1      53.086  34.696  25.199  1.00  0.00     0.060 A 
BRANCH 115 116
ATOM    116  S   UNL A   1      54.315  35.693  24.371  1.00  0.00     0.124 S 
ATOM    117  O   UNL A   1      55.542  35.190  24.982  1.00  0.00    -0.237 OA
ATOM    118  O   UNL A   1      54.108  35.337  22.971  1.00  0.00    -0.237 OA
ATOM    119  O   UNL A   1      53.943  37.058  24.729  1.00  0.00    -0.744 OA
ENDBRANCH 115 116
ENDBRANCH  83 108
ENDBRANCH  57  58
ENDBRANCH  50  52
ENDBRANCH  49  50
ENDBRANCH  48  49
ENDBRANCH  47  48
ENDBRANCH  46  47
ENDBRANCH  45  46
ENDBRANCH   1  45
TORSDOF 27
ENDMDL
MODEL 2
REMARK VINA RESULT:     -11.2      6.446      8.573
REMARK SMILES Cc1ccc(S(=O)(=O)n2cc(C(=O)C(=O)N[C@@H](Cc3c[nH]c4ccccc34)C(=O)OCCOCCOCCOC(=O)c3ccc(-c4c5nc(c(-c6c(F)cc(S(=O)(=O)[O-])cc6F)c6ccc([nH]6)c(-c6c(F)cc(S(=O)(=O)[O-])cc6F)c6nc(c(-c7c(F)cc(S(=O)(=O)[O-])cc7F)c7ccc4[nH]7)C=C6)C=C5)cc3)c3ccccc32)cc1
REMARK SMILES IDX 34 1 33 2 32 3 31 4 30 5 28 6 29 7 17 8 16 9 14 10 15 11
REMARK SMILES IDX 12 13 13 14 11 15 9 16 10 17 113 18 108 19 112 20 109 21
REMARK SMILES IDX 111 22 110 23 6 24 7 25 8 26 5 27 1 28 2 29 3 30 115 31 4 32
REMARK SMILES IDX 114 33 18 34 19 35 20 36 27 37 21 38 22 39 26 40 23 42 25 43
REMARK SMILES IDX 24 44 35 45 36 46 37 47 38 48 39 49 40 50 41 51 42 52 43 53
REMARK SMILES IDX 107 54 44 55 106 56 45 57 46 58 47 59 100 60 48 61 105 62
REMARK SMILES IDX 99 63 101 64 49 65 104 66 98 67 97 68 50 70 84 71 63 72
REMARK SMILES IDX 83 73 64 74 67 75 82 76 102 77 65 78 66 79 81 81 103 82
REMARK SMILES IDX 68 83 51 84 52 85 61 86 53 87 54 88 60 89 62 90 55 91 56 92
REMARK SMILES IDX 57 93 58 94 59 95 85 96 86 97 95 98 87 99 88 100 94 101
REMARK SMILES IDX 96 102 89 103 90 104 91 105 92 106 93 107 69 108 70 109
REMARK SMILES IDX 79 110 71 111 72 112 78 113 80 114 73 115 74 116 75 117
REMARK SMILES IDX 76 118 77 119
REMARK H PARENT 16 12 21 41 101 69 67 80
REMARK Flexibility Score: inf
ROOT
ATOM      1  C   UNL A   1      36.320  23.223  26.191  1.00  0.00     0.188 C 
ENDROOT
BRANCH   1   2
ATOM      2  O   UNL A   1      35.334  22.299  26.573  1.00  0.00    -0.376 OA
BRANCH   2   3
ATOM      3  C   UNL A   1      34.157  22.927  26.985  1.00  0.00     0.202 C 
BRANCH   3   4
ATOM      4  C   UNL A   1      33.709  24.305  26.405  1.00  0.00     0.261 C 
BRANCH   4   5
ATOM      5  O   UNL A   1      32.305  25.348  26.789  1.00  0.00    -0.462 OA
BRANCH   5   6
ATOM      6  C   UNL A   1      31.553  26.568  26.436  1.00  0.00     0.329 C 
ATOM      7  O   UNL A   1      30.805  27.013  27.310  1.00  0.00    -0.250 OA
BRANCH   6   8
ATOM      8  C   UNL A   1      31.307  27.468  25.005  1.00  0.00     0.197 C 
BRANCH   8   9
ATOM      9  N   UNL A   1      32.169  28.236  24.056  1.00  0.00    -0.335 N 
ATOM     10  C   UNL A   1      32.971  29.310  24.313  1.00  0.00     0.293 C 
ATOM     11  O   UNL A   1      33.697  29.789  23.451  1.00  0.00    -0.265 OA
ATOM     12  H   UNL A   1      32.157  27.927  23.121  1.00  0.00     0.164 HD
BRANCH  10  13
ATOM     13  C   UNL A   1      32.917  29.835  25.730  1.00  0.00     0.252 C 
ATOM     14  O   UNL A   1      32.042  30.661  25.964  1.00  0.00    -0.283 OA
BRANCH  13  15
ATOM     15  C   UNL A   1      34.041  29.716  26.608  1.00  0.00     0.054 A 
ATOM     16  N   UNL A   1      36.142  29.867  27.172  1.00  0.00    -0.240 N 
ATOM     17  C   UNL A   1      35.228  28.989  26.603  1.00  0.00     0.117 A 
ATOM     18  C   UNL A   1      35.493  31.117  27.285  1.00  0.00     0.065 A 
ATOM     19  C   UNL A   1      34.193  30.738  27.552  1.00  0.00     0.012 A 
ATOM     20  C   UNL A   1      35.964  32.392  27.632  1.00  0.00     0.028 A 
ATOM     21  C   UNL A   1      33.338  31.577  28.273  1.00  0.00     0.011 A 
ATOM     22  C   UNL A   1      35.132  33.173  28.439  1.00  0.00     0.002 A 
ATOM     23  C   UNL A   1      33.845  32.766  28.777  1.00  0.00     0.001 A 
BRANCH  16  24
ATOM     24  S   UNL A   1      37.131  29.709  28.537  1.00  0.00     0.268 S 
ATOM     25  O   UNL A   1      36.167  29.485  29.608  1.00  0.00    -0.201 OA
ATOM     26  O   UNL A   1      37.869  30.967  28.424  1.00  0.00    -0.201 OA
BRANCH  24  27
ATOM     27  C   UNL A   1      38.431  28.694  29.036  1.00  0.00     0.088 A 
ATOM     28  C   UNL A   1      41.819  26.121  28.616  1.00  0.00     0.044 C 
ATOM     29  C   UNL A   1      40.665  27.038  28.860  1.00  0.00    -0.051 A 
ATOM     30  C   UNL A   1      40.503  28.029  27.913  1.00  0.00     0.005 A 
ATOM     31  C   UNL A   1      39.744  26.927  29.933  1.00  0.00     0.005 A 
ATOM     32  C   UNL A   1      39.426  28.855  28.032  1.00  0.00     0.022 A 
ATOM     33  C   UNL A   1      38.598  27.756  30.029  1.00  0.00     0.022 A 
ENDBRANCH  24  27
ENDBRANCH  16  24
ENDBRANCH  13  15
ENDBRANCH  10  13
ENDBRANCH   8   9
BRANCH   8  34
ATOM     34  C   UNL A   1      30.424  26.700  24.012  1.00  0.00     0.074 C 
BRANCH  34  35
ATOM     35  C   UNL A   1      31.239  25.612  23.490  1.00  0.00    -0.020 A 
ATOM     36  C   UNL A   1      32.105  25.842  21.933  1.00  0.00     0.087 A 
ATOM     37  C   UNL A   1      31.393  23.726  23.988  1.00  0.00     0.003 A 
ATOM     38  N   UNL A   1      32.730  24.138  21.372  1.00  0.00    -0.361 N 
ATOM     39  C   UNL A   1      32.262  22.873  22.637  1.00  0.00     0.046 A 
ATOM     40  C   UNL A   1      31.085  22.903  25.116  1.00  0.00     0.010 A 
ATOM     41  H   UNL A   1      33.225  23.956  20.541  1.00  0.00     0.166 HD
ATOM     42  C   UNL A   1      32.654  21.539  22.853  1.00  0.00     0.026 A 
ATOM     43  C   UNL A   1      31.458  21.537  25.092  1.00  0.00     0.001 A 
ATOM     44  C   UNL A   1      32.215  20.916  24.055  1.00  0.00     0.002 A 
ENDBRANCH  34  35
ENDBRANCH   8  34
ENDBRANCH   6   8
ENDBRANCH   5   6
ENDBRANCH   4   5
ENDBRANCH   3   4
ENDBRANCH   2   3
ENDBRANCH   1   2
BRANCH   1  45
ATOM     45  C   UNL A   1      37.454  22.734  25.296  1.00  0.00     0.188 C 
BRANCH  45  46
ATOM     46  O   UNL A   1      38.623  22.308  25.949  1.00  0.00    -0.376 OA
BRANCH  46  47
ATOM     47  C   UNL A   1      39.240  21.058  25.876  1.00  0.00     0.202 C 
BRANCH  47  48
ATOM     48  C   UNL A   1      40.545  21.133  26.590  1.00  0.00     0.261 C 
BRANCH  48  49
ATOM     49  O   UNL A   1      41.352  22.340  26.396  1.00  0.00    -0.460 OA
BRANCH  49  50
ATOM     50  C   UNL A   1      42.709  22.477  26.340  1.00  0.00     0.338 C 
ATOM     51  O   UNL A   1      43.297  22.418  25.263  1.00  0.00    -0.246 OA
BRANCH  50  52
ATOM     52  C   UNL A   1      43.465  22.838  27.581  1.00  0.00     0.060 A 
ATOM     53  C   UNL A   1      42.946  22.461  28.782  1.00  0.00     0.016 A 
ATOM     54  C   UNL A   1      44.628  23.612  27.657  1.00  0.00     0.016 A 
ATOM     55  C   UNL A   1      43.538  23.024  29.932  1.00  0.00     0.010 A 
ATOM     56  C   UNL A   1      44.950  24.389  28.850  1.00  0.00     0.010 A 
ATOM     57  C   UNL A   1      44.283  24.223  30.082  1.00  0.00    -0.014 A 
BRANCH  57  58
ATOM     58  C   UNL A   1      44.395  25.235  31.646  1.00  0.00     0.031 A 
ATOM     59  C   UNL A   1      44.213  27.477  31.671  1.00  0.00     0.074 A 
ATOM     60  C   UNL A   1      44.693  24.336  33.024  1.00  0.00     0.049 A 
ATOM     61  N   UNL A   1      44.656  28.436  32.610  1.00  0.00    -0.248 NA
ATOM     62  C   UNL A   1      43.593  28.680  30.672  1.00  0.00     0.031 C 
ATOM     63  C   UNL A   1      44.012  24.388  34.416  1.00  0.00     0.029 A 
ATOM     64  N   UNL A   1      45.590  23.250  33.487  1.00  0.00    -0.354 N 
ATOM     65  C   UNL A   1      43.619  29.290  32.793  1.00  0.00     0.074 A 
ATOM     66  C   UNL A   1      43.336  29.717  31.474  1.00  0.00     0.031 C 
ATOM     67  C   UNL A   1      44.690  23.708  35.381  1.00  0.00     0.029 A 
ATOM     68  C   UNL A   1      45.865  23.070  34.826  1.00  0.00     0.049 A 
ATOM     69  H   UNL A   1      45.998  22.645  32.826  1.00  0.00     0.167 HD
ATOM     70  C   UNL A   1      42.861  29.155  33.921  1.00  0.00     0.037 A 
ATOM     71  C   UNL A   1      47.090  22.770  35.400  1.00  0.00     0.037 A 
ATOM     72  C   UNL A   1      43.413  28.291  34.996  1.00  0.00     0.049 A 
ATOM     73  C   UNL A   1      47.402  24.016  36.201  1.00  0.00     0.074 A 
ATOM     74  C   UNL A   1      42.876  27.254  35.748  1.00  0.00     0.029 A 
ATOM     75  N   UNL A   1      44.766  28.337  35.349  1.00  0.00    -0.354 N 
ATOM     76  N   UNL A   1      46.807  25.147  35.918  1.00  0.00    -0.248 NA
ATOM     77  C   UNL A   1      48.250  24.112  37.386  1.00  0.00     0.031 C 
ATOM     78  C   UNL A   1      43.904  26.698  36.561  1.00  0.00     0.029 A 
ATOM     79  C   UNL A   1      45.092  27.359  36.292  1.00  0.00     0.049 A 
ATOM     80  H   UNL A   1      45.412  28.980  34.978  1.00  0.00     0.167 HD
ATOM     81  C   UNL A   1      47.047  26.051  36.895  1.00  0.00     0.074 A 
ATOM     82  C   UNL A   1      47.989  25.375  37.778  1.00  0.00     0.031 C 
ATOM     83  C   UNL A   1      46.431  27.269  36.895  1.00  0.00     0.037 A 
BRANCH  70  84
ATOM     84  C   UNL A   1      41.449  29.671  33.970  1.00  0.00     0.058 A 
ATOM     85  C   UNL A   1      41.197  30.864  34.662  1.00  0.00     0.135 A 
ATOM     86  C   UNL A   1      40.325  29.065  33.367  1.00  0.00     0.135 A 
ATOM     87  F   UNL A   1      42.146  31.466  35.392  1.00  0.00    -0.206 F 
ATOM     88  C   UNL A   1      39.964  31.492  34.625  1.00  0.00     0.059 A 
ATOM     89  C   UNL A   1      39.109  29.718  33.236  1.00  0.00     0.059 A 
ATOM     90  F   UNL A   1      40.334  27.800  32.924  1.00  0.00    -0.206 F 
ATOM     91  C   UNL A   1      38.951  30.949  33.848  1.00  0.00     0.060 A 
BRANCH  91  92
ATOM     92  S   UNL A   1      37.451  31.900  33.619  1.00  0.00     0.124 S 
ATOM     93  O   UNL A   1      36.593  30.934  32.942  1.00  0.00    -0.237 OA
ATOM     94  O   UNL A   1      37.091  32.225  34.995  1.00  0.00    -0.237 OA
ATOM     95  O   UNL A   1      37.889  33.031  32.806  1.00  0.00    -0.744 OA
ENDBRANCH  91  92
ENDBRANCH  70  84
BRANCH  71  96
ATOM     96  C   UNL A   1      48.157  21.876  34.730  1.00  0.00     0.058 A 
ATOM     97  C   UNL A   1      49.340  22.453  34.224  1.00  0.00     0.135 A 
ATOM     98  C   UNL A   1      48.222  20.479  34.863  1.00  0.00     0.135 A 
ATOM     99  F   UNL A   1      49.325  23.723  33.788  1.00  0.00    -0.206 F 
ATOM    100  C   UNL A   1      50.577  21.771  34.194  1.00  0.00     0.059 A 
ATOM    101  C   UNL A   1      49.468  19.811  34.991  1.00  0.00     0.059 A 
ATOM    102  F   UNL A   1      47.109  19.772  35.115  1.00  0.00    -0.206 F 
ATOM    103  C   UNL A   1      50.654  20.494  34.740  1.00  0.00     0.060 A 
BRANCH 103 104
ATOM    104  S   UNL A   1      52.242  19.841  35.395  1.00  0.00     0.124 S 
ATOM    105  O   UNL A   1      52.701  18.982  34.314  1.00  0.00    -0.237 OA
ATOM    106  O   UNL A   1      53.058  21.031  35.622  1.00  0.00    -0.237 OA
ATOM    107  O   UNL A   1      51.834  19.174  36.624  1.00  0.00    -0.744 OA
ENDBRANCH 103 104
ENDBRANCH  71  96
BRANCH  83 108
ATOM    108  C   UNL A   1      46.998  28.457  37.598  1.00  0.00     0.058 A 
ATOM    109  C   UNL A   1      48.121  29.168  37.145  1.00  0.00     0.135 A 
ATOM    110  C   UNL A   1      46.312  29.016  38.699  1.00  0.00     0.135 A 
ATOM    111  F   UNL A   1      48.766  28.846  36.015  1.00  0.00    -0.206 F 
ATOM    112  C   UNL A   1      48.607  30.274  37.822  1.00  0.00     0.059 A 
ATOM    113  C   UNL A   1      46.706  30.189  39.307  1.00  0.00     0.059 A 
ATOM    114  F   UNL A   1      45.220  28.453  39.233  1.00  0.00    -0.206 F 
ATOM    115  C   UNL A   1      47.888  30.776  38.900  1.00  0.00     0.060 A 
BRANCH 115 116
ATOM    116  S   UNL A   1      48.518  32.199  39.776  1.00  0.00     0.124 S 
ATOM    117  O   UNL A   1      49.748  32.463  39.034  1.00  0.00    -0.237 OA
ATOM    118  O   UNL A   1      47.444  33.171  39.597  1.00  0.00    -0.237 OA
ATOM    119  O   UNL A   1      48.694  31.708  41.139  1.00  0.00    -0.744 OA
ENDBRANCH 115 116
ENDBRANCH  83 108
ENDBRANCH  57  58
ENDBRANCH  50  52
ENDBRANCH  49  50
ENDBRANCH  48  49
ENDBRANCH  47  48
ENDBRANCH  46  47
ENDBRANCH  45  46
ENDBRANCH   1  45
TORSDOF 27
ENDMDL
MODEL 3
REMARK VINA RESULT:     -11.0      5.716      9.832
REMARK SMILES Cc1ccc(S(=O)(=O)n2cc(C(=O)C(=O)N[C@@H](Cc3c[nH]c4ccccc34)C(=O)OCCOCCOCCOC(=O)c3ccc(-c4c5nc(c(-c6c(F)cc(S(=O)(=O)[O-])cc6F)c6ccc([nH]6)c(-c6c(F)cc(S(=O)(=O)[O-])cc6F)c6nc(c(-c7c(F)cc(S(=O)(=O)[O-])cc7F)c7ccc4[nH]7)C=C6)C=C5)cc3)c3ccccc32)cc1
REMARK SMILES IDX 34 1 33 2 32 3 31 4 30 5 28 6 29 7 17 8 16 9 14 10 15 11
REMARK SMILES IDX 12 13 13 14 11 15 9 16 10 17 113 18 108 19 112 20 109 21
REMARK SMILES IDX 111 22 110 23 6 24 7 25 8 26 5 27 1 28 2 29 3 30 115 31 4 32
REMARK SMILES IDX 114 33 18 34 19 35 20 36 27 37 21 38 22 39 26 40 23 42 25 43
REMARK SMILES IDX 24 44 35 45 36 46 37 47 38 48 39 49 40 50 41 51 42 52 43 53
REMARK SMILES IDX 107 54 44 55 106 56 45 57 46 58 47 59 100 60 48 61 105 62
REMARK SMILES IDX 99 63 101 64 49 65 104 66 98 67 97 68 50 70 84 71 63 72
REMARK SMILES IDX 83 73 64 74 67 75 82 76 102 77 65 78 66 79 81 81 103 82
REMARK SMILES IDX 68 83 51 84 52 85 61 86 53 87 54 88 60 89 62 90 55 91 56 92
REMARK SMILES IDX 57 93 58 94 59 95 85 96 86 97 95 98 87 99 88 100 94 101
REMARK SMILES IDX 96 102 89 103 90 104 91 105 92 106 93 107 69 108 70 109
REMARK SMILES IDX 79 110 71 111 72 112 78 113 80 114 73 115 74 116 75 117
REMARK SMILES IDX 76 118 77 119
REMARK H PARENT 16 12 21 41 101 69 67 80
REMARK Flexibility Score: inf
ROOT
ATOM      1  C   UNL A   1      36.453  22.060  25.492  1.00  0.00     0.188 C 
ENDROOT
BRANCH   1   2
ATOM      2  O   UNL A   1      35.525  21.048  25.786  1.00  0.00    -0.376 OA
BRANCH   2   3
ATOM      3  C   UNL A   1      34.263  21.563  26.087  1.00  0.00     0.202 C 
BRANCH   3   4
ATOM      4  C   UNL A   1      34.041  23.077  26.396  1.00  0.00     0.261 C 
BRANCH   4   5
ATOM      5  O   UNL A   1      32.552  24.072  26.419  1.00  0.00    -0.462 OA
BRANCH   5   6
ATOM      6  C   UNL A   1      31.979  25.422  26.253  1.00  0.00     0.329 C 
ATOM      7  O   UNL A   1      31.239  25.810  27.160  1.00  0.00    -0.250 OA
BRANCH   6   8
ATOM      8  C   UNL A   1      31.934  26.572  24.991  1.00  0.00     0.197 C 
BRANCH   8   9
ATOM      9  N   UNL A   1      32.933  27.420  24.272  1.00  0.00    -0.335 N 
ATOM     10  C   UNL A   1      33.740  28.399  24.779  1.00  0.00     0.293 C 
ATOM     11  O   UNL A   1      34.582  28.957  24.087  1.00  0.00    -0.265 OA
ATOM     12  H   UNL A   1      33.021  27.253  23.306  1.00  0.00     0.164 HD
BRANCH  10  13
ATOM     13  C   UNL A   1      33.536  28.713  26.244  1.00  0.00     0.252 C 
ATOM     14  O   UNL A   1      32.718  28.017  26.835  1.00  0.00    -0.283 OA
BRANCH  13  15
ATOM     15  C   UNL A   1      33.928  29.976  26.791  1.00  0.00     0.054 A 
ATOM     16  N   UNL A   1      33.983  31.557  28.291  1.00  0.00    -0.240 N 
ATOM     17  C   UNL A   1      33.264  31.136  27.181  1.00  0.00     0.117 A 
ATOM     18  C   UNL A   1      34.890  30.521  28.609  1.00  0.00     0.065 A 
ATOM     19  C   UNL A   1      35.205  30.028  27.359  1.00  0.00     0.012 A 
ATOM     20  C   UNL A   1      35.742  30.322  29.705  1.00  0.00     0.028 A 
ATOM     21  C   UNL A   1      36.437  29.408  27.126  1.00  0.00     0.011 A 
ATOM     22  C   UNL A   1      37.007  29.793  29.432  1.00  0.00     0.002 A 
ATOM     23  C   UNL A   1      37.362  29.362  28.157  1.00  0.00     0.001 A 
BRANCH  16  24
ATOM     24  S   UNL A   1      34.784  33.016  28.607  1.00  0.00     0.268 S 
ATOM     25  O   UNL A   1      33.684  33.942  28.845  1.00  0.00    -0.201 OA
ATOM     26  O   UNL A   1      35.596  33.090  27.392  1.00  0.00    -0.201 OA
BRANCH  24  27
ATOM     27  C   UNL A   1      35.956  33.587  29.734  1.00  0.00     0.088 A 
ATOM     28  C   UNL A   1      39.807  34.061  31.529  1.00  0.00     0.044 C 
ATOM     29  C   UNL A   1      38.432  33.982  30.950  1.00  0.00    -0.051 A 
ATOM     30  C   UNL A   1      38.390  33.813  29.580  1.00  0.00     0.005 A 
ATOM     31  C   UNL A   1      37.226  34.025  31.695  1.00  0.00     0.005 A 
ATOM     32  C   UNL A   1      37.170  33.658  28.994  1.00  0.00     0.022 A 
ATOM     33  C   UNL A   1      35.960  33.815  31.091  1.00  0.00     0.022 A 
ENDBRANCH  24  27
ENDBRANCH  16  24
ENDBRANCH  13  15
ENDBRANCH  10  13
ENDBRANCH   8   9
BRANCH   8  34
ATOM     34  C   UNL A   1      31.106  26.061  23.804  1.00  0.00     0.074 C 
BRANCH  34  35
ATOM     35  C   UNL A   1      29.933  26.920  23.717  1.00  0.00    -0.020 A 
ATOM     36  C   UNL A   1      28.356  26.305  24.317  1.00  0.00     0.087 A 
ATOM     37  C   UNL A   1      29.601  28.602  22.772  1.00  0.00     0.003 A 
ATOM     38  N   UNL A   1      27.010  27.498  23.705  1.00  0.00    -0.361 N 
ATOM     39  C   UNL A   1      27.802  28.871  22.752  1.00  0.00     0.046 A 
ATOM     40  C   UNL A   1      30.371  29.658  22.193  1.00  0.00     0.010 A 
ATOM     41  H   UNL A   1      26.044  27.401  23.868  1.00  0.00     0.166 HD
ATOM     42  C   UNL A   1      27.334  30.113  22.288  1.00  0.00     0.026 A 
ATOM     43  C   UNL A   1      29.700  30.785  21.662  1.00  0.00     0.001 A 
ATOM     44  C   UNL A   1      28.293  31.008  21.737  1.00  0.00     0.002 A 
ENDBRANCH  34  35
ENDBRANCH   8  34
ENDBRANCH   6   8
ENDBRANCH   5   6
ENDBRANCH   4   5
ENDBRANCH   3   4
ENDBRANCH   2   3
ENDBRANCH   1   2
BRANCH   1  45
ATOM     45  C   UNL A   1      37.812  21.648  24.936  1.00  0.00     0.188 C 
BRANCH  45  46
ATOM     46  O   UNL A   1      38.822  21.400  25.881  1.00  0.00    -0.376 OA
BRANCH  46  47
ATOM     47  C   UNL A   1      39.454  20.187  26.161  1.00  0.00     0.202 C 
BRANCH  47  48
ATOM     48  C   UNL A   1      40.926  20.386  26.051  1.00  0.00     0.261 C 
BRANCH  48  49
ATOM     49  O   UNL A   1      41.416  21.763  25.950  1.00  0.00    -0.460 OA
BRANCH  49  50
ATOM     50  C   UNL A   1      42.697  22.224  25.860  1.00  0.00     0.338 C 
ATOM     51  O   UNL A   1      43.168  22.543  24.771  1.00  0.00    -0.246 OA
BRANCH  50  52
ATOM     52  C   UNL A   1      43.482  22.473  27.111  1.00  0.00     0.060 A 
ATOM     53  C   UNL A   1      42.856  22.293  28.307  1.00  0.00     0.016 A 
ATOM     54  C   UNL A   1      44.789  22.965  27.195  1.00  0.00     0.016 A 
ATOM     55  C   UNL A   1      43.530  22.772  29.451  1.00  0.00     0.010 A 
ATOM     56  C   UNL A   1      45.248  23.714  28.361  1.00  0.00     0.010 A 
ATOM     57  C   UNL A   1      44.526  23.775  29.572  1.00  0.00    -0.014 A 
BRANCH  57  58
ATOM     58  C   UNL A   1      44.824  24.822  31.088  1.00  0.00     0.031 A 
ATOM     59  C   UNL A   1      43.824  24.430  33.065  1.00  0.00     0.074 A 
ATOM     60  C   UNL A   1      45.861  26.110  30.837  1.00  0.00     0.049 A 
ATOM     61  N   UNL A   1      43.580  25.279  34.167  1.00  0.00    -0.248 NA
ATOM     62  C   UNL A   1      43.058  23.144  33.831  1.00  0.00     0.031 C 
ATOM     63  C   UNL A   1      47.064  26.600  31.683  1.00  0.00     0.029 A 
ATOM     64  N   UNL A   1      46.084  27.201  29.858  1.00  0.00    -0.354 N 
ATOM     65  C   UNL A   1      43.930  24.572  35.271  1.00  0.00     0.074 A 
ATOM     66  C   UNL A   1      43.154  23.395  35.139  1.00  0.00     0.031 C 
ATOM     67  C   UNL A   1      47.509  27.839  31.331  1.00  0.00     0.029 A 
ATOM     68  C   UNL A   1      46.750  28.354  30.212  1.00  0.00     0.049 A 
ATOM     69  H   UNL A   1      45.751  27.100  28.937  1.00  0.00     0.167 HD
ATOM     70  C   UNL A   1      45.129  24.847  35.863  1.00  0.00     0.037 A 
ATOM     71  C   UNL A   1      46.426  29.655  29.859  1.00  0.00     0.037 A 
ATOM     72  C   UNL A   1      45.811  26.097  35.438  1.00  0.00     0.049 A 
ATOM     73  C   UNL A   1      46.044  30.279  31.185  1.00  0.00     0.074 A 
ATOM     74  C   UNL A   1      47.110  26.376  35.033  1.00  0.00     0.029 A 
ATOM     75  N   UNL A   1      45.103  27.288  35.248  1.00  0.00    -0.354 N 
ATOM     76  N   UNL A   1      45.702  29.520  32.195  1.00  0.00    -0.248 NA
ATOM     77  C   UNL A   1      46.110  31.693  31.544  1.00  0.00     0.031 C 
ATOM     78  C   UNL A   1      47.178  27.738  34.623  1.00  0.00     0.029 A 
ATOM     79  C   UNL A   1      45.916  28.300  34.732  1.00  0.00     0.049 A 
ATOM     80  H   UNL A   1      44.147  27.401  35.453  1.00  0.00     0.167 HD
ATOM     81  C   UNL A   1      45.640  30.260  33.326  1.00  0.00     0.074 A 
ATOM     82  C   UNL A   1      45.865  31.625  32.868  1.00  0.00     0.031 C 
ATOM     83  C   UNL A   1      45.427  29.674  34.540  1.00  0.00     0.037 A 
BRANCH  70  84
ATOM     84  C   UNL A   1      45.818  23.825  36.724  1.00  0.00     0.058 A 
ATOM     85  C   UNL A   1      45.856  24.035  38.111  1.00  0.00     0.135 A 
ATOM     86  C   UNL A   1      46.439  22.641  36.268  1.00  0.00     0.135 A 
ATOM     87  F   UNL A   1      45.427  25.180  38.658  1.00  0.00    -0.206 F 
ATOM     88  C   UNL A   1      46.327  23.075  38.990  1.00  0.00     0.059 A 
ATOM     89  C   UNL A   1      46.829  21.627  37.130  1.00  0.00     0.059 A 
ATOM     90  F   UNL A   1      46.742  22.432  34.980  1.00  0.00    -0.206 F 
ATOM     91  C   UNL A   1      46.740  21.847  38.493  1.00  0.00     0.060 A 
BRANCH  91  92
ATOM     92  S   UNL A   1      47.113  20.540  39.659  1.00  0.00     0.124 S 
ATOM     93  O   UNL A   1      46.887  19.350  38.845  1.00  0.00    -0.237 OA
ATOM     94  O   UNL A   1      48.501  20.831  40.000  1.00  0.00    -0.237 OA
ATOM     95  O   UNL A   1      46.147  20.760  40.732  1.00  0.00    -0.744 OA
ENDBRANCH  91  92
ENDBRANCH  70  84
BRANCH  71  96
ATOM     96  C   UNL A   1      45.803  30.046  28.501  1.00  0.00     0.058 A 
ATOM     97  C   UNL A   1      44.519  30.629  28.459  1.00  0.00     0.135 A 
ATOM     98  C   UNL A   1      46.525  30.186  27.304  1.00  0.00     0.135 A 
ATOM     99  F   UNL A   1      43.625  30.335  29.416  1.00  0.00    -0.206 F 
ATOM    100  C   UNL A   1      44.129  31.562  27.472  1.00  0.00     0.059 A 
ATOM    101  C   UNL A   1      46.230  31.225  26.385  1.00  0.00     0.059 A 
ATOM    102  F   UNL A   1      47.661  29.494  27.118  1.00  0.00    -0.206 F 
ATOM    103  C   UNL A   1      45.066  31.974  26.529  1.00  0.00     0.060 A 
BRANCH 103 104
ATOM    104  S   UNL A   1      44.925  33.614  25.713  1.00  0.00     0.124 S 
ATOM    105  O   UNL A   1      44.177  34.391  26.691  1.00  0.00    -0.237 OA
ATOM    106  O   UNL A   1      46.308  34.042  25.517  1.00  0.00    -0.237 OA
ATOM    107  O   UNL A   1      44.233  33.299  24.471  1.00  0.00    -0.744 OA
ENDBRANCH 103 104
ENDBRANCH  71  96
BRANCH  83 108
ATOM    108  C   UNL A   1      44.853  30.416  35.701  1.00  0.00     0.058 A 
ATOM    109  C   UNL A   1      45.599  31.280  36.520  1.00  0.00     0.135 A 
ATOM    110  C   UNL A   1      43.460  30.391  35.933  1.00  0.00     0.135 A 
ATOM    111  F   UNL A   1      46.898  31.529  36.304  1.00  0.00    -0.206 F 
ATOM    112  C   UNL A   1      45.023  31.959  37.580  1.00  0.00     0.059 A 
ATOM    113  C   UNL A   1      42.850  31.160  36.900  1.00  0.00     0.059 A 
ATOM    114  F   UNL A   1      42.622  29.622  35.224  1.00  0.00    -0.206 F 
ATOM    115  C   UNL A   1      43.646  31.893  37.757  1.00  0.00     0.060 A 
BRANCH 115 116
ATOM    116  S   UNL A   1      42.905  32.766  39.127  1.00  0.00     0.124 S 
ATOM    117  O   UNL A   1      41.682  31.992  39.324  1.00  0.00    -0.237 OA
ATOM    118  O   UNL A   1      43.920  32.628  40.166  1.00  0.00    -0.237 OA
ATOM    119  O   UNL A   1      42.722  34.118  38.610  1.00  0.00    -0.744 OA
ENDBRANCH 115 116
ENDBRANCH  83 108
ENDBRANCH  57  58
ENDBRANCH  50  52
ENDBRANCH  49  50
ENDBRANCH  48  49
ENDBRANCH  47  48
ENDBRANCH  46  47
ENDBRANCH  45  46
ENDBRANCH   1  45
TORSDOF 27
ENDMDL
