MODEL 1
REMARK VINA RESULT:     -10.3      0.000      0.000
REMARK SMILES COc1ccc(S(=O)(=O)Nc2c(C)cccc2C(=O)OCCOCCOCCOC(=O)c2ccc(-c3c4nc(c(-c5c(F)cc(S(=O)(=O)[O-])cc5F)c5ccc([nH]5)c(-c5c(F)cc(S(=O)(=O)[O-])cc5F)c5nc(c(-c6c(F)cc(S(=O)(=O)[O-])cc6F)c6ccc3[nH]6)C=C5)C=C4)cc2)cc1
REMARK SMILES IDX 24 1 23 2 22 3 21 4 20 5 18 6 19 7 17 8 11 9 12 10 13 11
REMARK SMILES IDX 14 12 16 13 15 14 10 15 7 17 8 18 9 19 6 20 3 21 4 22 99 23
REMARK SMILES IDX 5 24 98 25 2 26 1 27 25 28 26 29 27 30 28 31 29 32 30 33
REMARK SMILES IDX 31 34 32 35 33 36 97 37 34 38 96 39 35 40 36 41 37 42 90 43
REMARK SMILES IDX 38 44 95 45 89 46 91 47 39 48 94 49 88 50 87 51 40 53 74 54
REMARK SMILES IDX 53 55 73 56 54 57 57 58 72 59 92 60 55 61 56 62 71 64 93 65
REMARK SMILES IDX 58 66 41 67 42 68 51 69 43 70 44 71 50 72 52 73 45 74 46 75
REMARK SMILES IDX 47 76 48 77 49 78 75 79 76 80 85 81 77 82 78 83 84 84 86 85
REMARK SMILES IDX 79 86 80 87 81 88 82 89 83 90 59 91 60 92 69 93 61 94 62 95
REMARK SMILES IDX 68 96 70 97 63 98 64 99 65 100 66 101 67 102
REMARK H PARENT 10 16 91 52 57 63
REMARK Flexibility Score: inf
ROOT
ATOM      1  C   UNL A   1      29.800  27.942  23.551  1.00  0.00     0.188 C 
ENDROOT
BRANCH   1   2
ATOM      2  O   UNL A   1      30.504  26.994  22.787  1.00  0.00    -0.376 OA
BRANCH   2   3
ATOM      3  C   UNL A   1      31.517  27.381  21.885  1.00  0.00     0.202 C 
BRANCH   3   4
ATOM      4  C   UNL A   1      32.346  26.430  21.012  1.00  0.00     0.261 C 
BRANCH   4   5
ATOM      5  O   UNL A   1      33.522  25.836  21.564  1.00  0.00    -0.460 OA
BRANCH   5   6
ATOM      6  C   UNL A   1      33.319  24.671  22.237  1.00  0.00     0.340 C 
ATOM      7  O   UNL A   1      33.351  23.553  21.749  1.00  0.00    -0.246 OA
BRANCH   6   8
ATOM      8  C   UNL A   1      33.166  24.904  23.697  1.00  0.00     0.084 A 
ATOM      9  C   UNL A   1      32.497  24.023  24.577  1.00  0.00     0.066 A 
ATOM     10  C   UNL A   1      32.484  24.312  25.956  1.00  0.00    -0.026 A 
ATOM     11  C   UNL A   1      31.876  23.409  26.994  1.00  0.00     0.046 C 
ATOM     12  C   UNL A   1      33.092  25.499  26.416  1.00  0.00     0.005 A 
ATOM     13  C   UNL A   1      33.762  26.079  24.184  1.00  0.00     0.018 A 
ATOM     14  C   UNL A   1      33.710  26.382  25.538  1.00  0.00     0.001 A 
BRANCH   9  15
ATOM     15  N   UNL A   1      31.829  22.851  24.085  1.00  0.00    -0.278 N 
ATOM     16  H   UNL A   1      30.954  22.945  23.644  1.00  0.00     0.180 HD
BRANCH  15  17
ATOM     17  S   UNL A   1      32.513  21.312  24.246  1.00  0.00     0.261 S 
ATOM     18  O   UNL A   1      32.496  20.744  22.913  1.00  0.00    -0.201 OA
ATOM     19  O   UNL A   1      31.897  20.622  25.358  1.00  0.00    -0.201 OA
BRANCH  17  20
ATOM     20  C   UNL A   1      34.213  21.607  24.680  1.00  0.00     0.088 A 
ATOM     21  C   UNL A   1      36.765  22.406  25.474  1.00  0.00     0.118 A 
ATOM     22  C   UNL A   1      36.403  22.442  24.123  1.00  0.00     0.048 A 
ATOM     23  C   UNL A   1      35.874  21.883  26.412  1.00  0.00     0.048 A 
ATOM     24  C   UNL A   1      35.126  22.043  23.718  1.00  0.00     0.026 A 
ATOM     25  C   UNL A   1      34.607  21.455  26.013  1.00  0.00     0.026 A 
BRANCH  21  26
ATOM     26  O   UNL A   1      38.007  22.907  25.755  1.00  0.00    -0.497 OA
ATOM     27  C   UNL A   1      39.002  21.951  26.116  1.00  0.00     0.278 C 
ENDBRANCH  21  26
ENDBRANCH  17  20
ENDBRANCH  15  17
ENDBRANCH   9  15
ENDBRANCH   6   8
ENDBRANCH   5   6
ENDBRANCH   4   5
ENDBRANCH   3   4
ENDBRANCH   2   3
ENDBRANCH   1   2
BRANCH   1  28
ATOM     28  C   UNL A   1      30.663  29.089  24.121  1.00  0.00     0.188 C 
BRANCH  28  29
ATOM     29  O   UNL A   1      31.396  28.897  25.323  1.00  0.00    -0.376 OA
BRANCH  29  30
ATOM     30  C   UNL A   1      31.939  30.040  25.971  1.00  0.00     0.202 C 
BRANCH  30  31
ATOM     31  C   UNL A   1      33.437  30.088  26.323  1.00  0.00     0.261 C 
BRANCH  31  32
ATOM     32  O   UNL A   1      33.754  29.906  27.716  1.00  0.00    -0.460 OA
BRANCH  32  33
ATOM     33  C   UNL A   1      34.623  30.802  28.253  1.00  0.00     0.338 C 
ATOM     34  O   UNL A   1      34.348  31.885  28.742  1.00  0.00    -0.246 OA
BRANCH  33  35
ATOM     35  C   UNL A   1      35.962  30.179  28.382  1.00  0.00     0.060 A 
ATOM     36  C   UNL A   1      36.312  29.591  29.609  1.00  0.00     0.016 A 
ATOM     37  C   UNL A   1      36.865  30.166  27.318  1.00  0.00     0.016 A 
ATOM     38  C   UNL A   1      37.563  28.996  29.779  1.00  0.00     0.010 A 
ATOM     39  C   UNL A   1      38.133  29.602  27.502  1.00  0.00     0.010 A 
ATOM     40  C   UNL A   1      38.498  29.034  28.738  1.00  0.00    -0.014 A 
BRANCH  40  41
ATOM     41  C   UNL A   1      39.915  28.669  28.990  1.00  0.00     0.031 A 
ATOM     42  C   UNL A   1      40.837  29.731  29.524  1.00  0.00     0.074 A 
ATOM     43  C   UNL A   1      40.386  27.432  28.740  1.00  0.00     0.049 A 
ATOM     44  N   UNL A   1      42.131  29.695  29.705  1.00  0.00    -0.248 NA
ATOM     45  C   UNL A   1      40.211  31.009  29.901  1.00  0.00     0.031 C 
ATOM     46  C   UNL A   1      39.589  26.300  28.276  1.00  0.00     0.029 A 
ATOM     47  N   UNL A   1      41.665  26.936  28.822  1.00  0.00    -0.354 N 
ATOM     48  C   UNL A   1      42.478  30.946  30.200  1.00  0.00     0.074 A 
ATOM     49  C   UNL A   1      41.259  31.723  30.278  1.00  0.00     0.031 C 
ATOM     50  C   UNL A   1      40.404  25.246  28.084  1.00  0.00     0.029 A 
ATOM     51  C   UNL A   1      41.783  25.641  28.372  1.00  0.00     0.049 A 
ATOM     52  H   UNL A   1      42.425  27.457  29.169  1.00  0.00     0.167 HD
ATOM     53  C   UNL A   1      43.700  31.408  30.555  1.00  0.00     0.037 A 
ATOM     54  C   UNL A   1      42.880  24.881  28.178  1.00  0.00     0.037 A 
ATOM     55  C   UNL A   1      44.911  30.636  30.469  1.00  0.00     0.049 A 
ATOM     56  C   UNL A   1      44.244  25.445  28.494  1.00  0.00     0.074 A 
ATOM     57  C   UNL A   1      46.195  31.011  30.822  1.00  0.00     0.029 A 
ATOM     58  N   UNL A   1      44.992  29.341  29.982  1.00  0.00    -0.354 N 
ATOM     59  N   UNL A   1      44.558  26.623  28.980  1.00  0.00    -0.248 NA
ATOM     60  C   UNL A   1      45.404  24.580  28.229  1.00  0.00     0.031 C 
ATOM     61  C   UNL A   1      47.060  29.962  30.499  1.00  0.00     0.029 A 
ATOM     62  C   UNL A   1      46.308  28.912  29.996  1.00  0.00     0.049 A 
ATOM     63  H   UNL A   1      44.227  28.804  29.672  1.00  0.00     0.167 HD
ATOM     64  C   UNL A   1      45.946  26.630  29.101  1.00  0.00     0.074 A 
ATOM     65  C   UNL A   1      46.411  25.336  28.647  1.00  0.00     0.031 C 
ATOM     66  C   UNL A   1      46.761  27.618  29.549  1.00  0.00     0.037 A 
BRANCH  53  67
ATOM     67  C   UNL A   1      43.791  32.829  31.035  1.00  0.00     0.058 A 
ATOM     68  C   UNL A   1      44.176  33.875  30.180  1.00  0.00     0.135 A 
ATOM     69  C   UNL A   1      43.463  33.152  32.361  1.00  0.00     0.135 A 
ATOM     70  F   UNL A   1      44.519  33.618  28.908  1.00  0.00    -0.206 F 
ATOM     71  C   UNL A   1      44.255  35.188  30.633  1.00  0.00     0.059 A 
ATOM     72  C   UNL A   1      43.510  34.461  32.828  1.00  0.00     0.059 A 
ATOM     73  F   UNL A   1      43.095  32.188  33.220  1.00  0.00    -0.206 F 
ATOM     74  C   UNL A   1      43.921  35.471  31.959  1.00  0.00     0.060 A 
BRANCH  74  75
ATOM     75  S   UNL A   1      44.028  37.181  32.527  1.00  0.00     0.124 S 
ATOM     76  O   UNL A   1      43.006  37.205  33.569  1.00  0.00    -0.237 OA
ATOM     77  O   UNL A   1      45.408  37.270  32.991  1.00  0.00    -0.237 OA
ATOM     78  O   UNL A   1      43.720  37.957  31.329  1.00  0.00    -0.744 OA
ENDBRANCH  74  75
ENDBRANCH  53  67
BRANCH  54  79
ATOM     79  C   UNL A   1      42.746  23.506  27.623  1.00  0.00     0.058 A 
ATOM     80  C   UNL A   1      42.503  22.406  28.460  1.00  0.00     0.135 A 
ATOM     81  C   UNL A   1      42.868  23.262  26.246  1.00  0.00     0.135 A 
ATOM     82  F   UNL A   1      42.397  22.583  29.785  1.00  0.00    -0.206 F 
ATOM     83  C   UNL A   1      42.392  21.115  27.954  1.00  0.00     0.059 A 
ATOM     84  C   UNL A   1      42.734  21.984  25.712  1.00  0.00     0.059 A 
ATOM     85  F   UNL A   1      43.099  24.279  25.401  1.00  0.00    -0.206 F 
ATOM     86  C   UNL A   1      42.503  20.915  26.576  1.00  0.00     0.060 A 
BRANCH  86  87
ATOM     87  S   UNL A   1      42.293  19.243  25.926  1.00  0.00     0.124 S 
ATOM     88  O   UNL A   1      42.823  18.433  27.017  1.00  0.00    -0.237 OA
ATOM     89  O   UNL A   1      40.849  19.175  25.723  1.00  0.00    -0.237 OA
ATOM     90  O   UNL A   1      43.089  19.256  24.703  1.00  0.00    -0.744 OA
ENDBRANCH  86  87
ENDBRANCH  54  79
BRANCH  66  91
ATOM     91  C   UNL A   1      48.239  27.342  29.607  1.00  0.00     0.058 A 
ATOM     92  C   UNL A   1      49.083  27.607  28.518  1.00  0.00     0.135 A 
ATOM     93  C   UNL A   1      48.831  26.886  30.797  1.00  0.00     0.135 A 
ATOM     94  F   UNL A   1      48.570  28.038  27.354  1.00  0.00    -0.206 F 
ATOM     95  C   UNL A   1      50.460  27.421  28.603  1.00  0.00     0.059 A 
ATOM     96  C   UNL A   1      50.208  26.719  30.914  1.00  0.00     0.059 A 
ATOM     97  F   UNL A   1      48.071  26.627  31.873  1.00  0.00    -0.206 F 
ATOM     98  C   UNL A   1      51.014  26.983  29.808  1.00  0.00     0.060 A 
BRANCH  98  99
ATOM     99  S   UNL A   1      52.807  26.802  29.923  1.00  0.00     0.124 S 
ATOM    100  O   UNL A   1      53.214  28.144  30.326  1.00  0.00    -0.237 OA
ATOM    101  O   UNL A   1      52.952  25.763  30.939  1.00  0.00    -0.237 OA
ATOM    102  O   UNL A   1      53.196  26.406  28.572  1.00  0.00    -0.744 OA
ENDBRANCH  98  99
ENDBRANCH  66  91
ENDBRANCH  40  41
ENDBRANCH  33  35
ENDBRANCH  32  33
ENDBRANCH  31  32
ENDBRANCH  30  31
ENDBRANCH  29  30
ENDBRANCH  28  29
ENDBRANCH   1  28
TORSDOF 24
ENDMDL
MODEL 2
REMARK VINA RESULT:     -10.2      2.579      8.602
REMARK SMILES COc1ccc(S(=O)(=O)Nc2c(C)cccc2C(=O)OCCOCCOCCOC(=O)c2ccc(-c3c4nc(c(-c5c(F)cc(S(=O)(=O)[O-])cc5F)c5ccc([nH]5)c(-c5c(F)cc(S(=O)(=O)[O-])cc5F)c5nc(c(-c6c(F)cc(S(=O)(=O)[O-])cc6F)c6ccc3[nH]6)C=C5)C=C4)cc2)cc1
REMARK SMILES IDX 24 1 23 2 22 3 21 4 20 5 18 6 19 7 17 8 11 9 12 10 13 11
REMARK SMILES IDX 14 12 16 13 15 14 10 15 7 17 8 18 9 19 6 20 3 21 4 22 99 23
REMARK SMILES IDX 5 24 98 25 2 26 1 27 25 28 26 29 27 30 28 31 29 32 30 33
REMARK SMILES IDX 31 34 32 35 33 36 97 37 34 38 96 39 35 40 36 41 37 42 90 43
REMARK SMILES IDX 38 44 95 45 89 46 91 47 39 48 94 49 88 50 87 51 40 53 74 54
REMARK SMILES IDX 53 55 73 56 54 57 57 58 72 59 92 60 55 61 56 62 71 64 93 65
REMARK SMILES IDX 58 66 41 67 42 68 51 69 43 70 44 71 50 72 52 73 45 74 46 75
REMARK SMILES IDX 47 76 48 77 49 78 75 79 76 80 85 81 77 82 78 83 84 84 86 85
REMARK SMILES IDX 79 86 80 87 81 88 82 89 83 90 59 91 60 92 69 93 61 94 62 95
REMARK SMILES IDX 68 96 70 97 63 98 64 99 65 100 66 101 67 102
REMARK H PARENT 10 16 91 52 57 63
REMARK Flexibility Score: inf
ROOT
ATOM      1  C   UNL A   1      34.295  30.479  27.204  1.00  0.00     0.188 C 
ENDROOT
BRANCH   1   2
ATOM      2  O   UNL A   1      33.092  30.218  26.525  1.00  0.00    -0.376 OA
BRANCH   2   3
ATOM      3  C   UNL A   1      33.070  29.479  25.323  1.00  0.00     0.202 C 
BRANCH   3   4
ATOM      4  C   UNL A   1      32.241  28.214  25.068  1.00  0.00     0.261 C 
BRANCH   4   5
ATOM      5  O   UNL A   1      32.921  26.989  24.791  1.00  0.00    -0.460 OA
BRANCH   5   6
ATOM      6  C   UNL A   1      32.126  25.975  24.352  1.00  0.00     0.340 C 
ATOM      7  O   UNL A   1      31.633  25.888  23.239  1.00  0.00    -0.246 OA
BRANCH   6   8
ATOM      8  C   UNL A   1      32.014  24.892  25.364  1.00  0.00     0.084 A 
ATOM      9  C   UNL A   1      33.116  24.196  25.910  1.00  0.00     0.066 A 
ATOM     10  C   UNL A   1      32.891  23.241  26.921  1.00  0.00    -0.026 A 
ATOM     11  C   UNL A   1      33.991  22.499  27.631  1.00  0.00     0.046 C 
ATOM     12  C   UNL A   1      31.568  22.966  27.325  1.00  0.00     0.005 A 
ATOM     13  C   UNL A   1      30.707  24.597  25.786  1.00  0.00     0.018 A 
ATOM     14  C   UNL A   1      30.485  23.625  26.753  1.00  0.00     0.001 A 
BRANCH   9  15
ATOM     15  N   UNL A   1      34.453  24.442  25.442  1.00  0.00    -0.278 N 
ATOM     16  H   UNL A   1      35.022  25.080  25.929  1.00  0.00     0.180 HD
BRANCH  15  17
ATOM     17  S   UNL A   1      35.067  23.657  24.075  1.00  0.00     0.261 S 
ATOM     18  O   UNL A   1      36.469  23.429  24.362  1.00  0.00    -0.201 OA
ATOM     19  O   UNL A   1      34.656  24.369  22.884  1.00  0.00    -0.201 OA
BRANCH  17  20
ATOM     20  C   UNL A   1      34.261  22.072  24.052  1.00  0.00     0.088 A 
ATOM     21  C   UNL A   1      32.794  19.712  24.304  1.00  0.00     0.118 A 
ATOM     22  C   UNL A   1      34.090  19.797  24.825  1.00  0.00     0.048 A 
ATOM     23  C   UNL A   1      32.273  20.783  23.577  1.00  0.00     0.048 A 
ATOM     24  C   UNL A   1      34.830  20.976  24.703  1.00  0.00     0.026 A 
ATOM     25  C   UNL A   1      33.016  21.955  23.425  1.00  0.00     0.026 A 
BRANCH  21  26
ATOM     26  O   UNL A   1      32.138  18.540  24.566  1.00  0.00    -0.497 OA
ATOM     27  C   UNL A   1      32.918  17.504  25.162  1.00  0.00     0.278 C 
ENDBRANCH  21  26
ENDBRANCH  17  20
ENDBRANCH  15  17
ENDBRANCH   9  15
ENDBRANCH   6   8
ENDBRANCH   5   6
ENDBRANCH   4   5
ENDBRANCH   3   4
ENDBRANCH   2   3
ENDBRANCH   1   2
BRANCH   1  28
ATOM     28  C   UNL A   1      34.337  31.825  27.961  1.00  0.00     0.188 C 
BRANCH  28  29
ATOM     29  O   UNL A   1      35.353  32.774  27.668  1.00  0.00    -0.376 OA
BRANCH  29  30
ATOM     30  C   UNL A   1      35.704  33.717  28.670  1.00  0.00     0.202 C 
BRANCH  30  31
ATOM     31  C   UNL A   1      35.696  33.305  30.154  1.00  0.00     0.261 C 
BRANCH  31  32
ATOM     32  O   UNL A   1      36.951  32.829  30.674  1.00  0.00    -0.460 OA
BRANCH  32  33
ATOM     33  C   UNL A   1      36.997  31.514  31.013  1.00  0.00     0.338 C 
ATOM     34  O   UNL A   1      36.107  30.862  31.534  1.00  0.00    -0.246 OA
BRANCH  33  35
ATOM     35  C   UNL A   1      38.218  30.896  30.444  1.00  0.00     0.060 A 
ATOM     36  C   UNL A   1      39.297  30.630  31.303  1.00  0.00     0.016 A 
ATOM     37  C   UNL A   1      38.308  30.577  29.089  1.00  0.00     0.016 A 
ATOM     38  C   UNL A   1      40.469  30.052  30.812  1.00  0.00     0.010 A 
ATOM     39  C   UNL A   1      39.498  30.031  28.591  1.00  0.00     0.010 A 
ATOM     40  C   UNL A   1      40.592  29.786  29.444  1.00  0.00    -0.014 A 
BRANCH  40  41
ATOM     41  C   UNL A   1      41.915  29.445  28.863  1.00  0.00     0.031 A 
ATOM     42  C   UNL A   1      42.156  28.024  28.433  1.00  0.00     0.074 A 
ATOM     43  C   UNL A   1      42.891  30.363  28.729  1.00  0.00     0.049 A 
ATOM     44  N   UNL A   1      43.258  27.455  28.019  1.00  0.00    -0.248 NA
ATOM     45  C   UNL A   1      40.994  27.121  28.484  1.00  0.00     0.031 C 
ATOM     46  C   UNL A   1      42.769  31.782  29.052  1.00  0.00     0.029 A 
ATOM     47  N   UNL A   1      44.191  30.223  28.305  1.00  0.00    -0.354 N 
ATOM     48  C   UNL A   1      42.929  26.128  27.776  1.00  0.00     0.074 A 
ATOM     49  C   UNL A   1      41.527  25.972  28.101  1.00  0.00     0.031 C 
ATOM     50  C   UNL A   1      43.958  32.378  28.843  1.00  0.00     0.029 A 
ATOM     51  C   UNL A   1      44.933  31.376  28.412  1.00  0.00     0.049 A 
ATOM     52  H   UNL A   1      44.556  29.377  27.958  1.00  0.00     0.167 HD
ATOM     53  C   UNL A   1      43.721  25.127  27.324  1.00  0.00     0.037 A 
ATOM     54  C   UNL A   1      46.252  31.586  28.223  1.00  0.00     0.037 A 
ATOM     55  C   UNL A   1      45.117  25.282  27.009  1.00  0.00     0.049 A 
ATOM     56  C   UNL A   1      47.139  30.437  27.806  1.00  0.00     0.074 A 
ATOM     57  C   UNL A   1      45.999  24.332  26.527  1.00  0.00     0.029 A 
ATOM     58  N   UNL A   1      45.836  26.458  27.158  1.00  0.00    -0.354 N 
ATOM     59  N   UNL A   1      46.813  29.190  27.560  1.00  0.00    -0.248 NA
ATOM     60  C   UNL A   1      48.573  30.721  27.650  1.00  0.00     0.031 C 
ATOM     61  C   UNL A   1      47.265  24.918  26.436  1.00  0.00     0.029 A 
ATOM     62  C   UNL A   1      47.160  26.249  26.807  1.00  0.00     0.049 A 
ATOM     63  H   UNL A   1      45.463  27.315  27.467  1.00  0.00     0.167 HD
ATOM     64  C   UNL A   1      47.995  28.550  27.196  1.00  0.00     0.074 A 
ATOM     65  C   UNL A   1      49.043  29.548  27.245  1.00  0.00     0.031 C 
ATOM     66  C   UNL A   1      48.194  27.253  26.852  1.00  0.00     0.037 A 
BRANCH  53  67
ATOM     67  C   UNL A   1      43.104  23.765  27.180  1.00  0.00     0.058 A 
ATOM     68  C   UNL A   1      43.002  22.881  28.266  1.00  0.00     0.135 A 
ATOM     69  C   UNL A   1      42.584  23.350  25.944  1.00  0.00     0.135 A 
ATOM     70  F   UNL A   1      43.501  23.220  29.465  1.00  0.00    -0.206 F 
ATOM     71  C   UNL A   1      42.426  21.622  28.124  1.00  0.00     0.059 A 
ATOM     72  C   UNL A   1      41.981  22.106  25.785  1.00  0.00     0.059 A 
ATOM     73  F   UNL A   1      42.662  24.155  24.872  1.00  0.00    -0.206 F 
ATOM     74  C   UNL A   1      41.919  21.244  26.879  1.00  0.00     0.060 A 
BRANCH  74  75
ATOM     75  S   UNL A   1      41.174  19.608  26.714  1.00  0.00     0.124 S 
ATOM     76  O   UNL A   1      40.064  19.885  25.808  1.00  0.00    -0.237 OA
ATOM     77  O   UNL A   1      42.268  18.822  26.155  1.00  0.00    -0.237 OA
ATOM     78  O   UNL A   1      40.796  19.267  28.083  1.00  0.00    -0.744 OA
ENDBRANCH  74  75
ENDBRANCH  53  67
BRANCH  54  79
ATOM     79  C   UNL A   1      46.833  32.937  28.457  1.00  0.00     0.058 A 
ATOM     80  C   UNL A   1      46.926  33.876  27.420  1.00  0.00     0.135 A 
ATOM     81  C   UNL A   1      47.316  33.311  29.721  1.00  0.00     0.135 A 
ATOM     82  F   UNL A   1      46.496  33.561  26.189  1.00  0.00    -0.206 F 
ATOM     83  C   UNL A   1      47.483  35.135  27.623  1.00  0.00     0.059 A 
ATOM     84  C   UNL A   1      47.853  34.574  29.957  1.00  0.00     0.059 A 
ATOM     85  F   UNL A   1      47.250  32.450  30.749  1.00  0.00    -0.206 F 
ATOM     86  C   UNL A   1      47.937  35.477  28.899  1.00  0.00     0.060 A 
BRANCH  86  87
ATOM     87  S   UNL A   1      48.598  37.137  29.165  1.00  0.00     0.124 S 
ATOM     88  O   UNL A   1      47.458  37.814  29.772  1.00  0.00    -0.237 OA
ATOM     89  O   UNL A   1      49.730  36.875  30.048  1.00  0.00    -0.237 OA
ATOM     90  O   UNL A   1      48.952  37.577  27.819  1.00  0.00    -0.744 OA
ENDBRANCH  86  87
ENDBRANCH  54  79
BRANCH  66  91
ATOM     91  C   UNL A   1      49.586  26.831  26.466  1.00  0.00     0.058 A 
ATOM     92  C   UNL A   1      50.481  26.291  27.403  1.00  0.00     0.135 A 
ATOM     93  C   UNL A   1      50.000  26.888  25.125  1.00  0.00     0.135 A 
ATOM     94  F   UNL A   1      50.140  26.219  28.700  1.00  0.00    -0.206 F 
ATOM     95  C   UNL A   1      51.740  25.833  27.026  1.00  0.00     0.059 A 
ATOM     96  C   UNL A   1      51.244  26.410  24.720  1.00  0.00     0.059 A 
ATOM     97  F   UNL A   1      49.180  27.385  24.185  1.00  0.00    -0.206 F 
ATOM     98  C   UNL A   1      52.110  25.890  25.680  1.00  0.00     0.060 A 
BRANCH  98  99
ATOM     99  S   UNL A   1      53.723  25.239  25.196  1.00  0.00     0.124 S 
ATOM    100  O   UNL A   1      53.796  25.646  23.796  1.00  0.00    -0.237 OA
ATOM    101  O   UNL A   1      54.627  25.936  26.107  1.00  0.00    -0.237 OA
ATOM    102  O   UNL A   1      53.595  23.804  25.427  1.00  0.00    -0.744 OA
ENDBRANCH  98  99
ENDBRANCH  66  91
ENDBRANCH  40  41
ENDBRANCH  33  35
ENDBRANCH  32  33
ENDBRANCH  31  32
ENDBRANCH  30  31
ENDBRANCH  29  30
ENDBRANCH  28  29
ENDBRANCH   1  28
TORSDOF 24
ENDMDL
MODEL 3
REMARK VINA RESULT:     -10.2      5.011     10.712
REMARK SMILES COc1ccc(S(=O)(=O)Nc2c(C)cccc2C(=O)OCCOCCOCCOC(=O)c2ccc(-c3c4nc(c(-c5c(F)cc(S(=O)(=O)[O-])cc5F)c5ccc([nH]5)c(-c5c(F)cc(S(=O)(=O)[O-])cc5F)c5nc(c(-c6c(F)cc(S(=O)(=O)[O-])cc6F)c6ccc3[nH]6)C=C5)C=C4)cc2)cc1
REMARK SMILES IDX 24 1 23 2 22 3 21 4 20 5 18 6 19 7 17 8 11 9 12 10 13 11
REMARK SMILES IDX 14 12 16 13 15 14 10 15 7 17 8 18 9 19 6 20 3 21 4 22 99 23
REMARK SMILES IDX 5 24 98 25 2 26 1 27 25 28 26 29 27 30 28 31 29 32 30 33
REMARK SMILES IDX 31 34 32 35 33 36 97 37 34 38 96 39 35 40 36 41 37 42 90 43
REMARK SMILES IDX 38 44 95 45 89 46 91 47 39 48 94 49 88 50 87 51 40 53 74 54
REMARK SMILES IDX 53 55 73 56 54 57 57 58 72 59 92 60 55 61 56 62 71 64 93 65
REMARK SMILES IDX 58 66 41 67 42 68 51 69 43 70 44 71 50 72 52 73 45 74 46 75
REMARK SMILES IDX 47 76 48 77 49 78 75 79 76 80 85 81 77 82 78 83 84 84 86 85
REMARK SMILES IDX 79 86 80 87 81 88 82 89 83 90 59 91 60 92 69 93 61 94 62 95
REMARK SMILES IDX 68 96 70 97 63 98 64 99 65 100 66 101 67 102
REMARK H PARENT 10 16 91 52 57 63
REMARK Flexibility Score: inf
ROOT
ATOM      1  C   UNL A   1      33.985  22.844  25.138  1.00  0.00     0.188 C 
ENDROOT
BRANCH   1   2
ATOM      2  O   UNL A   1      32.833  22.039  25.160  1.00  0.00    -0.376 OA
BRANCH   2   3
ATOM      3  C   UNL A   1      31.555  22.588  25.396  1.00  0.00     0.202 C 
BRANCH   3   4
ATOM      4  C   UNL A   1      31.129  23.344  26.661  1.00  0.00     0.261 C 
BRANCH   4   5
ATOM      5  O   UNL A   1      31.621  24.668  26.872  1.00  0.00    -0.460 OA
BRANCH   5   6
ATOM      6  C   UNL A   1      30.852  25.660  26.345  1.00  0.00     0.340 C 
ATOM      7  O   UNL A   1      29.649  25.597  26.144  1.00  0.00    -0.246 OA
BRANCH   6   8
ATOM      8  C   UNL A   1      31.634  26.907  26.143  1.00  0.00     0.084 A 
ATOM      9  C   UNL A   1      32.511  27.130  25.057  1.00  0.00     0.066 A 
ATOM     10  C   UNL A   1      33.139  28.384  24.929  1.00  0.00    -0.026 A 
ATOM     11  C   UNL A   1      34.026  28.762  23.774  1.00  0.00     0.046 C 
ATOM     12  C   UNL A   1      32.919  29.367  25.916  1.00  0.00     0.005 A 
ATOM     13  C   UNL A   1      31.434  27.905  27.111  1.00  0.00     0.018 A 
ATOM     14  C   UNL A   1      32.088  29.126  27.005  1.00  0.00     0.001 A 
BRANCH   9  15
ATOM     15  N   UNL A   1      32.774  26.096  24.094  1.00  0.00    -0.278 N 
ATOM     16  H   UNL A   1      33.523  25.476  24.247  1.00  0.00     0.180 HD
BRANCH  15  17
ATOM     17  S   UNL A   1      31.825  25.922  22.705  1.00  0.00     0.261 S 
ATOM     18  O   UNL A   1      31.047  24.718  22.921  1.00  0.00    -0.201 OA
ATOM     19  O   UNL A   1      32.655  26.072  21.530  1.00  0.00    -0.201 OA
BRANCH  17  20
ATOM     20  C   UNL A   1      30.698  27.299  22.741  1.00  0.00     0.088 A 
ATOM     21  C   UNL A   1      29.119  29.570  23.101  1.00  0.00     0.118 A 
ATOM     22  C   UNL A   1      28.657  28.315  23.515  1.00  0.00     0.048 A 
ATOM     23  C   UNL A   1      30.336  29.666  22.425  1.00  0.00     0.048 A 
ATOM     24  C   UNL A   1      29.443  27.173  23.338  1.00  0.00     0.026 A 
ATOM     25  C   UNL A   1      31.115  28.527  22.218  1.00  0.00     0.026 A 
BRANCH  21  26
ATOM     26  O   UNL A   1      28.301  30.621  23.411  1.00  0.00    -0.497 OA
ATOM     27  C   UNL A   1      28.490  31.810  22.646  1.00  0.00     0.278 C 
ENDBRANCH  21  26
ENDBRANCH  17  20
ENDBRANCH  15  17
ENDBRANCH   9  15
ENDBRANCH   6   8
ENDBRANCH   5   6
ENDBRANCH   4   5
ENDBRANCH   3   4
ENDBRANCH   2   3
ENDBRANCH   1   2
BRANCH   1  28
ATOM     28  C   UNL A   1      34.815  22.831  26.442  1.00  0.00     0.188 C 
BRANCH  28  29
ATOM     29  O   UNL A   1      36.124  23.383  26.458  1.00  0.00    -0.376 OA
BRANCH  29  30
ATOM     30  C   UNL A   1      37.161  22.675  25.793  1.00  0.00     0.202 C 
BRANCH  30  31
ATOM     31  C   UNL A   1      38.629  23.102  25.980  1.00  0.00     0.261 C 
BRANCH  31  32
ATOM     32  O   UNL A   1      38.828  24.425  26.511  1.00  0.00    -0.460 OA
BRANCH  32  33
ATOM     33  C   UNL A   1      40.118  24.843  26.606  1.00  0.00     0.338 C 
ATOM     34  O   UNL A   1      41.009  24.653  25.795  1.00  0.00    -0.246 OA
BRANCH  33  35
ATOM     35  C   UNL A   1      40.253  25.784  27.743  1.00  0.00     0.060 A 
ATOM     36  C   UNL A   1      39.280  25.753  28.757  1.00  0.00     0.016 A 
ATOM     37  C   UNL A   1      41.317  26.683  27.822  1.00  0.00     0.016 A 
ATOM     38  C   UNL A   1      39.364  26.623  29.846  1.00  0.00     0.010 A 
ATOM     39  C   UNL A   1      41.378  27.580  28.896  1.00  0.00     0.010 A 
ATOM     40  C   UNL A   1      40.392  27.571  29.901  1.00  0.00    -0.014 A 
BRANCH  40  41
ATOM     41  C   UNL A   1      40.337  28.680  30.887  1.00  0.00     0.031 A 
ATOM     42  C   UNL A   1      41.239  28.606  32.088  1.00  0.00     0.074 A 
ATOM     43  C   UNL A   1      39.499  29.723  30.737  1.00  0.00     0.049 A 
ATOM     44  N   UNL A   1      41.286  29.378  33.142  1.00  0.00    -0.248 NA
ATOM     45  C   UNL A   1      42.219  27.508  32.102  1.00  0.00     0.031 C 
ATOM     46  C   UNL A   1      38.616  29.944  29.595  1.00  0.00     0.029 A 
ATOM     47  N   UNL A   1      39.242  30.783  31.573  1.00  0.00    -0.354 N 
ATOM     48  C   UNL A   1      42.285  28.852  33.951  1.00  0.00     0.074 A 
ATOM     49  C   UNL A   1      42.810  27.686  33.272  1.00  0.00     0.031 C 
ATOM     50  C   UNL A   1      37.890  31.056  29.816  1.00  0.00     0.029 A 
ATOM     51  C   UNL A   1      38.228  31.601  31.131  1.00  0.00     0.049 A 
ATOM     52  H   UNL A   1      39.738  30.943  32.409  1.00  0.00     0.167 HD
ATOM     53  C   UNL A   1      42.725  29.297  35.152  1.00  0.00     0.037 A 
ATOM     54  C   UNL A   1      37.618  32.640  31.737  1.00  0.00     0.037 A 
ATOM     55  C   UNL A   1      42.196  30.451  35.829  1.00  0.00     0.049 A 
ATOM     56  C   UNL A   1      38.061  33.066  33.115  1.00  0.00     0.074 A 
ATOM     57  C   UNL A   1      42.589  30.990  37.041  1.00  0.00     0.029 A 
ATOM     58  N   UNL A   1      41.151  31.233  35.362  1.00  0.00    -0.354 N 
ATOM     59  N   UNL A   1      39.021  32.573  33.863  1.00  0.00    -0.248 NA
ATOM     60  C   UNL A   1      37.335  34.184  33.737  1.00  0.00     0.031 C 
ATOM     61  C   UNL A   1      41.746  32.067  37.332  1.00  0.00     0.029 A 
ATOM     62  C   UNL A   1      40.864  32.233  36.276  1.00  0.00     0.049 A 
ATOM     63  H   UNL A   1      40.682  31.098  34.507  1.00  0.00     0.167 HD
ATOM     64  C   UNL A   1      39.028  33.335  35.029  1.00  0.00     0.074 A 
ATOM     65  C   UNL A   1      37.985  34.328  34.885  1.00  0.00     0.031 C 
ATOM     66  C   UNL A   1      39.828  33.223  36.119  1.00  0.00     0.037 A 
BRANCH  53  67
ATOM     67  C   UNL A   1      43.810  28.507  35.829  1.00  0.00     0.058 A 
ATOM     68  C   UNL A   1      43.521  27.408  36.653  1.00  0.00     0.135 A 
ATOM     69  C   UNL A   1      45.159  28.839  35.626  1.00  0.00     0.135 A 
ATOM     70  F   UNL A   1      42.247  27.061  36.895  1.00  0.00    -0.206 F 
ATOM     71  C   UNL A   1      44.532  26.682  37.273  1.00  0.00     0.059 A 
ATOM     72  C   UNL A   1      46.187  28.111  36.215  1.00  0.00     0.059 A 
ATOM     73  F   UNL A   1      45.489  29.885  34.852  1.00  0.00    -0.206 F 
ATOM     74  C   UNL A   1      45.862  27.041  37.048  1.00  0.00     0.060 A 
BRANCH  74  75
ATOM     75  S   UNL A   1      47.161  26.086  37.859  1.00  0.00     0.124 S 
ATOM     76  O   UNL A   1      47.897  27.132  38.562  1.00  0.00    -0.237 OA
ATOM     77  O   UNL A   1      46.397  25.173  38.703  1.00  0.00    -0.237 OA
ATOM     78  O   UNL A   1      47.870  25.461  36.746  1.00  0.00    -0.744 OA
ENDBRANCH  74  75
ENDBRANCH  53  67
BRANCH  54  79
ATOM     79  C   UNL A   1      36.492  33.341  31.060  1.00  0.00     0.058 A 
ATOM     80  C   UNL A   1      35.169  33.176  31.495  1.00  0.00     0.135 A 
ATOM     81  C   UNL A   1      36.716  34.181  29.957  1.00  0.00     0.135 A 
ATOM     82  F   UNL A   1      34.900  32.369  32.532  1.00  0.00    -0.206 F 
ATOM     83  C   UNL A   1      34.107  33.811  30.859  1.00  0.00     0.059 A 
ATOM     84  C   UNL A   1      35.674  34.850  29.321  1.00  0.00     0.059 A 
ATOM     85  F   UNL A   1      37.963  34.375  29.501  1.00  0.00    -0.206 F 
ATOM     86  C   UNL A   1      34.371  34.653  29.776  1.00  0.00     0.060 A 
BRANCH  86  87
ATOM     87  S   UNL A   1      32.991  35.523  29.001  1.00  0.00     0.124 S 
ATOM     88  O   UNL A   1      32.160  35.846  30.155  1.00  0.00    -0.237 OA
ATOM     89  O   UNL A   1      33.663  36.650  28.362  1.00  0.00    -0.237 OA
ATOM     90  O   UNL A   1      32.441  34.530  28.083  1.00  0.00    -0.744 OA
ENDBRANCH  86  87
ENDBRANCH  54  79
BRANCH  66  91
ATOM     91  C   UNL A   1      39.640  34.212  37.237  1.00  0.00     0.058 A 
ATOM     92  C   UNL A   1      38.935  33.883  38.405  1.00  0.00     0.135 A 
ATOM     93  C   UNL A   1      40.246  35.479  37.175  1.00  0.00     0.135 A 
ATOM     94  F   UNL A   1      38.330  32.689  38.515  1.00  0.00    -0.206 F 
ATOM     95  C   UNL A   1      38.829  34.776  39.468  1.00  0.00     0.059 A 
ATOM     96  C   UNL A   1      40.176  36.378  38.236  1.00  0.00     0.059 A 
ATOM     97  F   UNL A   1      40.941  35.842  36.085  1.00  0.00    -0.206 F 
ATOM     98  C   UNL A   1      39.459  36.019  39.376  1.00  0.00     0.060 A 
BRANCH  98  99
ATOM     99  S   UNL A   1      39.362  37.146  40.784  1.00  0.00     0.124 S 
ATOM    100  O   UNL A   1      38.626  36.341  41.754  1.00  0.00    -0.237 OA
ATOM    101  O   UNL A   1      40.769  37.382  41.093  1.00  0.00    -0.237 OA
ATOM    102  O   UNL A   1      38.643  38.298  40.249  1.00  0.00    -0.744 OA
ENDBRANCH  98  99
ENDBRANCH  66  91
ENDBRANCH  40  41
ENDBRANCH  33  35
ENDBRANCH  32  33
ENDBRANCH  31  32
ENDBRANCH  30  31
ENDBRANCH  29  30
ENDBRANCH  28  29
ENDBRANCH   1  28
TORSDOF 24
ENDMDL
