MODEL 1
REMARK VINA RESULT:     -11.4      0.000      0.000
REMARK SMILES O=C(Cn1cnc(-c2ccccc2)c1-c1ccccc1)OCCOCCOCCOC(=O)c1ccc(-c2c3nc(c(-c4c(F)cc(S(=O)(=O)[O-])cc4F)c4ccc([nH]4)c(-c4c(F)cc(S(=O)(=O)[O-])cc4F)c4nc(c(-c5c(F)cc(S(=O)(=O)[O-])cc5F)c5ccc2[nH]5)C=C4)C=C3)cc1
REMARK SMILES IDX 26 1 25 2 24 3 23 4 22 5 21 6 2 7 1 8 3 9 4 10 5 11 14 12
REMARK SMILES IDX 6 13 7 14 15 15 16 16 20 17 17 18 19 19 18 20 8 21 9 22
REMARK SMILES IDX 13 23 10 24 12 25 11 26 27 27 28 28 29 29 30 30 31 31 32 32
REMARK SMILES IDX 33 33 34 34 98 35 35 36 97 37 36 38 37 39 38 40 91 41 39 42
REMARK SMILES IDX 96 43 90 44 92 45 40 46 95 47 89 48 88 49 41 51 75 52 54 53
REMARK SMILES IDX 74 54 55 55 58 56 73 57 93 58 56 59 57 60 72 62 94 63 59 64
REMARK SMILES IDX 42 65 43 66 52 67 44 68 45 69 51 70 53 71 46 72 47 73 48 74
REMARK SMILES IDX 49 75 50 76 76 77 77 78 86 79 78 80 79 81 85 82 87 83 80 84
REMARK SMILES IDX 81 85 82 86 83 87 84 88 60 89 61 90 70 91 62 92 63 93 69 94
REMARK SMILES IDX 71 95 64 96 65 97 66 98 67 99 68 100
REMARK H PARENT 92 50 58 61
REMARK Flexibility Score: inf
ROOT
ATOM      1  C   UNL A   1      36.101  21.124  25.298  1.00  0.00     0.188 C 
ENDROOT
BRANCH   1   2
ATOM      2  C   UNL A   1      34.649  21.545  25.024  1.00  0.00     0.188 C 
BRANCH   2   3
ATOM      3  O   UNL A   1      34.451  22.927  24.805  1.00  0.00    -0.376 OA
BRANCH   3   4
ATOM      4  C   UNL A   1      33.192  23.534  25.047  1.00  0.00     0.202 C 
BRANCH   4   5
ATOM      5  C   UNL A   1      33.093  25.048  25.241  1.00  0.00     0.261 C 
BRANCH   5   6
ATOM      6  O   UNL A   1      31.855  25.643  25.701  1.00  0.00    -0.462 OA
BRANCH   6   7
ATOM      7  C   UNL A   1      30.563  25.369  25.447  1.00  0.00     0.326 C 
ATOM      8  O   UNL A   1      29.837  25.035  26.385  1.00  0.00    -0.250 OA
BRANCH   7   9
ATOM      9  C   UNL A   1      30.033  25.407  24.041  1.00  0.00     0.246 C 
BRANCH   9  10
ATOM     10  N   UNL A   1      29.249  26.594  23.804  1.00  0.00    -0.319 N 
ATOM     11  C   UNL A   1      27.888  26.665  23.877  1.00  0.00     0.201 A 
ATOM     12  C   UNL A   1      29.729  27.847  23.490  1.00  0.00     0.076 A 
ATOM     13  N   UNL A   1      27.447  27.836  23.495  1.00  0.00    -0.236 NA
ATOM     14  C   UNL A   1      28.577  28.568  23.216  1.00  0.00     0.096 A 
BRANCH  12  15
ATOM     15  C   UNL A   1      31.134  28.240  23.575  1.00  0.00     0.000 A 
ATOM     16  C   UNL A   1      32.006  27.893  22.536  1.00  0.00     0.010 A 
ATOM     17  C   UNL A   1      31.617  29.017  24.634  1.00  0.00     0.010 A 
ATOM     18  C   UNL A   1      33.327  28.343  22.539  1.00  0.00     0.001 A 
ATOM     19  C   UNL A   1      32.934  29.482  24.628  1.00  0.00     0.001 A 
ATOM     20  C   UNL A   1      33.786  29.148  23.579  1.00  0.00     0.000 A 
ENDBRANCH  12  15
BRANCH  14  21
ATOM     21  C   UNL A   1      28.517  29.927  22.725  1.00  0.00     0.002 A 
ATOM     22  C   UNL A   1      28.656  30.993  23.617  1.00  0.00     0.010 A 
ATOM     23  C   UNL A   1      28.282  30.183  21.368  1.00  0.00     0.010 A 
ATOM     24  C   UNL A   1      28.588  32.306  23.152  1.00  0.00     0.001 A 
ATOM     25  C   UNL A   1      28.206  31.496  20.906  1.00  0.00     0.001 A 
ATOM     26  C   UNL A   1      28.366  32.556  21.797  1.00  0.00     0.000 A 
ENDBRANCH  14  21
ENDBRANCH   9  10
ENDBRANCH   7   9
ENDBRANCH   6   7
ENDBRANCH   5   6
ENDBRANCH   4   5
ENDBRANCH   3   4
ENDBRANCH   2   3
ENDBRANCH   1   2
BRANCH   1  27
ATOM     27  O   UNL A   1      37.158  21.827  24.664  1.00  0.00    -0.376 OA
BRANCH  27  28
ATOM     28  C   UNL A   1      37.941  22.770  25.396  1.00  0.00     0.202 C 
BRANCH  28  29
ATOM     29  C   UNL A   1      38.876  22.314  26.517  1.00  0.00     0.261 C 
BRANCH  29  30
ATOM     30  O   UNL A   1      39.794  21.318  26.072  1.00  0.00    -0.460 OA
BRANCH  30  31
ATOM     31  C   UNL A   1      40.767  21.000  26.950  1.00  0.00     0.338 C 
ATOM     32  O   UNL A   1      40.767  20.061  27.726  1.00  0.00    -0.246 OA
BRANCH  31  33
ATOM     33  C   UNL A   1      41.847  22.001  26.905  1.00  0.00     0.060 A 
ATOM     34  C   UNL A   1      42.496  22.223  28.122  1.00  0.00     0.016 A 
ATOM     35  C   UNL A   1      41.969  22.892  25.830  1.00  0.00     0.016 A 
ATOM     36  C   UNL A   1      42.962  23.489  28.381  1.00  0.00     0.010 A 
ATOM     37  C   UNL A   1      42.453  24.159  26.085  1.00  0.00     0.010 A 
ATOM     38  C   UNL A   1      42.788  24.471  27.402  1.00  0.00    -0.014 A 
BRANCH  38  39
ATOM     39  C   UNL A   1      42.695  25.834  27.898  1.00  0.00     0.031 A 
ATOM     40  C   UNL A   1      43.844  26.715  27.626  1.00  0.00     0.074 A 
ATOM     41  C   UNL A   1      41.620  26.247  28.600  1.00  0.00     0.049 A 
ATOM     42  N   UNL A   1      44.649  27.265  28.473  1.00  0.00    -0.248 NA
ATOM     43  C   UNL A   1      44.179  26.946  26.217  1.00  0.00     0.031 C 
ATOM     44  C   UNL A   1      40.323  25.573  28.737  1.00  0.00     0.029 A 
ATOM     45  N   UNL A   1      41.428  27.425  29.257  1.00  0.00    -0.354 N 
ATOM     46  C   UNL A   1      45.467  28.090  27.715  1.00  0.00     0.074 A 
ATOM     47  C   UNL A   1      45.229  27.756  26.331  1.00  0.00     0.031 C 
ATOM     48  C   UNL A   1      39.421  26.450  29.224  1.00  0.00     0.029 A 
ATOM     49  C   UNL A   1      40.100  27.693  29.546  1.00  0.00     0.049 A 
ATOM     50  H   UNL A   1      42.165  28.029  29.504  1.00  0.00     0.167 HD
ATOM     51  C   UNL A   1      46.118  29.155  28.250  1.00  0.00     0.037 A 
ATOM     52  C   UNL A   1      39.581  28.887  29.917  1.00  0.00     0.037 A 
ATOM     53  C   UNL A   1      46.240  29.083  29.680  1.00  0.00     0.049 A 
ATOM     54  C   UNL A   1      40.686  29.711  30.471  1.00  0.00     0.074 A 
ATOM     55  C   UNL A   1      46.808  28.185  30.562  1.00  0.00     0.029 A 
ATOM     56  N   UNL A   1      45.457  29.912  30.446  1.00  0.00    -0.354 N 
ATOM     57  N   UNL A   1      41.300  29.466  31.597  1.00  0.00    -0.248 NA
ATOM     58  C   UNL A   1      41.375  30.631  29.579  1.00  0.00     0.031 C 
ATOM     59  C   UNL A   1      46.000  28.237  31.734  1.00  0.00     0.029 A 
ATOM     60  C   UNL A   1      44.985  29.166  31.499  1.00  0.00     0.049 A 
ATOM     61  H   UNL A   1      45.269  30.862  30.274  1.00  0.00     0.167 HD
ATOM     62  C   UNL A   1      42.610  29.870  31.387  1.00  0.00     0.074 A 
ATOM     63  C   UNL A   1      42.565  30.688  30.181  1.00  0.00     0.031 C 
ATOM     64  C   UNL A   1      43.650  29.283  32.048  1.00  0.00     0.037 A 
BRANCH  51  65
ATOM     65  C   UNL A   1      46.341  30.419  27.471  1.00  0.00     0.058 A 
ATOM     66  C   UNL A   1      47.625  30.979  27.375  1.00  0.00     0.135 A 
ATOM     67  C   UNL A   1      45.271  31.228  27.025  1.00  0.00     0.135 A 
ATOM     68  F   UNL A   1      48.698  30.300  27.809  1.00  0.00    -0.206 F 
ATOM     69  C   UNL A   1      47.830  32.272  26.895  1.00  0.00     0.059 A 
ATOM     70  C   UNL A   1      45.457  32.494  26.491  1.00  0.00     0.059 A 
ATOM     71  F   UNL A   1      43.992  30.854  27.179  1.00  0.00    -0.206 F 
ATOM     72  C   UNL A   1      46.736  33.025  26.470  1.00  0.00     0.060 A 
BRANCH  72  73
ATOM     73  S   UNL A   1      46.975  34.735  25.957  1.00  0.00     0.124 S 
ATOM     74  O   UNL A   1      47.319  35.366  27.227  1.00  0.00    -0.237 OA
ATOM     75  O   UNL A   1      48.056  34.619  24.985  1.00  0.00    -0.237 OA
ATOM     76  O   UNL A   1      45.675  35.099  25.399  1.00  0.00    -0.744 OA
ENDBRANCH  72  73
ENDBRANCH  51  65
BRANCH  52  77
ATOM     77  C   UNL A   1      38.276  29.456  29.490  1.00  0.00     0.058 A 
ATOM     78  C   UNL A   1      37.299  29.820  30.430  1.00  0.00     0.135 A 
ATOM     79  C   UNL A   1      38.056  29.890  28.165  1.00  0.00     0.135 A 
ATOM     80  F   UNL A   1      37.445  29.483  31.721  1.00  0.00    -0.206 F 
ATOM     81  C   UNL A   1      36.186  30.594  30.084  1.00  0.00     0.059 A 
ATOM     82  C   UNL A   1      36.946  30.641  27.792  1.00  0.00     0.059 A 
ATOM     83  F   UNL A   1      38.964  29.677  27.201  1.00  0.00    -0.206 F 
ATOM     84  C   UNL A   1      36.026  31.011  28.762  1.00  0.00     0.060 A 
BRANCH  84  85
ATOM     85  S   UNL A   1      34.678  32.136  28.338  1.00  0.00     0.124 S 
ATOM     86  O   UNL A   1      35.378  33.176  27.593  1.00  0.00    -0.237 OA
ATOM     87  O   UNL A   1      33.794  31.276  27.559  1.00  0.00    -0.237 OA
ATOM     88  O   UNL A   1      34.157  32.545  29.639  1.00  0.00    -0.744 OA
ENDBRANCH  84  85
ENDBRANCH  52  77
BRANCH  64  89
ATOM     89  C   UNL A   1      43.338  28.450  33.263  1.00  0.00     0.058 A 
ATOM     90  C   UNL A   1      43.048  28.995  34.527  1.00  0.00     0.135 A 
ATOM     91  C   UNL A   1      43.180  27.065  33.110  1.00  0.00     0.135 A 
ATOM     92  F   UNL A   1      43.071  30.321  34.725  1.00  0.00    -0.206 F 
ATOM     93  C   UNL A   1      42.663  28.192  35.601  1.00  0.00     0.059 A 
ATOM     94  C   UNL A   1      42.768  26.247  34.161  1.00  0.00     0.059 A 
ATOM     95  F   UNL A   1      43.377  26.493  31.911  1.00  0.00    -0.206 F 
ATOM     96  C   UNL A   1      42.522  26.818  35.409  1.00  0.00     0.060 A 
BRANCH  96  97
ATOM     97  S   UNL A   1      41.926  25.796  36.775  1.00  0.00     0.124 S 
ATOM     98  O   UNL A   1      40.922  26.660  37.389  1.00  0.00    -0.237 OA
ATOM     99  O   UNL A   1      41.411  24.614  36.089  1.00  0.00    -0.237 OA
ATOM    100  O   UNL A   1      43.126  25.566  37.576  1.00  0.00    -0.744 OA
ENDBRANCH  96  97
ENDBRANCH  64  89
ENDBRANCH  38  39
ENDBRANCH  31  33
ENDBRANCH  30  31
ENDBRANCH  29  30
ENDBRANCH  28  29
ENDBRANCH  27  28
ENDBRANCH   1  27
TORSDOF 23
ENDMDL
MODEL 2
REMARK VINA RESULT:     -10.1      2.253      3.443
REMARK SMILES O=C(Cn1cnc(-c2ccccc2)c1-c1ccccc1)OCCOCCOCCOC(=O)c1ccc(-c2c3nc(c(-c4c(F)cc(S(=O)(=O)[O-])cc4F)c4ccc([nH]4)c(-c4c(F)cc(S(=O)(=O)[O-])cc4F)c4nc(c(-c5c(F)cc(S(=O)(=O)[O-])cc5F)c5ccc2[nH]5)C=C4)C=C3)cc1
REMARK SMILES IDX 26 1 25 2 24 3 23 4 22 5 21 6 2 7 1 8 3 9 4 10 5 11 14 12
REMARK SMILES IDX 6 13 7 14 15 15 16 16 20 17 17 18 19 19 18 20 8 21 9 22
REMARK SMILES IDX 13 23 10 24 12 25 11 26 27 27 28 28 29 29 30 30 31 31 32 32
REMARK SMILES IDX 33 33 34 34 98 35 35 36 97 37 36 38 37 39 38 40 91 41 39 42
REMARK SMILES IDX 96 43 90 44 92 45 40 46 95 47 89 48 88 49 41 51 75 52 54 53
REMARK SMILES IDX 74 54 55 55 58 56 73 57 93 58 56 59 57 60 72 62 94 63 59 64
REMARK SMILES IDX 42 65 43 66 52 67 44 68 45 69 51 70 53 71 46 72 47 73 48 74
REMARK SMILES IDX 49 75 50 76 76 77 77 78 86 79 78 80 79 81 85 82 87 83 80 84
REMARK SMILES IDX 81 85 82 86 83 87 84 88 60 89 61 90 70 91 62 92 63 93 69 94
REMARK SMILES IDX 71 95 64 96 65 97 66 98 67 99 68 100
REMARK H PARENT 92 50 58 61
REMARK Flexibility Score: inf
ROOT
ATOM      1  C   UNL A   1      39.401  21.097  26.123  1.00  0.00     0.188 C 
ENDROOT
BRANCH   1   2
ATOM      2  C   UNL A   1      38.615  20.137  25.217  1.00  0.00     0.188 C 
BRANCH   2   3
ATOM      3  O   UNL A   1      37.406  20.649  24.694  1.00  0.00    -0.376 OA
BRANCH   3   4
ATOM      4  C   UNL A   1      36.680  21.656  25.379  1.00  0.00     0.202 C 
BRANCH   4   5
ATOM      5  C   UNL A   1      35.386  21.306  26.115  1.00  0.00     0.261 C 
BRANCH   5   6
ATOM      6  O   UNL A   1      34.107  21.706  25.566  1.00  0.00    -0.462 OA
BRANCH   6   7
ATOM      7  C   UNL A   1      33.251  22.697  25.878  1.00  0.00     0.326 C 
ATOM      8  O   UNL A   1      32.296  22.440  26.612  1.00  0.00    -0.250 OA
BRANCH   7   9
ATOM      9  C   UNL A   1      33.421  24.070  25.291  1.00  0.00     0.246 C 
BRANCH   9  10
ATOM     10  N   UNL A   1      32.205  24.534  24.671  1.00  0.00    -0.319 N 
ATOM     11  C   UNL A   1      31.371  23.769  23.908  1.00  0.00     0.201 A 
ATOM     12  C   UNL A   1      31.670  25.801  24.755  1.00  0.00     0.076 A 
ATOM     13  N   UNL A   1      30.412  24.485  23.379  1.00  0.00    -0.236 NA
ATOM     14  C   UNL A   1      30.608  25.756  23.865  1.00  0.00     0.096 A 
BRANCH  12  15
ATOM     15  C   UNL A   1      32.126  26.832  25.686  1.00  0.00     0.000 A 
ATOM     16  C   UNL A   1      33.460  27.254  25.639  1.00  0.00     0.010 A 
ATOM     17  C   UNL A   1      31.247  27.459  26.576  1.00  0.00     0.010 A 
ATOM     18  C   UNL A   1      33.899  28.308  26.443  1.00  0.00     0.001 A 
ATOM     19  C   UNL A   1      31.682  28.524  27.367  1.00  0.00     0.001 A 
ATOM     20  C   UNL A   1      33.006  28.950  27.297  1.00  0.00     0.000 A 
ENDBRANCH  12  15
BRANCH  14  21
ATOM     21  C   UNL A   1      29.764  26.868  23.487  1.00  0.00     0.002 A 
ATOM     22  C   UNL A   1      30.313  27.951  22.795  1.00  0.00     0.010 A 
ATOM     23  C   UNL A   1      28.410  26.886  23.842  1.00  0.00     0.010 A 
ATOM     24  C   UNL A   1      29.508  29.031  22.437  1.00  0.00     0.001 A 
ATOM     25  C   UNL A   1      27.607  27.970  23.490  1.00  0.00     0.001 A 
ATOM     26  C   UNL A   1      28.156  29.039  22.783  1.00  0.00     0.000 A 
ENDBRANCH  14  21
ENDBRANCH   9  10
ENDBRANCH   7   9
ENDBRANCH   6   7
ENDBRANCH   5   6
ENDBRANCH   4   5
ENDBRANCH   3   4
ENDBRANCH   2   3
ENDBRANCH   1   2
BRANCH   1  27
ATOM     27  O   UNL A   1      40.174  20.568  27.189  1.00  0.00    -0.376 OA
BRANCH  27  28
ATOM     28  C   UNL A   1      41.592  20.460  27.069  1.00  0.00     0.202 C 
BRANCH  28  29
ATOM     29  C   UNL A   1      42.511  21.577  27.567  1.00  0.00     0.261 C 
BRANCH  29  30
ATOM     30  O   UNL A   1      41.944  22.868  27.350  1.00  0.00    -0.460 OA
BRANCH  30  31
ATOM     31  C   UNL A   1      42.784  23.782  26.824  1.00  0.00     0.338 C 
ATOM     32  O   UNL A   1      43.985  23.656  26.659  1.00  0.00    -0.246 OA
BRANCH  31  33
ATOM     33  C   UNL A   1      42.061  25.029  26.518  1.00  0.00     0.060 A 
ATOM     34  C   UNL A   1      42.865  26.083  26.078  1.00  0.00     0.016 A 
ATOM     35  C   UNL A   1      40.749  25.237  26.965  1.00  0.00     0.016 A 
ATOM     36  C   UNL A   1      42.492  27.361  26.417  1.00  0.00     0.010 A 
ATOM     37  C   UNL A   1      40.367  26.523  27.291  1.00  0.00     0.010 A 
ATOM     38  C   UNL A   1      41.318  27.534  27.155  1.00  0.00    -0.014 A 
BRANCH  38  39
ATOM     39  C   UNL A   1      41.283  28.717  27.999  1.00  0.00     0.031 A 
ATOM     40  C   UNL A   1      42.459  29.602  27.943  1.00  0.00     0.074 A 
ATOM     41  C   UNL A   1      40.234  28.960  28.813  1.00  0.00     0.049 A 
ATOM     42  N   UNL A   1      43.296  29.881  28.886  1.00  0.00    -0.248 NA
ATOM     43  C   UNL A   1      42.779  30.192  26.639  1.00  0.00     0.031 C 
ATOM     44  C   UNL A   1      38.916  28.314  28.797  1.00  0.00     0.029 A 
ATOM     45  N   UNL A   1      40.097  29.925  29.764  1.00  0.00    -0.354 N 
ATOM     46  C   UNL A   1      44.132  30.853  28.355  1.00  0.00     0.074 A 
ATOM     47  C   UNL A   1      43.860  30.909  26.939  1.00  0.00     0.031 C 
ATOM     48  C   UNL A   1      38.055  29.057  29.523  1.00  0.00     0.029 A 
ATOM     49  C   UNL A   1      38.784  30.147  30.148  1.00  0.00     0.049 A 
ATOM     50  H   UNL A   1      40.859  30.418  30.145  1.00  0.00     0.167 HD
ATOM     51  C   UNL A   1      44.830  31.716  29.139  1.00  0.00     0.037 A 
ATOM     52  C   UNL A   1      38.315  31.214  30.836  1.00  0.00     0.037 A 
ATOM     53  C   UNL A   1      44.972  31.260  30.494  1.00  0.00     0.049 A 
ATOM     54  C   UNL A   1      39.457  31.825  31.563  1.00  0.00     0.074 A 
ATOM     55  C   UNL A   1      45.520  30.141  31.090  1.00  0.00     0.029 A 
ATOM     56  N   UNL A   1      44.232  31.877  31.473  1.00  0.00    -0.354 N 
ATOM     57  N   UNL A   1      40.080  31.269  32.567  1.00  0.00    -0.248 NA
ATOM     58  C   UNL A   1      40.166  32.928  30.931  1.00  0.00     0.031 C 
ATOM     59  C   UNL A   1      44.733  29.903  32.253  1.00  0.00     0.029 A 
ATOM     60  C   UNL A   1      43.750  30.892  32.300  1.00  0.00     0.049 A 
ATOM     61  H   UNL A   1      44.076  32.844  31.565  1.00  0.00     0.167 HD
ATOM     62  C   UNL A   1      41.400  31.673  32.440  1.00  0.00     0.074 A 
ATOM     63  C   UNL A   1      41.366  32.785  31.497  1.00  0.00     0.031 C 
ATOM     64  C   UNL A   1      42.429  30.899  32.893  1.00  0.00     0.037 A 
BRANCH  51  65
ATOM     65  C   UNL A   1      45.086  33.134  28.720  1.00  0.00     0.058 A 
ATOM     66  C   UNL A   1      46.398  33.628  28.643  1.00  0.00     0.135 A 
ATOM     67  C   UNL A   1      44.051  34.093  28.633  1.00  0.00     0.135 A 
ATOM     68  F   UNL A   1      47.446  32.796  28.755  1.00  0.00    -0.206 F 
ATOM     69  C   UNL A   1      46.666  34.991  28.520  1.00  0.00     0.059 A 
ATOM     70  C   UNL A   1      44.293  35.447  28.452  1.00  0.00     0.059 A 
ATOM     71  F   UNL A   1      42.764  33.761  28.815  1.00  0.00    -0.206 F 
ATOM     72  C   UNL A   1      45.605  35.892  28.441  1.00  0.00     0.060 A 
BRANCH  72  73
ATOM     73  S   UNL A   1      45.937  37.661  28.398  1.00  0.00     0.124 S 
ATOM     74  O   UNL A   1      45.572  38.051  29.755  1.00  0.00    -0.237 OA
ATOM     75  O   UNL A   1      47.360  37.702  28.081  1.00  0.00    -0.237 OA
ATOM     76  O   UNL A   1      45.052  38.140  27.340  1.00  0.00    -0.744 OA
ENDBRANCH  72  73
ENDBRANCH  51  65
BRANCH  52  77
ATOM     77  C   UNL A   1      37.025  31.916  30.610  1.00  0.00     0.058 A 
ATOM     78  C   UNL A   1      36.050  31.991  31.618  1.00  0.00     0.135 A 
ATOM     79  C   UNL A   1      36.822  32.746  29.486  1.00  0.00     0.135 A 
ATOM     80  F   UNL A   1      36.181  31.264  32.739  1.00  0.00    -0.206 F 
ATOM     81  C   UNL A   1      34.956  32.859  31.532  1.00  0.00     0.059 A 
ATOM     82  C   UNL A   1      35.730  33.600  29.368  1.00  0.00     0.059 A 
ATOM     83  F   UNL A   1      37.730  32.824  28.503  1.00  0.00    -0.206 F 
ATOM     84  C   UNL A   1      34.812  33.670  30.405  1.00  0.00     0.060 A 
BRANCH  84  85
ATOM     85  S   UNL A   1      33.492  34.901  30.354  1.00  0.00     0.124 S 
ATOM     86  O   UNL A   1      32.917  34.781  31.689  1.00  0.00    -0.237 OA
ATOM     87  O   UNL A   1      34.229  36.130  30.083  1.00  0.00    -0.237 OA
ATOM     88  O   UNL A   1      32.638  34.437  29.264  1.00  0.00    -0.744 OA
ENDBRANCH  84  85
ENDBRANCH  52  77
BRANCH  64  89
ATOM     89  C   UNL A   1      42.106  29.782  33.850  1.00  0.00     0.058 A 
ATOM     90  C   UNL A   1      41.686  28.503  33.441  1.00  0.00     0.135 A 
ATOM     91  C   UNL A   1      42.374  29.962  35.215  1.00  0.00     0.135 A 
ATOM     92  F   UNL A   1      41.513  28.220  32.142  1.00  0.00    -0.206 F 
ATOM     93  C   UNL A   1      41.498  27.466  34.354  1.00  0.00     0.059 A 
ATOM     94  C   UNL A   1      42.221  28.932  36.141  1.00  0.00     0.059 A 
ATOM     95  F   UNL A   1      42.842  31.140  35.659  1.00  0.00    -0.206 F 
ATOM     96  C   UNL A   1      41.770  27.687  35.703  1.00  0.00     0.060 A 
BRANCH  96  97
ATOM     97  S   UNL A   1      41.621  26.314  36.868  1.00  0.00     0.124 S 
ATOM     98  O   UNL A   1      41.662  25.154  35.981  1.00  0.00    -0.237 OA
ATOM     99  O   UNL A   1      42.787  26.495  37.728  1.00  0.00    -0.237 OA
ATOM    100  O   UNL A   1      40.336  26.557  37.519  1.00  0.00    -0.744 OA
ENDBRANCH  96  97
ENDBRANCH  64  89
ENDBRANCH  38  39
ENDBRANCH  31  33
ENDBRANCH  30  31
ENDBRANCH  29  30
ENDBRANCH  28  29
ENDBRANCH  27  28
ENDBRANCH   1  27
TORSDOF 23
ENDMDL
MODEL 3
REMARK VINA RESULT:     -10.0      3.680      9.053
REMARK SMILES O=C(Cn1cnc(-c2ccccc2)c1-c1ccccc1)OCCOCCOCCOC(=O)c1ccc(-c2c3nc(c(-c4c(F)cc(S(=O)(=O)[O-])cc4F)c4ccc([nH]4)c(-c4c(F)cc(S(=O)(=O)[O-])cc4F)c4nc(c(-c5c(F)cc(S(=O)(=O)[O-])cc5F)c5ccc2[nH]5)C=C4)C=C3)cc1
REMARK SMILES IDX 26 1 25 2 24 3 23 4 22 5 21 6 2 7 1 8 3 9 4 10 5 11 14 12
REMARK SMILES IDX 6 13 7 14 15 15 16 16 20 17 17 18 19 19 18 20 8 21 9 22
REMARK SMILES IDX 13 23 10 24 12 25 11 26 27 27 28 28 29 29 30 30 31 31 32 32
REMARK SMILES IDX 33 33 34 34 98 35 35 36 97 37 36 38 37 39 38 40 91 41 39 42
REMARK SMILES IDX 96 43 90 44 92 45 40 46 95 47 89 48 88 49 41 51 75 52 54 53
REMARK SMILES IDX 74 54 55 55 58 56 73 57 93 58 56 59 57 60 72 62 94 63 59 64
REMARK SMILES IDX 42 65 43 66 52 67 44 68 45 69 51 70 53 71 46 72 47 73 48 74
REMARK SMILES IDX 49 75 50 76 76 77 77 78 86 79 78 80 79 81 85 82 87 83 80 84
REMARK SMILES IDX 81 85 82 86 83 87 84 88 60 89 61 90 70 91 62 92 63 93 69 94
REMARK SMILES IDX 71 95 64 96 65 97 66 98 67 99 68 100
REMARK H PARENT 92 50 58 61
REMARK Flexibility Score: inf
ROOT
ATOM      1  C   UNL A   1      35.110  23.260  26.446  1.00  0.00     0.188 C 
ENDROOT
BRANCH   1   2
ATOM      2  C   UNL A   1      34.031  22.169  26.358  1.00  0.00     0.188 C 
BRANCH   2   3
ATOM      3  O   UNL A   1      32.872  22.400  27.133  1.00  0.00    -0.376 OA
BRANCH   3   4
ATOM      4  C   UNL A   1      31.603  22.565  26.522  1.00  0.00     0.202 C 
BRANCH   4   5
ATOM      5  C   UNL A   1      31.195  23.923  25.949  1.00  0.00     0.261 C 
BRANCH   5   6
ATOM      6  O   UNL A   1      30.743  24.027  24.578  1.00  0.00    -0.462 OA
BRANCH   6   7
ATOM      7  C   UNL A   1      31.363  23.846  23.397  1.00  0.00     0.326 C 
ATOM      8  O   UNL A   1      31.488  22.698  22.969  1.00  0.00    -0.250 OA
BRANCH   7   9
ATOM      9  C   UNL A   1      31.945  25.013  22.650  1.00  0.00     0.246 C 
BRANCH   9  10
ATOM     10  N   UNL A   1      32.614  25.929  23.539  1.00  0.00    -0.319 N 
ATOM     11  C   UNL A   1      33.838  25.721  24.107  1.00  0.00     0.201 A 
ATOM     12  C   UNL A   1      32.154  27.163  23.947  1.00  0.00     0.076 A 
ATOM     13  N   UNL A   1      34.137  26.667  24.961  1.00  0.00    -0.236 NA
ATOM     14  C   UNL A   1      33.084  27.547  24.901  1.00  0.00     0.096 A 
BRANCH  12  15
ATOM     15  C   UNL A   1      31.009  27.855  23.359  1.00  0.00     0.000 A 
ATOM     16  C   UNL A   1      29.714  27.471  23.727  1.00  0.00     0.010 A 
ATOM     17  C   UNL A   1      31.174  28.940  22.492  1.00  0.00     0.010 A 
ATOM     18  C   UNL A   1      28.606  28.181  23.262  1.00  0.00     0.001 A 
ATOM     19  C   UNL A   1      30.066  29.662  22.041  1.00  0.00     0.001 A 
ATOM     20  C   UNL A   1      28.784  29.283  22.430  1.00  0.00     0.000 A 
ENDBRANCH  12  15
BRANCH  14  21
ATOM     21  C   UNL A   1      33.016  28.730  25.731  1.00  0.00     0.002 A 
ATOM     22  C   UNL A   1      31.888  29.552  25.675  1.00  0.00     0.010 A 
ATOM     23  C   UNL A   1      34.088  29.079  26.561  1.00  0.00     0.010 A 
ATOM     24  C   UNL A   1      31.820  30.700  26.465  1.00  0.00     0.001 A 
ATOM     25  C   UNL A   1      34.024  30.230  27.344  1.00  0.00     0.001 A 
ATOM     26  C   UNL A   1      32.887  31.036  27.299  1.00  0.00     0.000 A 
ENDBRANCH  14  21
ENDBRANCH   9  10
ENDBRANCH   7   9
ENDBRANCH   6   7
ENDBRANCH   5   6
ENDBRANCH   4   5
ENDBRANCH   3   4
ENDBRANCH   2   3
ENDBRANCH   1   2
BRANCH   1  27
ATOM     27  O   UNL A   1      36.341  23.073  25.763  1.00  0.00    -0.376 OA
BRANCH  27  28
ATOM     28  C   UNL A   1      36.858  21.759  25.551  1.00  0.00     0.202 C 
BRANCH  28  29
ATOM     29  C   UNL A   1      38.361  21.486  25.608  1.00  0.00     0.261 C 
BRANCH  29  30
ATOM     30  O   UNL A   1      39.016  22.310  26.571  1.00  0.00    -0.460 OA
BRANCH  30  31
ATOM     31  C   UNL A   1      40.255  21.911  26.921  1.00  0.00     0.338 C 
ATOM     32  O   UNL A   1      40.539  20.972  27.643  1.00  0.00    -0.246 OA
BRANCH  31  33
ATOM     33  C   UNL A   1      41.267  22.821  26.356  1.00  0.00     0.060 A 
ATOM     34  C   UNL A   1      42.542  22.269  26.216  1.00  0.00     0.016 A 
ATOM     35  C   UNL A   1      41.050  24.204  26.299  1.00  0.00     0.016 A 
ATOM     36  C   UNL A   1      43.624  23.100  26.378  1.00  0.00     0.010 A 
ATOM     37  C   UNL A   1      42.138  25.042  26.445  1.00  0.00     0.010 A 
ATOM     38  C   UNL A   1      43.386  24.452  26.643  1.00  0.00    -0.014 A 
BRANCH  38  39
ATOM     39  C   UNL A   1      44.426  25.130  27.400  1.00  0.00     0.031 A 
ATOM     40  C   UNL A   1      44.302  25.096  28.867  1.00  0.00     0.074 A 
ATOM     41  C   UNL A   1      45.428  25.781  26.774  1.00  0.00     0.049 A 
ATOM     42  N   UNL A   1      44.122  26.086  29.678  1.00  0.00    -0.248 NA
ATOM     43  C   UNL A   1      44.306  23.773  29.499  1.00  0.00     0.031 C 
ATOM     44  C   UNL A   1      45.809  25.698  25.359  1.00  0.00     0.029 A 
ATOM     45  N   UNL A   1      46.392  26.581  27.309  1.00  0.00    -0.354 N 
ATOM     46  C   UNL A   1      44.204  25.534  30.948  1.00  0.00     0.074 A 
ATOM     47  C   UNL A   1      44.181  24.101  30.783  1.00  0.00     0.031 C 
ATOM     48  C   UNL A   1      47.043  26.221  25.205  1.00  0.00     0.029 A 
ATOM     49  C   UNL A   1      47.479  26.781  26.472  1.00  0.00     0.049 A 
ATOM     50  H   UNL A   1      46.324  26.981  28.206  1.00  0.00     0.167 HD
ATOM     51  C   UNL A   1      44.519  26.276  32.042  1.00  0.00     0.037 A 
ATOM     52  C   UNL A   1      48.690  27.271  26.827  1.00  0.00     0.037 A 
ATOM     53  C   UNL A   1      44.321  27.685  31.845  1.00  0.00     0.049 A 
ATOM     54  C   UNL A   1      48.519  28.040  28.087  1.00  0.00     0.074 A 
ATOM     55  C   UNL A   1      43.238  28.477  31.513  1.00  0.00     0.029 A 
ATOM     56  N   UNL A   1      45.426  28.487  31.698  1.00  0.00    -0.354 N 
ATOM     57  N   UNL A   1      47.873  29.170  28.183  1.00  0.00    -0.248 NA
ATOM     58  C   UNL A   1      48.764  27.358  29.349  1.00  0.00     0.031 C 
ATOM     59  C   UNL A   1      43.774  29.564  30.765  1.00  0.00     0.029 A 
ATOM     60  C   UNL A   1      45.154  29.373  30.683  1.00  0.00     0.049 A 
ATOM     61  H   UNL A   1      46.257  28.438  32.222  1.00  0.00     0.167 HD
ATOM     62  C   UNL A   1      47.288  29.144  29.441  1.00  0.00     0.074 A 
ATOM     63  C   UNL A   1      47.971  28.070  30.153  1.00  0.00     0.031 C 
ATOM     64  C   UNL A   1      46.123  29.806  29.698  1.00  0.00     0.037 A 
BRANCH  51  65
ATOM     65  C   UNL A   1      45.327  25.712  33.174  1.00  0.00     0.058 A 
ATOM     66  C   UNL A   1      46.657  25.311  32.969  1.00  0.00     0.135 A 
ATOM     67  C   UNL A   1      44.739  25.326  34.400  1.00  0.00     0.135 A 
ATOM     68  F   UNL A   1      47.285  25.600  31.818  1.00  0.00    -0.206 F 
ATOM     69  C   UNL A   1      47.348  24.547  33.908  1.00  0.00     0.059 A 
ATOM     70  C   UNL A   1      45.426  24.616  35.373  1.00  0.00     0.059 A 
ATOM     71  F   UNL A   1      43.441  25.543  34.660  1.00  0.00    -0.206 F 
ATOM     72  C   UNL A   1      46.717  24.193  35.100  1.00  0.00     0.060 A 
BRANCH  72  73
ATOM     73  S   UNL A   1      47.558  23.112  36.269  1.00  0.00     0.124 S 
ATOM     74  O   UNL A   1      46.483  22.194  36.630  1.00  0.00    -0.237 OA
ATOM     75  O   UNL A   1      48.633  22.552  35.456  1.00  0.00    -0.237 OA
ATOM     76  O   UNL A   1      47.990  24.029  37.320  1.00  0.00    -0.744 OA
ENDBRANCH  72  73
ENDBRANCH  51  65
BRANCH  52  77
ATOM     77  C   UNL A   1      50.011  26.812  26.326  1.00  0.00     0.058 A 
ATOM     78  C   UNL A   1      50.913  27.706  25.727  1.00  0.00     0.135 A 
ATOM     79  C   UNL A   1      50.523  25.538  26.651  1.00  0.00     0.135 A 
ATOM     80  F   UNL A   1      50.523  28.953  25.418  1.00  0.00    -0.206 F 
ATOM     81  C   UNL A   1      52.250  27.368  25.492  1.00  0.00     0.059 A 
ATOM     82  C   UNL A   1      51.843  25.170  26.407  1.00  0.00     0.059 A 
ATOM     83  F   UNL A   1      49.780  24.632  27.305  1.00  0.00    -0.206 F 
ATOM     84  C   UNL A   1      52.708  26.099  25.848  1.00  0.00     0.060 A 
BRANCH  84  85
ATOM     85  S   UNL A   1      54.465  25.708  25.691  1.00  0.00     0.124 S 
ATOM     86  O   UNL A   1      54.605  25.527  24.251  1.00  0.00    -0.237 OA
ATOM     87  O   UNL A   1      55.096  26.898  26.252  1.00  0.00    -0.237 OA
ATOM     88  O   UNL A   1      54.613  24.493  26.490  1.00  0.00    -0.744 OA
ENDBRANCH  84  85
ENDBRANCH  52  77
BRANCH  64  89
ATOM     89  C   UNL A   1      45.672  30.854  28.715  1.00  0.00     0.058 A 
ATOM     90  C   UNL A   1      46.025  32.212  28.806  1.00  0.00     0.135 A 
ATOM     91  C   UNL A   1      44.985  30.446  27.560  1.00  0.00     0.135 A 
ATOM     92  F   UNL A   1      46.773  32.660  29.825  1.00  0.00    -0.206 F 
ATOM     93  C   UNL A   1      45.672  33.130  27.817  1.00  0.00     0.059 A 
ATOM     94  C   UNL A   1      44.648  31.341  26.547  1.00  0.00     0.059 A 
ATOM     95  F   UNL A   1      44.678  29.151  27.382  1.00  0.00    -0.206 F 
ATOM     96  C   UNL A   1      44.985  32.686  26.688  1.00  0.00     0.060 A 
BRANCH  96  97
ATOM     97  S   UNL A   1      44.618  33.860  25.364  1.00  0.00     0.124 S 
ATOM     98  O   UNL A   1      43.683  34.773  26.014  1.00  0.00    -0.237 OA
ATOM     99  O   UNL A   1      45.933  34.413  25.052  1.00  0.00    -0.237 OA
ATOM    100  O   UNL A   1      44.043  33.020  24.315  1.00  0.00    -0.744 OA
ENDBRANCH  96  97
ENDBRANCH  64  89
ENDBRANCH  38  39
ENDBRANCH  31  33
ENDBRANCH  30  31
ENDBRANCH  29  30
ENDBRANCH  28  29
ENDBRANCH  27  28
ENDBRANCH   1  27
TORSDOF 23
ENDMDL
