MODEL 1
REMARK VINA RESULT:     -12.1      0.000      0.000
REMARK SMILES Cc1ccccc1NC(=O)NC[C@@H]1CC[C@@H](C(=O)OCCOCCOCCOC(=O)c2ccc(-c3c4nc(c(-c5c(F)cc(S(=O)(=O)[O-])cc5F)c5ccc([nH]5)c(-c5c(F)cc(S(=O)(=O)[O-])cc5F)c5nc(c(-c6c(F)cc(S(=O)(=O)[O-])cc6F)c6ccc3[nH]6)C=C5)C=C4)cc2)O1
REMARK SMILES IDX 23 1 22 2 21 3 20 4 19 5 17 6 18 7 16 8 13 9 14 10 97 11
REMARK SMILES IDX 15 12 12 13 11 14 8 15 9 16 10 18 7 20 1 21 2 22 3 23 4 24
REMARK SMILES IDX 6 25 5 26 24 27 25 28 26 29 27 30 28 31 29 32 30 33 31 34
REMARK SMILES IDX 32 35 96 36 33 37 95 38 34 39 35 40 36 41 89 42 37 43 94 44
REMARK SMILES IDX 88 45 90 46 38 47 93 48 87 49 86 50 39 52 73 53 52 54 72 55
REMARK SMILES IDX 53 56 56 57 71 58 91 59 54 60 55 61 70 63 92 64 57 65 40 66
REMARK SMILES IDX 41 67 50 68 42 69 43 70 49 71 51 72 44 73 45 74 46 75 47 76
REMARK SMILES IDX 48 77 74 78 75 79 84 80 76 81 77 82 83 83 85 84 78 85 79 86
REMARK SMILES IDX 80 87 81 88 82 89 58 90 59 91 68 92 60 93 61 94 67 95 69 96
REMARK SMILES IDX 62 97 63 98 64 99 65 100 66 101
REMARK H PARENT 8 17 11 19 90 51 56 62
REMARK Flexibility Score: inf
ROOT
ATOM      1  C   UNL A   1      36.504  20.705  24.972  1.00  0.00     0.188 C 
ENDROOT
BRANCH   1   2
ATOM      2  O   UNL A   1      36.068  21.861  24.221  1.00  0.00    -0.376 OA
BRANCH   2   3
ATOM      3  C   UNL A   1      36.204  23.218  24.693  1.00  0.00     0.202 C 
BRANCH   3   4
ATOM      4  C   UNL A   1      35.264  23.841  25.865  1.00  0.00     0.261 C 
BRANCH   4   5
ATOM      5  O   UNL A   1      33.921  23.285  26.894  1.00  0.00    -0.461 OA
BRANCH   5   6
ATOM      6  C   UNL A   1      32.479  23.101  26.899  1.00  0.00     0.335 C 
ATOM      7  O   UNL A   1      31.651  23.573  27.683  1.00  0.00    -0.249 OA
BRANCH   6   8
ATOM      8  C   UNL A   1      31.767  22.183  25.914  1.00  0.00     0.228 C 
ATOM      9  C   UNL A   1      31.523  23.684  24.120  1.00  0.00     0.138 C 
ATOM     10  C   UNL A   1      32.353  22.505  23.639  1.00  0.00     0.037 C 
ATOM     11  O   UNL A   1      30.763  22.987  25.137  1.00  0.00    -0.361 OA
ATOM     12  C   UNL A   1      32.639  21.628  24.845  1.00  0.00     0.047 C 
BRANCH   9  13
ATOM     13  C   UNL A   1      30.674  24.444  23.033  1.00  0.00     0.149 C 
BRANCH  13  14
ATOM     14  N   UNL A   1      31.491  25.189  22.035  1.00  0.00    -0.335 N 
ATOM     15  N   UNL A   1      33.094  26.720  23.007  1.00  0.00    -0.308 N 
ATOM     16  C   UNL A   1      32.643  25.888  22.046  1.00  0.00     0.319 C 
ATOM     17  H   UNL A   1      34.033  26.975  22.855  1.00  0.00     0.171 HD
ATOM     18  O   UNL A   1      33.391  25.757  21.070  1.00  0.00    -0.249 OA
ATOM     19  H   UNL A   1      31.087  25.165  21.138  1.00  0.00     0.165 HD
BRANCH  15  20
ATOM     20  C   UNL A   1      32.575  27.316  24.164  1.00  0.00     0.045 A 
ATOM     21  C   UNL A   1      31.120  29.020  22.902  1.00  0.00     0.046 C 
ATOM     22  C   UNL A   1      31.790  28.481  24.134  1.00  0.00    -0.027 A 
ATOM     23  C   UNL A   1      31.488  29.139  25.350  1.00  0.00     0.005 A 
ATOM     24  C   UNL A   1      31.898  28.622  26.573  1.00  0.00     0.000 A 
ATOM     25  C   UNL A   1      32.795  26.739  25.395  1.00  0.00     0.026 A 
ATOM     26  C   UNL A   1      32.512  27.386  26.597  1.00  0.00     0.002 A 
ENDBRANCH  15  20
ENDBRANCH  13  14
ENDBRANCH   9  13
ENDBRANCH   6   8
ENDBRANCH   5   6
ENDBRANCH   4   5
ENDBRANCH   3   4
ENDBRANCH   2   3
ENDBRANCH   1   2
BRANCH   1  27
ATOM     27  C   UNL A   1      37.975  20.297  25.013  1.00  0.00     0.188 C 
BRANCH  27  28
ATOM     28  O   UNL A   1      38.671  21.189  25.856  1.00  0.00    -0.376 OA
BRANCH  28  29
ATOM     29  C   UNL A   1      40.012  20.885  26.155  1.00  0.00     0.202 C 
BRANCH  29  30
ATOM     30  C   UNL A   1      40.556  21.839  27.219  1.00  0.00     0.261 C 
BRANCH  30  31
ATOM     31  O   UNL A   1      41.932  22.193  26.944  1.00  0.00    -0.460 OA
BRANCH  31  32
ATOM     32  C   UNL A   1      42.136  23.375  26.264  1.00  0.00     0.338 C 
ATOM     33  O   UNL A   1      42.670  23.410  25.167  1.00  0.00    -0.246 OA
BRANCH  32  34
ATOM     34  C   UNL A   1      41.479  24.513  26.980  1.00  0.00     0.060 A 
ATOM     35  C   UNL A   1      40.934  25.688  26.452  1.00  0.00     0.016 A 
ATOM     36  C   UNL A   1      41.511  24.451  28.332  1.00  0.00     0.016 A 
ATOM     37  C   UNL A   1      40.662  26.873  27.268  1.00  0.00     0.010 A 
ATOM     38  C   UNL A   1      41.346  25.633  29.054  1.00  0.00     0.010 A 
ATOM     39  C   UNL A   1      40.982  26.961  28.634  1.00  0.00    -0.014 A 
BRANCH  39  40
ATOM     40  C   UNL A   1      40.949  28.450  29.574  1.00  0.00     0.031 A 
ATOM     41  C   UNL A   1      39.766  29.777  29.698  1.00  0.00     0.074 A 
ATOM     42  C   UNL A   1      42.112  28.848  30.133  1.00  0.00     0.049 A 
ATOM     43  N   UNL A   1      39.975  31.048  29.370  1.00  0.00    -0.248 NA
ATOM     44  C   UNL A   1      38.290  29.723  30.078  1.00  0.00     0.031 C 
ATOM     45  C   UNL A   1      42.284  29.967  31.051  1.00  0.00     0.029 A 
ATOM     46  N   UNL A   1      43.410  28.399  29.883  1.00  0.00    -0.354 N 
ATOM     47  C   UNL A   1      38.760  31.758  29.560  1.00  0.00     0.074 A 
ATOM     48  C   UNL A   1      37.720  30.816  29.621  1.00  0.00     0.031 C 
ATOM     49  C   UNL A   1      43.588  30.278  31.107  1.00  0.00     0.029 A 
ATOM     50  C   UNL A   1      44.274  29.477  30.108  1.00  0.00     0.049 A 
ATOM     51  H   UNL A   1      43.671  27.492  29.601  1.00  0.00     0.167 HD
ATOM     52  C   UNL A   1      38.590  33.004  30.099  1.00  0.00     0.037 A 
ATOM     53  C   UNL A   1      45.119  29.941  29.145  1.00  0.00     0.037 A 
ATOM     54  C   UNL A   1      39.861  33.529  30.474  1.00  0.00     0.049 A 
ATOM     55  C   UNL A   1      44.947  31.412  28.852  1.00  0.00     0.074 A 
ATOM     56  C   UNL A   1      40.595  33.424  31.640  1.00  0.00     0.029 A 
ATOM     57  N   UNL A   1      40.724  33.883  29.467  1.00  0.00    -0.354 N 
ATOM     58  N   UNL A   1      43.940  32.119  29.287  1.00  0.00    -0.248 NA
ATOM     59  C   UNL A   1      45.872  32.215  28.056  1.00  0.00     0.031 C 
ATOM     60  C   UNL A   1      41.951  33.649  31.305  1.00  0.00     0.029 A 
ATOM     61  C   UNL A   1      42.010  33.934  29.954  1.00  0.00     0.049 A 
ATOM     62  H   UNL A   1      40.463  34.072  28.537  1.00  0.00     0.167 HD
ATOM     63  C   UNL A   1      44.029  33.397  28.811  1.00  0.00     0.074 A 
ATOM     64  C   UNL A   1      45.274  33.421  28.074  1.00  0.00     0.031 C 
ATOM     65  C   UNL A   1      43.058  34.322  29.041  1.00  0.00     0.037 A 
BRANCH  52  66
ATOM     66  C   UNL A   1      37.226  33.448  30.656  1.00  0.00     0.058 A 
ATOM     67  C   UNL A   1      36.177  33.859  29.811  1.00  0.00     0.135 A 
ATOM     68  C   UNL A   1      36.969  33.616  32.041  1.00  0.00     0.135 A 
ATOM     69  F   UNL A   1      36.265  33.724  28.482  1.00  0.00    -0.206 F 
ATOM     70  C   UNL A   1      35.014  34.480  30.286  1.00  0.00     0.059 A 
ATOM     71  C   UNL A   1      35.834  34.281  32.537  1.00  0.00     0.059 A 
ATOM     72  F   UNL A   1      37.878  33.225  32.950  1.00  0.00    -0.206 F 
ATOM     73  C   UNL A   1      34.860  34.718  31.648  1.00  0.00     0.060 A 
BRANCH  73  74
ATOM     74  S   UNL A   1      33.427  35.669  32.217  1.00  0.00     0.124 S 
ATOM     75  O   UNL A   1      33.982  36.454  33.317  1.00  0.00    -0.237 OA
ATOM     76  O   UNL A   1      33.068  36.422  31.022  1.00  0.00    -0.237 OA
ATOM     77  O   UNL A   1      32.476  34.637  32.622  1.00  0.00    -0.744 OA
ENDBRANCH  73  74
ENDBRANCH  52  66
BRANCH  53  78
ATOM     78  C   UNL A   1      45.643  28.882  28.233  1.00  0.00     0.058 A 
ATOM     79  C   UNL A   1      46.759  28.147  28.686  1.00  0.00     0.135 A 
ATOM     80  C   UNL A   1      44.905  28.332  27.175  1.00  0.00     0.135 A 
ATOM     81  F   UNL A   1      47.514  28.624  29.689  1.00  0.00    -0.206 F 
ATOM     82  C   UNL A   1      47.044  26.870  28.220  1.00  0.00     0.059 A 
ATOM     83  C   UNL A   1      45.183  27.046  26.679  1.00  0.00     0.059 A 
ATOM     84  F   UNL A   1      43.830  28.975  26.698  1.00  0.00    -0.206 F 
ATOM     85  C   UNL A   1      46.220  26.305  27.253  1.00  0.00     0.060 A 
BRANCH  85  86
ATOM     86  S   UNL A   1      46.438  24.534  26.932  1.00  0.00     0.124 S 
ATOM     87  O   UNL A   1      47.885  24.422  26.793  1.00  0.00    -0.237 OA
ATOM     88  O   UNL A   1      45.879  23.950  28.151  1.00  0.00    -0.237 OA
ATOM     89  O   UNL A   1      45.663  24.317  25.719  1.00  0.00    -0.744 OA
ENDBRANCH  85  86
ENDBRANCH  53  78
BRANCH  65  90
ATOM     90  C   UNL A   1      42.930  35.683  28.419  1.00  0.00     0.058 A 
ATOM     91  C   UNL A   1      42.490  35.893  27.107  1.00  0.00     0.135 A 
ATOM     92  C   UNL A   1      43.025  36.835  29.243  1.00  0.00     0.135 A 
ATOM     93  F   UNL A   1      42.282  34.864  26.273  1.00  0.00    -0.206 F 
ATOM     94  C   UNL A   1      42.194  37.168  26.627  1.00  0.00     0.059 A 
ATOM     95  C   UNL A   1      42.678  38.104  28.803  1.00  0.00     0.059 A 
ATOM     96  F   UNL A   1      43.430  36.748  30.521  1.00  0.00    -0.206 F 
ATOM     97  C   UNL A   1      42.286  38.265  27.482  1.00  0.00     0.060 A 
BRANCH  97  98
ATOM     98  S   UNL A   1      41.863  39.916  26.900  1.00  0.00     0.124 S 
ATOM     99  O   UNL A   1      40.801  39.620  25.944  1.00  0.00    -0.237 OA
ATOM    100  O   UNL A   1      41.440  40.599  28.119  1.00  0.00    -0.237 OA
ATOM    101  O   UNL A   1      43.118  40.392  26.328  1.00  0.00    -0.744 OA
ENDBRANCH  97  98
ENDBRANCH  65  90
ENDBRANCH  39  40
ENDBRANCH  32  34
ENDBRANCH  31  32
ENDBRANCH  30  31
ENDBRANCH  29  30
ENDBRANCH  28  29
ENDBRANCH  27  28
ENDBRANCH   1  27
TORSDOF 23
ENDMDL
MODEL 2
REMARK VINA RESULT:     -12.1      1.771      2.317
REMARK SMILES Cc1ccccc1NC(=O)NC[C@@H]1CC[C@@H](C(=O)OCCOCCOCCOC(=O)c2ccc(-c3c4nc(c(-c5c(F)cc(S(=O)(=O)[O-])cc5F)c5ccc([nH]5)c(-c5c(F)cc(S(=O)(=O)[O-])cc5F)c5nc(c(-c6c(F)cc(S(=O)(=O)[O-])cc6F)c6ccc3[nH]6)C=C5)C=C4)cc2)O1
REMARK SMILES IDX 23 1 22 2 21 3 20 4 19 5 17 6 18 7 16 8 13 9 14 10 97 11
REMARK SMILES IDX 15 12 12 13 11 14 8 15 9 16 10 18 7 20 1 21 2 22 3 23 4 24
REMARK SMILES IDX 6 25 5 26 24 27 25 28 26 29 27 30 28 31 29 32 30 33 31 34
REMARK SMILES IDX 32 35 96 36 33 37 95 38 34 39 35 40 36 41 89 42 37 43 94 44
REMARK SMILES IDX 88 45 90 46 38 47 93 48 87 49 86 50 39 52 73 53 52 54 72 55
REMARK SMILES IDX 53 56 56 57 71 58 91 59 54 60 55 61 70 63 92 64 57 65 40 66
REMARK SMILES IDX 41 67 50 68 42 69 43 70 49 71 51 72 44 73 45 74 46 75 47 76
REMARK SMILES IDX 48 77 74 78 75 79 84 80 76 81 77 82 83 83 85 84 78 85 79 86
REMARK SMILES IDX 80 87 81 88 82 89 58 90 59 91 68 92 60 93 61 94 67 95 69 96
REMARK SMILES IDX 62 97 63 98 64 99 65 100 66 101
REMARK H PARENT 8 17 11 19 90 51 56 62
REMARK Flexibility Score: inf
ROOT
ATOM      1  C   UNL A   1      39.651  20.997  26.191  1.00  0.00     0.188 C 
ENDROOT
BRANCH   1   2
ATOM      2  O   UNL A   1      38.401  21.712  26.064  1.00  0.00    -0.376 OA
BRANCH   2   3
ATOM      3  C   UNL A   1      37.349  21.327  25.154  1.00  0.00     0.202 C 
BRANCH   3   4
ATOM      4  C   UNL A   1      35.787  21.710  25.400  1.00  0.00     0.261 C 
BRANCH   4   5
ATOM      5  O   UNL A   1      34.800  22.369  26.727  1.00  0.00    -0.461 OA
BRANCH   5   6
ATOM      6  C   UNL A   1      33.461  22.848  27.034  1.00  0.00     0.335 C 
ATOM      7  O   UNL A   1      32.539  22.239  27.583  1.00  0.00    -0.249 OA
BRANCH   6   8
ATOM      8  C   UNL A   1      32.974  24.232  26.627  1.00  0.00     0.228 C 
ATOM      9  C   UNL A   1      33.530  24.163  24.343  1.00  0.00     0.138 C 
ATOM     10  C   UNL A   1      32.028  24.365  24.457  1.00  0.00     0.037 C 
ATOM     11  O   UNL A   1      33.907  24.793  25.591  1.00  0.00    -0.361 OA
ATOM     12  C   UNL A   1      31.663  24.244  25.925  1.00  0.00     0.047 C 
BRANCH   9  13
ATOM     13  C   UNL A   1      34.226  24.734  23.052  1.00  0.00     0.149 C 
BRANCH  13  14
ATOM     14  N   UNL A   1      33.387  24.655  21.823  1.00  0.00    -0.335 N 
ATOM     15  N   UNL A   1      32.249  26.715  21.261  1.00  0.00    -0.308 N 
ATOM     16  C   UNL A   1      32.827  25.533  20.969  1.00  0.00     0.319 C 
ATOM     17  H   UNL A   1      32.067  27.242  20.450  1.00  0.00     0.171 HD
ATOM     18  O   UNL A   1      32.840  25.237  19.767  1.00  0.00    -0.249 OA
ATOM     19  H   UNL A   1      33.194  23.723  21.570  1.00  0.00     0.165 HD
BRANCH  15  20
ATOM     20  C   UNL A   1      31.841  27.391  22.420  1.00  0.00     0.045 A 
ATOM     21  C   UNL A   1      34.070  28.629  22.753  1.00  0.00     0.046 C 
ATOM     22  C   UNL A   1      32.721  28.151  23.208  1.00  0.00    -0.027 A 
ATOM     23  C   UNL A   1      32.284  28.620  24.470  1.00  0.00     0.005 A 
ATOM     24  C   UNL A   1      30.986  28.398  24.914  1.00  0.00     0.000 A 
ATOM     25  C   UNL A   1      30.520  27.359  22.807  1.00  0.00     0.026 A 
ATOM     26  C   UNL A   1      30.084  27.807  24.052  1.00  0.00     0.002 A 
ENDBRANCH  15  20
ENDBRANCH  13  14
ENDBRANCH   9  13
ENDBRANCH   6   8
ENDBRANCH   5   6
ENDBRANCH   4   5
ENDBRANCH   3   4
ENDBRANCH   2   3
ENDBRANCH   1   2
BRANCH   1  27
ATOM     27  C   UNL A   1      39.757  19.518  25.825  1.00  0.00     0.188 C 
BRANCH  27  28
ATOM     28  O   UNL A   1      41.115  19.196  25.621  1.00  0.00    -0.376 OA
BRANCH  28  29
ATOM     29  C   UNL A   1      42.050  19.726  26.531  1.00  0.00     0.202 C 
BRANCH  29  30
ATOM     30  C   UNL A   1      43.035  20.649  25.814  1.00  0.00     0.261 C 
BRANCH  30  31
ATOM     31  O   UNL A   1      42.361  21.810  25.274  1.00  0.00    -0.460 OA
BRANCH  31  32
ATOM     32  C   UNL A   1      43.097  22.975  25.218  1.00  0.00     0.338 C 
ATOM     33  O   UNL A   1      44.050  23.104  24.466  1.00  0.00    -0.246 OA
BRANCH  32  34
ATOM     34  C   UNL A   1      42.464  24.039  26.058  1.00  0.00     0.060 A 
ATOM     35  C   UNL A   1      41.921  25.265  25.663  1.00  0.00     0.016 A 
ATOM     36  C   UNL A   1      42.518  23.838  27.396  1.00  0.00     0.016 A 
ATOM     37  C   UNL A   1      41.674  26.363  26.600  1.00  0.00     0.010 A 
ATOM     38  C   UNL A   1      42.377  24.941  28.238  1.00  0.00     0.010 A 
ATOM     39  C   UNL A   1      42.019  26.308  27.962  1.00  0.00    -0.014 A 
BRANCH  39  40
ATOM     40  C   UNL A   1      42.016  27.693  29.050  1.00  0.00     0.031 A 
ATOM     41  C   UNL A   1      40.794  28.935  29.426  1.00  0.00     0.074 A 
ATOM     42  C   UNL A   1      43.212  28.097  29.531  1.00  0.00     0.049 A 
ATOM     43  N   UNL A   1      40.912  30.241  29.212  1.00  0.00    -0.248 NA
ATOM     44  C   UNL A   1      39.369  28.763  29.940  1.00  0.00     0.031 C 
ATOM     45  C   UNL A   1      43.427  29.128  30.539  1.00  0.00     0.029 A 
ATOM     46  N   UNL A   1      44.496  27.747  29.110  1.00  0.00    -0.354 N 
ATOM     47  C   UNL A   1      39.693  30.862  29.592  1.00  0.00     0.074 A 
ATOM     48  C   UNL A   1      38.707  29.863  29.656  1.00  0.00     0.031 C 
ATOM     49  C   UNL A   1      44.714  29.502  30.499  1.00  0.00     0.029 A 
ATOM     50  C   UNL A   1      45.330  28.842  29.361  1.00  0.00     0.049 A 
ATOM     51  H   UNL A   1      44.766  26.888  28.712  1.00  0.00     0.167 HD
ATOM     52  C   UNL A   1      39.523  32.037  30.271  1.00  0.00     0.037 A 
ATOM     53  C   UNL A   1      46.050  29.444  28.372  1.00  0.00     0.037 A 
ATOM     54  C   UNL A   1      40.801  32.591  30.572  1.00  0.00     0.049 A 
ATOM     55  C   UNL A   1      45.783  30.925  28.252  1.00  0.00     0.074 A 
ATOM     56  C   UNL A   1      41.655  32.413  31.645  1.00  0.00     0.029 A 
ATOM     57  N   UNL A   1      41.540  33.090  29.528  1.00  0.00    -0.354 N 
ATOM     58  N   UNL A   1      44.795  31.530  28.854  1.00  0.00    -0.248 NA
ATOM     59  C   UNL A   1      46.585  31.853  27.457  1.00  0.00     0.031 C 
ATOM     60  C   UNL A   1      42.958  32.743  31.203  1.00  0.00     0.029 A 
ATOM     61  C   UNL A   1      42.865  33.163  29.890  1.00  0.00     0.049 A 
ATOM     62  H   UNL A   1      41.177  33.355  28.653  1.00  0.00     0.167 HD
ATOM     63  C   UNL A   1      44.779  32.852  28.506  1.00  0.00     0.074 A 
ATOM     64  C   UNL A   1      45.939  33.016  27.658  1.00  0.00     0.031 C 
ATOM     65  C   UNL A   1      43.796  33.695  28.924  1.00  0.00     0.037 A 
BRANCH  52  66
ATOM     66  C   UNL A   1      38.205  32.349  31.002  1.00  0.00     0.058 A 
ATOM     67  C   UNL A   1      37.226  33.191  30.439  1.00  0.00     0.135 A 
ATOM     68  C   UNL A   1      37.939  31.942  32.334  1.00  0.00     0.135 A 
ATOM     69  F   UNL A   1      37.326  33.624  29.176  1.00  0.00    -0.206 F 
ATOM     70  C   UNL A   1      36.129  33.675  31.164  1.00  0.00     0.059 A 
ATOM     71  C   UNL A   1      36.874  32.453  33.097  1.00  0.00     0.059 A 
ATOM     72  F   UNL A   1      38.780  31.106  32.967  1.00  0.00    -0.206 F 
ATOM     73  C   UNL A   1      35.974  33.329  32.503  1.00  0.00     0.060 A 
BRANCH  73  74
ATOM     74  S   UNL A   1      34.643  34.099  33.461  1.00  0.00     0.124 S 
ATOM     75  O   UNL A   1      35.172  34.068  34.822  1.00  0.00    -0.237 OA
ATOM     76  O   UNL A   1      34.551  35.419  32.848  1.00  0.00    -0.237 OA
ATOM     77  O   UNL A   1      33.504  33.214  33.229  1.00  0.00    -0.744 OA
ENDBRANCH  73  74
ENDBRANCH  52  66
BRANCH  53  78
ATOM     78  C   UNL A   1      46.524  28.511  27.310  1.00  0.00     0.058 A 
ATOM     79  C   UNL A   1      45.730  28.415  26.147  1.00  0.00     0.135 A 
ATOM     80  C   UNL A   1      47.839  28.032  27.224  1.00  0.00     0.135 A 
ATOM     81  F   UNL A   1      44.458  28.845  26.166  1.00  0.00    -0.206 F 
ATOM     82  C   UNL A   1      46.251  28.007  24.925  1.00  0.00     0.059 A 
ATOM     83  C   UNL A   1      48.384  27.603  26.001  1.00  0.00     0.059 A 
ATOM     84  F   UNL A   1      48.650  28.097  28.290  1.00  0.00    -0.206 F 
ATOM     85  C   UNL A   1      47.593  27.652  24.849  1.00  0.00     0.060 A 
BRANCH  85  86
ATOM     86  S   UNL A   1      48.289  27.453  23.187  1.00  0.00     0.124 S 
ATOM     87  O   UNL A   1      47.355  28.218  22.368  1.00  0.00    -0.237 OA
ATOM     88  O   UNL A   1      49.612  28.054  23.355  1.00  0.00    -0.237 OA
ATOM     89  O   UNL A   1      48.275  26.011  22.989  1.00  0.00    -0.744 OA
ENDBRANCH  85  86
ENDBRANCH  53  78
BRANCH  65  90
ATOM     90  C   UNL A   1      43.544  35.102  28.462  1.00  0.00     0.058 A 
ATOM     91  C   UNL A   1      43.120  35.424  27.168  1.00  0.00     0.135 A 
ATOM     92  C   UNL A   1      43.498  36.150  29.419  1.00  0.00     0.135 A 
ATOM     93  F   UNL A   1      43.042  34.488  26.211  1.00  0.00    -0.206 F 
ATOM     94  C   UNL A   1      42.707  36.712  26.830  1.00  0.00     0.059 A 
ATOM     95  C   UNL A   1      43.034  37.422  29.117  1.00  0.00     0.059 A 
ATOM     96  F   UNL A   1      43.875  35.949  30.692  1.00  0.00    -0.206 F 
ATOM     97  C   UNL A   1      42.662  37.701  27.811  1.00  0.00     0.060 A 
BRANCH  97  98
ATOM     98  S   UNL A   1      42.087  39.360  27.411  1.00  0.00     0.124 S 
ATOM     99  O   UNL A   1      41.145  39.084  26.330  1.00  0.00    -0.237 OA
ATOM    100  O   UNL A   1      41.491  39.816  28.664  1.00  0.00    -0.237 OA
ATOM    101  O   UNL A   1      43.314  40.047  27.023  1.00  0.00    -0.744 OA
ENDBRANCH  97  98
ENDBRANCH  65  90
ENDBRANCH  39  40
ENDBRANCH  32  34
ENDBRANCH  31  32
ENDBRANCH  30  31
ENDBRANCH  29  30
ENDBRANCH  28  29
ENDBRANCH  27  28
ENDBRANCH   1  27
TORSDOF 23
ENDMDL
MODEL 3
REMARK VINA RESULT:     -11.7      1.461      2.385
REMARK SMILES Cc1ccccc1NC(=O)NC[C@@H]1CC[C@@H](C(=O)OCCOCCOCCOC(=O)c2ccc(-c3c4nc(c(-c5c(F)cc(S(=O)(=O)[O-])cc5F)c5ccc([nH]5)c(-c5c(F)cc(S(=O)(=O)[O-])cc5F)c5nc(c(-c6c(F)cc(S(=O)(=O)[O-])cc6F)c6ccc3[nH]6)C=C5)C=C4)cc2)O1
REMARK SMILES IDX 23 1 22 2 21 3 20 4 19 5 17 6 18 7 16 8 13 9 14 10 97 11
REMARK SMILES IDX 15 12 12 13 11 14 8 15 9 16 10 18 7 20 1 21 2 22 3 23 4 24
REMARK SMILES IDX 6 25 5 26 24 27 25 28 26 29 27 30 28 31 29 32 30 33 31 34
REMARK SMILES IDX 32 35 96 36 33 37 95 38 34 39 35 40 36 41 89 42 37 43 94 44
REMARK SMILES IDX 88 45 90 46 38 47 93 48 87 49 86 50 39 52 73 53 52 54 72 55
REMARK SMILES IDX 53 56 56 57 71 58 91 59 54 60 55 61 70 63 92 64 57 65 40 66
REMARK SMILES IDX 41 67 50 68 42 69 43 70 49 71 51 72 44 73 45 74 46 75 47 76
REMARK SMILES IDX 48 77 74 78 75 79 84 80 76 81 77 82 83 83 85 84 78 85 79 86
REMARK SMILES IDX 80 87 81 88 82 89 58 90 59 91 68 92 60 93 61 94 67 95 69 96
REMARK SMILES IDX 62 97 63 98 64 99 65 100 66 101
REMARK H PARENT 8 17 11 19 90 51 56 62
REMARK Flexibility Score: inf
ROOT
ATOM      1  C   UNL A   1      36.203  20.746  24.916  1.00  0.00     0.188 C 
ENDROOT
BRANCH   1   2
ATOM      2  O   UNL A   1      35.763  22.025  24.407  1.00  0.00    -0.376 OA
BRANCH   2   3
ATOM      3  C   UNL A   1      35.613  23.203  25.227  1.00  0.00     0.202 C 
BRANCH   3   4
ATOM      4  C   UNL A   1      34.808  23.195  26.641  1.00  0.00     0.261 C 
BRANCH   4   5
ATOM      5  O   UNL A   1      33.109  23.156  27.174  1.00  0.00    -0.461 OA
BRANCH   5   6
ATOM      6  C   UNL A   1      31.801  23.718  26.879  1.00  0.00     0.335 C 
ATOM      7  O   UNL A   1      30.707  23.398  27.353  1.00  0.00    -0.249 OA
BRANCH   6   8
ATOM      8  C   UNL A   1      31.592  24.797  25.825  1.00  0.00     0.228 C 
ATOM      9  C   UNL A   1      31.940  26.697  27.166  1.00  0.00     0.138 C 
ATOM     10  C   UNL A   1      32.977  26.707  26.055  1.00  0.00     0.037 C 
ATOM     11  O   UNL A   1      30.904  25.972  26.460  1.00  0.00    -0.361 OA
ATOM     12  C   UNL A   1      32.846  25.398  25.299  1.00  0.00     0.047 C 
BRANCH   9  13
ATOM     13  C   UNL A   1      31.517  28.095  27.754  1.00  0.00     0.149 C 
BRANCH  13  14
ATOM     14  N   UNL A   1      32.457  29.203  27.424  1.00  0.00    -0.335 N 
ATOM     15  N   UNL A   1      32.066  30.231  25.269  1.00  0.00    -0.308 N 
ATOM     16  C   UNL A   1      32.487  30.227  26.550  1.00  0.00     0.319 C 
ATOM     17  H   UNL A   1      32.041  31.143  24.897  1.00  0.00     0.171 HD
ATOM     18  O   UNL A   1      32.946  31.302  26.957  1.00  0.00    -0.249 OA
ATOM     19  H   UNL A   1      33.262  29.182  27.991  1.00  0.00     0.165 HD
BRANCH  15  20
ATOM     20  C   UNL A   1      31.655  29.277  24.329  1.00  0.00     0.045 A 
ATOM     21  C   UNL A   1      33.993  28.950  23.308  1.00  0.00     0.046 C 
ATOM     22  C   UNL A   1      32.498  28.797  23.313  1.00  0.00    -0.027 A 
ATOM     23  C   UNL A   1      31.948  28.003  22.279  1.00  0.00     0.005 A 
ATOM     24  C   UNL A   1      30.607  27.638  22.284  1.00  0.00     0.000 A 
ATOM     25  C   UNL A   1      30.390  28.739  24.399  1.00  0.00     0.026 A 
ATOM     26  C   UNL A   1      29.836  27.966  23.380  1.00  0.00     0.002 A 
ENDBRANCH  15  20
ENDBRANCH  13  14
ENDBRANCH   9  13
ENDBRANCH   6   8
ENDBRANCH   5   6
ENDBRANCH   4   5
ENDBRANCH   3   4
ENDBRANCH   2   3
ENDBRANCH   1   2
BRANCH   1  27
ATOM     27  C   UNL A   1      37.688  20.409  25.032  1.00  0.00     0.188 C 
BRANCH  27  28
ATOM     28  O   UNL A   1      38.308  21.367  25.861  1.00  0.00    -0.376 OA
BRANCH  28  29
ATOM     29  C   UNL A   1      39.688  21.582  25.683  1.00  0.00     0.202 C 
BRANCH  29  30
ATOM     30  C   UNL A   1      40.361  21.890  27.020  1.00  0.00     0.261 C 
BRANCH  30  31
ATOM     31  O   UNL A   1      41.737  22.296  26.828  1.00  0.00    -0.460 OA
BRANCH  31  32
ATOM     32  C   UNL A   1      41.938  23.589  26.391  1.00  0.00     0.338 C 
ATOM     33  O   UNL A   1      42.409  23.837  25.293  1.00  0.00    -0.246 OA
BRANCH  32  34
ATOM     34  C   UNL A   1      41.359  24.568  27.364  1.00  0.00     0.060 A 
ATOM     35  C   UNL A   1      40.257  25.414  27.208  1.00  0.00     0.016 A 
ATOM     36  C   UNL A   1      42.058  24.739  28.510  1.00  0.00     0.016 A 
ATOM     37  C   UNL A   1      40.018  26.573  28.071  1.00  0.00     0.010 A 
ATOM     38  C   UNL A   1      41.862  25.913  29.237  1.00  0.00     0.010 A 
ATOM     39  C   UNL A   1      40.903  26.976  29.086  1.00  0.00    -0.014 A 
BRANCH  39  40
ATOM     40  C   UNL A   1      40.811  28.514  29.940  1.00  0.00     0.031 A 
ATOM     41  C   UNL A   1      39.621  29.840  29.920  1.00  0.00     0.074 A 
ATOM     42  C   UNL A   1      41.937  28.946  30.548  1.00  0.00     0.049 A 
ATOM     43  N   UNL A   1      39.849  31.092  29.537  1.00  0.00    -0.248 NA
ATOM     44  C   UNL A   1      38.124  29.800  30.210  1.00  0.00     0.031 C 
ATOM     45  C   UNL A   1      42.050  30.113  31.414  1.00  0.00     0.029 A 
ATOM     46  N   UNL A   1      43.248  28.490  30.403  1.00  0.00    -0.354 N 
ATOM     47  C   UNL A   1      38.624  31.807  29.613  1.00  0.00     0.074 A 
ATOM     48  C   UNL A   1      37.583  30.864  29.660  1.00  0.00     0.031 C 
ATOM     49  C   UNL A   1      43.347  30.432  31.533  1.00  0.00     0.029 A 
ATOM     50  C   UNL A   1      44.095  29.582  30.623  1.00  0.00     0.049 A 
ATOM     51  H   UNL A   1      43.526  27.570  30.187  1.00  0.00     0.167 HD
ATOM     52  C   UNL A   1      38.419  33.079  30.072  1.00  0.00     0.037 A 
ATOM     53  C   UNL A   1      44.998  29.997  29.690  1.00  0.00     0.037 A 
ATOM     54  C   UNL A   1      39.664  33.629  30.496  1.00  0.00     0.049 A 
ATOM     55  C   UNL A   1      44.843  31.449  29.309  1.00  0.00     0.074 A 
ATOM     56  C   UNL A   1      40.325  33.590  31.710  1.00  0.00     0.029 A 
ATOM     57  N   UNL A   1      40.588  33.932  29.527  1.00  0.00    -0.354 N 
ATOM     58  N   UNL A   1      43.810  32.174  29.642  1.00  0.00    -0.248 NA
ATOM     59  C   UNL A   1      45.815  32.212  28.529  1.00  0.00     0.031 C 
ATOM     60  C   UNL A   1      41.699  33.803  31.447  1.00  0.00     0.029 A 
ATOM     61  C   UNL A   1      41.841  34.014  30.089  1.00  0.00     0.049 A 
ATOM     62  H   UNL A   1      40.384  34.070  28.574  1.00  0.00     0.167 HD
ATOM     63  C   UNL A   1      43.928  33.425  29.104  1.00  0.00     0.074 A 
ATOM     64  C   UNL A   1      45.216  33.415  28.445  1.00  0.00     0.031 C 
ATOM     65  C   UNL A   1      42.943  34.357  29.223  1.00  0.00     0.037 A 
BRANCH  52  66
ATOM     66  C   UNL A   1      37.023  33.546  30.520  1.00  0.00     0.058 A 
ATOM     67  C   UNL A   1      36.029  33.909  29.590  1.00  0.00     0.135 A 
ATOM     68  C   UNL A   1      36.680  33.786  31.875  1.00  0.00     0.135 A 
ATOM     69  F   UNL A   1      36.199  33.705  28.278  1.00  0.00    -0.206 F 
ATOM     70  C   UNL A   1      34.838  34.549  29.958  1.00  0.00     0.059 A 
ATOM     71  C   UNL A   1      35.515  34.472  32.264  1.00  0.00     0.059 A 
ATOM     72  F   UNL A   1      37.531  33.446  32.858  1.00  0.00    -0.206 F 
ATOM     73  C   UNL A   1      34.599  34.858  31.293  1.00  0.00     0.060 A 
BRANCH  73  74
ATOM     74  S   UNL A   1      33.133  35.831  31.722  1.00  0.00     0.124 S 
ATOM     75  O   UNL A   1      32.298  34.858  32.420  1.00  0.00    -0.237 OA
ATOM     76  O   UNL A   1      33.701  36.888  32.551  1.00  0.00    -0.237 OA
ATOM     77  O   UNL A   1      32.618  36.256  30.422  1.00  0.00    -0.744 OA
ENDBRANCH  73  74
ENDBRANCH  52  66
BRANCH  53  78
ATOM     78  C   UNL A   1      45.578  28.893  28.871  1.00  0.00     0.058 A 
ATOM     79  C   UNL A   1      44.958  28.626  27.632  1.00  0.00     0.135 A 
ATOM     80  C   UNL A   1      46.869  28.379  29.060  1.00  0.00     0.135 A 
ATOM     81  F   UNL A   1      43.717  29.080  27.392  1.00  0.00    -0.206 F 
ATOM     82  C   UNL A   1      45.631  28.014  26.582  1.00  0.00     0.059 A 
ATOM     83  C   UNL A   1      47.565  27.744  28.016  1.00  0.00     0.059 A 
ATOM     84  F   UNL A   1      47.519  28.598  30.212  1.00  0.00    -0.206 F 
ATOM     85  C   UNL A   1      46.952  27.622  26.766  1.00  0.00     0.060 A 
BRANCH  85  86
ATOM     86  S   UNL A   1      47.872  27.141  25.279  1.00  0.00     0.124 S 
ATOM     87  O   UNL A   1      46.806  26.971  24.299  1.00  0.00    -0.237 OA
ATOM     88  O   UNL A   1      48.727  28.311  25.079  1.00  0.00    -0.237 OA
ATOM     89  O   UNL A   1      48.559  25.925  25.691  1.00  0.00    -0.744 OA
ENDBRANCH  85  86
ENDBRANCH  53  78
BRANCH  65  90
ATOM     90  C   UNL A   1      42.852  35.682  28.522  1.00  0.00     0.058 A 
ATOM     91  C   UNL A   1      42.417  35.827  27.199  1.00  0.00     0.135 A 
ATOM     92  C   UNL A   1      42.981  36.878  29.277  1.00  0.00     0.135 A 
ATOM     93  F   UNL A   1      42.179  34.757  26.427  1.00  0.00    -0.206 F 
ATOM     94  C   UNL A   1      42.156  37.079  26.645  1.00  0.00     0.059 A 
ATOM     95  C   UNL A   1      42.669  38.128  28.762  1.00  0.00     0.059 A 
ATOM     96  F   UNL A   1      43.385  36.855  30.557  1.00  0.00    -0.206 F 
ATOM     97  C   UNL A   1      42.280  38.221  27.434  1.00  0.00     0.060 A 
BRANCH  97  98
ATOM     98  S   UNL A   1      41.903  39.846  26.756  1.00  0.00     0.124 S 
ATOM     99  O   UNL A   1      43.170  40.192  26.120  1.00  0.00    -0.237 OA
ATOM    100  O   UNL A   1      40.794  39.577  25.844  1.00  0.00    -0.237 OA
ATOM    101  O   UNL A   1      41.555  40.623  27.941  1.00  0.00    -0.744 OA
ENDBRANCH  97  98
ENDBRANCH  65  90
ENDBRANCH  39  40
ENDBRANCH  32  34
ENDBRANCH  31  32
ENDBRANCH  30  31
ENDBRANCH  29  30
ENDBRANCH  28  29
ENDBRANCH  27  28
ENDBRANCH   1  27
TORSDOF 23
ENDMDL
