MODEL 1
REMARK VINA RESULT:     -10.5      0.000      0.000
REMARK SMILES Cc1ccsc1CNC(=O)N1CCOC[C@H]1C(=O)OCCOCCOCCOC(=O)c1ccc(-c2c3nc(c(-c4c(F)cc(S(=O)(=O)[O-])cc4F)c4ccc([nH]4)c(-c4c(F)cc(S(=O)(=O)[O-])cc4F)c4nc(c(-c5c(F)cc(S(=O)(=O)[O-])cc5F)c5ccc2[nH]5)C=C4)C=C3)cc1
REMARK SMILES IDX 23 1 22 2 21 3 20 4 19 5 17 6 18 7 16 8 11 9 12 10 13 11
REMARK SMILES IDX 15 12 14 13 9 14 8 15 10 17 7 18 6 19 1 20 2 21 3 22 4 23
REMARK SMILES IDX 5 24 24 25 25 26 26 27 27 28 28 29 29 30 30 31 31 32 32 33
REMARK SMILES IDX 96 34 33 35 95 36 34 37 35 38 36 39 89 40 37 41 94 42 88 43
REMARK SMILES IDX 90 44 38 45 93 46 87 47 86 48 39 50 73 51 52 52 72 53 53 54
REMARK SMILES IDX 56 55 71 56 91 57 54 58 55 59 70 61 92 62 57 63 40 64 41 65
REMARK SMILES IDX 50 66 42 67 43 68 49 69 51 70 44 71 45 72 46 73 47 74 48 75
REMARK SMILES IDX 74 76 75 77 84 78 76 79 77 80 83 81 85 82 78 83 79 84 80 85
REMARK SMILES IDX 81 86 82 87 58 88 59 89 68 90 60 91 61 92 67 93 69 94 62 95
REMARK SMILES IDX 63 96 64 97 65 98 66 99
REMARK H PARENT 8 16 90 49 56 60
REMARK Flexibility Score: inf
ROOT
ATOM      1  C   UNL A   1      36.976  20.595  24.972  1.00  0.00     0.188 C 
ENDROOT
BRANCH   1   2
ATOM      2  O   UNL A   1      35.671  20.720  25.533  1.00  0.00    -0.376 OA
BRANCH   2   3
ATOM      3  C   UNL A   1      34.541  20.392  24.734  1.00  0.00     0.202 C 
BRANCH   3   4
ATOM      4  C   UNL A   1      33.453  21.453  24.508  1.00  0.00     0.261 C 
BRANCH   4   5
ATOM      5  O   UNL A   1      33.835  22.799  24.862  1.00  0.00    -0.462 OA
BRANCH   5   6
ATOM      6  C   UNL A   1      34.062  23.663  23.836  1.00  0.00     0.331 C 
ATOM      7  O   UNL A   1      35.053  23.606  23.111  1.00  0.00    -0.250 OA
BRANCH   6   8
ATOM      8  C   UNL A   1      33.007  24.786  23.683  1.00  0.00     0.222 C 
ATOM      9  N   UNL A   1      31.756  24.863  24.485  1.00  0.00    -0.306 N 
ATOM     10  C   UNL A   1      31.980  25.068  25.910  1.00  0.00     0.151 C 
ATOM     11  C   UNL A   1      32.824  26.327  26.117  1.00  0.00     0.182 C 
ATOM     12  C   UNL A   1      33.761  26.103  23.933  1.00  0.00     0.197 C 
ATOM     13  O   UNL A   1      34.034  26.288  25.341  1.00  0.00    -0.377 OA
BRANCH   9  14
ATOM     14  C   UNL A   1      30.560  24.810  23.831  1.00  0.00     0.318 C 
ATOM     15  N   UNL A   1      29.619  25.764  23.977  1.00  0.00    -0.333 N 
ATOM     16  H   UNL A   1      28.725  25.471  23.687  1.00  0.00     0.165 HD
ATOM     17  O   UNL A   1      30.303  23.894  23.045  1.00  0.00    -0.249 OA
BRANCH  15  18
ATOM     18  C   UNL A   1      29.638  27.128  24.471  1.00  0.00     0.165 C 
BRANCH  18  19
ATOM     19  C   UNL A   1      29.416  28.152  23.383  1.00  0.00     0.027 A 
ATOM     20  C   UNL A   1      26.847  28.379  23.485  1.00  0.00     0.045 C 
ATOM     21  C   UNL A   1      28.210  28.713  22.968  1.00  0.00    -0.035 A 
ATOM     22  C   UNL A   1      28.418  29.709  21.956  1.00  0.00     0.015 A 
ATOM     23  C   UNL A   1      29.745  29.887  21.647  1.00  0.00     0.065 A 
ATOM     24  S   UNL A   1      30.751  28.876  22.574  1.00  0.00    -0.147 S 
ENDBRANCH  18  19
ENDBRANCH  15  18
ENDBRANCH   9  14
ENDBRANCH   6   8
ENDBRANCH   5   6
ENDBRANCH   4   5
ENDBRANCH   3   4
ENDBRANCH   2   3
ENDBRANCH   1   2
BRANCH   1  25
ATOM     25  C   UNL A   1      38.064  21.597  25.403  1.00  0.00     0.188 C 
BRANCH  25  26
ATOM     26  O   UNL A   1      39.277  21.005  25.811  1.00  0.00    -0.376 OA
BRANCH  26  27
ATOM     27  C   UNL A   1      40.021  21.628  26.839  1.00  0.00     0.202 C 
BRANCH  27  28
ATOM     28  C   UNL A   1      40.810  22.931  26.609  1.00  0.00     0.261 C 
BRANCH  28  29
ATOM     29  O   UNL A   1      40.076  24.162  26.559  1.00  0.00    -0.460 OA
BRANCH  29  30
ATOM     30  C   UNL A   1      40.768  25.287  26.279  1.00  0.00     0.338 C 
ATOM     31  O   UNL A   1      41.170  25.642  25.176  1.00  0.00    -0.246 OA
BRANCH  30  32
ATOM     32  C   UNL A   1      40.797  26.128  27.495  1.00  0.00     0.060 A 
ATOM     33  C   UNL A   1      39.759  26.016  28.431  1.00  0.00     0.016 A 
ATOM     34  C   UNL A   1      41.849  27.021  27.716  1.00  0.00     0.016 A 
ATOM     35  C   UNL A   1      39.752  26.822  29.572  1.00  0.00     0.010 A 
ATOM     36  C   UNL A   1      41.828  27.841  28.850  1.00  0.00     0.010 A 
ATOM     37  C   UNL A   1      40.764  27.770  29.767  1.00  0.00    -0.014 A 
BRANCH  37  38
ATOM     38  C   UNL A   1      40.620  28.805  30.824  1.00  0.00     0.031 A 
ATOM     39  C   UNL A   1      41.518  28.726  32.032  1.00  0.00     0.074 A 
ATOM     40  C   UNL A   1      39.726  29.804  30.716  1.00  0.00     0.049 A 
ATOM     41  N   UNL A   1      41.533  29.467  33.109  1.00  0.00    -0.248 NA
ATOM     42  C   UNL A   1      42.534  27.660  32.022  1.00  0.00     0.031 C 
ATOM     43  C   UNL A   1      38.833  30.020  29.580  1.00  0.00     0.029 A 
ATOM     44  N   UNL A   1      39.417  30.822  31.585  1.00  0.00    -0.354 N 
ATOM     45  C   UNL A   1      42.548  28.953  33.909  1.00  0.00     0.074 A 
ATOM     46  C   UNL A   1      43.103  27.817  33.207  1.00  0.00     0.031 C 
ATOM     47  C   UNL A   1      38.065  31.095  29.827  1.00  0.00     0.029 A 
ATOM     48  C   UNL A   1      38.387  31.624  31.152  1.00  0.00     0.049 A 
ATOM     49  H   UNL A   1      39.888  30.964  32.438  1.00  0.00     0.167 HD
ATOM     50  C   UNL A   1      42.982  29.392  35.114  1.00  0.00     0.037 A 
ATOM     51  C   UNL A   1      37.762  32.650  31.766  1.00  0.00     0.037 A 
ATOM     52  C   UNL A   1      42.426  30.526  35.809  1.00  0.00     0.049 A 
ATOM     53  C   UNL A   1      38.217  33.079  33.139  1.00  0.00     0.074 A 
ATOM     54  C   UNL A   1      42.806  31.059  37.028  1.00  0.00     0.029 A 
ATOM     55  N   UNL A   1      41.366  31.295  35.351  1.00  0.00    -0.354 N 
ATOM     56  N   UNL A   1      39.187  32.594  33.880  1.00  0.00    -0.248 NA
ATOM     57  C   UNL A   1      37.495  34.200  33.759  1.00  0.00     0.031 C 
ATOM     58  C   UNL A   1      41.940  32.114  37.334  1.00  0.00     0.029 A 
ATOM     59  C   UNL A   1      41.061  32.281  36.276  1.00  0.00     0.049 A 
ATOM     60  H   UNL A   1      40.899  31.161  34.495  1.00  0.00     0.167 HD
ATOM     61  C   UNL A   1      39.208  33.370  35.036  1.00  0.00     0.074 A 
ATOM     62  C   UNL A   1      38.167  34.364  34.890  1.00  0.00     0.031 C 
ATOM     63  C   UNL A   1      40.021  33.269  36.119  1.00  0.00     0.037 A 
BRANCH  50  64
ATOM     64  C   UNL A   1      44.096  28.625  35.775  1.00  0.00     0.058 A 
ATOM     65  C   UNL A   1      43.845  27.562  36.658  1.00  0.00     0.135 A 
ATOM     66  C   UNL A   1      45.437  28.941  35.500  1.00  0.00     0.135 A 
ATOM     67  F   UNL A   1      42.583  27.227  36.974  1.00  0.00    -0.206 F 
ATOM     68  C   UNL A   1      44.881  26.860  37.268  1.00  0.00     0.059 A 
ATOM     69  C   UNL A   1      46.489  28.232  36.073  1.00  0.00     0.059 A 
ATOM     70  F   UNL A   1      45.736  29.949  34.666  1.00  0.00    -0.206 F 
ATOM     71  C   UNL A   1      46.200  27.203  36.968  1.00  0.00     0.060 A 
BRANCH  71  72
ATOM     72  S   UNL A   1      47.533  26.280  37.762  1.00  0.00     0.124 S 
ATOM     73  O   UNL A   1      48.490  26.149  36.668  1.00  0.00    -0.237 OA
ATOM     74  O   UNL A   1      47.929  27.174  38.845  1.00  0.00    -0.237 OA
ATOM     75  O   UNL A   1      46.887  25.040  38.181  1.00  0.00    -0.744 OA
ENDBRANCH  71  72
ENDBRANCH  50  64
BRANCH  51  76
ATOM     76  C   UNL A   1      36.626  33.341  31.093  1.00  0.00     0.058 A 
ATOM     77  C   UNL A   1      36.833  34.154  29.969  1.00  0.00     0.135 A 
ATOM     78  C   UNL A   1      35.312  33.212  31.569  1.00  0.00     0.135 A 
ATOM     79  F   UNL A   1      38.072  34.327  29.484  1.00  0.00    -0.206 F 
ATOM     80  C   UNL A   1      35.782  34.824  29.348  1.00  0.00     0.059 A 
ATOM     81  C   UNL A   1      34.241  33.847  30.949  1.00  0.00     0.059 A 
ATOM     82  F   UNL A   1      35.057  32.445  32.641  1.00  0.00    -0.206 F 
ATOM     83  C   UNL A   1      34.488  34.659  29.843  1.00  0.00     0.060 A 
BRANCH  83  84
ATOM     84  S   UNL A   1      33.126  35.496  29.001  1.00  0.00     0.124 S 
ATOM     85  O   UNL A   1      33.830  36.546  28.274  1.00  0.00    -0.237 OA
ATOM     86  O   UNL A   1      32.564  34.422  28.187  1.00  0.00    -0.237 OA
ATOM     87  O   UNL A   1      32.278  35.950  30.099  1.00  0.00    -0.744 OA
ENDBRANCH  83  84
ENDBRANCH  51  76
BRANCH  63  88
ATOM     88  C   UNL A   1      39.846  34.287  37.217  1.00  0.00     0.058 A 
ATOM     89  C   UNL A   1      40.433  35.561  37.153  1.00  0.00     0.135 A 
ATOM     90  C   UNL A   1      39.048  33.995  38.336  1.00  0.00     0.135 A 
ATOM     91  F   UNL A   1      41.206  35.898  36.107  1.00  0.00    -0.206 F 
ATOM     92  C   UNL A   1      40.267  36.492  38.175  1.00  0.00     0.059 A 
ATOM     93  C   UNL A   1      38.841  34.922  39.354  1.00  0.00     0.059 A 
ATOM     94  F   UNL A   1      38.448  32.797  38.446  1.00  0.00    -0.206 F 
ATOM     95  C   UNL A   1      39.470  36.162  39.272  1.00  0.00     0.060 A 
BRANCH  95  96
ATOM     96  S   UNL A   1      39.256  37.382  40.586  1.00  0.00     0.124 S 
ATOM     97  O   UNL A   1      38.252  38.267  40.006  1.00  0.00    -0.237 OA
ATOM     98  O   UNL A   1      38.807  36.561  41.706  1.00  0.00    -0.237 OA
ATOM     99  O   UNL A   1      40.590  37.958  40.736  1.00  0.00    -0.744 OA
ENDBRANCH  95  96
ENDBRANCH  63  88
ENDBRANCH  37  38
ENDBRANCH  30  32
ENDBRANCH  29  30
ENDBRANCH  28  29
ENDBRANCH  27  28
ENDBRANCH  26  27
ENDBRANCH  25  26
ENDBRANCH   1  25
TORSDOF 23
ENDMDL
MODEL 2
REMARK VINA RESULT:     -10.5      1.361      2.363
REMARK SMILES Cc1ccsc1CNC(=O)N1CCOC[C@H]1C(=O)OCCOCCOCCOC(=O)c1ccc(-c2c3nc(c(-c4c(F)cc(S(=O)(=O)[O-])cc4F)c4ccc([nH]4)c(-c4c(F)cc(S(=O)(=O)[O-])cc4F)c4nc(c(-c5c(F)cc(S(=O)(=O)[O-])cc5F)c5ccc2[nH]5)C=C4)C=C3)cc1
REMARK SMILES IDX 23 1 22 2 21 3 20 4 19 5 17 6 18 7 16 8 11 9 12 10 13 11
REMARK SMILES IDX 15 12 14 13 9 14 8 15 10 17 7 18 6 19 1 20 2 21 3 22 4 23
REMARK SMILES IDX 5 24 24 25 25 26 26 27 27 28 28 29 29 30 30 31 31 32 32 33
REMARK SMILES IDX 96 34 33 35 95 36 34 37 35 38 36 39 89 40 37 41 94 42 88 43
REMARK SMILES IDX 90 44 38 45 93 46 87 47 86 48 39 50 73 51 52 52 72 53 53 54
REMARK SMILES IDX 56 55 71 56 91 57 54 58 55 59 70 61 92 62 57 63 40 64 41 65
REMARK SMILES IDX 50 66 42 67 43 68 49 69 51 70 44 71 45 72 46 73 47 74 48 75
REMARK SMILES IDX 74 76 75 77 84 78 76 79 77 80 83 81 85 82 78 83 79 84 80 85
REMARK SMILES IDX 81 86 82 87 58 88 59 89 68 90 60 91 61 92 67 93 69 94 62 95
REMARK SMILES IDX 63 96 64 97 65 98 66 99
REMARK H PARENT 8 16 90 49 56 60
REMARK Flexibility Score: inf
ROOT
ATOM      1  C   UNL A   1      37.211  20.916  25.060  1.00  0.00     0.188 C 
ENDROOT
BRANCH   1   2
ATOM      2  O   UNL A   1      35.916  20.975  25.653  1.00  0.00    -0.376 OA
BRANCH   2   3
ATOM      3  C   UNL A   1      34.786  20.579  24.886  1.00  0.00     0.202 C 
BRANCH   3   4
ATOM      4  C   UNL A   1      33.842  21.658  24.334  1.00  0.00     0.261 C 
BRANCH   4   5
ATOM      5  O   UNL A   1      34.271  23.017  24.567  1.00  0.00    -0.462 OA
BRANCH   5   6
ATOM      6  C   UNL A   1      34.083  23.902  23.552  1.00  0.00     0.331 C 
ATOM      7  O   UNL A   1      34.469  23.704  22.402  1.00  0.00    -0.250 OA
BRANCH   6   8
ATOM      8  C   UNL A   1      33.401  25.231  23.963  1.00  0.00     0.222 C 
ATOM      9  N   UNL A   1      32.674  26.116  23.015  1.00  0.00    -0.306 N 
ATOM     10  C   UNL A   1      31.479  25.513  22.441  1.00  0.00     0.151 C 
ATOM     11  C   UNL A   1      30.548  25.058  23.565  1.00  0.00     0.182 C 
ATOM     12  C   UNL A   1      32.395  24.859  25.065  1.00  0.00     0.197 C 
ATOM     13  O   UNL A   1      31.228  24.211  24.508  1.00  0.00    -0.377 OA
BRANCH   9  14
ATOM     14  C   UNL A   1      33.133  27.388  22.831  1.00  0.00     0.318 C 
ATOM     15  N   UNL A   1      32.714  28.419  23.593  1.00  0.00    -0.333 N 
ATOM     16  H   UNL A   1      32.896  29.297  23.187  1.00  0.00     0.165 HD
ATOM     17  O   UNL A   1      33.983  27.642  21.974  1.00  0.00    -0.249 OA
BRANCH  15  18
ATOM     18  C   UNL A   1      32.054  28.514  24.881  1.00  0.00     0.165 C 
BRANCH  18  19
ATOM     19  C   UNL A   1      32.840  29.318  25.889  1.00  0.00     0.027 A 
ATOM     20  C   UNL A   1      31.318  31.392  26.108  1.00  0.00     0.045 C 
ATOM     21  C   UNL A   1      32.513  30.556  26.440  1.00  0.00    -0.035 A 
ATOM     22  C   UNL A   1      33.478  30.962  27.423  1.00  0.00     0.015 A 
ATOM     23  C   UNL A   1      34.479  30.037  27.601  1.00  0.00     0.065 A 
ATOM     24  S   UNL A   1      34.265  28.673  26.607  1.00  0.00    -0.147 S 
ENDBRANCH  18  19
ENDBRANCH  15  18
ENDBRANCH   9  14
ENDBRANCH   6   8
ENDBRANCH   5   6
ENDBRANCH   4   5
ENDBRANCH   3   4
ENDBRANCH   2   3
ENDBRANCH   1   2
BRANCH   1  25
ATOM     25  C   UNL A   1      38.350  21.741  25.689  1.00  0.00     0.188 C 
BRANCH  25  26
ATOM     26  O   UNL A   1      39.542  21.021  25.913  1.00  0.00    -0.376 OA
BRANCH  26  27
ATOM     27  C   UNL A   1      40.515  21.575  26.775  1.00  0.00     0.202 C 
BRANCH  27  28
ATOM     28  C   UNL A   1      41.275  22.870  26.430  1.00  0.00     0.261 C 
BRANCH  28  29
ATOM     29  O   UNL A   1      40.542  24.103  26.438  1.00  0.00    -0.460 OA
BRANCH  29  30
ATOM     30  C   UNL A   1      41.232  25.238  26.195  1.00  0.00     0.338 C 
ATOM     31  O   UNL A   1      41.669  25.609  25.111  1.00  0.00    -0.246 OA
BRANCH  30  32
ATOM     32  C   UNL A   1      41.208  26.066  27.420  1.00  0.00     0.060 A 
ATOM     33  C   UNL A   1      40.132  25.941  28.311  1.00  0.00     0.016 A 
ATOM     34  C   UNL A   1      42.246  26.960  27.693  1.00  0.00     0.016 A 
ATOM     35  C   UNL A   1      40.075  26.735  29.459  1.00  0.00     0.010 A 
ATOM     36  C   UNL A   1      42.176  27.768  28.834  1.00  0.00     0.010 A 
ATOM     37  C   UNL A   1      41.075  27.684  29.706  1.00  0.00    -0.014 A 
BRANCH  37  38
ATOM     38  C   UNL A   1      40.885  28.707  30.767  1.00  0.00     0.031 A 
ATOM     39  C   UNL A   1      41.759  28.641  31.993  1.00  0.00     0.074 A 
ATOM     40  C   UNL A   1      39.969  29.686  30.646  1.00  0.00     0.049 A 
ATOM     41  N   UNL A   1      41.733  29.375  33.075  1.00  0.00    -0.248 NA
ATOM     42  C   UNL A   1      42.800  27.600  31.996  1.00  0.00     0.031 C 
ATOM     43  C   UNL A   1      39.095  29.889  29.493  1.00  0.00     0.029 A 
ATOM     44  N   UNL A   1      39.618  30.690  31.516  1.00  0.00    -0.354 N 
ATOM     45  C   UNL A   1      42.744  28.879  33.892  1.00  0.00     0.074 A 
ATOM     46  C   UNL A   1      43.341  27.762  33.194  1.00  0.00     0.031 C 
ATOM     47  C   UNL A   1      38.296  30.944  29.732  1.00  0.00     0.029 A 
ATOM     48  C   UNL A   1      38.578  31.470  31.067  1.00  0.00     0.049 A 
ATOM     49  H   UNL A   1      40.068  30.837  32.379  1.00  0.00     0.167 HD
ATOM     50  C   UNL A   1      43.142  29.320  35.109  1.00  0.00     0.037 A 
ATOM     51  C   UNL A   1      37.916  32.476  31.674  1.00  0.00     0.037 A 
ATOM     52  C   UNL A   1      42.544  30.434  35.800  1.00  0.00     0.049 A 
ATOM     53  C   UNL A   1      38.332  32.906  33.059  1.00  0.00     0.074 A 
ATOM     54  C   UNL A   1      42.886  30.967  37.030  1.00  0.00     0.029 A 
ATOM     55  N   UNL A   1      41.476  31.182  35.325  1.00  0.00    -0.354 N 
ATOM     56  N   UNL A   1      39.297  32.439  33.818  1.00  0.00    -0.248 NA
ATOM     57  C   UNL A   1      37.570  34.005  33.672  1.00  0.00     0.031 C 
ATOM     58  C   UNL A   1      41.989  31.999  37.325  1.00  0.00     0.029 A 
ATOM     59  C   UNL A   1      41.128  32.153  36.250  1.00  0.00     0.049 A 
ATOM     60  H   UNL A   1      41.031  31.042  34.458  1.00  0.00     0.167 HD
ATOM     61  C   UNL A   1      39.276  33.206  34.979  1.00  0.00     0.074 A 
ATOM     62  C   UNL A   1      38.214  34.176  34.818  1.00  0.00     0.031 C 
ATOM     63  C   UNL A   1      40.069  33.117  36.078  1.00  0.00     0.037 A 
BRANCH  50  64
ATOM     64  C   UNL A   1      44.260  28.574  35.788  1.00  0.00     0.058 A 
ATOM     65  C   UNL A   1      45.605  28.942  35.627  1.00  0.00     0.135 A 
ATOM     66  C   UNL A   1      43.977  27.488  36.635  1.00  0.00     0.135 A 
ATOM     67  F   UNL A   1      45.937  29.958  34.815  1.00  0.00    -0.206 F 
ATOM     68  C   UNL A   1      46.632  28.243  36.256  1.00  0.00     0.059 A 
ATOM     69  C   UNL A   1      44.985  26.795  37.299  1.00  0.00     0.059 A 
ATOM     70  F   UNL A   1      42.709  27.090  36.823  1.00  0.00    -0.206 F 
ATOM     71  C   UNL A   1      46.311  27.171  37.091  1.00  0.00     0.060 A 
BRANCH  71  72
ATOM     72  S   UNL A   1      47.654  26.280  37.903  1.00  0.00     0.124 S 
ATOM     73  O   UNL A   1      48.485  27.379  38.386  1.00  0.00    -0.237 OA
ATOM     74  O   UNL A   1      46.948  25.523  38.932  1.00  0.00    -0.237 OA
ATOM     75  O   UNL A   1      48.234  25.481  36.828  1.00  0.00    -0.744 OA
ENDBRANCH  71  72
ENDBRANCH  50  64
BRANCH  51  76
ATOM     76  C   UNL A   1      36.778  33.145  30.983  1.00  0.00     0.058 A 
ATOM     77  C   UNL A   1      35.448  32.838  31.307  1.00  0.00     0.135 A 
ATOM     78  C   UNL A   1      36.998  34.099  29.976  1.00  0.00     0.135 A 
ATOM     79  F   UNL A   1      35.182  31.920  32.249  1.00  0.00    -0.206 F 
ATOM     80  C   UNL A   1      34.378  33.439  30.650  1.00  0.00     0.059 A 
ATOM     81  C   UNL A   1      35.946  34.736  29.326  1.00  0.00     0.059 A 
ATOM     82  F   UNL A   1      38.251  34.433  29.628  1.00  0.00    -0.206 F 
ATOM     83  C   UNL A   1      34.638  34.392  29.664  1.00  0.00     0.060 A 
BRANCH  83  84
ATOM     84  S   UNL A   1      33.241  35.200  28.851  1.00  0.00     0.124 S 
ATOM     85  O   UNL A   1      32.478  35.687  29.993  1.00  0.00    -0.237 OA
ATOM     86  O   UNL A   1      33.905  36.219  28.045  1.00  0.00    -0.237 OA
ATOM     87  O   UNL A   1      32.620  34.117  28.094  1.00  0.00    -0.744 OA
ENDBRANCH  83  84
ENDBRANCH  51  76
BRANCH  63  88
ATOM     88  C   UNL A   1      39.846  34.122  37.179  1.00  0.00     0.058 A 
ATOM     89  C   UNL A   1      40.417  35.405  37.144  1.00  0.00     0.135 A 
ATOM     90  C   UNL A   1      39.018  33.809  38.271  1.00  0.00     0.135 A 
ATOM     91  F   UNL A   1      41.218  35.761  36.126  1.00  0.00    -0.206 F 
ATOM     92  C   UNL A   1      40.208  36.324  38.169  1.00  0.00     0.059 A 
ATOM     93  C   UNL A   1      38.768  34.724  39.289  1.00  0.00     0.059 A 
ATOM     94  F   UNL A   1      38.431  32.603  38.351  1.00  0.00    -0.206 F 
ATOM     95  C   UNL A   1      39.382  35.973  39.238  1.00  0.00     0.060 A 
BRANCH  95  96
ATOM     96  S   UNL A   1      39.112  37.178  40.555  1.00  0.00     0.124 S 
ATOM     97  O   UNL A   1      38.137  36.488  41.392  1.00  0.00    -0.237 OA
ATOM     98  O   UNL A   1      40.448  37.323  41.126  1.00  0.00    -0.237 OA
ATOM     99  O   UNL A   1      38.611  38.352  39.846  1.00  0.00    -0.744 OA
ENDBRANCH  95  96
ENDBRANCH  63  88
ENDBRANCH  37  38
ENDBRANCH  30  32
ENDBRANCH  29  30
ENDBRANCH  28  29
ENDBRANCH  27  28
ENDBRANCH  26  27
ENDBRANCH  25  26
ENDBRANCH   1  25
TORSDOF 23
ENDMDL
MODEL 3
REMARK VINA RESULT:     -10.0      4.858      6.250
REMARK SMILES Cc1ccsc1CNC(=O)N1CCOC[C@H]1C(=O)OCCOCCOCCOC(=O)c1ccc(-c2c3nc(c(-c4c(F)cc(S(=O)(=O)[O-])cc4F)c4ccc([nH]4)c(-c4c(F)cc(S(=O)(=O)[O-])cc4F)c4nc(c(-c5c(F)cc(S(=O)(=O)[O-])cc5F)c5ccc2[nH]5)C=C4)C=C3)cc1
REMARK SMILES IDX 23 1 22 2 21 3 20 4 19 5 17 6 18 7 16 8 11 9 12 10 13 11
REMARK SMILES IDX 15 12 14 13 9 14 8 15 10 17 7 18 6 19 1 20 2 21 3 22 4 23
REMARK SMILES IDX 5 24 24 25 25 26 26 27 27 28 28 29 29 30 30 31 31 32 32 33
REMARK SMILES IDX 96 34 33 35 95 36 34 37 35 38 36 39 89 40 37 41 94 42 88 43
REMARK SMILES IDX 90 44 38 45 93 46 87 47 86 48 39 50 73 51 52 52 72 53 53 54
REMARK SMILES IDX 56 55 71 56 91 57 54 58 55 59 70 61 92 62 57 63 40 64 41 65
REMARK SMILES IDX 50 66 42 67 43 68 49 69 51 70 44 71 45 72 46 73 47 74 48 75
REMARK SMILES IDX 74 76 75 77 84 78 76 79 77 80 83 81 85 82 78 83 79 84 80 85
REMARK SMILES IDX 81 86 82 87 58 88 59 89 68 90 60 91 61 92 67 93 69 94 62 95
REMARK SMILES IDX 63 96 64 97 65 98 66 99
REMARK H PARENT 8 16 90 49 56 60
REMARK Flexibility Score: inf
ROOT
ATOM      1  C   UNL A   1      33.332  20.191  25.720  1.00  0.00     0.188 C 
ENDROOT
BRANCH   1   2
ATOM      2  O   UNL A   1      33.463  21.427  26.416  1.00  0.00    -0.376 OA
BRANCH   2   3
ATOM      3  C   UNL A   1      32.590  22.501  26.088  1.00  0.00     0.202 C 
BRANCH   3   4
ATOM      4  C   UNL A   1      31.441  22.254  25.098  1.00  0.00     0.261 C 
BRANCH   4   5
ATOM      5  O   UNL A   1      31.767  22.505  23.715  1.00  0.00    -0.462 OA
BRANCH   5   6
ATOM      6  C   UNL A   1      31.356  23.691  23.193  1.00  0.00     0.331 C 
ATOM      7  O   UNL A   1      30.197  24.094  23.260  1.00  0.00    -0.250 OA
BRANCH   6   8
ATOM      8  C   UNL A   1      32.449  24.482  22.431  1.00  0.00     0.222 C 
ATOM      9  N   UNL A   1      33.138  25.680  22.981  1.00  0.00    -0.306 N 
ATOM     10  C   UNL A   1      33.953  25.405  24.157  1.00  0.00     0.151 C 
ATOM     11  C   UNL A   1      34.968  24.309  23.828  1.00  0.00     0.182 C 
ATOM     12  C   UNL A   1      33.551  23.461  22.105  1.00  0.00     0.197 C 
ATOM     13  O   UNL A   1      34.331  23.142  23.279  1.00  0.00    -0.377 OA
BRANCH   9  14
ATOM     14  C   UNL A   1      33.010  26.866  22.318  1.00  0.00     0.318 C 
ATOM     15  N   UNL A   1      31.912  27.640  22.439  1.00  0.00    -0.333 N 
ATOM     16  H   UNL A   1      31.825  28.301  21.716  1.00  0.00     0.165 HD
ATOM     17  O   UNL A   1      33.915  27.298  21.601  1.00  0.00    -0.249 OA
BRANCH  15  18
ATOM     18  C   UNL A   1      30.832  27.709  23.406  1.00  0.00     0.165 C 
BRANCH  18  19
ATOM     19  C   UNL A   1      31.309  28.035  24.801  1.00  0.00     0.027 A 
ATOM     20  C   UNL A   1      30.521  25.923  26.059  1.00  0.00     0.045 C 
ATOM     21  C   UNL A   1      31.195  27.253  25.949  1.00  0.00    -0.035 A 
ATOM     22  C   UNL A   1      31.840  27.876  27.071  1.00  0.00     0.015 A 
ATOM     23  C   UNL A   1      32.427  29.077  26.750  1.00  0.00     0.065 A 
ATOM     24  S   UNL A   1      32.223  29.461  25.105  1.00  0.00    -0.147 S 
ENDBRANCH  18  19
ENDBRANCH  15  18
ENDBRANCH   9  14
ENDBRANCH   6   8
ENDBRANCH   5   6
ENDBRANCH   4   5
ENDBRANCH   3   4
ENDBRANCH   2   3
ENDBRANCH   1   2
BRANCH   1  25
ATOM     25  C   UNL A   1      34.399  19.817  24.673  1.00  0.00     0.188 C 
BRANCH  25  26
ATOM     26  O   UNL A   1      35.725  19.846  25.150  1.00  0.00    -0.376 OA
BRANCH  26  27
ATOM     27  C   UNL A   1      36.569  20.902  24.737  1.00  0.00     0.202 C 
BRANCH  27  28
ATOM     28  C   UNL A   1      37.096  21.964  25.722  1.00  0.00     0.261 C 
BRANCH  28  29
ATOM     29  O   UNL A   1      38.364  22.572  25.441  1.00  0.00    -0.460 OA
BRANCH  29  30
ATOM     30  C   UNL A   1      39.327  22.464  26.381  1.00  0.00     0.338 C 
ATOM     31  O   UNL A   1      39.940  21.447  26.685  1.00  0.00    -0.246 OA
BRANCH  30  32
ATOM     32  C   UNL A   1      39.664  23.824  26.856  1.00  0.00     0.060 A 
ATOM     33  C   UNL A   1      39.958  24.824  25.919  1.00  0.00     0.016 A 
ATOM     34  C   UNL A   1      39.685  24.113  28.223  1.00  0.00     0.016 A 
ATOM     35  C   UNL A   1      40.308  26.107  26.348  1.00  0.00     0.010 A 
ATOM     36  C   UNL A   1      40.055  25.394  28.649  1.00  0.00     0.010 A 
ATOM     37  C   UNL A   1      40.401  26.388  27.716  1.00  0.00    -0.014 A 
BRANCH  37  38
ATOM     38  C   UNL A   1      41.028  27.655  28.175  1.00  0.00     0.031 A 
ATOM     39  C   UNL A   1      42.526  27.790  28.079  1.00  0.00     0.074 A 
ATOM     40  C   UNL A   1      40.291  28.674  28.654  1.00  0.00     0.049 A 
ATOM     41  N   UNL A   1      43.302  28.764  28.478  1.00  0.00    -0.248 NA
ATOM     42  C   UNL A   1      43.243  26.668  27.451  1.00  0.00     0.031 C 
ATOM     43  C   UNL A   1      38.833  28.689  28.755  1.00  0.00     0.029 A 
ATOM     44  N   UNL A   1      40.676  29.895  29.155  1.00  0.00    -0.354 N 
ATOM     45  C   UNL A   1      44.598  28.369  28.161  1.00  0.00     0.074 A 
ATOM     46  C   UNL A   1      44.504  27.053  27.567  1.00  0.00     0.031 C 
ATOM     47  C   UNL A   1      38.446  29.856  29.299  1.00  0.00     0.029 A 
ATOM     48  C   UNL A   1      39.628  30.656  29.616  1.00  0.00     0.049 A 
ATOM     49  H   UNL A   1      41.613  30.194  29.181  1.00  0.00     0.167 HD
ATOM     50  C   UNL A   1      45.758  29.044  28.341  1.00  0.00     0.037 A 
ATOM     51  C   UNL A   1      39.628  31.851  30.243  1.00  0.00     0.037 A 
ATOM     52  C   UNL A   1      45.845  30.356  28.932  1.00  0.00     0.049 A 
ATOM     53  C   UNL A   1      40.938  32.555  30.496  1.00  0.00     0.074 A 
ATOM     54  C   UNL A   1      46.972  31.130  29.145  1.00  0.00     0.029 A 
ATOM     55  N   UNL A   1      44.765  31.083  29.411  1.00  0.00    -0.354 N 
ATOM     56  N   UNL A   1      42.156  32.178  30.181  1.00  0.00    -0.248 NA
ATOM     57  C   UNL A   1      40.874  33.851  31.188  1.00  0.00     0.031 C 
ATOM     58  C   UNL A   1      46.581  32.300  29.805  1.00  0.00     0.029 A 
ATOM     59  C   UNL A   1      45.203  32.286  29.945  1.00  0.00     0.049 A 
ATOM     60  H   UNL A   1      43.826  30.789  29.378  1.00  0.00     0.167 HD
ATOM     61  C   UNL A   1      42.996  33.204  30.607  1.00  0.00     0.074 A 
ATOM     62  C   UNL A   1      42.147  34.222  31.189  1.00  0.00     0.031 C 
ATOM     63  C   UNL A   1      44.348  33.295  30.521  1.00  0.00     0.037 A 
BRANCH  50  64
ATOM     64  C   UNL A   1      47.033  28.362  27.922  1.00  0.00     0.058 A 
ATOM     65  C   UNL A   1      47.755  27.534  28.796  1.00  0.00     0.135 A 
ATOM     66  C   UNL A   1      47.527  28.520  26.616  1.00  0.00     0.135 A 
ATOM     67  F   UNL A   1      47.343  27.362  30.062  1.00  0.00    -0.206 F 
ATOM     68  C   UNL A   1      48.936  26.911  28.401  1.00  0.00     0.059 A 
ATOM     69  C   UNL A   1      48.687  27.881  26.189  1.00  0.00     0.059 A 
ATOM     70  F   UNL A   1      46.878  29.302  25.739  1.00  0.00    -0.206 F 
ATOM     71  C   UNL A   1      49.393  27.090  27.094  1.00  0.00     0.060 A 
BRANCH  71  72
ATOM     72  S   UNL A   1      50.922  26.271  26.596  1.00  0.00     0.124 S 
ATOM     73  O   UNL A   1      51.929  27.176  27.141  1.00  0.00    -0.237 OA
ATOM     74  O   UNL A   1      50.812  24.976  27.258  1.00  0.00    -0.237 OA
ATOM     75  O   UNL A   1      50.833  26.237  25.140  1.00  0.00    -0.744 OA
ENDBRANCH  71  72
ENDBRANCH  50  64
BRANCH  51  76
ATOM     76  C   UNL A   1      38.342  32.458  30.690  1.00  0.00     0.058 A 
ATOM     77  C   UNL A   1      37.888  32.310  32.009  1.00  0.00     0.135 A 
ATOM     78  C   UNL A   1      37.537  33.190  29.803  1.00  0.00     0.135 A 
ATOM     79  F   UNL A   1      38.611  31.604  32.893  1.00  0.00    -0.206 F 
ATOM     80  C   UNL A   1      36.677  32.853  32.431  1.00  0.00     0.059 A 
ATOM     81  C   UNL A   1      36.338  33.767  30.208  1.00  0.00     0.059 A 
ATOM     82  F   UNL A   1      37.925  33.364  28.530  1.00  0.00    -0.206 F 
ATOM     83  C   UNL A   1      35.911  33.585  31.523  1.00  0.00     0.060 A 
BRANCH  83  84
ATOM     84  S   UNL A   1      34.364  34.324  32.093  1.00  0.00     0.124 S 
ATOM     85  O   UNL A   1      34.850  35.444  32.890  1.00  0.00    -0.237 OA
ATOM     86  O   UNL A   1      33.710  34.672  30.836  1.00  0.00    -0.237 OA
ATOM     87  O   UNL A   1      33.731  33.244  32.843  1.00  0.00    -0.744 OA
ENDBRANCH  83  84
ENDBRANCH  51  76
BRANCH  63  88
ATOM     88  C   UNL A   1      44.994  34.558  31.031  1.00  0.00     0.058 A 
ATOM     89  C   UNL A   1      45.168  35.687  30.215  1.00  0.00     0.135 A 
ATOM     90  C   UNL A   1      45.414  34.651  32.369  1.00  0.00     0.135 A 
ATOM     91  F   UNL A   1      44.786  35.657  28.928  1.00  0.00    -0.206 F 
ATOM     92  C   UNL A   1      45.769  36.848  30.695  1.00  0.00     0.059 A 
ATOM     93  C   UNL A   1      45.987  35.812  32.879  1.00  0.00     0.059 A 
ATOM     94  F   UNL A   1      45.259  33.608  33.201  1.00  0.00    -0.206 F 
ATOM     95  C   UNL A   1      46.177  36.899  32.030  1.00  0.00     0.060 A 
BRANCH  95  96
ATOM     96  S   UNL A   1      46.947  38.413  32.642  1.00  0.00     0.124 S 
ATOM     97  O   UNL A   1      47.636  38.897  31.451  1.00  0.00    -0.237 OA
ATOM     98  O   UNL A   1      45.794  39.199  33.071  1.00  0.00    -0.237 OA
ATOM     99  O   UNL A   1      47.812  37.943  33.721  1.00  0.00    -0.744 OA
ENDBRANCH  95  96
ENDBRANCH  63  88
ENDBRANCH  37  38
ENDBRANCH  30  32
ENDBRANCH  29  30
ENDBRANCH  28  29
ENDBRANCH  27  28
ENDBRANCH  26  27
ENDBRANCH  25  26
ENDBRANCH   1  25
TORSDOF 23
ENDMDL
