MODEL 1
REMARK VINA RESULT:      -9.7      0.000      0.000
REMARK SMILES CC(C)[C@H](CO)Nc1ccc(C(F)(F)F)cc1C(=O)OCCOCCOCCOC(=O)c1ccc(-c2c3nc(c(-c4c(F)cc(S(=O)(=O)[O-])cc4F)c4ccc([nH]4)c(-c4c(F)cc(S(=O)(=O)[O-])cc4F)c4nc(c(-c5c(F)cc(S(=O)(=O)[O-])cc5F)c5ccc2[nH]5)C=C4)C=C3)cc1
REMARK SMILES IDX 24 1 23 2 22 3 21 4 20 5 18 6 19 7 17 8 8 9 9 10 10 11 16 12
REMARK SMILES IDX 11 13 7 14 4 16 2 17 1 18 3 19 5 20 6 21 12 23 13 24 14 25
REMARK SMILES IDX 15 26 25 27 26 28 27 29 28 30 29 31 30 32 31 33 32 34 33 35
REMARK SMILES IDX 97 36 34 37 96 38 35 39 36 40 37 41 90 42 38 43 95 44 89 45
REMARK SMILES IDX 91 46 39 47 94 48 88 49 87 50 40 52 74 53 53 54 73 55 54 56
REMARK SMILES IDX 57 57 72 58 92 59 55 60 56 61 71 63 93 64 58 65 41 66 42 67
REMARK SMILES IDX 51 68 43 69 44 70 50 71 52 72 45 73 46 74 47 75 48 76 49 77
REMARK SMILES IDX 75 78 76 79 85 80 77 81 78 82 84 83 86 84 79 85 80 86 81 87
REMARK SMILES IDX 82 88 83 89 59 90 60 91 69 92 61 93 62 94 68 95 70 96 63 97
REMARK SMILES IDX 64 98 65 99 66 100 67 101
REMARK H PARENT 7 15 6 22 91 51 57 62
REMARK Flexibility Score: inf
ROOT
ATOM      1  C   UNL A   1      39.380  22.499  26.465  1.00  0.00     0.188 C 
ENDROOT
BRANCH   1   2
ATOM      2  O   UNL A   1      38.500  21.630  25.755  1.00  0.00    -0.376 OA
BRANCH   2   3
ATOM      3  C   UNL A   1      37.297  22.175  25.217  1.00  0.00     0.202 C 
BRANCH   3   4
ATOM      4  C   UNL A   1      36.978  23.609  25.636  1.00  0.00     0.261 C 
BRANCH   4   5
ATOM      5  O   UNL A   1      35.571  23.734  25.886  1.00  0.00    -0.460 OA
BRANCH   5   6
ATOM      6  C   UNL A   1      34.852  24.329  24.911  1.00  0.00     0.340 C 
ATOM      7  O   UNL A   1      34.927  24.110  23.714  1.00  0.00    -0.246 OA
BRANCH   6   8
ATOM      8  C   UNL A   1      33.788  25.136  25.538  1.00  0.00     0.083 A 
ATOM      9  C   UNL A   1      32.531  24.655  25.942  1.00  0.00     0.049 A 
ATOM     10  C   UNL A   1      31.685  25.596  26.577  1.00  0.00     0.027 A 
ATOM     11  C   UNL A   1      32.037  26.934  26.775  1.00  0.00     0.015 A 
ATOM     12  C   UNL A   1      34.147  26.495  25.732  1.00  0.00     0.031 A 
ATOM     13  C   UNL A   1      33.270  27.407  26.335  1.00  0.00     0.057 A 
BRANCH   9  14
ATOM     14  N   UNL A   1      32.011  23.380  25.859  1.00  0.00    -0.379 N 
ATOM     15  H   UNL A   1      32.068  22.877  26.704  1.00  0.00     0.160 HD
BRANCH  14  16
ATOM     16  C   UNL A   1      31.390  22.624  24.764  1.00  0.00     0.107 C 
BRANCH  16  17
ATOM     17  C   UNL A   1      32.076  21.240  24.572  1.00  0.00     0.007 C 
ATOM     18  C   UNL A   1      32.428  20.942  23.110  1.00  0.00     0.009 C 
ATOM     19  C   UNL A   1      33.325  21.017  25.437  1.00  0.00     0.009 C 
ENDBRANCH  16  17
BRANCH  16  20
ATOM     20  C   UNL A   1      31.467  23.538  23.516  1.00  0.00     0.181 C 
BRANCH  20  21
ATOM     21  O   UNL A   1      30.150  23.806  23.024  1.00  0.00    -0.394 OA
ATOM     22  H   UNL A   1      29.495  23.510  23.676  1.00  0.00     0.210 HD
ENDBRANCH  20  21
ENDBRANCH  16  20
ENDBRANCH  14  16
ENDBRANCH   9  14
BRANCH  13  23
ATOM     23  C   UNL A   1      33.656  28.851  26.552  1.00  0.00     0.416 C 
ATOM     24  F   UNL A   1      34.933  28.982  27.009  1.00  0.00    -0.166 F 
ATOM     25  F   UNL A   1      33.589  29.579  25.407  1.00  0.00    -0.166 F 
ATOM     26  F   UNL A   1      32.866  29.479  27.462  1.00  0.00    -0.166 F 
ENDBRANCH  13  23
ENDBRANCH   6   8
ENDBRANCH   5   6
ENDBRANCH   4   5
ENDBRANCH   3   4
ENDBRANCH   2   3
ENDBRANCH   1   2
BRANCH   1  27
ATOM     27  C   UNL A   1      40.762  21.958  26.880  1.00  0.00     0.188 C 
BRANCH  27  28
ATOM     28  O   UNL A   1      41.573  21.552  25.783  1.00  0.00    -0.376 OA
BRANCH  28  29
ATOM     29  C   UNL A   1      42.688  22.389  25.508  1.00  0.00     0.202 C 
BRANCH  29  30
ATOM     30  C   UNL A   1      42.948  23.393  26.635  1.00  0.00     0.261 C 
BRANCH  30  31
ATOM     31  O   UNL A   1      43.189  24.733  26.180  1.00  0.00    -0.460 OA
BRANCH  31  32
ATOM     32  C   UNL A   1      42.106  25.529  26.032  1.00  0.00     0.338 C 
ATOM     33  O   UNL A   1      41.288  25.498  25.131  1.00  0.00    -0.246 OA
BRANCH  32  34
ATOM     34  C   UNL A   1      41.967  26.326  27.266  1.00  0.00     0.060 A 
ATOM     35  C   UNL A   1      40.892  26.060  28.124  1.00  0.00     0.016 A 
ATOM     36  C   UNL A   1      42.905  27.312  27.582  1.00  0.00     0.016 A 
ATOM     37  C   UNL A   1      40.739  26.806  29.292  1.00  0.00     0.010 A 
ATOM     38  C   UNL A   1      42.744  28.065  28.744  1.00  0.00     0.010 A 
ATOM     39  C   UNL A   1      41.645  27.834  29.588  1.00  0.00    -0.014 A 
BRANCH  39  40
ATOM     40  C   UNL A   1      41.363  28.782  30.689  1.00  0.00     0.031 A 
ATOM     41  C   UNL A   1      42.180  28.681  31.946  1.00  0.00     0.074 A 
ATOM     42  C   UNL A   1      40.385  29.699  30.581  1.00  0.00     0.049 A 
ATOM     43  N   UNL A   1      42.091  29.372  33.051  1.00  0.00    -0.248 NA
ATOM     44  C   UNL A   1      43.236  27.653  31.959  1.00  0.00     0.031 C 
ATOM     45  C   UNL A   1      39.530  29.893  29.411  1.00  0.00     0.029 A 
ATOM     46  N   UNL A   1      39.938  30.630  31.485  1.00  0.00    -0.354 N 
ATOM     47  C   UNL A   1      43.076  28.867  33.891  1.00  0.00     0.074 A 
ATOM     48  C   UNL A   1      43.730  27.790  33.180  1.00  0.00     0.031 C 
ATOM     49  C   UNL A   1      38.646  30.871  29.676  1.00  0.00     0.029 A 
ATOM     50  C   UNL A   1      38.862  31.357  31.038  1.00  0.00     0.049 A 
ATOM     51  H   UNL A   1      40.349  30.763  32.369  1.00  0.00     0.167 HD
ATOM     52  C   UNL A   1      43.411  29.271  35.139  1.00  0.00     0.037 A 
ATOM     53  C   UNL A   1      38.128  32.296  31.666  1.00  0.00     0.037 A 
ATOM     54  C   UNL A   1      42.751  30.334  35.846  1.00  0.00     0.049 A 
ATOM     55  C   UNL A   1      38.492  32.701  33.072  1.00  0.00     0.074 A 
ATOM     56  C   UNL A   1      43.035  30.840  37.102  1.00  0.00     0.029 A 
ATOM     57  N   UNL A   1      41.663  31.047  35.365  1.00  0.00    -0.354 N 
ATOM     58  N   UNL A   1      39.460  32.252  33.837  1.00  0.00    -0.248 NA
ATOM     59  C   UNL A   1      37.668  33.744  33.698  1.00  0.00     0.031 C 
ATOM     60  C   UNL A   1      42.093  31.832  37.397  1.00  0.00     0.029 A 
ATOM     61  C   UNL A   1      41.248  31.972  36.307  1.00  0.00     0.049 A 
ATOM     62  H   UNL A   1      41.247  30.914  34.482  1.00  0.00     0.167 HD
ATOM     63  C   UNL A   1      39.374  32.973  35.024  1.00  0.00     0.074 A 
ATOM     64  C   UNL A   1      38.268  33.895  34.871  1.00  0.00     0.031 C 
ATOM     65  C   UNL A   1      40.141  32.882  36.138  1.00  0.00     0.037 A 
BRANCH  52  66
ATOM     66  C   UNL A   1      44.532  28.539  35.819  1.00  0.00     0.058 A 
ATOM     67  C   UNL A   1      45.869  28.950  35.680  1.00  0.00     0.135 A 
ATOM     68  C   UNL A   1      44.269  27.420  36.624  1.00  0.00     0.135 A 
ATOM     69  F   UNL A   1      46.176  30.000  34.903  1.00  0.00    -0.206 F 
ATOM     70  C   UNL A   1      46.908  28.259  36.294  1.00  0.00     0.059 A 
ATOM     71  C   UNL A   1      45.291  26.728  37.267  1.00  0.00     0.059 A 
ATOM     72  F   UNL A   1      43.010  26.983  36.784  1.00  0.00    -0.206 F 
ATOM     73  C   UNL A   1      46.608  27.146  37.082  1.00  0.00     0.060 A 
BRANCH  73  74
ATOM     74  S   UNL A   1      47.968  26.254  37.869  1.00  0.00     0.124 S 
ATOM     75  O   UNL A   1      48.432  25.409  36.772  1.00  0.00    -0.237 OA
ATOM     76  O   UNL A   1      48.868  27.334  38.259  1.00  0.00    -0.237 OA
ATOM     77  O   UNL A   1      47.320  25.553  38.972  1.00  0.00    -0.744 OA
ENDBRANCH  73  74
ENDBRANCH  52  66
BRANCH  53  78
ATOM     78  C   UNL A   1      36.969  32.919  30.974  1.00  0.00     0.058 A 
ATOM     79  C   UNL A   1      37.154  33.921  30.011  1.00  0.00     0.135 A 
ATOM     80  C   UNL A   1      35.654  32.524  31.264  1.00  0.00     0.135 A 
ATOM     81  F   UNL A   1      38.392  34.342  29.709  1.00  0.00    -0.206 F 
ATOM     82  C   UNL A   1      36.075  34.522  29.369  1.00  0.00     0.059 A 
ATOM     83  C   UNL A   1      34.561  33.094  30.620  1.00  0.00     0.059 A 
ATOM     84  F   UNL A   1      35.426  31.563  32.173  1.00  0.00    -0.206 F 
ATOM     85  C   UNL A   1      34.781  34.100  29.679  1.00  0.00     0.060 A 
BRANCH  85  86
ATOM     86  S   UNL A   1      33.388  34.851  28.808  1.00  0.00     0.124 S 
ATOM     87  O   UNL A   1      34.008  36.040  28.236  1.00  0.00    -0.237 OA
ATOM     88  O   UNL A   1      33.018  33.804  27.859  1.00  0.00    -0.237 OA
ATOM     89  O   UNL A   1      32.419  35.092  29.872  1.00  0.00    -0.744 OA
ENDBRANCH  85  86
ENDBRANCH  53  78
BRANCH  65  90
ATOM     90  C   UNL A   1      39.826  33.817  37.272  1.00  0.00     0.058 A 
ATOM     91  C   UNL A   1      38.858  33.503  38.238  1.00  0.00     0.135 A 
ATOM     92  C   UNL A   1      40.529  35.024  37.416  1.00  0.00     0.135 A 
ATOM     93  F   UNL A   1      38.155  32.363  38.144  1.00  0.00    -0.206 F 
ATOM     94  C   UNL A   1      38.579  34.364  39.295  1.00  0.00     0.059 A 
ATOM     95  C   UNL A   1      40.284  35.889  38.478  1.00  0.00     0.059 A 
ATOM     96  F   UNL A   1      41.475  35.366  36.527  1.00  0.00    -0.206 F 
ATOM     97  C   UNL A   1      39.296  35.558  39.404  1.00  0.00     0.060 A 
BRANCH  97  98
ATOM     98  S   UNL A   1      38.942  36.661  40.789  1.00  0.00     0.124 S 
ATOM     99  O   UNL A   1      38.070  35.829  41.611  1.00  0.00    -0.237 OA
ATOM    100  O   UNL A   1      40.271  36.920  41.335  1.00  0.00    -0.237 OA
ATOM    101  O   UNL A   1      38.300  37.807  40.153  1.00  0.00    -0.744 OA
ENDBRANCH  97  98
ENDBRANCH  65  90
ENDBRANCH  39  40
ENDBRANCH  32  34
ENDBRANCH  31  32
ENDBRANCH  30  31
ENDBRANCH  29  30
ENDBRANCH  28  29
ENDBRANCH  27  28
ENDBRANCH   1  27
TORSDOF 26
ENDMDL
MODEL 2
REMARK VINA RESULT:      -9.6      4.961      9.588
REMARK SMILES CC(C)[C@H](CO)Nc1ccc(C(F)(F)F)cc1C(=O)OCCOCCOCCOC(=O)c1ccc(-c2c3nc(c(-c4c(F)cc(S(=O)(=O)[O-])cc4F)c4ccc([nH]4)c(-c4c(F)cc(S(=O)(=O)[O-])cc4F)c4nc(c(-c5c(F)cc(S(=O)(=O)[O-])cc5F)c5ccc2[nH]5)C=C4)C=C3)cc1
REMARK SMILES IDX 24 1 23 2 22 3 21 4 20 5 18 6 19 7 17 8 8 9 9 10 10 11 16 12
REMARK SMILES IDX 11 13 7 14 4 16 2 17 1 18 3 19 5 20 6 21 12 23 13 24 14 25
REMARK SMILES IDX 15 26 25 27 26 28 27 29 28 30 29 31 30 32 31 33 32 34 33 35
REMARK SMILES IDX 97 36 34 37 96 38 35 39 36 40 37 41 90 42 38 43 95 44 89 45
REMARK SMILES IDX 91 46 39 47 94 48 88 49 87 50 40 52 74 53 53 54 73 55 54 56
REMARK SMILES IDX 57 57 72 58 92 59 55 60 56 61 71 63 93 64 58 65 41 66 42 67
REMARK SMILES IDX 51 68 43 69 44 70 50 71 52 72 45 73 46 74 47 75 48 76 49 77
REMARK SMILES IDX 75 78 76 79 85 80 77 81 78 82 84 83 86 84 79 85 80 86 81 87
REMARK SMILES IDX 82 88 83 89 59 90 60 91 69 92 61 93 62 94 68 95 70 96 63 97
REMARK SMILES IDX 64 98 65 99 66 100 67 101
REMARK H PARENT 7 15 6 22 91 51 57 62
REMARK Flexibility Score: inf
ROOT
ATOM      1  C   UNL A   1      32.738  23.079  25.336  1.00  0.00     0.188 C 
ENDROOT
BRANCH   1   2
ATOM      2  O   UNL A   1      31.738  23.594  24.458  1.00  0.00    -0.376 OA
BRANCH   2   3
ATOM      3  C   UNL A   1      31.600  25.009  24.343  1.00  0.00     0.202 C 
BRANCH   3   4
ATOM      4  C   UNL A   1      32.202  25.825  25.486  1.00  0.00     0.261 C 
BRANCH   4   5
ATOM      5  O   UNL A   1      33.431  26.423  25.052  1.00  0.00    -0.460 OA
BRANCH   5   6
ATOM      6  C   UNL A   1      33.308  27.513  24.265  1.00  0.00     0.340 C 
ATOM      7  O   UNL A   1      33.269  27.530  23.047  1.00  0.00    -0.246 OA
BRANCH   6   8
ATOM      8  C   UNL A   1      33.000  28.677  25.118  1.00  0.00     0.083 A 
ATOM      9  C   UNL A   1      31.806  29.417  25.086  1.00  0.00     0.049 A 
ATOM     10  C   UNL A   1      31.700  30.461  26.036  1.00  0.00     0.027 A 
ATOM     11  C   UNL A   1      32.716  30.779  26.942  1.00  0.00     0.015 A 
ATOM     12  C   UNL A   1      34.035  29.000  26.032  1.00  0.00     0.031 A 
ATOM     13  C   UNL A   1      33.910  30.062  26.938  1.00  0.00     0.057 A 
BRANCH   9  14
ATOM     14  N   UNL A   1      30.689  29.247  24.294  1.00  0.00    -0.379 N 
ATOM     15  H   UNL A   1      30.256  28.369  24.408  1.00  0.00     0.160 HD
BRANCH  14  16
ATOM     16  C   UNL A   1      30.017  30.113  23.317  1.00  0.00     0.107 C 
BRANCH  16  17
ATOM     17  C   UNL A   1      28.477  30.129  23.540  1.00  0.00     0.007 C 
ATOM     18  C   UNL A   1      27.885  31.543  23.540  1.00  0.00     0.009 C 
ATOM     19  C   UNL A   1      27.677  29.257  22.561  1.00  0.00     0.009 C 
ENDBRANCH  16  17
BRANCH  16  20
ATOM     20  C   UNL A   1      30.441  29.594  21.921  1.00  0.00     0.181 C 
BRANCH  20  21
ATOM     21  O   UNL A   1      30.632  28.176  21.963  1.00  0.00    -0.394 OA
ATOM     22  H   UNL A   1      31.373  27.933  21.386  1.00  0.00     0.210 HD
ENDBRANCH  20  21
ENDBRANCH  16  20
ENDBRANCH  14  16
ENDBRANCH   9  14
BRANCH  13  23
ATOM     23  C   UNL A   1      35.006  30.400  27.919  1.00  0.00     0.416 C 
ATOM     24  F   UNL A   1      35.478  29.298  28.568  1.00  0.00    -0.166 F 
ATOM     25  F   UNL A   1      36.082  30.969  27.313  1.00  0.00    -0.166 F 
ATOM     26  F   UNL A   1      34.603  31.262  28.889  1.00  0.00    -0.166 F 
ENDBRANCH  13  23
ENDBRANCH   6   8
ENDBRANCH   5   6
ENDBRANCH   4   5
ENDBRANCH   3   4
ENDBRANCH   2   3
ENDBRANCH   1   2
BRANCH   1  27
ATOM     27  C   UNL A   1      33.766  22.082  24.766  1.00  0.00     0.188 C 
BRANCH  27  28
ATOM     28  O   UNL A   1      34.949  21.967  25.548  1.00  0.00    -0.376 OA
BRANCH  28  29
ATOM     29  C   UNL A   1      36.080  21.439  24.867  1.00  0.00     0.202 C 
BRANCH  29  30
ATOM     30  C   UNL A   1      37.181  22.486  24.680  1.00  0.00     0.261 C 
BRANCH  30  31
ATOM     31  O   UNL A   1      37.542  23.177  25.886  1.00  0.00    -0.460 OA
BRANCH  31  32
ATOM     32  C   UNL A   1      38.769  22.917  26.391  1.00  0.00     0.338 C 
ATOM     33  O   UNL A   1      39.385  21.870  26.325  1.00  0.00    -0.246 OA
BRANCH  32  34
ATOM     34  C   UNL A   1      39.331  24.193  26.874  1.00  0.00     0.060 A 
ATOM     35  C   UNL A   1      39.891  25.079  25.946  1.00  0.00     0.016 A 
ATOM     36  C   UNL A   1      39.282  24.519  28.233  1.00  0.00     0.016 A 
ATOM     37  C   UNL A   1      40.433  26.287  26.383  1.00  0.00     0.010 A 
ATOM     38  C   UNL A   1      39.835  25.722  28.669  1.00  0.00     0.010 A 
ATOM     39  C   UNL A   1      40.438  26.597  27.749  1.00  0.00    -0.014 A 
BRANCH  39  40
ATOM     40  C   UNL A   1      41.215  27.753  28.249  1.00  0.00     0.031 A 
ATOM     41  C   UNL A   1      40.467  28.912  28.848  1.00  0.00     0.074 A 
ATOM     42  C   UNL A   1      42.555  27.782  28.152  1.00  0.00     0.049 A 
ATOM     43  N   UNL A   1      40.925  30.043  29.314  1.00  0.00    -0.248 NA
ATOM     44  C   UNL A   1      39.002  28.777  28.921  1.00  0.00     0.031 C 
ATOM     45  C   UNL A   1      43.388  26.718  27.593  1.00  0.00     0.029 A 
ATOM     46  N   UNL A   1      43.450  28.760  28.508  1.00  0.00    -0.354 N 
ATOM     47  C   UNL A   1      39.810  30.755  29.737  1.00  0.00     0.074 A 
ATOM     48  C   UNL A   1      38.650  29.942  29.443  1.00  0.00     0.031 C 
ATOM     49  C   UNL A   1      44.674  27.109  27.628  1.00  0.00     0.029 A 
ATOM     50  C   UNL A   1      44.752  28.455  28.192  1.00  0.00     0.049 A 
ATOM     51  H   UNL A   1      43.184  29.599  28.948  1.00  0.00     0.167 HD
ATOM     52  C   UNL A   1      39.758  31.973  30.326  1.00  0.00     0.037 A 
ATOM     53  C   UNL A   1      45.873  29.190  28.328  1.00  0.00     0.037 A 
ATOM     54  C   UNL A   1      40.912  32.783  30.605  1.00  0.00     0.049 A 
ATOM     55  C   UNL A   1      45.787  30.562  28.947  1.00  0.00     0.074 A 
ATOM     56  C   UNL A   1      40.969  34.018  31.227  1.00  0.00     0.029 A 
ATOM     57  N   UNL A   1      42.215  32.445  30.268  1.00  0.00    -0.354 N 
ATOM     58  N   UNL A   1      44.731  31.203  29.392  1.00  0.00    -0.248 NA
ATOM     59  C   UNL A   1      47.045  31.307  29.089  1.00  0.00     0.031 C 
ATOM     60  C   UNL A   1      42.302  34.445  31.229  1.00  0.00     0.029 A 
ATOM     61  C   UNL A   1      43.080  33.457  30.646  1.00  0.00     0.049 A 
ATOM     62  H   UNL A   1      42.484  31.608  29.824  1.00  0.00     0.167 HD
ATOM     63  C   UNL A   1      45.201  32.416  29.885  1.00  0.00     0.074 A 
ATOM     64  C   UNL A   1      46.637  32.414  29.696  1.00  0.00     0.031 C 
ATOM     65  C   UNL A   1      44.508  33.438  30.446  1.00  0.00     0.037 A 
BRANCH  52  66
ATOM     66  C   UNL A   1      38.400  32.504  30.685  1.00  0.00     0.058 A 
ATOM     67  C   UNL A   1      37.839  32.286  31.954  1.00  0.00     0.135 A 
ATOM     68  C   UNL A   1      37.654  33.244  29.755  1.00  0.00     0.135 A 
ATOM     69  F   UNL A   1      38.501  31.565  32.872  1.00  0.00    -0.206 F 
ATOM     70  C   UNL A   1      36.573  32.761  32.279  1.00  0.00     0.059 A 
ATOM     71  C   UNL A   1      36.396  33.749  30.067  1.00  0.00     0.059 A 
ATOM     72  F   UNL A   1      38.143  33.475  28.527  1.00  0.00    -0.206 F 
ATOM     73  C   UNL A   1      35.857  33.488  31.326  1.00  0.00     0.060 A 
BRANCH  73  74
ATOM     74  S   UNL A   1      34.212  34.094  31.759  1.00  0.00     0.124 S 
ATOM     75  O   UNL A   1      33.624  34.304  30.439  1.00  0.00    -0.237 OA
ATOM     76  O   UNL A   1      33.661  32.983  32.527  1.00  0.00    -0.237 OA
ATOM     77  O   UNL A   1      34.487  35.305  32.524  1.00  0.00    -0.744 OA
ENDBRANCH  73  74
ENDBRANCH  52  66
BRANCH  53  78
ATOM     78  C   UNL A   1      47.177  28.648  27.866  1.00  0.00     0.058 A 
ATOM     79  C   UNL A   1      47.591  28.789  26.534  1.00  0.00     0.135 A 
ATOM     80  C   UNL A   1      48.036  27.976  28.750  1.00  0.00     0.135 A 
ATOM     81  F   UNL A   1      46.798  29.412  25.648  1.00  0.00    -0.206 F 
ATOM     82  C   UNL A   1      48.803  28.271  26.089  1.00  0.00     0.059 A 
ATOM     83  C   UNL A   1      49.263  27.469  28.334  1.00  0.00     0.059 A 
ATOM     84  F   UNL A   1      47.689  27.822  30.038  1.00  0.00    -0.206 F 
ATOM     85  C   UNL A   1      49.634  27.613  26.998  1.00  0.00     0.060 A 
BRANCH  85  86
ATOM     86  S   UNL A   1      51.227  26.985  26.423  1.00  0.00     0.124 S 
ATOM     87  O   UNL A   1      51.877  26.640  27.681  1.00  0.00    -0.237 OA
ATOM     88  O   UNL A   1      50.829  25.861  25.580  1.00  0.00    -0.237 OA
ATOM     89  O   UNL A   1      51.796  28.123  25.707  1.00  0.00    -0.744 OA
ENDBRANCH  85  86
ENDBRANCH  53  78
BRANCH  65  90
ATOM     90  C   UNL A   1      45.295  34.631  30.915  1.00  0.00     0.058 A 
ATOM     91  C   UNL A   1      45.527  35.734  30.079  1.00  0.00     0.135 A 
ATOM     92  C   UNL A   1      45.789  34.687  32.228  1.00  0.00     0.135 A 
ATOM     93  F   UNL A   1      45.080  35.729  28.814  1.00  0.00    -0.206 F 
ATOM     94  C   UNL A   1      46.243  36.842  30.521  1.00  0.00     0.059 A 
ATOM     95  C   UNL A   1      46.487  35.795  32.698  1.00  0.00     0.059 A 
ATOM     96  F   UNL A   1      45.583  33.663  33.072  1.00  0.00    -0.206 F 
ATOM     97  C   UNL A   1      46.722  36.862  31.833  1.00  0.00     0.060 A 
BRANCH  97  98
ATOM     98  S   UNL A   1      47.634  38.312  32.404  1.00  0.00     0.124 S 
ATOM     99  O   UNL A   1      46.549  39.231  32.730  1.00  0.00    -0.237 OA
ATOM    100  O   UNL A   1      48.382  37.785  33.542  1.00  0.00    -0.237 OA
ATOM    101  O   UNL A   1      48.444  38.680  31.248  1.00  0.00    -0.744 OA
ENDBRANCH  97  98
ENDBRANCH  65  90
ENDBRANCH  39  40
ENDBRANCH  32  34
ENDBRANCH  31  32
ENDBRANCH  30  31
ENDBRANCH  29  30
ENDBRANCH  28  29
ENDBRANCH  27  28
ENDBRANCH   1  27
TORSDOF 26
ENDMDL
MODEL 3
REMARK VINA RESULT:      -9.6      2.402      8.643
REMARK SMILES CC(C)[C@H](CO)Nc1ccc(C(F)(F)F)cc1C(=O)OCCOCCOCCOC(=O)c1ccc(-c2c3nc(c(-c4c(F)cc(S(=O)(=O)[O-])cc4F)c4ccc([nH]4)c(-c4c(F)cc(S(=O)(=O)[O-])cc4F)c4nc(c(-c5c(F)cc(S(=O)(=O)[O-])cc5F)c5ccc2[nH]5)C=C4)C=C3)cc1
REMARK SMILES IDX 24 1 23 2 22 3 21 4 20 5 18 6 19 7 17 8 8 9 9 10 10 11 16 12
REMARK SMILES IDX 11 13 7 14 4 16 2 17 1 18 3 19 5 20 6 21 12 23 13 24 14 25
REMARK SMILES IDX 15 26 25 27 26 28 27 29 28 30 29 31 30 32 31 33 32 34 33 35
REMARK SMILES IDX 97 36 34 37 96 38 35 39 36 40 37 41 90 42 38 43 95 44 89 45
REMARK SMILES IDX 91 46 39 47 94 48 88 49 87 50 40 52 74 53 53 54 73 55 54 56
REMARK SMILES IDX 57 57 72 58 92 59 55 60 56 61 71 63 93 64 58 65 41 66 42 67
REMARK SMILES IDX 51 68 43 69 44 70 50 71 52 72 45 73 46 74 47 75 48 76 49 77
REMARK SMILES IDX 75 78 76 79 85 80 77 81 78 82 84 83 86 84 79 85 80 86 81 87
REMARK SMILES IDX 82 88 83 89 59 90 60 91 69 92 61 93 62 94 68 95 70 96 63 97
REMARK SMILES IDX 64 98 65 99 66 100 67 101
REMARK H PARENT 7 15 6 22 91 51 57 62
REMARK Flexibility Score: inf
ROOT
ATOM      1  C   UNL A   1      40.405  22.405  26.814  1.00  0.00     0.188 C 
ENDROOT
BRANCH   1   2
ATOM      2  O   UNL A   1      39.492  21.608  26.061  1.00  0.00    -0.376 OA
BRANCH   2   3
ATOM      3  C   UNL A   1      38.190  22.129  25.804  1.00  0.00     0.202 C 
BRANCH   3   4
ATOM      4  C   UNL A   1      37.420  21.452  24.672  1.00  0.00     0.261 C 
BRANCH   4   5
ATOM      5  O   UNL A   1      36.186  22.148  24.448  1.00  0.00    -0.460 OA
BRANCH   5   6
ATOM      6  C   UNL A   1      35.188  21.865  25.312  1.00  0.00     0.340 C 
ATOM      7  O   UNL A   1      35.093  22.247  26.466  1.00  0.00    -0.246 OA
BRANCH   6   8
ATOM      8  C   UNL A   1      34.100  21.198  24.571  1.00  0.00     0.083 A 
ATOM      9  C   UNL A   1      33.199  21.833  23.700  1.00  0.00     0.049 A 
ATOM     10  C   UNL A   1      32.269  20.987  23.048  1.00  0.00     0.027 A 
ATOM     11  C   UNL A   1      32.207  19.607  23.262  1.00  0.00     0.015 A 
ATOM     12  C   UNL A   1      34.036  19.799  24.795  1.00  0.00     0.031 A 
ATOM     13  C   UNL A   1      33.081  18.996  24.158  1.00  0.00     0.057 A 
BRANCH   9  14
ATOM     14  N   UNL A   1      33.114  23.163  23.340  1.00  0.00    -0.379 N 
ATOM     15  H   UNL A   1      33.614  23.381  22.520  1.00  0.00     0.160 HD
BRANCH  14  16
ATOM     16  C   UNL A   1      32.428  24.316  23.936  1.00  0.00     0.107 C 
BRANCH  16  17
ATOM     17  C   UNL A   1      31.300  24.847  23.003  1.00  0.00     0.007 C 
ATOM     18  C   UNL A   1      30.143  25.496  23.771  1.00  0.00     0.009 C 
ATOM     19  C   UNL A   1      31.774  25.815  21.910  1.00  0.00     0.009 C 
ENDBRANCH  16  17
BRANCH  16  20
ATOM     20  C   UNL A   1      33.531  25.360  24.241  1.00  0.00     0.181 C 
BRANCH  20  21
ATOM     21  O   UNL A   1      34.170  25.049  25.483  1.00  0.00    -0.394 OA
ATOM     22  H   UNL A   1      33.558  24.547  26.044  1.00  0.00     0.210 HD
ENDBRANCH  20  21
ENDBRANCH  16  20
ENDBRANCH  14  16
ENDBRANCH   9  14
BRANCH  13  23
ATOM     23  C   UNL A   1      33.019  17.505  24.386  1.00  0.00     0.416 C 
ATOM     24  F   UNL A   1      31.906  17.133  25.079  1.00  0.00    -0.166 F 
ATOM     25  F   UNL A   1      32.987  16.807  23.220  1.00  0.00    -0.166 F 
ATOM     26  F   UNL A   1      34.077  17.032  25.096  1.00  0.00    -0.166 F 
ENDBRANCH  13  23
ENDBRANCH   6   8
ENDBRANCH   5   6
ENDBRANCH   4   5
ENDBRANCH   3   4
ENDBRANCH   2   3
ENDBRANCH   1   2
BRANCH   1  27
ATOM     27  C   UNL A   1      41.912  22.113  26.678  1.00  0.00     0.188 C 
BRANCH  27  28
ATOM     28  O   UNL A   1      42.379  22.119  25.334  1.00  0.00    -0.376 OA
BRANCH  28  29
ATOM     29  C   UNL A   1      43.275  23.173  25.006  1.00  0.00     0.202 C 
BRANCH  29  30
ATOM     30  C   UNL A   1      43.420  24.183  26.149  1.00  0.00     0.261 C 
BRANCH  30  31
ATOM     31  O   UNL A   1      43.082  25.530  25.785  1.00  0.00    -0.460 OA
BRANCH  31  32
ATOM     32  C   UNL A   1      41.799  25.908  25.980  1.00  0.00     0.338 C 
ATOM     33  O   UNL A   1      40.833  25.611  25.303  1.00  0.00    -0.246 OA
BRANCH  32  34
ATOM     34  C   UNL A   1      41.731  26.593  27.285  1.00  0.00     0.060 A 
ATOM     35  C   UNL A   1      40.762  26.188  28.211  1.00  0.00     0.016 A 
ATOM     36  C   UNL A   1      42.634  27.613  27.598  1.00  0.00     0.016 A 
ATOM     37  C   UNL A   1      40.677  26.827  29.448  1.00  0.00     0.010 A 
ATOM     38  C   UNL A   1      42.540  28.259  28.830  1.00  0.00     0.010 A 
ATOM     39  C   UNL A   1      41.543  27.887  29.748  1.00  0.00    -0.014 A 
BRANCH  39  40
ATOM     40  C   UNL A   1      41.311  28.723  30.946  1.00  0.00     0.031 A 
ATOM     41  C   UNL A   1      40.207  29.743  30.904  1.00  0.00     0.074 A 
ATOM     42  C   UNL A   1      42.080  28.595  32.041  1.00  0.00     0.049 A 
ATOM     43  N   UNL A   1      39.843  30.609  31.811  1.00  0.00    -0.248 NA
ATOM     44  C   UNL A   1      39.412  29.795  29.665  1.00  0.00     0.031 C 
ATOM     45  C   UNL A   1      43.177  27.641  32.199  1.00  0.00     0.029 A 
ATOM     46  N   UNL A   1      42.063  29.289  33.225  1.00  0.00    -0.354 N 
ATOM     47  C   UNL A   1      38.778  31.310  31.257  1.00  0.00     0.074 A 
ATOM     48  C   UNL A   1      38.576  30.788  29.923  1.00  0.00     0.031 C 
ATOM     49  C   UNL A   1      43.742  27.823  33.406  1.00  0.00     0.029 A 
ATOM     50  C   UNL A   1      43.058  28.916  34.095  1.00  0.00     0.049 A 
ATOM     51  H   UNL A   1      41.401  29.987  33.430  1.00  0.00     0.167 HD
ATOM     52  C   UNL A   1      38.032  32.291  31.814  1.00  0.00     0.037 A 
ATOM     53  C   UNL A   1      43.387  29.416  35.303  1.00  0.00     0.037 A 
ATOM     54  C   UNL A   1      38.244  32.815  33.136  1.00  0.00     0.049 A 
ATOM     55  C   UNL A   1      42.568  30.539  35.886  1.00  0.00     0.074 A 
ATOM     56  C   UNL A   1      37.522  33.788  33.804  1.00  0.00     0.029 A 
ATOM     57  N   UNL A   1      39.263  32.416  33.989  1.00  0.00    -0.354 N 
ATOM     58  N   UNL A   1      41.530  31.157  35.374  1.00  0.00    -0.248 NA
ATOM     59  C   UNL A   1      42.961  31.027  37.215  1.00  0.00     0.031 C 
ATOM     60  C   UNL A   1      38.131  34.007  35.045  1.00  0.00     0.029 A 
ATOM     61  C   UNL A   1      39.206  33.140  35.167  1.00  0.00     0.049 A 
ATOM     62  H   UNL A   1      39.930  31.720  33.785  1.00  0.00     0.167 HD
ATOM     63  C   UNL A   1      41.134  32.092  36.326  1.00  0.00     0.074 A 
ATOM     64  C   UNL A   1      42.036  31.949  37.449  1.00  0.00     0.031 C 
ATOM     65  C   UNL A   1      40.116  32.986  36.275  1.00  0.00     0.037 A 
BRANCH  52  66
ATOM     66  C   UNL A   1      36.929  32.873  30.977  1.00  0.00     0.058 A 
ATOM     67  C   UNL A   1      37.194  33.797  29.952  1.00  0.00     0.135 A 
ATOM     68  C   UNL A   1      35.594  32.500  31.196  1.00  0.00     0.135 A 
ATOM     69  F   UNL A   1      38.451  34.204  29.717  1.00  0.00    -0.206 F 
ATOM     70  C   UNL A   1      36.170  34.350  29.191  1.00  0.00     0.059 A 
ATOM     71  C   UNL A   1      34.556  33.024  30.431  1.00  0.00     0.059 A 
ATOM     72  F   UNL A   1      35.287  31.627  32.167  1.00  0.00    -0.206 F 
ATOM     73  C   UNL A   1      34.854  33.960  29.441  1.00  0.00     0.060 A 
BRANCH  73  74
ATOM     74  S   UNL A   1      33.533  34.691  28.450  1.00  0.00     0.124 S 
ATOM     75  O   UNL A   1      34.277  35.650  27.639  1.00  0.00    -0.237 OA
ATOM     76  O   UNL A   1      33.000  33.537  27.735  1.00  0.00    -0.237 OA
ATOM     77  O   UNL A   1      32.641  35.271  29.449  1.00  0.00    -0.744 OA
ENDBRANCH  73  74
ENDBRANCH  52  66
BRANCH  53  78
ATOM     78  C   UNL A   1      44.549  28.861  36.044  1.00  0.00     0.058 A 
ATOM     79  C   UNL A   1      44.403  27.765  36.907  1.00  0.00     0.135 A 
ATOM     80  C   UNL A   1      45.830  29.418  35.906  1.00  0.00     0.135 A 
ATOM     81  F   UNL A   1      43.195  27.206  37.082  1.00  0.00    -0.206 F 
ATOM     82  C   UNL A   1      45.482  27.248  37.617  1.00  0.00     0.059 A 
ATOM     83  C   UNL A   1      46.928  28.905  36.588  1.00  0.00     0.059 A 
ATOM     84  F   UNL A   1      46.023  30.463  35.086  1.00  0.00    -0.206 F 
ATOM     85  C   UNL A   1      46.743  27.825  37.450  1.00  0.00     0.060 A 
BRANCH  85  86
ATOM     86  S   UNL A   1      48.147  27.118  38.340  1.00  0.00     0.124 S 
ATOM     87  O   UNL A   1      48.197  25.771  37.786  1.00  0.00    -0.237 OA
ATOM     88  O   UNL A   1      49.236  28.010  37.953  1.00  0.00    -0.237 OA
ATOM     89  O   UNL A   1      47.738  27.213  39.738  1.00  0.00    -0.744 OA
ENDBRANCH  85  86
ENDBRANCH  53  78
BRANCH  65  90
ATOM     90  C   UNL A   1      39.908  33.865  37.478  1.00  0.00     0.058 A 
ATOM     91  C   UNL A   1      39.015  33.512  38.501  1.00  0.00     0.135 A 
ATOM     92  C   UNL A   1      40.639  35.054  37.625  1.00  0.00     0.135 A 
ATOM     93  F   UNL A   1      38.290  32.387  38.407  1.00  0.00    -0.206 F 
ATOM     94  C   UNL A   1      38.836  34.320  39.620  1.00  0.00     0.059 A 
ATOM     95  C   UNL A   1      40.494  35.865  38.746  1.00  0.00     0.059 A 
ATOM     96  F   UNL A   1      41.516  35.431  36.680  1.00  0.00    -0.206 F 
ATOM     97  C   UNL A   1      39.579  35.498  39.731  1.00  0.00     0.060 A 
BRANCH  97  98
ATOM     98  S   UNL A   1      39.355  36.532  41.195  1.00  0.00     0.124 S 
ATOM     99  O   UNL A   1      40.730  36.687  41.656  1.00  0.00    -0.237 OA
ATOM    100  O   UNL A   1      38.733  37.732  40.641  1.00  0.00    -0.237 OA
ATOM    101  O   UNL A   1      38.492  35.725  42.050  1.00  0.00    -0.744 OA
ENDBRANCH  97  98
ENDBRANCH  65  90
ENDBRANCH  39  40
ENDBRANCH  32  34
ENDBRANCH  31  32
ENDBRANCH  30  31
ENDBRANCH  29  30
ENDBRANCH  28  29
ENDBRANCH  27  28
ENDBRANCH   1  27
TORSDOF 26
ENDMDL
