MODEL 1
REMARK VINA RESULT:      -9.3      0.000      0.000
REMARK SMILES CC[C@]1(C(=O)OCCOCCOCCOC(=O)c2ccc(-c3c4nc(c(-c5c(F)cc(S(=O)(=O)[O-])cc5F)c5ccc([nH]5)c(-c5c(F)cc(S(=O)(=O)[O-])cc5F)c5nc(c(-c6c(F)cc(S(=O)(=O)[O-])cc6F)c6ccc3[nH]6)C=C5)C=C4)cc2)CCN(C(=O)N(C)CCc2cccs2)C1
REMARK SMILES IDX 10 1 9 2 8 3 7 4 6 5 4 6 5 7 3 8 84 9 98 10 85 11 86 12 2 13
REMARK SMILES IDX 1 14 87 15 88 16 89 17 90 18 91 19 92 20 93 21 94 22 97 23
REMARK SMILES IDX 95 24 96 25 11 26 12 27 13 28 14 29 15 30 16 31 17 32 18 33
REMARK SMILES IDX 19 34 83 35 20 36 82 37 21 38 22 39 23 40 76 41 24 42 81 43
REMARK SMILES IDX 75 44 77 45 25 46 80 47 74 48 73 49 26 51 60 52 39 53 59 54
REMARK SMILES IDX 40 55 43 56 58 57 78 58 41 59 42 60 57 62 79 63 44 64 27 65
REMARK SMILES IDX 28 66 37 67 29 68 30 69 36 70 38 71 31 72 32 73 33 74 34 75
REMARK SMILES IDX 35 76 61 77 62 78 71 79 63 80 64 81 70 82 72 83 65 84 66 85
REMARK SMILES IDX 67 86 68 87 69 88 45 89 46 90 55 91 47 92 48 93 54 94 56 95
REMARK SMILES IDX 49 96 50 97 51 98 52 99 53 100
REMARK H PARENT 77 50 43 61
REMARK Flexibility Score: inf
ROOT
ATOM      1  C   UNL A   1      33.014  31.306  27.103  1.00  0.00     0.188 C 
ENDROOT
BRANCH   1   2
ATOM      2  O   UNL A   1      32.396  30.151  26.547  1.00  0.00    -0.376 OA
BRANCH   2   3
ATOM      3  C   UNL A   1      32.261  28.989  27.360  1.00  0.00     0.202 C 
BRANCH   3   4
ATOM      4  C   UNL A   1      31.684  27.707  26.730  1.00  0.00     0.261 C 
BRANCH   4   5
ATOM      5  O   UNL A   1      32.598  27.006  25.860  1.00  0.00    -0.463 OA
BRANCH   5   6
ATOM      6  C   UNL A   1      32.455  27.212  24.523  1.00  0.00     0.314 C 
ATOM      7  O   UNL A   1      32.941  28.171  23.935  1.00  0.00    -0.252 OA
BRANCH   6   8
ATOM      8  C   UNL A   1      31.666  26.098  23.803  1.00  0.00     0.087 C 
ATOM      9  C   UNL A   1      32.401  25.438  22.615  1.00  0.00     0.042 C 
ATOM     10  C   UNL A   1      31.549  24.925  24.799  1.00  0.00     0.140 C 
ATOM     11  C   UNL A   1      32.093  23.963  22.684  1.00  0.00     0.122 C 
ATOM     12  N   UNL A   1      31.827  23.691  24.067  1.00  0.00    -0.323 N 
BRANCH   8  13
ATOM     13  C   UNL A   1      30.278  26.601  23.327  1.00  0.00     0.017 C 
ATOM     14  C   UNL A   1      29.111  26.336  24.269  1.00  0.00     0.005 C 
ENDBRANCH   8  13
BRANCH  12  15
ATOM     15  C   UNL A   1      31.945  22.518  24.775  1.00  0.00     0.319 C 
ATOM     16  O   UNL A   1      31.411  22.415  25.881  1.00  0.00    -0.248 OA
BRANCH  15  17
ATOM     17  N   UNL A   1      32.768  21.515  24.293  1.00  0.00    -0.327 N 
ATOM     18  C   UNL A   1      32.378  20.410  23.435  1.00  0.00     0.148 C 
BRANCH  17  19
ATOM     19  C   UNL A   1      34.159  21.513  24.766  1.00  0.00     0.126 C 
BRANCH  19  20
ATOM     20  C   UNL A   1      34.770  22.924  24.892  1.00  0.00     0.068 C 
BRANCH  20  21
ATOM     21  C   UNL A   1      36.221  22.918  25.287  1.00  0.00     0.006 A 
ATOM     22  C   UNL A   1      36.962  23.942  25.847  1.00  0.00     0.015 A 
ATOM     23  S   UNL A   1      37.162  21.497  25.096  1.00  0.00    -0.149 S 
ATOM     24  C   UNL A   1      38.266  23.515  26.234  1.00  0.00     0.012 A 
ATOM     25  C   UNL A   1      38.494  22.198  25.907  1.00  0.00     0.065 A 
ENDBRANCH  20  21
ENDBRANCH  19  20
ENDBRANCH  17  19
ENDBRANCH  15  17
ENDBRANCH  12  15
ENDBRANCH   6   8
ENDBRANCH   5   6
ENDBRANCH   4   5
ENDBRANCH   3   4
ENDBRANCH   2   3
ENDBRANCH   1   2
BRANCH   1  26
ATOM     26  C   UNL A   1      34.440  31.176  27.657  1.00  0.00     0.188 C 
BRANCH  26  27
ATOM     27  O   UNL A   1      34.993  32.372  28.151  1.00  0.00    -0.376 OA
BRANCH  27  28
ATOM     28  C   UNL A   1      34.525  32.883  29.380  1.00  0.00     0.202 C 
BRANCH  28  29
ATOM     29  C   UNL A   1      35.018  32.266  30.700  1.00  0.00     0.261 C 
BRANCH  29  30
ATOM     30  O   UNL A   1      36.393  31.853  30.763  1.00  0.00    -0.460 OA
BRANCH  30  31
ATOM     31  C   UNL A   1      36.640  30.524  30.841  1.00  0.00     0.338 C 
ATOM     32  O   UNL A   1      35.814  29.642  31.022  1.00  0.00    -0.246 OA
BRANCH  31  33
ATOM     33  C   UNL A   1      38.041  30.295  30.409  1.00  0.00     0.060 A 
ATOM     34  C   UNL A   1      38.327  30.226  29.037  1.00  0.00     0.016 A 
ATOM     35  C   UNL A   1      39.070  30.172  31.345  1.00  0.00     0.016 A 
ATOM     36  C   UNL A   1      39.637  30.007  28.599  1.00  0.00     0.010 A 
ATOM     37  C   UNL A   1      40.376  29.926  30.905  1.00  0.00     0.010 A 
ATOM     38  C   UNL A   1      40.662  29.812  29.532  1.00  0.00    -0.014 A 
BRANCH  38  39
ATOM     39  C   UNL A   1      41.983  29.287  29.094  1.00  0.00     0.031 A 
ATOM     40  C   UNL A   1      43.141  30.249  29.020  1.00  0.00     0.074 A 
ATOM     41  C   UNL A   1      42.166  27.994  28.769  1.00  0.00     0.049 A 
ATOM     42  N   UNL A   1      44.358  30.057  28.583  1.00  0.00    -0.248 NA
ATOM     43  C   UNL A   1      42.884  31.616  29.504  1.00  0.00     0.031 C 
ATOM     44  C   UNL A   1      41.148  26.949  28.841  1.00  0.00     0.029 A 
ATOM     45  N   UNL A   1      43.281  27.345  28.295  1.00  0.00    -0.354 N 
ATOM     46  C   UNL A   1      45.009  31.277  28.730  1.00  0.00     0.074 A 
ATOM     47  C   UNL A   1      44.043  32.211  29.267  1.00  0.00     0.031 C 
ATOM     48  C   UNL A   1      41.679  25.792  28.405  1.00  0.00     0.029 A 
ATOM     49  C   UNL A   1      43.062  26.022  27.988  1.00  0.00     0.049 A 
ATOM     50  H   UNL A   1      44.154  27.786  28.185  1.00  0.00     0.167 HD
ATOM     51  C   UNL A   1      46.297  31.591  28.450  1.00  0.00     0.037 A 
ATOM     52  C   UNL A   1      43.874  25.112  27.409  1.00  0.00     0.037 A 
ATOM     53  C   UNL A   1      47.255  30.665  27.908  1.00  0.00     0.049 A 
ATOM     54  C   UNL A   1      45.281  25.507  27.026  1.00  0.00     0.074 A 
ATOM     55  C   UNL A   1      48.585  30.887  27.595  1.00  0.00     0.029 A 
ATOM     56  N   UNL A   1      46.988  29.341  27.589  1.00  0.00    -0.354 N 
ATOM     57  N   UNL A   1      45.890  26.659  27.183  1.00  0.00    -0.248 NA
ATOM     58  C   UNL A   1      46.113  24.475  26.388  1.00  0.00     0.031 C 
ATOM     59  C   UNL A   1      49.107  29.716  27.037  1.00  0.00     0.029 A 
ATOM     60  C   UNL A   1      48.121  28.743  27.060  1.00  0.00     0.049 A 
ATOM     61  H   UNL A   1      46.121  28.893  27.719  1.00  0.00     0.167 HD
ATOM     62  C   UNL A   1      47.183  26.478  26.696  1.00  0.00     0.074 A 
ATOM     63  C   UNL A   1      47.271  25.105  26.250  1.00  0.00     0.031 C 
ATOM     64  C   UNL A   1      48.205  27.369  26.630  1.00  0.00     0.037 A 
BRANCH  51  65
ATOM     65  C   UNL A   1      46.737  33.008  28.702  1.00  0.00     0.058 A 
ATOM     66  C   UNL A   1      47.294  33.403  29.929  1.00  0.00     0.135 A 
ATOM     67  C   UNL A   1      46.626  33.977  27.692  1.00  0.00     0.135 A 
ATOM     68  F   UNL A   1      47.404  32.522  30.937  1.00  0.00    -0.206 F 
ATOM     69  C   UNL A   1      47.700  34.714  30.155  1.00  0.00     0.059 A 
ATOM     70  C   UNL A   1      47.055  35.286  27.885  1.00  0.00     0.059 A 
ATOM     71  F   UNL A   1      46.097  33.655  26.501  1.00  0.00    -0.206 F 
ATOM     72  C   UNL A   1      47.578  35.648  29.125  1.00  0.00     0.060 A 
BRANCH  72  73
ATOM     73  S   UNL A   1      48.112  37.344  29.436  1.00  0.00     0.124 S 
ATOM     74  O   UNL A   1      49.351  37.129  30.175  1.00  0.00    -0.237 OA
ATOM     75  O   UNL A   1      48.265  37.874  28.084  1.00  0.00    -0.237 OA
ATOM     76  O   UNL A   1      47.011  37.912  30.208  1.00  0.00    -0.744 OA
ENDBRANCH  72  73
ENDBRANCH  51  65
BRANCH  52  77
ATOM     77  C   UNL A   1      43.379  23.734  27.130  1.00  0.00     0.058 A 
ATOM     78  C   UNL A   1      43.355  22.754  28.133  1.00  0.00     0.135 A 
ATOM     79  C   UNL A   1      42.944  23.364  25.848  1.00  0.00     0.135 A 
ATOM     80  F   UNL A   1      43.776  23.050  29.372  1.00  0.00    -0.206 F 
ATOM     81  C   UNL A   1      42.937  21.451  27.871  1.00  0.00     0.059 A 
ATOM     82  C   UNL A   1      42.493  22.078  25.568  1.00  0.00     0.059 A 
ATOM     83  F   UNL A   1      42.942  24.265  24.852  1.00  0.00    -0.206 F 
ATOM     84  C   UNL A   1      42.506  21.124  26.585  1.00  0.00     0.060 A 
BRANCH  84  85
ATOM     85  S   UNL A   1      41.931  19.442  26.266  1.00  0.00     0.124 S 
ATOM     86  O   UNL A   1      40.497  19.647  26.107  1.00  0.00    -0.237 OA
ATOM     87  O   UNL A   1      42.665  19.092  25.055  1.00  0.00    -0.237 OA
ATOM     88  O   UNL A   1      42.335  18.717  27.468  1.00  0.00    -0.744 OA
ENDBRANCH  84  85
ENDBRANCH  52  77
BRANCH  64  89
ATOM     89  C   UNL A   1      49.529  26.881  26.101  1.00  0.00     0.058 A 
ATOM     90  C   UNL A   1      49.915  27.072  24.764  1.00  0.00     0.135 A 
ATOM     91  C   UNL A   1      50.451  26.262  26.963  1.00  0.00     0.135 A 
ATOM     92  F   UNL A   1      49.074  27.656  23.896  1.00  0.00    -0.206 F 
ATOM     93  C   UNL A   1      51.153  26.643  24.296  1.00  0.00     0.059 A 
ATOM     94  C   UNL A   1      51.707  25.854  26.523  1.00  0.00     0.059 A 
ATOM     95  F   UNL A   1      50.142  26.066  28.255  1.00  0.00    -0.206 F 
ATOM     96  C   UNL A   1      52.044  26.037  25.184  1.00  0.00     0.060 A 
BRANCH  96  97
ATOM     97  S   UNL A   1      53.659  25.513  24.569  1.00  0.00     0.124 S 
ATOM     98  O   UNL A   1      53.565  24.062  24.692  1.00  0.00    -0.237 OA
ATOM     99  O   UNL A   1      53.658  26.035  23.205  1.00  0.00    -0.237 OA
ATOM    100  O   UNL A   1      54.598  26.161  25.480  1.00  0.00    -0.744 OA
ENDBRANCH  96  97
ENDBRANCH  64  89
ENDBRANCH  38  39
ENDBRANCH  31  33
ENDBRANCH  30  31
ENDBRANCH  29  30
ENDBRANCH  28  29
ENDBRANCH  27  28
ENDBRANCH  26  27
ENDBRANCH   1  26
TORSDOF 26
ENDMDL
MODEL 2
REMARK VINA RESULT:      -9.3      6.150      8.430
REMARK SMILES CC[C@]1(C(=O)OCCOCCOCCOC(=O)c2ccc(-c3c4nc(c(-c5c(F)cc(S(=O)(=O)[O-])cc5F)c5ccc([nH]5)c(-c5c(F)cc(S(=O)(=O)[O-])cc5F)c5nc(c(-c6c(F)cc(S(=O)(=O)[O-])cc6F)c6ccc3[nH]6)C=C5)C=C4)cc2)CCN(C(=O)N(C)CCc2cccs2)C1
REMARK SMILES IDX 10 1 9 2 8 3 7 4 6 5 4 6 5 7 3 8 84 9 98 10 85 11 86 12 2 13
REMARK SMILES IDX 1 14 87 15 88 16 89 17 90 18 91 19 92 20 93 21 94 22 97 23
REMARK SMILES IDX 95 24 96 25 11 26 12 27 13 28 14 29 15 30 16 31 17 32 18 33
REMARK SMILES IDX 19 34 83 35 20 36 82 37 21 38 22 39 23 40 76 41 24 42 81 43
REMARK SMILES IDX 75 44 77 45 25 46 80 47 74 48 73 49 26 51 60 52 39 53 59 54
REMARK SMILES IDX 40 55 43 56 58 57 78 58 41 59 42 60 57 62 79 63 44 64 27 65
REMARK SMILES IDX 28 66 37 67 29 68 30 69 36 70 38 71 31 72 32 73 33 74 34 75
REMARK SMILES IDX 35 76 61 77 62 78 71 79 63 80 64 81 70 82 72 83 65 84 66 85
REMARK SMILES IDX 67 86 68 87 69 88 45 89 46 90 55 91 47 92 48 93 54 94 56 95
REMARK SMILES IDX 49 96 50 97 51 98 52 99 53 100
REMARK H PARENT 77 50 43 61
REMARK Flexibility Score: inf
ROOT
ATOM      1  C   UNL A   1      35.538  32.910  28.143  1.00  0.00     0.188 C 
ENDROOT
BRANCH   1   2
ATOM      2  O   UNL A   1      34.587  31.944  28.577  1.00  0.00    -0.376 OA
BRANCH   2   3
ATOM      3  C   UNL A   1      33.546  31.560  27.683  1.00  0.00     0.202 C 
BRANCH   3   4
ATOM      4  C   UNL A   1      33.395  30.072  27.317  1.00  0.00     0.261 C 
BRANCH   4   5
ATOM      5  O   UNL A   1      32.053  29.676  26.964  1.00  0.00    -0.463 OA
BRANCH   5   6
ATOM      6  C   UNL A   1      31.727  28.369  27.150  1.00  0.00     0.314 C 
ATOM      7  O   UNL A   1      31.183  27.949  28.165  1.00  0.00    -0.252 OA
BRANCH   6   8
ATOM      8  C   UNL A   1      32.061  27.467  25.942  1.00  0.00     0.087 C 
ATOM      9  C   UNL A   1      33.524  26.976  25.877  1.00  0.00     0.042 C 
ATOM     10  C   UNL A   1      31.289  26.147  26.151  1.00  0.00     0.140 C 
ATOM     11  C   UNL A   1      33.477  25.541  25.415  1.00  0.00     0.122 C 
ATOM     12  N   UNL A   1      32.196  25.046  25.831  1.00  0.00    -0.323 N 
BRANCH   8  13
ATOM     13  C   UNL A   1      31.693  28.153  24.601  1.00  0.00     0.017 C 
ATOM     14  C   UNL A   1      32.863  28.667  23.770  1.00  0.00     0.005 C 
ENDBRANCH   8  13
BRANCH  12  15
ATOM     15  C   UNL A   1      31.790  23.760  26.097  1.00  0.00     0.319 C 
ATOM     16  O   UNL A   1      31.707  23.374  27.264  1.00  0.00    -0.248 OA
BRANCH  15  17
ATOM     17  N   UNL A   1      31.604  22.878  25.048  1.00  0.00    -0.327 N 
ATOM     18  C   UNL A   1      30.974  23.167  23.770  1.00  0.00     0.148 C 
BRANCH  17  19
ATOM     19  C   UNL A   1      32.001  21.481  25.276  1.00  0.00     0.126 C 
BRANCH  19  20
ATOM     20  C   UNL A   1      33.207  21.036  24.423  1.00  0.00     0.068 C 
BRANCH  20  21
ATOM     21  C   UNL A   1      34.460  21.822  24.697  1.00  0.00     0.006 A 
ATOM     22  C   UNL A   1      35.200  22.590  23.818  1.00  0.00     0.015 A 
ATOM     23  S   UNL A   1      35.121  21.869  26.279  1.00  0.00    -0.149 S 
ATOM     24  C   UNL A   1      36.234  23.317  24.476  1.00  0.00     0.012 A 
ATOM     25  C   UNL A   1      36.284  23.037  25.823  1.00  0.00     0.065 A 
ENDBRANCH  20  21
ENDBRANCH  19  20
ENDBRANCH  17  19
ENDBRANCH  15  17
ENDBRANCH  12  15
ENDBRANCH   6   8
ENDBRANCH   5   6
ENDBRANCH   4   5
ENDBRANCH   3   4
ENDBRANCH   2   3
ENDBRANCH   1   2
BRANCH   1  26
ATOM     26  C   UNL A   1      35.239  34.395  28.399  1.00  0.00     0.188 C 
BRANCH  26  27
ATOM     27  O   UNL A   1      34.024  34.647  29.061  1.00  0.00    -0.376 OA
BRANCH  27  28
ATOM     28  C   UNL A   1      33.395  35.898  28.879  1.00  0.00     0.202 C 
BRANCH  28  29
ATOM     29  C   UNL A   1      32.593  36.524  30.033  1.00  0.00     0.261 C 
BRANCH  29  30
ATOM     30  O   UNL A   1      33.250  36.641  31.306  1.00  0.00    -0.460 OA
BRANCH  30  31
ATOM     31  C   UNL A   1      32.975  35.695  32.235  1.00  0.00     0.338 C 
ATOM     32  O   UNL A   1      31.878  35.443  32.713  1.00  0.00    -0.246 OA
BRANCH  31  33
ATOM     33  C   UNL A   1      34.178  34.839  32.383  1.00  0.00     0.060 A 
ATOM     34  C   UNL A   1      34.019  33.509  32.802  1.00  0.00     0.016 A 
ATOM     35  C   UNL A   1      35.451  35.333  32.091  1.00  0.00     0.016 A 
ATOM     36  C   UNL A   1      35.135  32.679  32.955  1.00  0.00     0.010 A 
ATOM     37  C   UNL A   1      36.568  34.509  32.270  1.00  0.00     0.010 A 
ATOM     38  C   UNL A   1      36.420  33.187  32.732  1.00  0.00    -0.014 A 
BRANCH  38  39
ATOM     39  C   UNL A   1      37.615  32.420  33.173  1.00  0.00     0.031 A 
ATOM     40  C   UNL A   1      38.276  32.815  34.468  1.00  0.00     0.074 A 
ATOM     41  C   UNL A   1      38.112  31.397  32.453  1.00  0.00     0.049 A 
ATOM     42  N   UNL A   1      39.375  32.365  35.014  1.00  0.00    -0.248 NA
ATOM     43  C   UNL A   1      37.602  33.866  35.249  1.00  0.00     0.031 C 
ATOM     44  C   UNL A   1      37.545  30.880  31.210  1.00  0.00     0.029 A 
ATOM     45  N   UNL A   1      39.224  30.617  32.665  1.00  0.00    -0.354 N 
ATOM     46  C   UNL A   1      39.530  33.081  36.197  1.00  0.00     0.074 A 
ATOM     47  C   UNL A   1      38.429  34.017  36.272  1.00  0.00     0.031 C 
ATOM     48  C   UNL A   1      38.326  29.882  30.757  1.00  0.00     0.029 A 
ATOM     49  C   UNL A   1      39.467  29.714  31.657  1.00  0.00     0.049 A 
ATOM     50  H   UNL A   1      39.794  30.699  33.463  1.00  0.00     0.167 HD
ATOM     51  C   UNL A   1      40.496  32.967  37.139  1.00  0.00     0.037 A 
ATOM     52  C   UNL A   1      40.506  28.873  31.466  1.00  0.00     0.037 A 
ATOM     53  C   UNL A   1      41.596  32.041  37.060  1.00  0.00     0.049 A 
ATOM     54  C   UNL A   1      41.617  28.821  32.487  1.00  0.00     0.074 A 
ATOM     55  C   UNL A   1      42.623  31.847  37.967  1.00  0.00     0.029 A 
ATOM     56  N   UNL A   1      41.819  31.161  36.011  1.00  0.00    -0.354 N 
ATOM     57  N   UNL A   1      41.746  29.493  33.608  1.00  0.00    -0.248 NA
ATOM     58  C   UNL A   1      42.728  27.894  32.218  1.00  0.00     0.031 C 
ATOM     59  C   UNL A   1      43.496  30.889  37.442  1.00  0.00     0.029 A 
ATOM     60  C   UNL A   1      42.980  30.439  36.237  1.00  0.00     0.049 A 
ATOM     61  H   UNL A   1      41.238  31.064  35.223  1.00  0.00     0.167 HD
ATOM     62  C   UNL A   1      42.929  29.043  34.191  1.00  0.00     0.074 A 
ATOM     63  C   UNL A   1      43.473  28.037  33.305  1.00  0.00     0.031 C 
ATOM     64  C   UNL A   1      43.509  29.428  35.356  1.00  0.00     0.037 A 
BRANCH  51  65
ATOM     65  C   UNL A   1      40.421  33.886  38.328  1.00  0.00     0.058 A 
ATOM     66  C   UNL A   1      41.167  35.074  38.394  1.00  0.00     0.135 A 
ATOM     67  C   UNL A   1      39.567  33.588  39.403  1.00  0.00     0.135 A 
ATOM     68  F   UNL A   1      42.014  35.397  37.403  1.00  0.00    -0.206 F 
ATOM     69  C   UNL A   1      41.091  35.919  39.495  1.00  0.00     0.059 A 
ATOM     70  C   UNL A   1      39.453  34.435  40.501  1.00  0.00     0.059 A 
ATOM     71  F   UNL A   1      38.835  32.464  39.393  1.00  0.00    -0.206 F 
ATOM     72  C   UNL A   1      40.229  35.592  40.544  1.00  0.00     0.060 A 
BRANCH  72  73
ATOM     73  S   UNL A   1      40.142  36.702  41.964  1.00  0.00     0.124 S 
ATOM     74  O   UNL A   1      39.763  35.782  43.031  1.00  0.00    -0.237 OA
ATOM     75  O   UNL A   1      41.503  37.226  42.032  1.00  0.00    -0.237 OA
ATOM     76  O   UNL A   1      39.120  37.670  41.578  1.00  0.00    -0.744 OA
ENDBRANCH  72  73
ENDBRANCH  51  65
BRANCH  52  77
ATOM     77  C   UNL A   1      40.565  28.018  30.247  1.00  0.00     0.058 A 
ATOM     78  C   UNL A   1      41.499  28.265  29.231  1.00  0.00     0.135 A 
ATOM     79  C   UNL A   1      39.671  26.952  30.063  1.00  0.00     0.135 A 
ATOM     80  F   UNL A   1      42.366  29.283  29.348  1.00  0.00    -0.206 F 
ATOM     81  C   UNL A   1      41.532  27.501  28.067  1.00  0.00     0.059 A 
ATOM     82  C   UNL A   1      39.704  26.154  28.923  1.00  0.00     0.059 A 
ATOM     83  F   UNL A   1      38.759  26.668  31.007  1.00  0.00    -0.206 F 
ATOM     84  C   UNL A   1      40.631  26.445  27.924  1.00  0.00     0.060 A 
BRANCH  84  85
ATOM     85  S   UNL A   1      40.709  25.437  26.428  1.00  0.00     0.124 S 
ATOM     86  O   UNL A   1      41.118  26.420  25.433  1.00  0.00    -0.237 OA
ATOM     87  O   UNL A   1      41.707  24.436  26.786  1.00  0.00    -0.237 OA
ATOM     88  O   UNL A   1      39.345  24.932  26.293  1.00  0.00    -0.744 OA
ENDBRANCH  84  85
ENDBRANCH  52  77
BRANCH  64  89
ATOM     89  C   UNL A   1      44.775  28.725  35.776  1.00  0.00     0.058 A 
ATOM     90  C   UNL A   1      44.754  27.532  36.517  1.00  0.00     0.135 A 
ATOM     91  C   UNL A   1      46.027  29.225  35.381  1.00  0.00     0.135 A 
ATOM     92  F   UNL A   1      43.586  27.010  36.924  1.00  0.00    -0.206 F 
ATOM     93  C   UNL A   1      45.929  26.877  36.875  1.00  0.00     0.059 A 
ATOM     94  C   UNL A   1      47.213  28.570  35.700  1.00  0.00     0.059 A 
ATOM     95  F   UNL A   1      46.107  30.355  34.660  1.00  0.00    -0.206 F 
ATOM     96  C   UNL A   1      47.154  27.402  36.458  1.00  0.00     0.060 A 
BRANCH  96  97
ATOM     97  S   UNL A   1      48.669  26.525  36.903  1.00  0.00     0.124 S 
ATOM     98  O   UNL A   1      48.970  25.810  35.668  1.00  0.00    -0.237 OA
ATOM     99  O   UNL A   1      49.575  27.619  37.240  1.00  0.00    -0.237 OA
ATOM    100  O   UNL A   1      48.261  25.689  38.029  1.00  0.00    -0.744 OA
ENDBRANCH  96  97
ENDBRANCH  64  89
ENDBRANCH  38  39
ENDBRANCH  31  33
ENDBRANCH  30  31
ENDBRANCH  29  30
ENDBRANCH  28  29
ENDBRANCH  27  28
ENDBRANCH  26  27
ENDBRANCH   1  26
TORSDOF 26
ENDMDL
MODEL 3
REMARK VINA RESULT:      -9.2      1.257      8.166
REMARK SMILES CC[C@]1(C(=O)OCCOCCOCCOC(=O)c2ccc(-c3c4nc(c(-c5c(F)cc(S(=O)(=O)[O-])cc5F)c5ccc([nH]5)c(-c5c(F)cc(S(=O)(=O)[O-])cc5F)c5nc(c(-c6c(F)cc(S(=O)(=O)[O-])cc6F)c6ccc3[nH]6)C=C5)C=C4)cc2)CCN(C(=O)N(C)CCc2cccs2)C1
REMARK SMILES IDX 10 1 9 2 8 3 7 4 6 5 4 6 5 7 3 8 84 9 98 10 85 11 86 12 2 13
REMARK SMILES IDX 1 14 87 15 88 16 89 17 90 18 91 19 92 20 93 21 94 22 97 23
REMARK SMILES IDX 95 24 96 25 11 26 12 27 13 28 14 29 15 30 16 31 17 32 18 33
REMARK SMILES IDX 19 34 83 35 20 36 82 37 21 38 22 39 23 40 76 41 24 42 81 43
REMARK SMILES IDX 75 44 77 45 25 46 80 47 74 48 73 49 26 51 60 52 39 53 59 54
REMARK SMILES IDX 40 55 43 56 58 57 78 58 41 59 42 60 57 62 79 63 44 64 27 65
REMARK SMILES IDX 28 66 37 67 29 68 30 69 36 70 38 71 31 72 32 73 33 74 34 75
REMARK SMILES IDX 35 76 61 77 62 78 71 79 63 80 64 81 70 82 72 83 65 84 66 85
REMARK SMILES IDX 67 86 68 87 69 88 45 89 46 90 55 91 47 92 48 93 54 94 56 95
REMARK SMILES IDX 49 96 50 97 51 98 52 99 53 100
REMARK H PARENT 77 50 43 61
REMARK Flexibility Score: inf
ROOT
ATOM      1  C   UNL A   1      33.630  30.855  26.964  1.00  0.00     0.188 C 
ENDROOT
BRANCH   1   2
ATOM      2  O   UNL A   1      32.339  30.294  27.177  1.00  0.00    -0.376 OA
BRANCH   2   3
ATOM      3  C   UNL A   1      32.233  28.893  27.415  1.00  0.00     0.202 C 
BRANCH   3   4
ATOM      4  C   UNL A   1      31.560  28.009  26.349  1.00  0.00     0.261 C 
BRANCH   4   5
ATOM      5  O   UNL A   1      32.414  26.989  25.791  1.00  0.00    -0.463 OA
BRANCH   5   6
ATOM      6  C   UNL A   1      32.996  27.260  24.592  1.00  0.00     0.314 C 
ATOM      7  O   UNL A   1      33.858  28.118  24.441  1.00  0.00    -0.252 OA
BRANCH   6   8
ATOM      8  C   UNL A   1      32.506  26.352  23.444  1.00  0.00     0.087 C 
ATOM      9  C   UNL A   1      33.623  25.640  22.650  1.00  0.00     0.042 C 
ATOM     10  C   UNL A   1      31.773  25.165  24.102  1.00  0.00     0.140 C 
ATOM     11  C   UNL A   1      33.128  24.244  22.366  1.00  0.00     0.122 C 
ATOM     12  N   UNL A   1      32.200  23.945  23.419  1.00  0.00    -0.323 N 
BRANCH   8  13
ATOM     13  C   UNL A   1      31.595  27.127  22.456  1.00  0.00     0.017 C 
ATOM     14  C   UNL A   1      31.426  28.616  22.729  1.00  0.00     0.005 C 
ENDBRANCH   8  13
BRANCH  12  15
ATOM     15  C   UNL A   1      31.809  22.731  23.932  1.00  0.00     0.319 C 
ATOM     16  O   UNL A   1      31.097  22.693  24.938  1.00  0.00    -0.248 OA
BRANCH  15  17
ATOM     17  N   UNL A   1      32.324  21.568  23.389  1.00  0.00    -0.327 N 
ATOM     18  C   UNL A   1      31.940  20.953  22.130  1.00  0.00     0.148 C 
BRANCH  17  19
ATOM     19  C   UNL A   1      33.295  20.826  24.205  1.00  0.00     0.126 C 
BRANCH  19  20
ATOM     20  C   UNL A   1      32.653  19.736  25.089  1.00  0.00     0.068 C 
BRANCH  20  21
ATOM     21  C   UNL A   1      32.998  18.336  24.662  1.00  0.00     0.006 A 
ATOM     22  C   UNL A   1      33.688  17.927  23.537  1.00  0.00     0.015 A 
ATOM     23  S   UNL A   1      32.557  17.000  25.644  1.00  0.00    -0.149 S 
ATOM     24  C   UNL A   1      33.963  16.529  23.551  1.00  0.00     0.012 A 
ATOM     25  C   UNL A   1      33.427  15.909  24.656  1.00  0.00     0.065 A 
ENDBRANCH  20  21
ENDBRANCH  19  20
ENDBRANCH  17  19
ENDBRANCH  15  17
ENDBRANCH  12  15
ENDBRANCH   6   8
ENDBRANCH   5   6
ENDBRANCH   4   5
ENDBRANCH   3   4
ENDBRANCH   2   3
ENDBRANCH   1   2
BRANCH   1  26
ATOM     26  C   UNL A   1      34.717  30.605  28.019  1.00  0.00     0.188 C 
BRANCH  26  27
ATOM     27  O   UNL A   1      35.351  31.765  28.501  1.00  0.00    -0.376 OA
BRANCH  27  28
ATOM     28  C   UNL A   1      34.880  32.353  29.694  1.00  0.00     0.202 C 
BRANCH  28  29
ATOM     29  C   UNL A   1      35.339  31.795  31.053  1.00  0.00     0.261 C 
BRANCH  29  30
ATOM     30  O   UNL A   1      36.734  31.482  31.201  1.00  0.00    -0.460 OA
BRANCH  30  31
ATOM     31  C   UNL A   1      37.091  30.179  31.108  1.00  0.00     0.338 C 
ATOM     32  O   UNL A   1      36.356  29.213  31.246  1.00  0.00    -0.246 OA
BRANCH  31  33
ATOM     33  C   UNL A   1      38.467  30.122  30.553  1.00  0.00     0.060 A 
ATOM     34  C   UNL A   1      38.647  30.255  29.168  1.00  0.00     0.016 A 
ATOM     35  C   UNL A   1      39.573  29.962  31.391  1.00  0.00     0.016 A 
ATOM     36  C   UNL A   1      39.931  30.201  28.615  1.00  0.00     0.010 A 
ATOM     37  C   UNL A   1      40.854  29.883  30.833  1.00  0.00     0.010 A 
ATOM     38  C   UNL A   1      41.038  29.971  29.440  1.00  0.00    -0.014 A 
BRANCH  38  39
ATOM     39  C   UNL A   1      42.354  29.616  28.845  1.00  0.00     0.031 A 
ATOM     40  C   UNL A   1      42.569  28.197  28.390  1.00  0.00     0.074 A 
ATOM     41  C   UNL A   1      43.341  30.522  28.705  1.00  0.00     0.049 A 
ATOM     42  N   UNL A   1      43.651  27.624  27.928  1.00  0.00    -0.248 NA
ATOM     43  C   UNL A   1      41.403  27.302  28.471  1.00  0.00     0.031 C 
ATOM     44  C   UNL A   1      43.251  31.936  29.058  1.00  0.00     0.029 A 
ATOM     45  N   UNL A   1      44.625  30.372  28.238  1.00  0.00    -0.354 N 
ATOM     46  C   UNL A   1      43.299  26.303  27.673  1.00  0.00     0.074 A 
ATOM     47  C   UNL A   1      41.913  26.151  28.060  1.00  0.00     0.031 C 
ATOM     48  C   UNL A   1      44.438  32.522  28.815  1.00  0.00     0.029 A 
ATOM     49  C   UNL A   1      45.382  31.517  28.325  1.00  0.00     0.049 A 
ATOM     50  H   UNL A   1      44.971  29.525  27.875  1.00  0.00     0.167 HD
ATOM     51  C   UNL A   1      44.057  25.306  27.156  1.00  0.00     0.037 A 
ATOM     52  C   UNL A   1      46.692  31.722  28.070  1.00  0.00     0.037 A 
ATOM     53  C   UNL A   1      45.438  25.455  26.779  1.00  0.00     0.049 A 
ATOM     54  C   UNL A   1      47.541  30.576  27.575  1.00  0.00     0.074 A 
ATOM     55  C   UNL A   1      46.290  24.505  26.241  1.00  0.00     0.029 A 
ATOM     56  N   UNL A   1      46.175  26.624  26.906  1.00  0.00    -0.354 N 
ATOM     57  N   UNL A   1      47.194  29.335  27.324  1.00  0.00    -0.248 NA
ATOM     58  C   UNL A   1      48.964  30.859  27.326  1.00  0.00     0.031 C 
ATOM     59  C   UNL A   1      47.554  25.084  26.095  1.00  0.00     0.029 A 
ATOM     60  C   UNL A   1      47.477  26.412  26.480  1.00  0.00     0.049 A 
ATOM     61  H   UNL A   1      45.824  27.478  27.247  1.00  0.00     0.167 HD
ATOM     62  C   UNL A   1      48.344  28.703  26.856  1.00  0.00     0.074 A 
ATOM     63  C   UNL A   1      49.393  29.699  26.849  1.00  0.00     0.031 C 
ATOM     64  C   UNL A   1      48.514  27.414  26.464  1.00  0.00     0.037 A 
BRANCH  51  65
ATOM     65  C   UNL A   1      43.414  23.956  26.993  1.00  0.00     0.058 A 
ATOM     66  C   UNL A   1      42.999  23.480  25.738  1.00  0.00     0.135 A 
ATOM     67  C   UNL A   1      43.236  23.115  28.104  1.00  0.00     0.135 A 
ATOM     68  F   UNL A   1      43.126  24.252  24.647  1.00  0.00    -0.206 F 
ATOM     69  C   UNL A   1      42.407  22.230  25.595  1.00  0.00     0.059 A 
ATOM     70  C   UNL A   1      42.675  21.848  27.978  1.00  0.00     0.059 A 
ATOM     71  F   UNL A   1      43.611  23.521  29.326  1.00  0.00    -0.206 F 
ATOM     72  C   UNL A   1      42.250  21.421  26.721  1.00  0.00     0.060 A 
BRANCH  72  73
ATOM     73  S   UNL A   1      41.481  19.801  26.515  1.00  0.00     0.124 S 
ATOM     74  O   UNL A   1      41.879  19.130  27.748  1.00  0.00    -0.237 OA
ATOM     75  O   UNL A   1      40.065  20.141  26.408  1.00  0.00    -0.237 OA
ATOM     76  O   UNL A   1      42.093  19.286  25.295  1.00  0.00    -0.744 OA
ENDBRANCH  72  73
ENDBRANCH  51  65
BRANCH  52  77
ATOM     77  C   UNL A   1      47.299  33.064  28.296  1.00  0.00     0.058 A 
ATOM     78  C   UNL A   1      47.815  33.427  29.548  1.00  0.00     0.135 A 
ATOM     79  C   UNL A   1      47.351  34.020  27.269  1.00  0.00     0.135 A 
ATOM     80  F   UNL A   1      47.774  32.557  30.569  1.00  0.00    -0.206 F 
ATOM     81  C   UNL A   1      48.342  34.694  29.782  1.00  0.00     0.059 A 
ATOM     82  C   UNL A   1      47.901  35.282  27.468  1.00  0.00     0.059 A 
ATOM     83  F   UNL A   1      46.876  33.724  26.049  1.00  0.00    -0.206 F 
ATOM     84  C   UNL A   1      48.383  35.615  28.733  1.00  0.00     0.060 A 
BRANCH  84  85
ATOM     85  S   UNL A   1      49.104  37.243  29.038  1.00  0.00     0.124 S 
ATOM     86  O   UNL A   1      50.285  36.899  29.820  1.00  0.00    -0.237 OA
ATOM     87  O   UNL A   1      49.353  37.724  27.683  1.00  0.00    -0.237 OA
ATOM     88  O   UNL A   1      48.049  37.946  29.762  1.00  0.00    -0.744 OA
ENDBRANCH  84  85
ENDBRANCH  52  77
BRANCH  64  89
ATOM     89  C   UNL A   1      49.869  27.010  25.943  1.00  0.00     0.058 A 
ATOM     90  C   UNL A   1      50.257  27.245  24.613  1.00  0.00     0.135 A 
ATOM     91  C   UNL A   1      50.815  26.430  26.805  1.00  0.00     0.135 A 
ATOM     92  F   UNL A   1      49.393  27.795  23.745  1.00  0.00    -0.206 F 
ATOM     93  C   UNL A   1      51.522  26.894  24.151  1.00  0.00     0.059 A 
ATOM     94  C   UNL A   1      52.097  26.100  26.372  1.00  0.00     0.059 A 
ATOM     95  F   UNL A   1      50.504  26.194  28.089  1.00  0.00    -0.206 F 
ATOM     96  C   UNL A   1      52.437  26.325  25.040  1.00  0.00     0.060 A 
BRANCH  96  97
ATOM     97  S   UNL A   1      54.084  25.902  24.434  1.00  0.00     0.124 S 
ATOM     98  O   UNL A   1      54.907  26.918  25.082  1.00  0.00    -0.237 OA
ATOM     99  O   UNL A   1      54.257  24.538  24.926  1.00  0.00    -0.237 OA
ATOM    100  O   UNL A   1      53.958  26.027  22.985  1.00  0.00    -0.744 OA
ENDBRANCH  96  97
ENDBRANCH  64  89
ENDBRANCH  38  39
ENDBRANCH  31  33
ENDBRANCH  30  31
ENDBRANCH  29  30
ENDBRANCH  28  29
ENDBRANCH  27  28
ENDBRANCH  26  27
ENDBRANCH   1  26
TORSDOF 26
ENDMDL
