MODEL 1
REMARK VINA RESULT:     -10.5      0.000      0.000
REMARK SMILES [NH3+][C@@H](CC1=C[C@H](S)c2ccccc2C1)C(=O)OCCOCCOCCOC(=O)c1ccc(-c2c3nc(c(-c4c(F)cc(S(=O)(=O)[O-])cc4F)c4ccc([nH]4)c(-c4c(F)cc(S(=O)(=O)[O-])cc4F)c4nc(c(-c5c(F)cc(S(=O)(=O)[O-])cc5F)c5ccc2[nH]5)C=C4)C=C3)cc1
REMARK SMILES IDX 21 1 20 2 19 3 18 4 17 5 15 6 16 7 2 8 1 9 3 13 4 14 5 15
REMARK SMILES IDX 14 16 6 17 13 18 8 19 12 20 9 21 11 22 10 23 7 24 22 26
REMARK SMILES IDX 23 27 24 28 25 29 26 30 27 31 28 32 29 33 30 34 94 35 31 36
REMARK SMILES IDX 93 37 32 38 33 39 34 40 87 41 35 42 92 43 86 44 88 45 36 46
REMARK SMILES IDX 91 47 85 48 84 49 37 51 71 52 50 53 70 54 51 55 54 56 69 57
REMARK SMILES IDX 89 58 52 59 53 60 68 62 90 63 55 64 38 65 39 66 48 67 40 68
REMARK SMILES IDX 41 69 47 70 49 71 42 72 43 73 44 74 45 75 46 76 72 77 73 78
REMARK SMILES IDX 82 79 74 80 75 81 81 82 83 83 76 84 77 85 78 86 79 87 80 88
REMARK SMILES IDX 56 89 57 90 66 91 58 92 59 93 65 94 67 95 60 96 61 97 62 98
REMARK SMILES IDX 63 99 64 100
REMARK H PARENT 1 10 1 11 1 12 7 25 88 50 54 61
REMARK Flexibility Score: inf
ROOT
ATOM      1  C   UNL A   1      42.854  20.189  26.135  1.00  0.00     0.188 C 
ENDROOT
BRANCH   1   2
ATOM      2  O   UNL A   1      41.471  20.471  26.315  1.00  0.00    -0.376 OA
BRANCH   2   3
ATOM      3  C   UNL A   1      41.085  21.402  27.315  1.00  0.00     0.202 C 
BRANCH   3   4
ATOM      4  C   UNL A   1      40.535  22.780  26.913  1.00  0.00     0.261 C 
BRANCH   4   5
ATOM      5  O   UNL A   1      39.107  22.940  26.989  1.00  0.00    -0.459 OA
BRANCH   5   6
ATOM      6  C   UNL A   1      38.403  22.475  25.914  1.00  0.00     0.365 C 
ATOM      7  O   UNL A   1      38.614  21.400  25.359  1.00  0.00    -0.245 OA
BRANCH   6   8
ATOM      8  C   UNL A   1      37.370  23.477  25.371  1.00  0.00     0.295 C 
BRANCH   8   9
ATOM      9  N   UNL A   1      37.164  23.428  23.906  1.00  0.00    -0.346 N 
ATOM     10  H   UNL A   1      36.964  24.365  23.560  1.00  0.00     0.345 HD
ATOM     11  H   UNL A   1      36.380  22.812  23.694  1.00  0.00     0.345 HD
ATOM     12  H   UNL A   1      38.008  23.072  23.457  1.00  0.00     0.345 HD
ENDBRANCH   8   9
BRANCH   8  13
ATOM     13  C   UNL A   1      36.053  23.359  26.156  1.00  0.00     0.108 C 
BRANCH  13  14
ATOM     14  C   UNL A   1      34.977  22.463  25.567  1.00  0.00    -0.062 C 
ATOM     15  C   UNL A   1      33.885  22.999  24.987  1.00  0.00    -0.009 C 
ATOM     16  C   UNL A   1      35.174  20.966  25.626  1.00  0.00     0.066 C 
ATOM     17  C   UNL A   1      32.779  22.202  24.352  1.00  0.00     0.096 C 
ATOM     18  C   UNL A   1      34.227  20.151  24.775  1.00  0.00    -0.039 A 
ATOM     19  C   UNL A   1      33.092  20.729  24.177  1.00  0.00    -0.028 A 
ATOM     20  C   UNL A   1      34.462  18.773  24.632  1.00  0.00     0.004 A 
ATOM     21  C   UNL A   1      32.233  19.914  23.418  1.00  0.00     0.005 A 
ATOM     22  C   UNL A   1      33.593  17.977  23.888  1.00  0.00     0.000 A 
ATOM     23  C   UNL A   1      32.481  18.548  23.278  1.00  0.00     0.000 A 
BRANCH  17  24
ATOM     24  S   UNL A   1      31.283  22.434  25.377  1.00  0.00    -0.167 SA
ATOM     25  H   UNL A   1      30.296  21.610  24.932  1.00  0.00     0.103 HD
ENDBRANCH  17  24
ENDBRANCH  13  14
ENDBRANCH   8  13
ENDBRANCH   6   8
ENDBRANCH   5   6
ENDBRANCH   4   5
ENDBRANCH   3   4
ENDBRANCH   2   3
ENDBRANCH   1   2
BRANCH   1  26
ATOM     26  C   UNL A   1      43.797  21.320  25.675  1.00  0.00     0.188 C 
BRANCH  26  27
ATOM     27  O   UNL A   1      43.256  22.207  24.728  1.00  0.00    -0.376 OA
BRANCH  27  28
ATOM     28  C   UNL A   1      43.777  23.518  24.613  1.00  0.00     0.202 C 
BRANCH  28  29
ATOM     29  C   UNL A   1      43.461  24.677  25.580  1.00  0.00     0.261 C 
BRANCH  29  30
ATOM     30  O   UNL A   1      42.298  25.470  25.335  1.00  0.00    -0.460 OA
BRANCH  30  31
ATOM     31  C   UNL A   1      42.459  26.817  25.350  1.00  0.00     0.338 C 
ATOM     32  O   UNL A   1      42.592  27.547  24.382  1.00  0.00    -0.246 OA
BRANCH  31  33
ATOM     33  C   UNL A   1      42.209  27.281  26.733  1.00  0.00     0.060 A 
ATOM     34  C   UNL A   1      42.957  28.328  27.271  1.00  0.00     0.016 A 
ATOM     35  C   UNL A   1      41.240  26.628  27.510  1.00  0.00     0.016 A 
ATOM     36  C   UNL A   1      42.713  28.742  28.581  1.00  0.00     0.010 A 
ATOM     37  C   UNL A   1      41.002  27.040  28.825  1.00  0.00     0.010 A 
ATOM     38  C   UNL A   1      41.719  28.119  29.360  1.00  0.00    -0.014 A 
BRANCH  38  39
ATOM     39  C   UNL A   1      41.315  28.755  30.639  1.00  0.00     0.031 A 
ATOM     40  C   UNL A   1      42.104  28.606  31.902  1.00  0.00     0.074 A 
ATOM     41  C   UNL A   1      40.215  29.533  30.617  1.00  0.00     0.049 A 
ATOM     42  N   UNL A   1      41.996  29.288  33.014  1.00  0.00    -0.248 NA
ATOM     43  C   UNL A   1      43.132  27.558  31.932  1.00  0.00     0.031 C 
ATOM     44  C   UNL A   1      39.336  29.700  29.458  1.00  0.00     0.029 A 
ATOM     45  N   UNL A   1      39.671  30.352  31.572  1.00  0.00    -0.354 N 
ATOM     46  C   UNL A   1      42.966  28.781  33.869  1.00  0.00     0.074 A 
ATOM     47  C   UNL A   1      43.609  27.689  33.166  1.00  0.00     0.031 C 
ATOM     48  C   UNL A   1      38.398  30.613  29.748  1.00  0.00     0.029 A 
ATOM     49  C   UNL A   1      38.600  31.085  31.115  1.00  0.00     0.049 A 
ATOM     50  H   UNL A   1      40.012  30.410  32.494  1.00  0.00     0.167 HD
ATOM     51  C   UNL A   1      43.297  29.208  35.113  1.00  0.00     0.037 A 
ATOM     52  C   UNL A   1      37.880  32.052  31.713  1.00  0.00     0.037 A 
ATOM     53  C   UNL A   1      42.628  30.282  35.807  1.00  0.00     0.049 A 
ATOM     54  C   UNL A   1      38.256  32.497  33.098  1.00  0.00     0.074 A 
ATOM     55  C   UNL A   1      42.927  30.824  37.046  1.00  0.00     0.029 A 
ATOM     56  N   UNL A   1      41.515  30.965  35.336  1.00  0.00    -0.354 N 
ATOM     57  N   UNL A   1      39.250  32.091  33.850  1.00  0.00    -0.248 NA
ATOM     58  C   UNL A   1      37.419  33.536  33.712  1.00  0.00     0.031 C 
ATOM     59  C   UNL A   1      41.964  31.795  37.346  1.00  0.00     0.029 A 
ATOM     60  C   UNL A   1      41.093  31.896  36.274  1.00  0.00     0.049 A 
ATOM     61  H   UNL A   1      41.087  30.812  34.462  1.00  0.00     0.167 HD
ATOM     62  C   UNL A   1      39.166  32.832  35.023  1.00  0.00     0.074 A 
ATOM     63  C   UNL A   1      38.034  33.725  34.872  1.00  0.00     0.031 C 
ATOM     64  C   UNL A   1      39.956  32.773  36.123  1.00  0.00     0.037 A 
BRANCH  51  65
ATOM     65  C   UNL A   1      44.448  28.528  35.807  1.00  0.00     0.058 A 
ATOM     66  C   UNL A   1      44.239  27.426  36.652  1.00  0.00     0.135 A 
ATOM     67  C   UNL A   1      45.774  28.927  35.572  1.00  0.00     0.135 A 
ATOM     68  F   UNL A   1      42.993  26.999  36.912  1.00  0.00    -0.206 F 
ATOM     69  C   UNL A   1      45.300  26.762  37.261  1.00  0.00     0.059 A 
ATOM     70  C   UNL A   1      46.852  28.263  36.151  1.00  0.00     0.059 A 
ATOM     71  F   UNL A   1      46.034  29.968  34.765  1.00  0.00    -0.206 F 
ATOM     72  C   UNL A   1      46.604  27.189  37.005  1.00  0.00     0.060 A 
BRANCH  72  73
ATOM     73  S   UNL A   1      47.967  26.316  37.806  1.00  0.00     0.124 S 
ATOM     74  O   UNL A   1      48.784  27.426  38.284  1.00  0.00    -0.237 OA
ATOM     75  O   UNL A   1      47.280  25.545  38.837  1.00  0.00    -0.237 OA
ATOM     76  O   UNL A   1      48.551  25.530  36.724  1.00  0.00    -0.744 OA
ENDBRANCH  72  73
ENDBRANCH  51  65
BRANCH  52  77
ATOM     77  C   UNL A   1      36.772  32.699  30.966  1.00  0.00     0.058 A 
ATOM     78  C   UNL A   1      35.434  32.418  31.272  1.00  0.00     0.135 A 
ATOM     79  C   UNL A   1      37.031  33.659  29.974  1.00  0.00     0.135 A 
ATOM     80  F   UNL A   1      35.138  31.507  32.213  1.00  0.00    -0.206 F 
ATOM     81  C   UNL A   1      34.388  33.062  30.621  1.00  0.00     0.059 A 
ATOM     82  C   UNL A   1      36.002  34.335  29.328  1.00  0.00     0.059 A 
ATOM     83  F   UNL A   1      38.296  33.977  29.660  1.00  0.00    -0.206 F 
ATOM     84  C   UNL A   1      34.683  34.026  29.656  1.00  0.00     0.060 A 
BRANCH  84  85
ATOM     85  S   UNL A   1      33.316  34.906  28.869  1.00  0.00     0.124 S 
ATOM     86  O   UNL A   1      32.455  35.192  30.008  1.00  0.00    -0.237 OA
ATOM     87  O   UNL A   1      33.995  36.055  28.276  1.00  0.00    -0.237 OA
ATOM     88  O   UNL A   1      32.796  33.933  27.913  1.00  0.00    -0.744 OA
ENDBRANCH  84  85
ENDBRANCH  52  77
BRANCH  64  89
ATOM     89  C   UNL A   1      39.625  33.690  37.270  1.00  0.00     0.058 A 
ATOM     90  C   UNL A   1      38.811  33.267  38.331  1.00  0.00     0.135 A 
ATOM     91  C   UNL A   1      40.199  34.970  37.354  1.00  0.00     0.135 A 
ATOM     92  F   UNL A   1      38.229  32.058  38.296  1.00  0.00    -0.206 F 
ATOM     93  C   UNL A   1      38.574  34.081  39.435  1.00  0.00     0.059 A 
ATOM     94  C   UNL A   1      39.996  35.790  38.460  1.00  0.00     0.059 A 
ATOM     95  F   UNL A   1      40.988  35.423  36.367  1.00  0.00    -0.206 F 
ATOM     96  C   UNL A   1      39.180  35.336  39.496  1.00  0.00     0.060 A 
BRANCH  96  97
ATOM     97  S   UNL A   1      38.919  36.348  40.969  1.00  0.00     0.124 S 
ATOM     98  O   UNL A   1      38.559  37.635  40.384  1.00  0.00    -0.237 OA
ATOM     99  O   UNL A   1      37.839  35.636  41.646  1.00  0.00    -0.237 OA
ATOM    100  O   UNL A   1      40.211  36.306  41.646  1.00  0.00    -0.744 OA
ENDBRANCH  96  97
ENDBRANCH  64  89
ENDBRANCH  38  39
ENDBRANCH  31  33
ENDBRANCH  30  31
ENDBRANCH  29  30
ENDBRANCH  28  29
ENDBRANCH  27  28
ENDBRANCH  26  27
ENDBRANCH   1  26
TORSDOF 24
ENDMDL
MODEL 2
REMARK VINA RESULT:     -10.4      1.713      2.842
REMARK SMILES [NH3+][C@@H](CC1=C[C@H](S)c2ccccc2C1)C(=O)OCCOCCOCCOC(=O)c1ccc(-c2c3nc(c(-c4c(F)cc(S(=O)(=O)[O-])cc4F)c4ccc([nH]4)c(-c4c(F)cc(S(=O)(=O)[O-])cc4F)c4nc(c(-c5c(F)cc(S(=O)(=O)[O-])cc5F)c5ccc2[nH]5)C=C4)C=C3)cc1
REMARK SMILES IDX 21 1 20 2 19 3 18 4 17 5 15 6 16 7 2 8 1 9 3 13 4 14 5 15
REMARK SMILES IDX 14 16 6 17 13 18 8 19 12 20 9 21 11 22 10 23 7 24 22 26
REMARK SMILES IDX 23 27 24 28 25 29 26 30 27 31 28 32 29 33 30 34 94 35 31 36
REMARK SMILES IDX 93 37 32 38 33 39 34 40 87 41 35 42 92 43 86 44 88 45 36 46
REMARK SMILES IDX 91 47 85 48 84 49 37 51 71 52 50 53 70 54 51 55 54 56 69 57
REMARK SMILES IDX 89 58 52 59 53 60 68 62 90 63 55 64 38 65 39 66 48 67 40 68
REMARK SMILES IDX 41 69 47 70 49 71 42 72 43 73 44 74 45 75 46 76 72 77 73 78
REMARK SMILES IDX 82 79 74 80 75 81 81 82 83 83 76 84 77 85 78 86 79 87 80 88
REMARK SMILES IDX 56 89 57 90 66 91 58 92 59 93 65 94 67 95 60 96 61 97 62 98
REMARK SMILES IDX 63 99 64 100
REMARK H PARENT 1 10 1 11 1 12 7 25 88 50 54 61
REMARK Flexibility Score: inf
ROOT
ATOM      1  C   UNL A   1      40.924  19.659  26.277  1.00  0.00     0.188 C 
ENDROOT
BRANCH   1   2
ATOM      2  O   UNL A   1      39.859  19.150  25.483  1.00  0.00    -0.376 OA
BRANCH   2   3
ATOM      3  C   UNL A   1      38.667  19.911  25.364  1.00  0.00     0.202 C 
BRANCH   3   4
ATOM      4  C   UNL A   1      38.708  21.437  25.541  1.00  0.00     0.261 C 
BRANCH   4   5
ATOM      5  O   UNL A   1      37.439  22.086  25.743  1.00  0.00    -0.459 OA
BRANCH   5   6
ATOM      6  C   UNL A   1      36.557  21.994  24.704  1.00  0.00     0.365 C 
ATOM      7  O   UNL A   1      36.846  22.201  23.529  1.00  0.00    -0.245 OA
BRANCH   6   8
ATOM      8  C   UNL A   1      35.111  21.711  25.144  1.00  0.00     0.295 C 
BRANCH   8   9
ATOM      9  N   UNL A   1      34.833  20.302  25.501  1.00  0.00    -0.346 N 
ATOM     10  H   UNL A   1      35.266  19.686  24.815  1.00  0.00     0.345 HD
ATOM     11  H   UNL A   1      33.825  20.146  25.511  1.00  0.00     0.345 HD
ATOM     12  H   UNL A   1      35.217  20.105  26.426  1.00  0.00     0.345 HD
ENDBRANCH   8   9
BRANCH   8  13
ATOM     13  C   UNL A   1      34.690  22.694  26.251  1.00  0.00     0.108 C 
BRANCH  13  14
ATOM     14  C   UNL A   1      33.749  23.819  25.852  1.00  0.00    -0.062 C 
ATOM     15  C   UNL A   1      32.447  23.565  25.615  1.00  0.00    -0.009 C 
ATOM     16  C   UNL A   1      34.302  25.221  25.756  1.00  0.00     0.066 C 
ATOM     17  C   UNL A   1      31.430  24.609  25.242  1.00  0.00     0.096 C 
ATOM     18  C   UNL A   1      33.271  26.321  25.645  1.00  0.00    -0.039 A 
ATOM     19  C   UNL A   1      31.916  26.037  25.397  1.00  0.00    -0.028 A 
ATOM     20  C   UNL A   1      33.695  27.658  25.737  1.00  0.00     0.004 A 
ATOM     21  C   UNL A   1      31.007  27.104  25.279  1.00  0.00     0.005 A 
ATOM     22  C   UNL A   1      32.784  28.704  25.602  1.00  0.00     0.000 A 
ATOM     23  C   UNL A   1      31.440  28.426  25.377  1.00  0.00     0.000 A 
BRANCH  17  24
ATOM     24  S   UNL A   1      30.916  24.278  23.519  1.00  0.00    -0.167 SA
ATOM     25  H   UNL A   1      31.578  25.118  22.678  1.00  0.00     0.103 HD
ENDBRANCH  17  24
ENDBRANCH  13  14
ENDBRANCH   8  13
ENDBRANCH   6   8
ENDBRANCH   5   6
ENDBRANCH   4   5
ENDBRANCH   3   4
ENDBRANCH   2   3
ENDBRANCH   1   2
BRANCH   1  26
ATOM     26  C   UNL A   1      42.370  19.558  25.750  1.00  0.00     0.188 C 
BRANCH  26  27
ATOM     27  O   UNL A   1      43.163  20.702  25.944  1.00  0.00    -0.376 OA
BRANCH  27  28
ATOM     28  C   UNL A   1      42.636  21.983  25.653  1.00  0.00     0.202 C 
BRANCH  28  29
ATOM     29  C   UNL A   1      42.301  23.057  26.708  1.00  0.00     0.261 C 
BRANCH  29  30
ATOM     30  O   UNL A   1      41.280  24.010  26.408  1.00  0.00    -0.460 OA
BRANCH  30  31
ATOM     31  C   UNL A   1      41.688  25.264  26.085  1.00  0.00     0.338 C 
ATOM     32  O   UNL A   1      42.107  25.640  25.003  1.00  0.00    -0.246 OA
BRANCH  31  33
ATOM     33  C   UNL A   1      41.315  26.156  27.205  1.00  0.00     0.060 A 
ATOM     34  C   UNL A   1      40.274  25.808  28.066  1.00  0.00     0.016 A 
ATOM     35  C   UNL A   1      41.991  27.375  27.366  1.00  0.00     0.016 A 
ATOM     36  C   UNL A   1      39.930  26.669  29.109  1.00  0.00     0.010 A 
ATOM     37  C   UNL A   1      41.639  28.240  28.407  1.00  0.00     0.010 A 
ATOM     38  C   UNL A   1      40.624  27.879  29.303  1.00  0.00    -0.014 A 
BRANCH  38  39
ATOM     39  C   UNL A   1      40.406  28.630  30.565  1.00  0.00     0.031 A 
ATOM     40  C   UNL A   1      41.273  28.455  31.771  1.00  0.00     0.074 A 
ATOM     41  C   UNL A   1      39.409  29.537  30.574  1.00  0.00     0.049 A 
ATOM     42  N   UNL A   1      41.340  29.205  32.842  1.00  0.00    -0.248 NA
ATOM     43  C   UNL A   1      42.167  27.290  31.792  1.00  0.00     0.031 C 
ATOM     44  C   UNL A   1      38.463  29.747  29.476  1.00  0.00     0.029 A 
ATOM     45  N   UNL A   1      39.048  30.469  31.513  1.00  0.00    -0.354 N 
ATOM     46  C   UNL A   1      42.310  28.629  33.653  1.00  0.00     0.074 A 
ATOM     47  C   UNL A   1      42.757  27.429  32.975  1.00  0.00     0.031 C 
ATOM     48  C   UNL A   1      37.669  30.785  29.776  1.00  0.00     0.029 A 
ATOM     49  C   UNL A   1      38.038  31.302  31.091  1.00  0.00     0.049 A 
ATOM     50  H   UNL A   1      39.468  30.535  32.401  1.00  0.00     0.167 HD
ATOM     51  C   UNL A   1      42.791  29.080  34.837  1.00  0.00     0.037 A 
ATOM     52  C   UNL A   1      37.490  32.383  31.677  1.00  0.00     0.037 A 
ATOM     53  C   UNL A   1      42.314  30.266  35.509  1.00  0.00     0.049 A 
ATOM     54  C   UNL A   1      38.030  32.854  32.998  1.00  0.00     0.074 A 
ATOM     55  C   UNL A   1      42.778  30.834  36.683  1.00  0.00     0.029 A 
ATOM     56  N   UNL A   1      41.256  31.055  35.079  1.00  0.00    -0.354 N 
ATOM     57  N   UNL A   1      39.027  32.370  33.698  1.00  0.00    -0.248 NA
ATOM     58  C   UNL A   1      37.377  34.021  33.604  1.00  0.00     0.031 C 
ATOM     59  C   UNL A   1      41.966  31.932  36.992  1.00  0.00     0.029 A 
ATOM     60  C   UNL A   1      41.028  32.081  35.984  1.00  0.00     0.049 A 
ATOM     61  H   UNL A   1      40.742  30.908  34.252  1.00  0.00     0.167 HD
ATOM     62  C   UNL A   1      39.130  33.179  34.823  1.00  0.00     0.074 A 
ATOM     63  C   UNL A   1      38.104  34.196  34.700  1.00  0.00     0.031 C 
ATOM     64  C   UNL A   1      39.995  33.084  35.863  1.00  0.00     0.037 A 
BRANCH  51  65
ATOM     65  C   UNL A   1      43.905  28.301  35.486  1.00  0.00     0.058 A 
ATOM     66  C   UNL A   1      43.636  27.267  36.396  1.00  0.00     0.135 A 
ATOM     67  C   UNL A   1      45.247  28.536  35.143  1.00  0.00     0.135 A 
ATOM     68  F   UNL A   1      42.372  26.997  36.760  1.00  0.00    -0.206 F 
ATOM     69  C   UNL A   1      44.657  26.512  36.965  1.00  0.00     0.059 A 
ATOM     70  C   UNL A   1      46.283  27.776  35.681  1.00  0.00     0.059 A 
ATOM     71  F   UNL A   1      45.563  29.506  34.271  1.00  0.00    -0.206 F 
ATOM     72  C   UNL A   1      45.979  26.775  36.602  1.00  0.00     0.060 A 
BRANCH  72  73
ATOM     73  S   UNL A   1      47.290  25.785  37.352  1.00  0.00     0.124 S 
ATOM     74  O   UNL A   1      48.034  25.346  36.176  1.00  0.00    -0.237 OA
ATOM     75  O   UNL A   1      47.967  26.757  38.204  1.00  0.00    -0.237 OA
ATOM     76  O   UNL A   1      46.563  24.735  38.059  1.00  0.00    -0.744 OA
ENDBRANCH  72  73
ENDBRANCH  51  65
BRANCH  52  77
ATOM     77  C   UNL A   1      36.410  33.121  30.974  1.00  0.00     0.058 A 
ATOM     78  C   UNL A   1      35.088  33.079  31.439  1.00  0.00     0.135 A 
ATOM     79  C   UNL A   1      36.691  33.932  29.863  1.00  0.00     0.135 A 
ATOM     80  F   UNL A   1      34.773  32.317  32.497  1.00  0.00    -0.206 F 
ATOM     81  C   UNL A   1      34.079  33.814  30.826  1.00  0.00     0.059 A 
ATOM     82  C   UNL A   1      35.704  34.695  29.250  1.00  0.00     0.059 A 
ATOM     83  F   UNL A   1      37.945  34.021  29.395  1.00  0.00    -0.206 F 
ATOM     84  C   UNL A   1      34.399  34.626  29.737  1.00  0.00     0.060 A 
BRANCH  84  85
ATOM     85  S   UNL A   1      33.093  35.628  28.995  1.00  0.00     0.124 S 
ATOM     86  O   UNL A   1      32.448  34.665  28.113  1.00  0.00    -0.237 OA
ATOM     87  O   UNL A   1      32.324  36.039  30.165  1.00  0.00    -0.237 OA
ATOM     88  O   UNL A   1      33.828  36.700  28.329  1.00  0.00    -0.744 OA
ENDBRANCH  84  85
ENDBRANCH  52  77
BRANCH  64  89
ATOM     89  C   UNL A   1      39.872  34.097  36.968  1.00  0.00     0.058 A 
ATOM     90  C   UNL A   1      40.347  35.408  36.812  1.00  0.00     0.135 A 
ATOM     91  C   UNL A   1      39.195  33.782  38.158  1.00  0.00     0.135 A 
ATOM     92  F   UNL A   1      41.011  35.759  35.700  1.00  0.00    -0.206 F 
ATOM     93  C   UNL A   1      40.157  36.372  37.799  1.00  0.00     0.059 A 
ATOM     94  C   UNL A   1      38.972  34.737  39.146  1.00  0.00     0.059 A 
ATOM     95  F   UNL A   1      38.718  32.544  38.357  1.00  0.00    -0.206 F 
ATOM     96  C   UNL A   1      39.458  36.030  38.957  1.00  0.00     0.060 A 
BRANCH  96  97
ATOM     97  S   UNL A   1      39.159  37.313  40.193  1.00  0.00     0.124 S 
ATOM     98  O   UNL A   1      40.513  37.606  40.649  1.00  0.00    -0.237 OA
ATOM     99  O   UNL A   1      38.517  38.359  39.403  1.00  0.00    -0.237 OA
ATOM    100  O   UNL A   1      38.297  36.653  41.168  1.00  0.00    -0.744 OA
ENDBRANCH  96  97
ENDBRANCH  64  89
ENDBRANCH  38  39
ENDBRANCH  31  33
ENDBRANCH  30  31
ENDBRANCH  29  30
ENDBRANCH  28  29
ENDBRANCH  27  28
ENDBRANCH  26  27
ENDBRANCH   1  26
TORSDOF 24
ENDMDL
MODEL 3
REMARK VINA RESULT:      -9.9      6.074      9.236
REMARK SMILES [NH3+][C@@H](CC1=C[C@H](S)c2ccccc2C1)C(=O)OCCOCCOCCOC(=O)c1ccc(-c2c3nc(c(-c4c(F)cc(S(=O)(=O)[O-])cc4F)c4ccc([nH]4)c(-c4c(F)cc(S(=O)(=O)[O-])cc4F)c4nc(c(-c5c(F)cc(S(=O)(=O)[O-])cc5F)c5ccc2[nH]5)C=C4)C=C3)cc1
REMARK SMILES IDX 21 1 20 2 19 3 18 4 17 5 15 6 16 7 2 8 1 9 3 13 4 14 5 15
REMARK SMILES IDX 14 16 6 17 13 18 8 19 12 20 9 21 11 22 10 23 7 24 22 26
REMARK SMILES IDX 23 27 24 28 25 29 26 30 27 31 28 32 29 33 30 34 94 35 31 36
REMARK SMILES IDX 93 37 32 38 33 39 34 40 87 41 35 42 92 43 86 44 88 45 36 46
REMARK SMILES IDX 91 47 85 48 84 49 37 51 71 52 50 53 70 54 51 55 54 56 69 57
REMARK SMILES IDX 89 58 52 59 53 60 68 62 90 63 55 64 38 65 39 66 48 67 40 68
REMARK SMILES IDX 41 69 47 70 49 71 42 72 43 73 44 74 45 75 46 76 72 77 73 78
REMARK SMILES IDX 82 79 74 80 75 81 81 82 83 83 76 84 77 85 78 86 79 87 80 88
REMARK SMILES IDX 56 89 57 90 66 91 58 92 59 93 65 94 67 95 60 96 61 97 62 98
REMARK SMILES IDX 63 99 64 100
REMARK H PARENT 1 10 1 11 1 12 7 25 88 50 54 61
REMARK Flexibility Score: inf
ROOT
ATOM      1  C   UNL A   1      36.245  21.889  24.268  1.00  0.00     0.188 C 
ENDROOT
BRANCH   1   2
ATOM      2  O   UNL A   1      36.300  23.100  25.014  1.00  0.00    -0.376 OA
BRANCH   2   3
ATOM      3  C   UNL A   1      35.439  23.256  26.132  1.00  0.00     0.202 C 
BRANCH   3   4
ATOM      4  C   UNL A   1      34.111  24.015  25.981  1.00  0.00     0.261 C 
BRANCH   4   5
ATOM      5  O   UNL A   1      33.214  23.528  24.966  1.00  0.00    -0.459 OA
BRANCH   5   6
ATOM      6  C   UNL A   1      32.128  22.836  25.421  1.00  0.00     0.365 C 
ATOM      7  O   UNL A   1      32.150  21.659  25.767  1.00  0.00    -0.245 OA
BRANCH   6   8
ATOM      8  C   UNL A   1      30.816  23.638  25.363  1.00  0.00     0.295 C 
BRANCH   8   9
ATOM      9  N   UNL A   1      30.624  24.599  26.471  1.00  0.00    -0.346 N 
ATOM     10  H   UNL A   1      31.531  24.938  26.789  1.00  0.00     0.345 HD
ATOM     11  H   UNL A   1      30.144  24.137  27.243  1.00  0.00     0.345 HD
ATOM     12  H   UNL A   1      30.063  25.387  26.144  1.00  0.00     0.345 HD
ENDBRANCH   8   9
BRANCH   8  13
ATOM     13  C   UNL A   1      30.655  24.291  23.979  1.00  0.00     0.108 C 
BRANCH  13  14
ATOM     14  C   UNL A   1      30.436  25.795  23.948  1.00  0.00    -0.062 C 
ATOM     15  C   UNL A   1      31.485  26.638  24.015  1.00  0.00    -0.009 C 
ATOM     16  C   UNL A   1      29.023  26.314  23.817  1.00  0.00     0.066 C 
ATOM     17  C   UNL A   1      31.378  28.137  23.966  1.00  0.00     0.096 C 
ATOM     18  C   UNL A   1      28.899  27.788  23.500  1.00  0.00    -0.039 A 
ATOM     19  C   UNL A   1      30.006  28.652  23.575  1.00  0.00    -0.028 A 
ATOM     20  C   UNL A   1      27.632  28.306  23.181  1.00  0.00     0.004 A 
ATOM     21  C   UNL A   1      29.823  30.018  23.294  1.00  0.00     0.005 A 
ATOM     22  C   UNL A   1      27.466  29.665  22.920  1.00  0.00     0.000 A 
ATOM     23  C   UNL A   1      28.561  30.519  22.973  1.00  0.00     0.000 A 
BRANCH  17  24
ATOM     24  S   UNL A   1      31.870  28.774  25.607  1.00  0.00    -0.167 SA
ATOM     25  H   UNL A   1      32.914  29.635  25.465  1.00  0.00     0.103 HD
ENDBRANCH  17  24
ENDBRANCH  13  14
ENDBRANCH   8  13
ENDBRANCH   6   8
ENDBRANCH   5   6
ENDBRANCH   4   5
ENDBRANCH   3   4
ENDBRANCH   2   3
ENDBRANCH   1   2
BRANCH   1  26
ATOM     26  C   UNL A   1      36.208  20.544  25.021  1.00  0.00     0.188 C 
BRANCH  26  27
ATOM     27  O   UNL A   1      37.381  19.774  24.936  1.00  0.00    -0.376 OA
BRANCH  27  28
ATOM     28  C   UNL A   1      38.626  20.344  25.295  1.00  0.00     0.202 C 
BRANCH  28  29
ATOM     29  C   UNL A   1      39.761  19.592  26.021  1.00  0.00     0.261 C 
BRANCH  29  30
ATOM     30  O   UNL A   1      41.019  19.457  25.359  1.00  0.00    -0.460 OA
BRANCH  30  31
ATOM     31  C   UNL A   1      42.124  19.403  26.145  1.00  0.00     0.338 C 
ATOM     32  O   UNL A   1      42.815  18.424  26.368  1.00  0.00    -0.246 OA
BRANCH  31  33
ATOM     33  C   UNL A   1      42.486  20.794  26.499  1.00  0.00     0.060 A 
ATOM     34  C   UNL A   1      42.554  21.185  27.836  1.00  0.00     0.016 A 
ATOM     35  C   UNL A   1      42.717  21.725  25.475  1.00  0.00     0.016 A 
ATOM     36  C   UNL A   1      42.886  22.505  28.148  1.00  0.00     0.010 A 
ATOM     37  C   UNL A   1      43.043  23.048  25.790  1.00  0.00     0.010 A 
ATOM     38  C   UNL A   1      43.156  23.440  27.130  1.00  0.00    -0.014 A 
BRANCH  38  39
ATOM     39  C   UNL A   1      43.756  24.745  27.504  1.00  0.00     0.031 A 
ATOM     40  C   UNL A   1      45.204  25.060  27.295  1.00  0.00     0.074 A 
ATOM     41  C   UNL A   1      42.925  25.682  28.002  1.00  0.00     0.049 A 
ATOM     42  N   UNL A   1      45.801  26.224  27.357  1.00  0.00    -0.248 NA
ATOM     43  C   UNL A   1      46.099  23.936  26.994  1.00  0.00     0.031 C 
ATOM     44  C   UNL A   1      41.509  25.463  28.304  1.00  0.00     0.029 A 
ATOM     45  N   UNL A   1      43.134  27.002  28.305  1.00  0.00    -0.354 N 
ATOM     46  C   UNL A   1      47.138  25.983  27.065  1.00  0.00     0.074 A 
ATOM     47  C   UNL A   1      47.273  24.551  26.891  1.00  0.00     0.031 C 
ATOM     48  C   UNL A   1      40.961  26.624  28.692  1.00  0.00     0.029 A 
ATOM     49  C   UNL A   1      41.987  27.663  28.679  1.00  0.00     0.049 A 
ATOM     50  H   UNL A   1      44.017  27.435  28.261  1.00  0.00     0.167 HD
ATOM     51  C   UNL A   1      48.144  26.882  26.934  1.00  0.00     0.037 A 
ATOM     52  C   UNL A   1      41.773  28.964  28.950  1.00  0.00     0.037 A 
ATOM     53  C   UNL A   1      47.994  28.304  27.137  1.00  0.00     0.049 A 
ATOM     54  C   UNL A   1      42.908  29.938  28.813  1.00  0.00     0.074 A 
ATOM     55  C   UNL A   1      48.942  29.300  26.973  1.00  0.00     0.029 A 
ATOM     56  N   UNL A   1      46.832  28.930  27.566  1.00  0.00    -0.354 N 
ATOM     57  N   UNL A   1      44.139  29.716  28.422  1.00  0.00    -0.248 NA
ATOM     58  C   UNL A   1      42.624  31.340  29.148  1.00  0.00     0.031 C 
ATOM     59  C   UNL A   1      48.369  30.519  27.355  1.00  0.00     0.029 A 
ATOM     60  C   UNL A   1      47.050  30.293  27.708  1.00  0.00     0.049 A 
ATOM     61  H   UNL A   1      45.978  28.473  27.743  1.00  0.00     0.167 HD
ATOM     62  C   UNL A   1      44.776  30.951  28.451  1.00  0.00     0.074 A 
ATOM     63  C   UNL A   1      43.787  31.920  28.881  1.00  0.00     0.031 C 
ATOM     64  C   UNL A   1      46.064  31.251  28.150  1.00  0.00     0.037 A 
BRANCH  51  65
ATOM     65  C   UNL A   1      49.502  26.365  26.537  1.00  0.00     0.058 A 
ATOM     66  C   UNL A   1      49.909  26.345  25.194  1.00  0.00     0.135 A 
ATOM     67  C   UNL A   1      50.432  25.955  27.507  1.00  0.00     0.135 A 
ATOM     68  F   UNL A   1      49.062  26.727  24.225  1.00  0.00    -0.206 F 
ATOM     69  C   UNL A   1      51.179  25.912  24.823  1.00  0.00     0.059 A 
ATOM     70  C   UNL A   1      51.716  25.541  27.160  1.00  0.00     0.059 A 
ATOM     71  F   UNL A   1      50.101  25.962  28.808  1.00  0.00    -0.206 F 
ATOM     72  C   UNL A   1      52.076  25.511  25.814  1.00  0.00     0.060 A 
BRANCH  72  73
ATOM     73  S   UNL A   1      53.718  24.951  25.312  1.00  0.00     0.124 S 
ATOM     74  O   UNL A   1      53.869  25.614  24.020  1.00  0.00    -0.237 OA
ATOM     75  O   UNL A   1      54.563  25.460  26.388  1.00  0.00    -0.237 OA
ATOM     76  O   UNL A   1      53.582  23.499  25.258  1.00  0.00    -0.744 OA
ENDBRANCH  72  73
ENDBRANCH  51  65
BRANCH  52  77
ATOM     77  C   UNL A   1      40.405  29.414  29.314  1.00  0.00     0.058 A 
ATOM     78  C   UNL A   1      40.076  29.719  30.641  1.00  0.00     0.135 A 
ATOM     79  C   UNL A   1      39.421  29.607  28.331  1.00  0.00     0.135 A 
ATOM     80  F   UNL A   1      40.984  29.550  31.614  1.00  0.00    -0.206 F 
ATOM     81  C   UNL A   1      38.817  30.200  30.986  1.00  0.00     0.059 A 
ATOM     82  C   UNL A   1      38.164  30.110  28.648  1.00  0.00     0.059 A 
ATOM     83  F   UNL A   1      39.695  29.348  27.044  1.00  0.00    -0.206 F 
ATOM     84  C   UNL A   1      37.870  30.400  29.980  1.00  0.00     0.060 A 
BRANCH  84  85
ATOM     85  S   UNL A   1      36.264  31.090  30.432  1.00  0.00     0.124 S 
ATOM     86  O   UNL A   1      35.441  30.686  29.299  1.00  0.00    -0.237 OA
ATOM     87  O   UNL A   1      35.988  30.414  31.696  1.00  0.00    -0.237 OA
ATOM     88  O   UNL A   1      36.530  32.521  30.539  1.00  0.00    -0.744 OA
ENDBRANCH  84  85
ENDBRANCH  52  77
BRANCH  64  89
ATOM     89  C   UNL A   1      46.496  32.686  28.285  1.00  0.00     0.058 A 
ATOM     90  C   UNL A   1      47.179  33.138  29.424  1.00  0.00     0.135 A 
ATOM     91  C   UNL A   1      46.307  33.595  27.231  1.00  0.00     0.135 A 
ATOM     92  F   UNL A   1      47.377  32.315  30.465  1.00  0.00    -0.206 F 
ATOM     93  C   UNL A   1      47.658  34.442  29.515  1.00  0.00     0.059 A 
ATOM     94  C   UNL A   1      46.799  34.895  27.290  1.00  0.00     0.059 A 
ATOM     95  F   UNL A   1      45.662  33.213  26.117  1.00  0.00    -0.206 F 
ATOM     96  C   UNL A   1      47.473  35.310  28.437  1.00  0.00     0.060 A 
BRANCH  96  97
ATOM     97  S   UNL A   1      48.164  36.975  28.545  1.00  0.00     0.124 S 
ATOM     98  O   UNL A   1      48.545  37.048  29.951  1.00  0.00    -0.237 OA
ATOM     99  O   UNL A   1      49.268  36.914  27.592  1.00  0.00    -0.237 OA
ATOM    100  O   UNL A   1      47.051  37.833  28.152  1.00  0.00    -0.744 OA
ENDBRANCH  96  97
ENDBRANCH  64  89
ENDBRANCH  38  39
ENDBRANCH  31  33
ENDBRANCH  30  31
ENDBRANCH  29  30
ENDBRANCH  28  29
ENDBRANCH  27  28
ENDBRANCH  26  27
ENDBRANCH   1  26
TORSDOF 24
ENDMDL
