MODEL 1
REMARK VINA RESULT:      -8.6      0.000      0.000
REMARK SMILES CC(C)(C)c1ccc(NS(=O)(=O)c2cccc(C(=O)OCCOCCOCCOC(=O)c3ccc(-c4c5nc(c(-c6c(F)cc(S(=O)(=O)[O-])cc6F)c6ccc([nH]6)c(-c6c(F)cc(S(=O)(=O)[O-])cc6F)c6nc(c(-c7c(F)cc(S(=O)(=O)[O-])cc7F)c7ccc4[nH]7)C=C6)C=C5)cc3)c2)cc1
REMARK SMILES IDX 24 1 23 2 22 3 21 4 20 5 18 6 19 7 17 8 13 9 14 10 98 11
REMARK SMILES IDX 15 12 16 13 10 14 11 15 12 16 9 17 8 19 5 20 6 21 100 22
REMARK SMILES IDX 7 23 99 24 2 25 1 26 3 27 4 28 25 29 26 30 27 31 28 32 29 33
REMARK SMILES IDX 30 34 31 35 32 36 33 37 97 38 34 39 96 40 35 41 36 42 37 43
REMARK SMILES IDX 90 44 38 45 95 46 89 47 91 48 39 49 94 50 88 51 87 52 40 54
REMARK SMILES IDX 74 55 53 56 73 57 54 58 57 59 72 60 92 61 55 62 56 63 71 65
REMARK SMILES IDX 93 66 58 67 41 68 42 69 51 70 43 71 44 72 50 73 52 74 45 75
REMARK SMILES IDX 46 76 47 77 48 78 49 79 75 80 76 81 85 82 77 83 78 84 84 85
REMARK SMILES IDX 86 86 79 87 80 88 81 89 82 90 83 91 59 92 60 93 69 94 61 95
REMARK SMILES IDX 62 96 68 97 70 98 63 99 64 100 65 101 66 102 67 103
REMARK H PARENT 9 18 91 53 57 64
REMARK Flexibility Score: inf
ROOT
ATOM      1  C   UNL A   1      40.792  19.799  26.425  1.00  0.00     0.188 C 
ENDROOT
BRANCH   1   2
ATOM      2  O   UNL A   1      41.655  19.048  25.605  1.00  0.00    -0.376 OA
BRANCH   2   3
ATOM      3  C   UNL A   1      43.053  19.050  25.841  1.00  0.00     0.202 C 
BRANCH   3   4
ATOM      4  C   UNL A   1      44.123  19.738  24.965  1.00  0.00     0.261 C 
BRANCH   4   5
ATOM      5  O   UNL A   1      44.662  20.990  25.405  1.00  0.00    -0.460 OA
BRANCH   5   6
ATOM      6  C   UNL A   1      43.998  22.087  24.963  1.00  0.00     0.338 C 
ATOM      7  O   UNL A   1      42.794  22.174  24.784  1.00  0.00    -0.246 OA
BRANCH   6   8
ATOM      8  C   UNL A   1      44.894  23.267  24.866  1.00  0.00     0.061 A 
ATOM      9  C   UNL A   1      45.422  25.624  25.057  1.00  0.00     0.088 A 
ATOM     10  C   UNL A   1      46.784  25.322  24.933  1.00  0.00     0.022 A 
ATOM     11  C   UNL A   1      44.466  24.592  25.047  1.00  0.00     0.038 A 
ATOM     12  C   UNL A   1      47.189  24.023  24.644  1.00  0.00     0.002 A 
ATOM     13  C   UNL A   1      46.247  22.998  24.612  1.00  0.00     0.016 A 
BRANCH   9  14
ATOM     14  S   UNL A   1      44.936  27.306  25.383  1.00  0.00     0.261 S 
ATOM     15  O   UNL A   1      45.774  28.150  24.556  1.00  0.00    -0.201 OA
ATOM     16  O   UNL A   1      44.933  27.490  26.821  1.00  0.00    -0.201 OA
BRANCH  14  17
ATOM     17  N   UNL A   1      43.328  27.597  24.883  1.00  0.00    -0.280 N 
ATOM     18  H   UNL A   1      43.100  27.520  23.929  1.00  0.00     0.180 HD
BRANCH  17  19
ATOM     19  C   UNL A   1      42.299  27.950  25.820  1.00  0.00     0.049 A 
ATOM     20  C   UNL A   1      40.237  28.611  27.664  1.00  0.00    -0.042 A 
ATOM     21  C   UNL A   1      40.387  27.309  27.161  1.00  0.00     0.006 A 
ATOM     22  C   UNL A   1      41.189  29.566  27.256  1.00  0.00     0.006 A 
ATOM     23  C   UNL A   1      41.426  26.975  26.285  1.00  0.00     0.027 A 
ATOM     24  C   UNL A   1      42.204  29.243  26.338  1.00  0.00     0.027 A 
BRANCH  20  25
ATOM     25  C   UNL A   1      39.078  28.992  28.609  1.00  0.00    -0.013 C 
ATOM     26  C   UNL A   1      38.715  27.872  29.614  1.00  0.00     0.016 C 
ATOM     27  C   UNL A   1      37.815  29.286  27.772  1.00  0.00     0.016 C 
ATOM     28  C   UNL A   1      39.430  30.245  29.439  1.00  0.00     0.016 C 
ENDBRANCH  20  25
ENDBRANCH  17  19
ENDBRANCH  14  17
ENDBRANCH   9  14
ENDBRANCH   6   8
ENDBRANCH   5   6
ENDBRANCH   4   5
ENDBRANCH   3   4
ENDBRANCH   2   3
ENDBRANCH   1   2
BRANCH   1  29
ATOM     29  C   UNL A   1      41.462  20.490  27.629  1.00  0.00     0.188 C 
BRANCH  29  30
ATOM     30  O   UNL A   1      40.996  21.747  28.080  1.00  0.00    -0.376 OA
BRANCH  30  31
ATOM     31  C   UNL A   1      41.765  22.918  27.843  1.00  0.00     0.202 C 
BRANCH  31  32
ATOM     32  C   UNL A   1      42.938  23.370  28.735  1.00  0.00     0.261 C 
BRANCH  32  33
ATOM     33  O   UNL A   1      43.028  24.764  29.046  1.00  0.00    -0.460 OA
BRANCH  33  34
ATOM     34  C   UNL A   1      44.082  25.118  29.817  1.00  0.00     0.338 C 
ATOM     35  O   UNL A   1      45.156  24.535  29.919  1.00  0.00    -0.246 OA
BRANCH  34  36
ATOM     36  C   UNL A   1      43.827  26.441  30.409  1.00  0.00     0.060 A 
ATOM     37  C   UNL A   1      42.754  27.204  29.927  1.00  0.00     0.016 A 
ATOM     38  C   UNL A   1      44.675  26.947  31.394  1.00  0.00     0.016 A 
ATOM     39  C   UNL A   1      42.536  28.490  30.416  1.00  0.00     0.010 A 
ATOM     40  C   UNL A   1      44.472  28.245  31.863  1.00  0.00     0.010 A 
ATOM     41  C   UNL A   1      43.421  29.033  31.355  1.00  0.00    -0.014 A 
BRANCH  41  42
ATOM     42  C   UNL A   1      43.379  30.480  31.668  1.00  0.00     0.031 A 
ATOM     43  C   UNL A   1      44.291  31.399  30.903  1.00  0.00     0.074 A 
ATOM     44  C   UNL A   1      42.562  30.967  32.620  1.00  0.00     0.049 A 
ATOM     45  N   UNL A   1      44.522  32.673  31.078  1.00  0.00    -0.248 NA
ATOM     46  C   UNL A   1      45.049  30.794  29.795  1.00  0.00     0.031 C 
ATOM     47  C   UNL A   1      41.602  30.182  33.392  1.00  0.00     0.029 A 
ATOM     48  N   UNL A   1      42.431  32.241  33.110  1.00  0.00    -0.354 N 
ATOM     49  C   UNL A   1      45.466  33.019  30.118  1.00  0.00     0.074 A 
ATOM     50  C   UNL A   1      45.779  31.817  29.377  1.00  0.00     0.031 C 
ATOM     51  C   UNL A   1      40.996  30.990  34.281  1.00  0.00     0.029 A 
ATOM     52  C   UNL A   1      41.555  32.337  34.166  1.00  0.00     0.049 A 
ATOM     53  H   UNL A   1      42.917  33.014  32.741  1.00  0.00     0.167 HD
ATOM     54  C   UNL A   1      46.018  34.231  29.874  1.00  0.00     0.037 A 
ATOM     55  C   UNL A   1      41.268  33.382  34.967  1.00  0.00     0.037 A 
ATOM     56  C   UNL A   1      45.703  35.421  30.621  1.00  0.00     0.049 A 
ATOM     57  C   UNL A   1      41.952  34.706  34.726  1.00  0.00     0.074 A 
ATOM     58  C   UNL A   1      46.198  36.701  30.446  1.00  0.00     0.029 A 
ATOM     59  N   UNL A   1      44.823  35.475  31.691  1.00  0.00    -0.354 N 
ATOM     60  N   UNL A   1      42.830  35.028  33.805  1.00  0.00    -0.248 NA
ATOM     61  C   UNL A   1      41.604  35.810  35.633  1.00  0.00     0.031 C 
ATOM     62  C   UNL A   1      45.657  37.517  31.445  1.00  0.00     0.029 A 
ATOM     63  C   UNL A   1      44.775  36.762  32.201  1.00  0.00     0.049 A 
ATOM     64  H   UNL A   1      44.306  34.712  32.037  1.00  0.00     0.167 HD
ATOM     65  C   UNL A   1      43.112  36.378  34.000  1.00  0.00     0.074 A 
ATOM     66  C   UNL A   1      42.305  36.812  35.121  1.00  0.00     0.031 C 
ATOM     67  C   UNL A   1      43.955  37.185  33.310  1.00  0.00     0.037 A 
BRANCH  54  68
ATOM     68  C   UNL A   1      47.044  34.322  28.779  1.00  0.00     0.058 A 
ATOM     69  C   UNL A   1      46.680  34.514  27.436  1.00  0.00     0.135 A 
ATOM     70  C   UNL A   1      48.414  34.242  29.080  1.00  0.00     0.135 A 
ATOM     71  F   UNL A   1      45.386  34.577  27.088  1.00  0.00    -0.206 F 
ATOM     72  C   UNL A   1      47.637  34.597  26.429  1.00  0.00     0.059 A 
ATOM     73  C   UNL A   1      49.388  34.353  28.092  1.00  0.00     0.059 A 
ATOM     74  F   UNL A   1      48.817  34.054  30.346  1.00  0.00    -0.206 F 
ATOM     75  C   UNL A   1      48.988  34.517  26.767  1.00  0.00     0.060 A 
BRANCH  75  76
ATOM     76  S   UNL A   1      50.214  34.634  25.449  1.00  0.00     0.124 S 
ATOM     77  O   UNL A   1      51.268  35.408  26.098  1.00  0.00    -0.237 OA
ATOM     78  O   UNL A   1      50.526  33.233  25.189  1.00  0.00    -0.237 OA
ATOM     79  O   UNL A   1      49.500  35.323  24.379  1.00  0.00    -0.744 OA
ENDBRANCH  75  76
ENDBRANCH  54  68
BRANCH  55  80
ATOM     80  C   UNL A   1      40.301  33.221  36.086  1.00  0.00     0.058 A 
ATOM     81  C   UNL A   1      38.939  33.506  35.910  1.00  0.00     0.135 A 
ATOM     82  C   UNL A   1      40.717  32.786  37.354  1.00  0.00     0.135 A 
ATOM     83  F   UNL A   1      38.492  33.938  34.721  1.00  0.00    -0.206 F 
ATOM     84  C   UNL A   1      38.026  33.381  36.953  1.00  0.00     0.059 A 
ATOM     85  C   UNL A   1      39.819  32.624  38.404  1.00  0.00     0.059 A 
ATOM     86  F   UNL A   1      42.008  32.491  37.573  1.00  0.00    -0.206 F 
ATOM     87  C   UNL A   1      38.476  32.935  38.197  1.00  0.00     0.060 A 
BRANCH  87  88
ATOM     88  S   UNL A   1      37.273  32.729  39.528  1.00  0.00     0.124 S 
ATOM     89  O   UNL A   1      36.015  32.739  38.791  1.00  0.00    -0.237 OA
ATOM     90  O   UNL A   1      37.669  31.444  40.098  1.00  0.00    -0.237 OA
ATOM     91  O   UNL A   1      37.514  33.888  40.382  1.00  0.00    -0.744 OA
ENDBRANCH  87  88
ENDBRANCH  55  80
BRANCH  67  92
ATOM     92  C   UNL A   1      44.015  38.637  33.701  1.00  0.00     0.058 A 
ATOM     93  C   UNL A   1      44.705  39.074  34.844  1.00  0.00     0.135 A 
ATOM     94  C   UNL A   1      43.426  39.614  32.881  1.00  0.00     0.135 A 
ATOM     95  F   UNL A   1      45.283  38.184  35.665  1.00  0.00    -0.206 F 
ATOM     96  C   UNL A   1      44.790  40.424  35.170  1.00  0.00     0.059 A 
ATOM     97  C   UNL A   1      43.524  40.971  33.171  1.00  0.00     0.059 A 
ATOM     98  F   UNL A   1      42.763  39.255  31.770  1.00  0.00    -0.206 F 
ATOM     99  C   UNL A   1      44.200  41.367  34.324  1.00  0.00     0.060 A 
BRANCH  99 100
ATOM    100  S   UNL A   1      44.351  43.117  34.738  1.00  0.00     0.124 S 
ATOM    101  O   UNL A   1      45.159  43.614  33.630  1.00  0.00    -0.237 OA
ATOM    102  O   UNL A   1      42.959  43.554  34.755  1.00  0.00    -0.237 OA
ATOM    103  O   UNL A   1      45.012  43.103  36.040  1.00  0.00    -0.744 OA
ENDBRANCH  99 100
ENDBRANCH  67  92
ENDBRANCH  41  42
ENDBRANCH  34  36
ENDBRANCH  33  34
ENDBRANCH  32  33
ENDBRANCH  31  32
ENDBRANCH  30  31
ENDBRANCH  29  30
ENDBRANCH   1  29
TORSDOF 24
ENDMDL
MODEL 2
REMARK VINA RESULT:      -8.5      4.974      7.702
REMARK SMILES CC(C)(C)c1ccc(NS(=O)(=O)c2cccc(C(=O)OCCOCCOCCOC(=O)c3ccc(-c4c5nc(c(-c6c(F)cc(S(=O)(=O)[O-])cc6F)c6ccc([nH]6)c(-c6c(F)cc(S(=O)(=O)[O-])cc6F)c6nc(c(-c7c(F)cc(S(=O)(=O)[O-])cc7F)c7ccc4[nH]7)C=C6)C=C5)cc3)c2)cc1
REMARK SMILES IDX 24 1 23 2 22 3 21 4 20 5 18 6 19 7 17 8 13 9 14 10 98 11
REMARK SMILES IDX 15 12 16 13 10 14 11 15 12 16 9 17 8 19 5 20 6 21 100 22
REMARK SMILES IDX 7 23 99 24 2 25 1 26 3 27 4 28 25 29 26 30 27 31 28 32 29 33
REMARK SMILES IDX 30 34 31 35 32 36 33 37 97 38 34 39 96 40 35 41 36 42 37 43
REMARK SMILES IDX 90 44 38 45 95 46 89 47 91 48 39 49 94 50 88 51 87 52 40 54
REMARK SMILES IDX 74 55 53 56 73 57 54 58 57 59 72 60 92 61 55 62 56 63 71 65
REMARK SMILES IDX 93 66 58 67 41 68 42 69 51 70 43 71 44 72 50 73 52 74 45 75
REMARK SMILES IDX 46 76 47 77 48 78 49 79 75 80 76 81 85 82 77 83 78 84 84 85
REMARK SMILES IDX 86 86 79 87 80 88 81 89 82 90 83 91 59 92 60 93 69 94 61 95
REMARK SMILES IDX 62 96 68 97 70 98 63 99 64 100 65 101 66 102 67 103
REMARK H PARENT 9 18 91 53 57 64
REMARK Flexibility Score: inf
ROOT
ATOM      1  C   UNL A   1      40.574  20.172  26.445  1.00  0.00     0.188 C 
ENDROOT
BRANCH   1   2
ATOM      2  O   UNL A   1      41.377  19.240  25.760  1.00  0.00    -0.376 OA
BRANCH   2   3
ATOM      3  C   UNL A   1      42.759  19.129  26.056  1.00  0.00     0.202 C 
BRANCH   3   4
ATOM      4  C   UNL A   1      43.914  19.793  25.275  1.00  0.00     0.261 C 
BRANCH   4   5
ATOM      5  O   UNL A   1      44.397  21.065  25.723  1.00  0.00    -0.460 OA
BRANCH   5   6
ATOM      6  C   UNL A   1      43.843  22.138  25.107  1.00  0.00     0.338 C 
ATOM      7  O   UNL A   1      42.681  22.237  24.744  1.00  0.00    -0.246 OA
BRANCH   6   8
ATOM      8  C   UNL A   1      44.783  23.287  25.057  1.00  0.00     0.061 A 
ATOM      9  C   UNL A   1      45.364  25.634  25.201  1.00  0.00     0.088 A 
ATOM     10  C   UNL A   1      46.721  25.289  25.240  1.00  0.00     0.022 A 
ATOM     11  C   UNL A   1      44.381  24.630  25.133  1.00  0.00     0.038 A 
ATOM     12  C   UNL A   1      47.112  23.966  25.053  1.00  0.00     0.002 A 
ATOM     13  C   UNL A   1      46.145  22.968  24.963  1.00  0.00     0.016 A 
BRANCH   9  14
ATOM     14  S   UNL A   1      44.903  27.342  25.400  1.00  0.00     0.261 S 
ATOM     15  O   UNL A   1      45.741  28.109  24.501  1.00  0.00    -0.201 OA
ATOM     16  O   UNL A   1      44.918  27.639  26.819  1.00  0.00    -0.201 OA
BRANCH  14  17
ATOM     17  N   UNL A   1      43.292  27.614  24.895  1.00  0.00    -0.280 N 
ATOM     18  H   UNL A   1      43.083  27.610  23.934  1.00  0.00     0.180 HD
BRANCH  17  19
ATOM     19  C   UNL A   1      42.235  27.847  25.839  1.00  0.00     0.049 A 
ATOM     20  C   UNL A   1      40.141  28.355  27.695  1.00  0.00    -0.042 A 
ATOM     21  C   UNL A   1      40.441  29.251  26.657  1.00  0.00     0.006 A 
ATOM     22  C   UNL A   1      40.891  27.164  27.744  1.00  0.00     0.006 A 
ATOM     23  C   UNL A   1      41.444  28.982  25.720  1.00  0.00     0.027 A 
ATOM     24  C   UNL A   1      41.932  26.914  26.832  1.00  0.00     0.027 A 
BRANCH  20  25
ATOM     25  C   UNL A   1      39.055  28.659  28.748  1.00  0.00    -0.013 C 
ATOM     26  C   UNL A   1      37.638  28.796  28.142  1.00  0.00     0.016 C 
ATOM     27  C   UNL A   1      39.386  29.992  29.451  1.00  0.00     0.016 C 
ATOM     28  C   UNL A   1      38.984  27.540  29.809  1.00  0.00     0.016 C 
ENDBRANCH  20  25
ENDBRANCH  17  19
ENDBRANCH  14  17
ENDBRANCH   9  14
ENDBRANCH   6   8
ENDBRANCH   5   6
ENDBRANCH   4   5
ENDBRANCH   3   4
ENDBRANCH   2   3
ENDBRANCH   1   2
BRANCH   1  29
ATOM     29  C   UNL A   1      41.266  20.909  27.609  1.00  0.00     0.188 C 
BRANCH  29  30
ATOM     30  O   UNL A   1      40.802  22.179  28.026  1.00  0.00    -0.376 OA
BRANCH  30  31
ATOM     31  C   UNL A   1      41.647  23.316  27.920  1.00  0.00     0.202 C 
BRANCH  31  32
ATOM     32  C   UNL A   1      43.012  23.440  28.627  1.00  0.00     0.261 C 
BRANCH  32  33
ATOM     33  O   UNL A   1      43.651  24.720  28.601  1.00  0.00    -0.460 OA
BRANCH  33  34
ATOM     34  C   UNL A   1      44.861  24.775  29.203  1.00  0.00     0.338 C 
ATOM     35  O   UNL A   1      45.927  24.352  28.766  1.00  0.00    -0.246 OA
BRANCH  34  36
ATOM     36  C   UNL A   1      44.761  25.593  30.421  1.00  0.00     0.060 A 
ATOM     37  C   UNL A   1      44.288  24.998  31.600  1.00  0.00     0.016 A 
ATOM     38  C   UNL A   1      45.077  26.951  30.386  1.00  0.00     0.016 A 
ATOM     39  C   UNL A   1      44.111  25.767  32.748  1.00  0.00     0.010 A 
ATOM     40  C   UNL A   1      44.873  27.725  31.529  1.00  0.00     0.010 A 
ATOM     41  C   UNL A   1      44.361  27.144  32.705  1.00  0.00    -0.014 A 
BRANCH  41  42
ATOM     42  C   UNL A   1      43.909  28.017  33.812  1.00  0.00     0.031 A 
ATOM     43  C   UNL A   1      42.662  28.833  33.610  1.00  0.00     0.074 A 
ATOM     44  C   UNL A   1      44.597  28.098  34.965  1.00  0.00     0.049 A 
ATOM     45  N   UNL A   1      42.139  29.753  34.376  1.00  0.00    -0.248 NA
ATOM     46  C   UNL A   1      41.909  28.579  32.371  1.00  0.00     0.031 C 
ATOM     47  C   UNL A   1      45.790  27.322  35.294  1.00  0.00     0.029 A 
ATOM     48  N   UNL A   1      44.396  28.892  36.065  1.00  0.00    -0.354 N 
ATOM     49  C   UNL A   1      41.008  30.203  33.705  1.00  0.00     0.074 A 
ATOM     50  C   UNL A   1      40.932  29.469  32.461  1.00  0.00     0.031 C 
ATOM     51  C   UNL A   1      46.232  27.698  36.508  1.00  0.00     0.029 A 
ATOM     52  C   UNL A   1      45.377  28.768  37.020  1.00  0.00     0.049 A 
ATOM     53  H   UNL A   1      43.623  29.495  36.162  1.00  0.00     0.167 HD
ATOM     54  C   UNL A   1      40.112  31.141  34.093  1.00  0.00     0.037 A 
ATOM     55  C   UNL A   1      45.580  29.465  38.157  1.00  0.00     0.037 A 
ATOM     56  C   UNL A   1      40.198  31.869  35.331  1.00  0.00     0.049 A 
ATOM     57  C   UNL A   1      44.610  30.558  38.534  1.00  0.00     0.074 A 
ATOM     58  C   UNL A   1      39.336  32.831  35.825  1.00  0.00     0.029 A 
ATOM     59  N   UNL A   1      41.214  31.725  36.266  1.00  0.00    -0.354 N 
ATOM     60  N   UNL A   1      43.535  30.965  37.901  1.00  0.00    -0.248 NA
ATOM     61  C   UNL A   1      44.881  31.287  39.783  1.00  0.00     0.031 C 
ATOM     62  C   UNL A   1      39.858  33.308  37.031  1.00  0.00     0.029 A 
ATOM     63  C   UNL A   1      41.011  32.597  37.323  1.00  0.00     0.049 A 
ATOM     64  H   UNL A   1      41.967  31.097  36.189  1.00  0.00     0.167 HD
ATOM     65  C   UNL A   1      42.983  31.970  38.691  1.00  0.00     0.074 A 
ATOM     66  C   UNL A   1      43.840  32.105  39.851  1.00  0.00     0.031 C 
ATOM     67  C   UNL A   1      41.865  32.710  38.480  1.00  0.00     0.037 A 
BRANCH  54  68
ATOM     68  C   UNL A   1      38.981  31.455  33.153  1.00  0.00     0.058 A 
ATOM     69  C   UNL A   1      37.800  30.695  33.132  1.00  0.00     0.135 A 
ATOM     70  C   UNL A   1      39.068  32.551  32.279  1.00  0.00     0.135 A 
ATOM     71  F   UNL A   1      37.671  29.625  33.932  1.00  0.00    -0.206 F 
ATOM     72  C   UNL A   1      36.759  30.994  32.259  1.00  0.00     0.059 A 
ATOM     73  C   UNL A   1      38.027  32.886  31.419  1.00  0.00     0.059 A 
ATOM     74  F   UNL A   1      40.176  33.309  32.254  1.00  0.00    -0.206 F 
ATOM     75  C   UNL A   1      36.881  32.093  31.408  1.00  0.00     0.060 A 
BRANCH  75  76
ATOM     76  S   UNL A   1      35.518  32.469  30.288  1.00  0.00     0.124 S 
ATOM     77  O   UNL A   1      35.580  31.343  29.362  1.00  0.00    -0.237 OA
ATOM     78  O   UNL A   1      34.370  32.486  31.189  1.00  0.00    -0.237 OA
ATOM     79  O   UNL A   1      35.886  33.764  29.724  1.00  0.00    -0.744 OA
ENDBRANCH  75  76
ENDBRANCH  54  68
BRANCH  55  80
ATOM     80  C   UNL A   1      46.756  29.165  39.016  1.00  0.00     0.058 A 
ATOM     81  C   UNL A   1      46.698  28.166  39.999  1.00  0.00     0.135 A 
ATOM     82  C   UNL A   1      47.961  29.874  38.877  1.00  0.00     0.135 A 
ATOM     83  F   UNL A   1      45.566  27.469  40.181  1.00  0.00    -0.206 F 
ATOM     84  C   UNL A   1      47.784  27.890  40.825  1.00  0.00     0.059 A 
ATOM     85  C   UNL A   1      49.070  29.596  39.670  1.00  0.00     0.059 A 
ATOM     86  F   UNL A   1      48.072  30.834  37.946  1.00  0.00    -0.206 F 
ATOM     87  C   UNL A   1      48.968  28.609  40.649  1.00  0.00     0.060 A 
BRANCH  87  88
ATOM     88  S   UNL A   1      50.386  28.206  41.693  1.00  0.00     0.124 S 
ATOM     89  O   UNL A   1      49.753  28.040  42.996  1.00  0.00    -0.237 OA
ATOM     90  O   UNL A   1      50.887  26.987  41.066  1.00  0.00    -0.237 OA
ATOM     91  O   UNL A   1      51.249  29.375  41.554  1.00  0.00    -0.744 OA
ENDBRANCH  87  88
ENDBRANCH  55  80
BRANCH  67  92
ATOM     92  C   UNL A   1      41.463  33.694  39.545  1.00  0.00     0.058 A 
ATOM     93  C   UNL A   1      41.766  35.062  39.449  1.00  0.00     0.135 A 
ATOM     94  C   UNL A   1      40.704  33.270  40.649  1.00  0.00     0.135 A 
ATOM     95  F   UNL A   1      42.492  35.523  38.419  1.00  0.00    -0.206 F 
ATOM     96  C   UNL A   1      41.349  35.969  40.419  1.00  0.00     0.059 A 
ATOM     97  C   UNL A   1      40.250  34.163  41.614  1.00  0.00     0.059 A 
ATOM     98  F   UNL A   1      40.375  31.975  40.785  1.00  0.00    -0.206 F 
ATOM     99  C   UNL A   1      40.587  35.510  41.496  1.00  0.00     0.060 A 
BRANCH  99 100
ATOM    100  S   UNL A   1      40.020  36.703  42.727  1.00  0.00     0.124 S 
ATOM    101  O   UNL A   1      38.842  36.033  43.267  1.00  0.00    -0.237 OA
ATOM    102  O   UNL A   1      41.167  36.793  43.625  1.00  0.00    -0.237 OA
ATOM    103  O   UNL A   1      39.754  37.904  41.939  1.00  0.00    -0.744 OA
ENDBRANCH  99 100
ENDBRANCH  67  92
ENDBRANCH  41  42
ENDBRANCH  34  36
ENDBRANCH  33  34
ENDBRANCH  32  33
ENDBRANCH  31  32
ENDBRANCH  30  31
ENDBRANCH  29  30
ENDBRANCH   1  29
TORSDOF 24
ENDMDL
MODEL 3
REMARK VINA RESULT:      -8.3      0.657      7.965
REMARK SMILES CC(C)(C)c1ccc(NS(=O)(=O)c2cccc(C(=O)OCCOCCOCCOC(=O)c3ccc(-c4c5nc(c(-c6c(F)cc(S(=O)(=O)[O-])cc6F)c6ccc([nH]6)c(-c6c(F)cc(S(=O)(=O)[O-])cc6F)c6nc(c(-c7c(F)cc(S(=O)(=O)[O-])cc7F)c7ccc4[nH]7)C=C6)C=C5)cc3)c2)cc1
REMARK SMILES IDX 24 1 23 2 22 3 21 4 20 5 18 6 19 7 17 8 13 9 14 10 98 11
REMARK SMILES IDX 15 12 16 13 10 14 11 15 12 16 9 17 8 19 5 20 6 21 100 22
REMARK SMILES IDX 7 23 99 24 2 25 1 26 3 27 4 28 25 29 26 30 27 31 28 32 29 33
REMARK SMILES IDX 30 34 31 35 32 36 33 37 97 38 34 39 96 40 35 41 36 42 37 43
REMARK SMILES IDX 90 44 38 45 95 46 89 47 91 48 39 49 94 50 88 51 87 52 40 54
REMARK SMILES IDX 74 55 53 56 73 57 54 58 57 59 72 60 92 61 55 62 56 63 71 65
REMARK SMILES IDX 93 66 58 67 41 68 42 69 51 70 43 71 44 72 50 73 52 74 45 75
REMARK SMILES IDX 46 76 47 77 48 78 49 79 75 80 76 81 85 82 77 83 78 84 84 85
REMARK SMILES IDX 86 86 79 87 80 88 81 89 82 90 83 91 59 92 60 93 69 94 61 95
REMARK SMILES IDX 62 96 68 97 70 98 63 99 64 100 65 101 66 102 67 103
REMARK H PARENT 9 18 91 53 57 64
REMARK Flexibility Score: inf
ROOT
ATOM      1  C   UNL A   1      40.546  20.351  26.456  1.00  0.00     0.188 C 
ENDROOT
BRANCH   1   2
ATOM      2  O   UNL A   1      41.572  19.515  25.976  1.00  0.00    -0.376 OA
BRANCH   2   3
ATOM      3  C   UNL A   1      42.931  19.818  26.248  1.00  0.00     0.202 C 
BRANCH   3   4
ATOM      4  C   UNL A   1      44.062  19.940  25.204  1.00  0.00     0.261 C 
BRANCH   4   5
ATOM      5  O   UNL A   1      44.829  21.150  25.168  1.00  0.00    -0.460 OA
BRANCH   5   6
ATOM      6  C   UNL A   1      44.148  22.248  24.758  1.00  0.00     0.338 C 
ATOM      7  O   UNL A   1      42.947  22.313  24.553  1.00  0.00    -0.246 OA
BRANCH   6   8
ATOM      8  C   UNL A   1      45.016  23.453  24.735  1.00  0.00     0.061 A 
ATOM      9  C   UNL A   1      45.490  25.804  25.079  1.00  0.00     0.088 A 
ATOM     10  C   UNL A   1      46.858  25.544  24.928  1.00  0.00     0.022 A 
ATOM     11  C   UNL A   1      44.558  24.752  25.007  1.00  0.00     0.038 A 
ATOM     12  C   UNL A   1      47.291  24.276  24.550  1.00  0.00     0.002 A 
ATOM     13  C   UNL A   1      46.373  23.234  24.456  1.00  0.00     0.016 A 
BRANCH   9  14
ATOM     14  S   UNL A   1      44.968  27.448  25.520  1.00  0.00     0.261 S 
ATOM     15  O   UNL A   1      45.829  28.366  24.802  1.00  0.00    -0.201 OA
ATOM     16  O   UNL A   1      44.901  27.514  26.967  1.00  0.00    -0.201 OA
BRANCH  14  17
ATOM     17  N   UNL A   1      43.378  27.763  24.976  1.00  0.00    -0.280 N 
ATOM     18  H   UNL A   1      43.187  27.734  24.011  1.00  0.00     0.180 HD
BRANCH  17  19
ATOM     19  C   UNL A   1      42.314  28.068  25.890  1.00  0.00     0.049 A 
ATOM     20  C   UNL A   1      40.233  28.709  27.720  1.00  0.00    -0.042 A 
ATOM     21  C   UNL A   1      41.257  29.621  27.417  1.00  0.00     0.006 A 
ATOM     22  C   UNL A   1      40.253  27.479  27.034  1.00  0.00     0.006 A 
ATOM     23  C   UNL A   1      42.258  29.321  26.487  1.00  0.00     0.027 A 
ATOM     24  C   UNL A   1      41.286  27.157  26.135  1.00  0.00     0.027 A 
BRANCH  20  25
ATOM     25  C   UNL A   1      39.142  29.024  28.764  1.00  0.00    -0.013 C 
ATOM     26  C   UNL A   1      38.944  27.893  29.802  1.00  0.00     0.016 C 
ATOM     27  C   UNL A   1      37.792  29.228  28.044  1.00  0.00     0.016 C 
ATOM     28  C   UNL A   1      39.485  30.305  29.554  1.00  0.00     0.016 C 
ENDBRANCH  20  25
ENDBRANCH  17  19
ENDBRANCH  14  17
ENDBRANCH   9  14
ENDBRANCH   6   8
ENDBRANCH   5   6
ENDBRANCH   4   5
ENDBRANCH   3   4
ENDBRANCH   2   3
ENDBRANCH   1   2
BRANCH   1  29
ATOM     29  C   UNL A   1      40.955  21.316  27.586  1.00  0.00     0.188 C 
BRANCH  29  30
ATOM     30  O   UNL A   1      40.608  22.686  27.514  1.00  0.00    -0.376 OA
BRANCH  30  31
ATOM     31  C   UNL A   1      41.619  23.667  27.330  1.00  0.00     0.202 C 
BRANCH  31  32
ATOM     32  C   UNL A   1      42.805  23.869  28.295  1.00  0.00     0.261 C 
BRANCH  32  33
ATOM     33  O   UNL A   1      43.016  25.188  28.808  1.00  0.00    -0.460 OA
BRANCH  33  34
ATOM     34  C   UNL A   1      43.883  25.274  29.844  1.00  0.00     0.338 C 
ATOM     35  O   UNL A   1      44.701  24.431  30.199  1.00  0.00    -0.246 OA
BRANCH  34  36
ATOM     36  C   UNL A   1      43.834  26.632  30.407  1.00  0.00     0.060 A 
ATOM     37  C   UNL A   1      42.914  27.551  29.880  1.00  0.00     0.016 A 
ATOM     38  C   UNL A   1      44.727  27.012  31.408  1.00  0.00     0.016 A 
ATOM     39  C   UNL A   1      42.899  28.866  30.341  1.00  0.00     0.010 A 
ATOM     40  C   UNL A   1      44.729  28.336  31.849  1.00  0.00     0.010 A 
ATOM     41  C   UNL A   1      43.836  29.275  31.298  1.00  0.00    -0.014 A 
BRANCH  41  42
ATOM     42  C   UNL A   1      44.025  30.716  31.585  1.00  0.00     0.031 A 
ATOM     43  C   UNL A   1      43.189  31.340  32.668  1.00  0.00     0.074 A 
ATOM     44  C   UNL A   1      44.906  31.458  30.891  1.00  0.00     0.049 A 
ATOM     45  N   UNL A   1      43.086  32.595  33.018  1.00  0.00    -0.248 NA
ATOM     46  C   UNL A   1      42.351  30.422  33.458  1.00  0.00     0.031 C 
ATOM     47  C   UNL A   1      45.803  30.954  29.853  1.00  0.00     0.029 A 
ATOM     48  N   UNL A   1      45.172  32.802  30.945  1.00  0.00    -0.354 N 
ATOM     49  C   UNL A   1      42.159  32.622  34.053  1.00  0.00     0.074 A 
ATOM     50  C   UNL A   1      41.714  31.261  34.261  1.00  0.00     0.031 C 
ATOM     51  C   UNL A   1      46.505  31.985  29.348  1.00  0.00     0.029 A 
ATOM     52  C   UNL A   1      46.076  33.223  29.999  1.00  0.00     0.049 A 
ATOM     53  H   UNL A   1      44.754  33.409  31.599  1.00  0.00     0.167 HD
ATOM     54  C   UNL A   1      41.721  33.685  34.768  1.00  0.00     0.037 A 
ATOM     55  C   UNL A   1      46.481  34.467  29.673  1.00  0.00     0.037 A 
ATOM     56  C   UNL A   1      42.167  35.036  34.550  1.00  0.00     0.049 A 
ATOM     57  C   UNL A   1      45.923  35.647  30.433  1.00  0.00     0.074 A 
ATOM     58  C   UNL A   1      41.795  36.184  35.228  1.00  0.00     0.029 A 
ATOM     59  N   UNL A   1      43.073  35.424  33.574  1.00  0.00    -0.354 N 
ATOM     60  N   UNL A   1      45.060  35.661  31.421  1.00  0.00    -0.248 NA
ATOM     61  C   UNL A   1      46.398  36.980  30.033  1.00  0.00     0.031 C 
ATOM     62  C   UNL A   1      42.435  37.272  34.626  1.00  0.00     0.029 A 
ATOM     63  C   UNL A   1      43.256  36.797  33.616  1.00  0.00     0.049 A 
ATOM     64  H   UNL A   1      43.521  34.815  32.945  1.00  0.00     0.167 HD
ATOM     65  C   UNL A   1      44.915  36.997  31.784  1.00  0.00     0.074 A 
ATOM     66  C   UNL A   1      45.785  37.760  30.913  1.00  0.00     0.031 C 
ATOM     67  C   UNL A   1      44.138  37.543  32.753  1.00  0.00     0.037 A 
BRANCH  54  68
ATOM     68  C   UNL A   1      40.685  33.434  35.827  1.00  0.00     0.058 A 
ATOM     69  C   UNL A   1      41.035  33.191  37.166  1.00  0.00     0.135 A 
ATOM     70  C   UNL A   1      39.318  33.462  35.505  1.00  0.00     0.135 A 
ATOM     71  F   UNL A   1      42.327  33.133  37.527  1.00  0.00    -0.206 F 
ATOM     72  C   UNL A   1      40.069  32.960  38.140  1.00  0.00     0.059 A 
ATOM     73  C   UNL A   1      38.334  33.263  36.469  1.00  0.00     0.059 A 
ATOM     74  F   UNL A   1      38.927  33.684  34.240  1.00  0.00    -0.206 F 
ATOM     75  C   UNL A   1      38.721  32.999  37.781  1.00  0.00     0.060 A 
BRANCH  75  76
ATOM     76  S   UNL A   1      37.481  32.704  39.059  1.00  0.00     0.124 S 
ATOM     77  O   UNL A   1      37.793  33.758  40.018  1.00  0.00    -0.237 OA
ATOM     78  O   UNL A   1      36.232  32.866  38.323  1.00  0.00    -0.237 OA
ATOM     79  O   UNL A   1      37.769  31.345  39.506  1.00  0.00    -0.744 OA
ENDBRANCH  75  76
ENDBRANCH  54  68
BRANCH  55  80
ATOM     80  C   UNL A   1      47.454  34.670  28.566  1.00  0.00     0.058 A 
ATOM     81  C   UNL A   1      48.821  34.838  28.827  1.00  0.00     0.135 A 
ATOM     82  C   UNL A   1      47.036  34.705  27.226  1.00  0.00     0.135 A 
ATOM     83  F   UNL A   1      49.269  34.826  30.092  1.00  0.00    -0.206 F 
ATOM     84  C   UNL A   1      49.739  35.050  27.802  1.00  0.00     0.059 A 
ATOM     85  C   UNL A   1      47.939  34.886  26.182  1.00  0.00     0.059 A 
ATOM     86  F   UNL A   1      45.739  34.541  26.921  1.00  0.00    -0.206 F 
ATOM     87  C   UNL A   1      49.288  35.068  26.482  1.00  0.00     0.060 A 
BRANCH  87  88
ATOM     88  S   UNL A   1      50.496  35.294  25.159  1.00  0.00     0.124 S 
ATOM     89  O   UNL A   1      49.791  36.210  24.271  1.00  0.00    -0.237 OA
ATOM     90  O   UNL A   1      51.636  35.852  25.881  1.00  0.00    -0.237 OA
ATOM     91  O   UNL A   1      50.690  33.940  24.646  1.00  0.00    -0.744 OA
ENDBRANCH  87  88
ENDBRANCH  55  80
BRANCH  67  92
ATOM     92  C   UNL A   1      44.229  39.029  32.971  1.00  0.00     0.058 A 
ATOM     93  C   UNL A   1      44.979  39.584  34.020  1.00  0.00     0.135 A 
ATOM     94  C   UNL A   1      43.606  39.914  32.075  1.00  0.00     0.135 A 
ATOM     95  F   UNL A   1      45.592  38.787  34.909  1.00  0.00    -0.206 F 
ATOM     96  C   UNL A   1      45.091  40.962  34.184  1.00  0.00     0.059 A 
ATOM     97  C   UNL A   1      43.730  41.294  32.201  1.00  0.00     0.059 A 
ATOM     98  F   UNL A   1      42.885  39.438  31.047  1.00  0.00    -0.206 F 
ATOM     99  C   UNL A   1      44.466  41.809  33.266  1.00  0.00     0.060 A 
BRANCH  99 100
ATOM    100  S   UNL A   1      44.651  43.593  33.468  1.00  0.00     0.124 S 
ATOM    101  O   UNL A   1      46.065  43.707  33.812  1.00  0.00    -0.237 OA
ATOM    102  O   UNL A   1      44.277  44.097  32.151  1.00  0.00    -0.237 OA
ATOM    103  O   UNL A   1      43.716  43.913  34.543  1.00  0.00    -0.744 OA
ENDBRANCH  99 100
ENDBRANCH  67  92
ENDBRANCH  41  42
ENDBRANCH  34  36
ENDBRANCH  33  34
ENDBRANCH  32  33
ENDBRANCH  31  32
ENDBRANCH  30  31
ENDBRANCH  29  30
ENDBRANCH   1  29
TORSDOF 24
ENDMDL
