MODEL 1
REMARK VINA RESULT:      -9.8      0.000      0.000
REMARK SMILES CC(C)CC(=O)N[C@@H](CC(=O)OCCOCCOCCOC(=O)c1ccc(-c2c3nc(c(-c4c(F)cc(S(=O)(=O)[O-])cc4F)c4ccc([nH]4)c(-c4c(F)cc(S(=O)(=O)[O-])cc4F)c4nc(c(-c5c(F)cc(S(=O)(=O)[O-])cc5F)c5ccc2[nH]5)C=C4)C=C3)cc1)c1ccccc1Cl
REMARK SMILES IDX 16 1 15 2 14 3 13 4 12 5 10 6 11 7 9 8 8 9 7 10 5 11 6 12
REMARK SMILES IDX 4 14 2 15 1 16 3 17 90 18 91 19 95 20 92 21 94 22 96 23
REMARK SMILES IDX 93 24 17 25 18 26 19 27 20 28 21 29 22 30 23 31 24 32 25 33
REMARK SMILES IDX 89 34 26 35 88 36 27 37 28 38 29 39 82 40 30 41 87 42 81 43
REMARK SMILES IDX 83 44 31 45 86 46 80 47 79 48 32 50 66 51 45 52 65 53 46 54
REMARK SMILES IDX 49 55 64 56 84 57 47 58 48 59 63 61 85 62 50 63 33 64 34 65
REMARK SMILES IDX 43 66 35 67 36 68 42 69 44 70 37 71 38 72 39 73 40 74 41 75
REMARK SMILES IDX 67 76 68 77 77 78 69 79 70 80 76 81 78 82 71 83 72 84 73 85
REMARK SMILES IDX 74 86 75 87 51 88 52 89 61 90 53 91 54 92 60 93 62 94 55 95
REMARK SMILES IDX 56 96 57 97 58 98 59 99
REMARK H PARENT 7 13 83 49 49 60
REMARK Flexibility Score: inf
ROOT
ATOM      1  C   UNL A   1      41.181  21.746  27.203  1.00  0.00     0.188 C 
ENDROOT
BRANCH   1   2
ATOM      2  O   UNL A   1      39.891  21.224  26.915  1.00  0.00    -0.376 OA
BRANCH   2   3
ATOM      3  C   UNL A   1      39.018  22.045  26.134  1.00  0.00     0.202 C 
BRANCH   3   4
ATOM      4  C   UNL A   1      37.903  21.321  25.357  1.00  0.00     0.261 C 
BRANCH   4   5
ATOM      5  O   UNL A   1      36.596  21.598  25.904  1.00  0.00    -0.463 OA
BRANCH   5   6
ATOM      6  C   UNL A   1      35.970  22.687  25.382  1.00  0.00     0.308 C 
ATOM      7  O   UNL A   1      36.222  23.850  25.667  1.00  0.00    -0.252 OA
BRANCH   6   8
ATOM      8  C   UNL A   1      35.010  22.290  24.291  1.00  0.00     0.152 C 
BRANCH   8   9
ATOM      9  C   UNL A   1      33.635  21.778  24.722  1.00  0.00     0.125 C 
BRANCH   9  10
ATOM     10  N   UNL A   1      33.273  22.073  26.093  1.00  0.00    -0.349 N 
ATOM     11  C   UNL A   1      32.186  22.751  26.557  1.00  0.00     0.220 C 
ATOM     12  O   UNL A   1      32.060  22.925  27.769  1.00  0.00    -0.275 OA
ATOM     13  H   UNL A   1      33.894  21.738  26.780  1.00  0.00     0.164 HD
BRANCH  11  14
ATOM     14  C   UNL A   1      31.154  23.269  25.574  1.00  0.00     0.103 C 
BRANCH  14  15
ATOM     15  C   UNL A   1      31.243  24.780  25.307  1.00  0.00    -0.008 C 
ATOM     16  C   UNL A   1      31.328  25.164  23.829  1.00  0.00     0.008 C 
ATOM     17  C   UNL A   1      30.018  25.463  25.923  1.00  0.00     0.008 C 
ENDBRANCH  14  15
ENDBRANCH  11  14
ENDBRANCH   9  10
BRANCH   9  18
ATOM     18  C   UNL A   1      33.294  20.377  24.225  1.00  0.00    -0.006 A 
ATOM     19  C   UNL A   1      33.900  19.305  24.930  1.00  0.00     0.007 A 
ATOM     20  C   UNL A   1      32.485  20.052  23.127  1.00  0.00     0.046 A 
ATOM     21  C   UNL A   1      33.726  17.976  24.545  1.00  0.00     0.000 A 
ATOM     22  C   UNL A   1      32.309  18.713  22.747  1.00  0.00     0.021 A 
ATOM     23  Cl  UNL A   1      31.639  21.230  22.184  1.00  0.00    -0.084 Cl
ATOM     24  C   UNL A   1      32.924  17.679  23.453  1.00  0.00     0.002 A 
ENDBRANCH   9  18
ENDBRANCH   8   9
ENDBRANCH   6   8
ENDBRANCH   5   6
ENDBRANCH   4   5
ENDBRANCH   3   4
ENDBRANCH   2   3
ENDBRANCH   1   2
BRANCH   1  25
ATOM     25  C   UNL A   1      42.207  21.750  26.059  1.00  0.00     0.188 C 
BRANCH  25  26
ATOM     26  O   UNL A   1      42.314  22.982  25.354  1.00  0.00    -0.376 OA
BRANCH  26  27
ATOM     27  C   UNL A   1      43.614  23.575  25.340  1.00  0.00     0.202 C 
BRANCH  27  28
ATOM     28  C   UNL A   1      43.811  24.712  26.356  1.00  0.00     0.261 C 
BRANCH  28  29
ATOM     29  O   UNL A   1      43.452  26.003  25.827  1.00  0.00    -0.460 OA
BRANCH  29  30
ATOM     30  C   UNL A   1      42.165  26.374  26.021  1.00  0.00     0.338 C 
ATOM     31  O   UNL A   1      41.229  26.187  25.267  1.00  0.00    -0.246 OA
BRANCH  30  32
ATOM     32  C   UNL A   1      42.037  26.858  27.409  1.00  0.00     0.060 A 
ATOM     33  C   UNL A   1      41.136  26.217  28.268  1.00  0.00     0.016 A 
ATOM     34  C   UNL A   1      42.786  27.942  27.855  1.00  0.00     0.016 A 
ATOM     35  C   UNL A   1      40.930  26.692  29.563  1.00  0.00     0.010 A 
ATOM     36  C   UNL A   1      42.581  28.420  29.148  1.00  0.00     0.010 A 
ATOM     37  C   UNL A   1      41.626  27.822  29.996  1.00  0.00    -0.014 A 
BRANCH  37  38
ATOM     38  C   UNL A   1      41.270  28.521  31.253  1.00  0.00     0.031 A 
ATOM     39  C   UNL A   1      40.135  29.505  31.206  1.00  0.00     0.074 A 
ATOM     40  C   UNL A   1      41.972  28.345  32.385  1.00  0.00     0.049 A 
ATOM     41  N   UNL A   1      39.832  30.464  32.038  1.00  0.00    -0.248 NA
ATOM     42  C   UNL A   1      39.232  29.397  30.048  1.00  0.00     0.031 C 
ATOM     43  C   UNL A   1      43.029  27.356  32.584  1.00  0.00     0.029 A 
ATOM     44  N   UNL A   1      41.924  29.032  33.572  1.00  0.00    -0.354 N 
ATOM     45  C   UNL A   1      38.736  31.110  31.478  1.00  0.00     0.074 A 
ATOM     46  C   UNL A   1      38.420  30.426  30.244  1.00  0.00     0.031 C 
ATOM     47  C   UNL A   1      43.560  27.527  33.808  1.00  0.00     0.029 A 
ATOM     48  C   UNL A   1      42.926  28.680  34.446  1.00  0.00     0.049 A 
ATOM     49  H   UNL A   1      41.240  29.710  33.779  1.00  0.00     0.167 HD
ATOM     50  C   UNL A   1      38.070  32.190  31.950  1.00  0.00     0.037 A 
ATOM     51  C   UNL A   1      43.327  29.264  35.594  1.00  0.00     0.037 A 
ATOM     52  C   UNL A   1      38.393  32.846  33.188  1.00  0.00     0.049 A 
ATOM     53  C   UNL A   1      42.618  30.507  36.072  1.00  0.00     0.074 A 
ATOM     54  C   UNL A   1      37.792  33.953  33.760  1.00  0.00     0.029 A 
ATOM     55  N   UNL A   1      39.406  32.449  34.049  1.00  0.00    -0.354 N 
ATOM     56  N   UNL A   1      41.617  31.149  35.517  1.00  0.00    -0.248 NA
ATOM     57  C   UNL A   1      43.100  31.114  37.322  1.00  0.00     0.031 C 
ATOM     58  C   UNL A   1      38.467  34.247  34.949  1.00  0.00     0.029 A 
ATOM     59  C   UNL A   1      39.454  33.293  35.144  1.00  0.00     0.049 A 
ATOM     60  H   UNL A   1      40.002  31.679  33.902  1.00  0.00     0.167 HD
ATOM     61  C   UNL A   1      41.327  32.214  36.367  1.00  0.00     0.074 A 
ATOM     62  C   UNL A   1      42.262  32.132  37.470  1.00  0.00     0.031 C 
ATOM     63  C   UNL A   1      40.372  33.168  36.248  1.00  0.00     0.037 A 
BRANCH  50  64
ATOM     64  C   UNL A   1      36.967  32.755  31.101  1.00  0.00     0.058 A 
ATOM     65  C   UNL A   1      37.216  33.670  30.067  1.00  0.00     0.135 A 
ATOM     66  C   UNL A   1      35.637  32.357  31.317  1.00  0.00     0.135 A 
ATOM     67  F   UNL A   1      38.466  34.102  29.834  1.00  0.00    -0.206 F 
ATOM     68  C   UNL A   1      36.184  34.190  29.293  1.00  0.00     0.059 A 
ATOM     69  C   UNL A   1      34.592  32.844  30.538  1.00  0.00     0.059 A 
ATOM     70  F   UNL A   1      35.342  31.490  32.298  1.00  0.00    -0.206 F 
ATOM     71  C   UNL A   1      34.874  33.773  29.537  1.00  0.00     0.060 A 
BRANCH  71  72
ATOM     72  S   UNL A   1      33.545  34.461  28.528  1.00  0.00     0.124 S 
ATOM     73  O   UNL A   1      32.614  34.923  29.553  1.00  0.00    -0.237 OA
ATOM     74  O   UNL A   1      34.232  35.507  27.778  1.00  0.00    -0.237 OA
ATOM     75  O   UNL A   1      33.093  33.319  27.739  1.00  0.00    -0.744 OA
ENDBRANCH  71  72
ENDBRANCH  50  64
BRANCH  51  76
ATOM     76  C   UNL A   1      44.485  28.711  36.345  1.00  0.00     0.058 A 
ATOM     77  C   UNL A   1      45.769  29.258  36.200  1.00  0.00     0.135 A 
ATOM     78  C   UNL A   1      44.334  27.631  37.230  1.00  0.00     0.135 A 
ATOM     79  F   UNL A   1      45.969  30.280  35.354  1.00  0.00    -0.206 F 
ATOM     80  C   UNL A   1      46.861  28.753  36.899  1.00  0.00     0.059 A 
ATOM     81  C   UNL A   1      45.404  27.125  37.960  1.00  0.00     0.059 A 
ATOM     82  F   UNL A   1      43.125  27.075  37.410  1.00  0.00    -0.206 F 
ATOM     83  C   UNL A   1      46.667  27.689  37.781  1.00  0.00     0.060 A 
BRANCH  83  84
ATOM     84  S   UNL A   1      48.079  27.082  38.731  1.00  0.00     0.124 S 
ATOM     85  O   UNL A   1      48.959  26.602  37.672  1.00  0.00    -0.237 OA
ATOM     86  O   UNL A   1      48.518  28.286  39.430  1.00  0.00    -0.237 OA
ATOM     87  O   UNL A   1      47.492  26.051  39.582  1.00  0.00    -0.744 OA
ENDBRANCH  83  84
ENDBRANCH  51  76
BRANCH  63  88
ATOM     88  C   UNL A   1      40.229  34.163  37.365  1.00  0.00     0.058 A 
ATOM     89  C   UNL A   1      40.996  35.336  37.417  1.00  0.00     0.135 A 
ATOM     90  C   UNL A   1      39.229  33.985  38.336  1.00  0.00     0.135 A 
ATOM     91  F   UNL A   1      41.968  35.548  36.516  1.00  0.00    -0.206 F 
ATOM     92  C   UNL A   1      40.776  36.301  38.395  1.00  0.00     0.059 A 
ATOM     93  C   UNL A   1      38.977  34.946  39.307  1.00  0.00     0.059 A 
ATOM     94  F   UNL A   1      38.462  32.883  38.321  1.00  0.00    -0.206 F 
ATOM     95  C   UNL A   1      39.758  36.101  39.331  1.00  0.00     0.060 A 
BRANCH  95  96
ATOM     96  S   UNL A   1      39.429  37.396  40.545  1.00  0.00     0.124 S 
ATOM     97  O   UNL A   1      39.217  36.614  41.758  1.00  0.00    -0.237 OA
ATOM     98  O   UNL A   1      40.658  38.184  40.503  1.00  0.00    -0.237 OA
ATOM     99  O   UNL A   1      38.246  38.067  40.015  1.00  0.00    -0.744 OA
ENDBRANCH  95  96
ENDBRANCH  63  88
ENDBRANCH  37  38
ENDBRANCH  30  32
ENDBRANCH  29  30
ENDBRANCH  28  29
ENDBRANCH  27  28
ENDBRANCH  26  27
ENDBRANCH  25  26
ENDBRANCH   1  25
TORSDOF 25
ENDMDL
MODEL 2
REMARK VINA RESULT:      -9.3      1.619      2.973
REMARK SMILES CC(C)CC(=O)N[C@@H](CC(=O)OCCOCCOCCOC(=O)c1ccc(-c2c3nc(c(-c4c(F)cc(S(=O)(=O)[O-])cc4F)c4ccc([nH]4)c(-c4c(F)cc(S(=O)(=O)[O-])cc4F)c4nc(c(-c5c(F)cc(S(=O)(=O)[O-])cc5F)c5ccc2[nH]5)C=C4)C=C3)cc1)c1ccccc1Cl
REMARK SMILES IDX 16 1 15 2 14 3 13 4 12 5 10 6 11 7 9 8 8 9 7 10 5 11 6 12
REMARK SMILES IDX 4 14 2 15 1 16 3 17 90 18 91 19 95 20 92 21 94 22 96 23
REMARK SMILES IDX 93 24 17 25 18 26 19 27 20 28 21 29 22 30 23 31 24 32 25 33
REMARK SMILES IDX 89 34 26 35 88 36 27 37 28 38 29 39 82 40 30 41 87 42 81 43
REMARK SMILES IDX 83 44 31 45 86 46 80 47 79 48 32 50 66 51 45 52 65 53 46 54
REMARK SMILES IDX 49 55 64 56 84 57 47 58 48 59 63 61 85 62 50 63 33 64 34 65
REMARK SMILES IDX 43 66 35 67 36 68 42 69 44 70 37 71 38 72 39 73 40 74 41 75
REMARK SMILES IDX 67 76 68 77 77 78 69 79 70 80 76 81 78 82 71 83 72 84 73 85
REMARK SMILES IDX 74 86 75 87 51 88 52 89 61 90 53 91 54 92 60 93 62 94 55 95
REMARK SMILES IDX 56 96 57 97 58 98 59 99
REMARK H PARENT 7 13 83 49 49 60
REMARK Flexibility Score: inf
ROOT
ATOM      1  C   UNL A   1      40.351  22.094  27.052  1.00  0.00     0.188 C 
ENDROOT
BRANCH   1   2
ATOM      2  O   UNL A   1      39.874  21.005  26.274  1.00  0.00    -0.376 OA
BRANCH   2   3
ATOM      3  C   UNL A   1      38.645  21.200  25.566  1.00  0.00     0.202 C 
BRANCH   3   4
ATOM      4  C   UNL A   1      37.941  22.554  25.768  1.00  0.00     0.261 C 
BRANCH   4   5
ATOM      5  O   UNL A   1      36.533  22.482  25.460  1.00  0.00    -0.463 OA
BRANCH   5   6
ATOM      6  C   UNL A   1      36.102  23.364  24.518  1.00  0.00     0.308 C 
ATOM      7  O   UNL A   1      36.223  23.221  23.309  1.00  0.00    -0.252 OA
BRANCH   6   8
ATOM      8  C   UNL A   1      35.325  24.492  25.146  1.00  0.00     0.152 C 
BRANCH   8   9
ATOM      9  C   UNL A   1      33.933  24.780  24.584  1.00  0.00     0.125 C 
BRANCH   9  10
ATOM     10  N   UNL A   1      33.357  23.711  23.796  1.00  0.00    -0.349 N 
ATOM     11  C   UNL A   1      32.126  23.137  23.913  1.00  0.00     0.220 C 
ATOM     12  O   UNL A   1      31.820  22.213  23.159  1.00  0.00    -0.275 OA
ATOM     13  H   UNL A   1      33.930  23.351  23.080  1.00  0.00     0.164 HD
BRANCH  11  14
ATOM     14  C   UNL A   1      31.159  23.652  24.962  1.00  0.00     0.103 C 
BRANCH  14  15
ATOM     15  C   UNL A   1      30.755  25.123  24.775  1.00  0.00    -0.008 C 
ATOM     16  C   UNL A   1      29.905  25.399  23.534  1.00  0.00     0.008 C 
ATOM     17  C   UNL A   1      29.981  25.583  26.014  1.00  0.00     0.008 C 
ENDBRANCH  14  15
ENDBRANCH  11  14
ENDBRANCH   9  10
BRANCH   9  18
ATOM     18  C   UNL A   1      33.747  26.191  24.037  1.00  0.00    -0.006 A 
ATOM     19  C   UNL A   1      33.746  26.313  22.623  1.00  0.00     0.007 A 
ATOM     20  C   UNL A   1      33.622  27.370  24.787  1.00  0.00     0.046 A 
ATOM     21  C   UNL A   1      33.648  27.551  21.988  1.00  0.00     0.000 A 
ATOM     22  C   UNL A   1      33.518  28.612  24.142  1.00  0.00     0.021 A 
ATOM     23  Cl  UNL A   1      33.563  27.400  26.514  1.00  0.00    -0.084 Cl
ATOM     24  C   UNL A   1      33.529  28.703  22.750  1.00  0.00     0.002 A 
ENDBRANCH   9  18
ENDBRANCH   8   9
ENDBRANCH   6   8
ENDBRANCH   5   6
ENDBRANCH   4   5
ENDBRANCH   3   4
ENDBRANCH   2   3
ENDBRANCH   1   2
BRANCH   1  25
ATOM     25  C   UNL A   1      41.362  23.041  26.386  1.00  0.00     0.188 C 
BRANCH  25  26
ATOM     26  O   UNL A   1      42.624  23.125  27.038  1.00  0.00    -0.376 OA
BRANCH  26  27
ATOM     27  C   UNL A   1      43.733  23.456  26.198  1.00  0.00     0.202 C 
BRANCH  27  28
ATOM     28  C   UNL A   1      43.464  24.595  25.200  1.00  0.00     0.261 C 
BRANCH  28  29
ATOM     29  O   UNL A   1      43.554  25.899  25.804  1.00  0.00    -0.460 OA
BRANCH  29  30
ATOM     30  C   UNL A   1      42.392  26.588  25.880  1.00  0.00     0.338 C 
ATOM     31  O   UNL A   1      41.545  26.689  25.014  1.00  0.00    -0.246 OA
BRANCH  30  32
ATOM     32  C   UNL A   1      42.214  27.023  27.279  1.00  0.00     0.060 A 
ATOM     33  C   UNL A   1      41.354  26.295  28.110  1.00  0.00     0.016 A 
ATOM     34  C   UNL A   1      42.876  28.148  27.761  1.00  0.00     0.016 A 
ATOM     35  C   UNL A   1      41.100  26.719  29.414  1.00  0.00     0.010 A 
ATOM     36  C   UNL A   1      42.623  28.575  29.064  1.00  0.00     0.010 A 
ATOM     37  C   UNL A   1      41.706  27.885  29.884  1.00  0.00    -0.014 A 
BRANCH  37  38
ATOM     38  C   UNL A   1      41.286  28.522  31.154  1.00  0.00     0.031 A 
ATOM     39  C   UNL A   1      40.116  29.464  31.109  1.00  0.00     0.074 A 
ATOM     40  C   UNL A   1      41.961  28.331  32.301  1.00  0.00     0.049 A 
ATOM     41  N   UNL A   1      39.752  30.379  31.965  1.00  0.00    -0.248 NA
ATOM     42  C   UNL A   1      39.252  29.367  29.920  1.00  0.00     0.031 C 
ATOM     43  C   UNL A   1      43.049  27.375  32.496  1.00  0.00     0.029 A 
ATOM     44  N   UNL A   1      41.851  28.970  33.510  1.00  0.00    -0.354 N 
ATOM     45  C   UNL A   1      38.648  31.004  31.396  1.00  0.00     0.074 A 
ATOM     46  C   UNL A   1      38.396  30.356  30.128  1.00  0.00     0.031 C 
ATOM     47  C   UNL A   1      43.535  27.519  33.741  1.00  0.00     0.029 A 
ATOM     48  C   UNL A   1      42.839  28.622  34.401  1.00  0.00     0.049 A 
ATOM     49  H   UNL A   1      41.135  29.613  33.721  1.00  0.00     0.167 HD
ATOM     50  C   UNL A   1      37.927  32.040  31.886  1.00  0.00     0.037 A 
ATOM     51  C   UNL A   1      43.183  29.178  35.581  1.00  0.00     0.037 A 
ATOM     52  C   UNL A   1      38.188  32.660  33.157  1.00  0.00     0.049 A 
ATOM     53  C   UNL A   1      42.413  30.374  36.083  1.00  0.00     0.074 A 
ATOM     54  C   UNL A   1      37.528  33.721  33.750  1.00  0.00     0.029 A 
ATOM     55  N   UNL A   1      39.189  32.269  34.034  1.00  0.00    -0.354 N 
ATOM     56  N   UNL A   1      41.405  30.999  35.521  1.00  0.00    -0.248 NA
ATOM     57  C   UNL A   1      42.834  30.950  37.368  1.00  0.00     0.031 C 
ATOM     58  C   UNL A   1      38.156  33.996  34.969  1.00  0.00     0.029 A 
ATOM     59  C   UNL A   1      39.173  33.072  35.160  1.00  0.00     0.049 A 
ATOM     60  H   UNL A   1      39.819  31.528  33.877  1.00  0.00     0.167 HD
ATOM     61  C   UNL A   1      41.049  32.018  36.400  1.00  0.00     0.074 A 
ATOM     62  C   UNL A   1      41.953  31.930  37.528  1.00  0.00     0.031 C 
ATOM     63  C   UNL A   1      40.062  32.940  36.286  1.00  0.00     0.037 A 
BRANCH  50  64
ATOM     64  C   UNL A   1      36.829  32.595  31.024  1.00  0.00     0.058 A 
ATOM     65  C   UNL A   1      35.488  32.220  31.193  1.00  0.00     0.135 A 
ATOM     66  C   UNL A   1      37.126  33.535  30.023  1.00  0.00     0.135 A 
ATOM     67  F   UNL A   1      35.152  31.308  32.119  1.00  0.00    -0.206 F 
ATOM     68  C   UNL A   1      34.482  32.738  30.383  1.00  0.00     0.059 A 
ATOM     69  C   UNL A   1      36.133  34.086  29.219  1.00  0.00     0.059 A 
ATOM     70  F   UNL A   1      38.394  33.922  29.815  1.00  0.00    -0.206 F 
ATOM     71  C   UNL A   1      34.815  33.669  29.397  1.00  0.00     0.060 A 
BRANCH  71  72
ATOM     72  S   UNL A   1      33.500  34.328  28.350  1.00  0.00     0.124 S 
ATOM     73  O   UNL A   1      34.222  35.337  27.581  1.00  0.00    -0.237 OA
ATOM     74  O   UNL A   1      33.073  33.148  27.605  1.00  0.00    -0.237 OA
ATOM     75  O   UNL A   1      32.530  34.846  29.310  1.00  0.00    -0.744 OA
ENDBRANCH  71  72
ENDBRANCH  50  64
BRANCH  51  76
ATOM     76  C   UNL A   1      44.339  28.640  36.347  1.00  0.00     0.058 A 
ATOM     77  C   UNL A   1      44.194  27.529  37.192  1.00  0.00     0.135 A 
ATOM     78  C   UNL A   1      45.615  29.217  36.245  1.00  0.00     0.135 A 
ATOM     79  F   UNL A   1      42.991  26.952  37.337  1.00  0.00    -0.206 F 
ATOM     80  C   UNL A   1      45.267  27.014  37.911  1.00  0.00     0.059 A 
ATOM     81  C   UNL A   1      46.710  28.704  36.933  1.00  0.00     0.059 A 
ATOM     82  F   UNL A   1      45.810  30.278  35.445  1.00  0.00    -0.206 F 
ATOM     83  C   UNL A   1      46.524  27.605  37.771  1.00  0.00     0.060 A 
BRANCH  83  84
ATOM     84  S   UNL A   1      47.923  26.889  38.660  1.00  0.00     0.124 S 
ATOM     85  O   UNL A   1      48.284  25.776  37.791  1.00  0.00    -0.237 OA
ATOM     86  O   UNL A   1      48.865  28.003  38.698  1.00  0.00    -0.237 OA
ATOM     87  O   UNL A   1      47.347  26.522  39.951  1.00  0.00    -0.744 OA
ENDBRANCH  83  84
ENDBRANCH  51  76
BRANCH  63  88
ATOM     88  C   UNL A   1      39.848  33.886  37.434  1.00  0.00     0.058 A 
ATOM     89  C   UNL A   1      39.033  33.556  38.526  1.00  0.00     0.135 A 
ATOM     90  C   UNL A   1      40.561  35.096  37.485  1.00  0.00     0.135 A 
ATOM     91  F   UNL A   1      38.326  32.416  38.521  1.00  0.00    -0.206 F 
ATOM     92  C   UNL A   1      38.931  34.395  39.633  1.00  0.00     0.059 A 
ATOM     93  C   UNL A   1      40.492  35.937  38.589  1.00  0.00     0.059 A 
ATOM     94  F   UNL A   1      41.362  35.451  36.467  1.00  0.00    -0.206 F 
ATOM     95  C   UNL A   1      39.672  35.578  39.658  1.00  0.00     0.060 A 
BRANCH  95  96
ATOM     96  S   UNL A   1      39.594  36.618  41.133  1.00  0.00     0.124 S 
ATOM     97  O   UNL A   1      40.909  36.391  41.722  1.00  0.00    -0.237 OA
ATOM     98  O   UNL A   1      39.371  37.946  40.568  1.00  0.00    -0.237 OA
ATOM     99  O   UNL A   1      38.467  36.066  41.878  1.00  0.00    -0.744 OA
ENDBRANCH  95  96
ENDBRANCH  63  88
ENDBRANCH  37  38
ENDBRANCH  30  32
ENDBRANCH  29  30
ENDBRANCH  28  29
ENDBRANCH  27  28
ENDBRANCH  26  27
ENDBRANCH  25  26
ENDBRANCH   1  25
TORSDOF 25
ENDMDL
MODEL 3
REMARK VINA RESULT:      -9.0      6.265     12.060
REMARK SMILES CC(C)CC(=O)N[C@@H](CC(=O)OCCOCCOCCOC(=O)c1ccc(-c2c3nc(c(-c4c(F)cc(S(=O)(=O)[O-])cc4F)c4ccc([nH]4)c(-c4c(F)cc(S(=O)(=O)[O-])cc4F)c4nc(c(-c5c(F)cc(S(=O)(=O)[O-])cc5F)c5ccc2[nH]5)C=C4)C=C3)cc1)c1ccccc1Cl
REMARK SMILES IDX 16 1 15 2 14 3 13 4 12 5 10 6 11 7 9 8 8 9 7 10 5 11 6 12
REMARK SMILES IDX 4 14 2 15 1 16 3 17 90 18 91 19 95 20 92 21 94 22 96 23
REMARK SMILES IDX 93 24 17 25 18 26 19 27 20 28 21 29 22 30 23 31 24 32 25 33
REMARK SMILES IDX 89 34 26 35 88 36 27 37 28 38 29 39 82 40 30 41 87 42 81 43
REMARK SMILES IDX 83 44 31 45 86 46 80 47 79 48 32 50 66 51 45 52 65 53 46 54
REMARK SMILES IDX 49 55 64 56 84 57 47 58 48 59 63 61 85 62 50 63 33 64 34 65
REMARK SMILES IDX 43 66 35 67 36 68 42 69 44 70 37 71 38 72 39 73 40 74 41 75
REMARK SMILES IDX 67 76 68 77 77 78 69 79 70 80 76 81 78 82 71 83 72 84 73 85
REMARK SMILES IDX 74 86 75 87 51 88 52 89 61 90 53 91 54 92 60 93 62 94 55 95
REMARK SMILES IDX 56 96 57 97 58 98 59 99
REMARK H PARENT 7 13 83 49 49 60
REMARK Flexibility Score: inf
ROOT
ATOM      1  C   UNL A   1      34.957  30.446  27.958  1.00  0.00     0.188 C 
ENDROOT
BRANCH   1   2
ATOM      2  O   UNL A   1      33.756  29.761  27.631  1.00  0.00    -0.376 OA
BRANCH   2   3
ATOM      3  C   UNL A   1      33.017  30.246  26.505  1.00  0.00     0.202 C 
BRANCH   3   4
ATOM      4  C   UNL A   1      32.726  29.232  25.383  1.00  0.00     0.261 C 
BRANCH   4   5
ATOM      5  O   UNL A   1      33.658  28.130  25.396  1.00  0.00    -0.463 OA
BRANCH   5   6
ATOM      6  C   UNL A   1      33.106  26.911  25.644  1.00  0.00     0.308 C 
ATOM      7  O   UNL A   1      32.458  26.619  26.640  1.00  0.00    -0.252 OA
BRANCH   6   8
ATOM      8  C   UNL A   1      33.274  25.989  24.465  1.00  0.00     0.152 C 
BRANCH   8   9
ATOM      9  C   UNL A   1      32.002  25.406  23.846  1.00  0.00     0.125 C 
BRANCH   9  10
ATOM     10  N   UNL A   1      32.221  24.406  22.823  1.00  0.00    -0.349 N 
ATOM     11  C   UNL A   1      32.750  23.156  22.955  1.00  0.00     0.220 C 
ATOM     12  O   UNL A   1      32.882  22.451  21.955  1.00  0.00    -0.275 OA
ATOM     13  H   UNL A   1      31.951  24.662  21.911  1.00  0.00     0.164 HD
BRANCH  11  14
ATOM     14  C   UNL A   1      33.158  22.660  24.329  1.00  0.00     0.103 C 
BRANCH  14  15
ATOM     15  C   UNL A   1      33.680  21.215  24.347  1.00  0.00    -0.008 C 
ATOM     16  C   UNL A   1      34.749  20.935  25.404  1.00  0.00     0.008 C 
ATOM     17  C   UNL A   1      32.500  20.267  24.576  1.00  0.00     0.008 C 
ENDBRANCH  14  15
ENDBRANCH  11  14
ENDBRANCH   9  10
BRANCH   9  18
ATOM     18  C   UNL A   1      30.907  26.428  23.562  1.00  0.00    -0.006 A 
ATOM     19  C   UNL A   1      29.625  26.125  24.088  1.00  0.00     0.007 A 
ATOM     20  C   UNL A   1      31.033  27.601  22.803  1.00  0.00     0.046 A 
ATOM     21  C   UNL A   1      28.517  26.940  23.852  1.00  0.00     0.000 A 
ATOM     22  C   UNL A   1      29.917  28.419  22.573  1.00  0.00     0.021 A 
ATOM     23  Cl  UNL A   1      32.528  28.142  22.124  1.00  0.00    -0.084 Cl
ATOM     24  C   UNL A   1      28.666  28.092  23.096  1.00  0.00     0.002 A 
ENDBRANCH   9  18
ENDBRANCH   8   9
ENDBRANCH   6   8
ENDBRANCH   5   6
ENDBRANCH   4   5
ENDBRANCH   3   4
ENDBRANCH   2   3
ENDBRANCH   1   2
BRANCH   1  25
ATOM     25  C   UNL A   1      34.864  31.967  28.159  1.00  0.00     0.188 C 
BRANCH  25  26
ATOM     26  O   UNL A   1      36.113  32.648  28.167  1.00  0.00    -0.376 OA
BRANCH  26  27
ATOM     27  C   UNL A   1      36.248  33.680  29.147  1.00  0.00     0.202 C 
BRANCH  27  28
ATOM     28  C   UNL A   1      36.221  33.189  30.604  1.00  0.00     0.261 C 
BRANCH  28  29
ATOM     29  O   UNL A   1      37.496  32.690  31.049  1.00  0.00    -0.460 OA
BRANCH  29  30
ATOM     30  C   UNL A   1      37.525  31.378  31.379  1.00  0.00     0.338 C 
ATOM     31  O   UNL A   1      36.663  30.754  31.967  1.00  0.00    -0.246 OA
BRANCH  30  32
ATOM     32  C   UNL A   1      38.692  30.769  30.713  1.00  0.00     0.060 A 
ATOM     33  C   UNL A   1      39.802  30.411  31.488  1.00  0.00     0.016 A 
ATOM     34  C   UNL A   1      38.699  30.567  29.337  1.00  0.00     0.016 A 
ATOM     35  C   UNL A   1      40.954  29.903  30.887  1.00  0.00     0.010 A 
ATOM     36  C   UNL A   1      39.850  30.061  28.733  1.00  0.00     0.010 A 
ATOM     37  C   UNL A   1      40.995  29.762  29.499  1.00  0.00    -0.014 A 
BRANCH  37  38
ATOM     38  C   UNL A   1      42.260  29.474  28.784  1.00  0.00     0.031 A 
ATOM     39  C   UNL A   1      42.476  28.074  28.283  1.00  0.00     0.074 A 
ATOM     40  C   UNL A   1      43.222  30.403  28.644  1.00  0.00     0.049 A 
ATOM     41  N   UNL A   1      43.582  27.479  27.930  1.00  0.00    -0.248 NA
ATOM     42  C   UNL A   1      41.274  27.229  28.185  1.00  0.00     0.031 C 
ATOM     43  C   UNL A   1      43.098  31.814  29.001  1.00  0.00     0.029 A 
ATOM     44  N   UNL A   1      44.514  30.279  28.199  1.00  0.00    -0.354 N 
ATOM     45  C   UNL A   1      43.221  26.173  27.620  1.00  0.00     0.074 A 
ATOM     46  C   UNL A   1      41.791  26.067  27.814  1.00  0.00     0.031 C 
ATOM     47  C   UNL A   1      44.282  32.419  28.800  1.00  0.00     0.029 A 
ATOM     48  C   UNL A   1      45.260  31.422  28.367  1.00  0.00     0.049 A 
ATOM     49  H   UNL A   1      44.873  29.453  27.798  1.00  0.00     0.167 HD
ATOM     50  C   UNL A   1      44.019  25.153  27.228  1.00  0.00     0.037 A 
ATOM     51  C   UNL A   1      46.589  31.620  28.251  1.00  0.00     0.037 A 
ATOM     52  C   UNL A   1      45.438  25.285  27.028  1.00  0.00     0.049 A 
ATOM     53  C   UNL A   1      47.476  30.458  27.879  1.00  0.00     0.074 A 
ATOM     54  C   UNL A   1      46.347  24.317  26.641  1.00  0.00     0.029 A 
ATOM     55  N   UNL A   1      46.151  26.463  27.197  1.00  0.00    -0.354 N 
ATOM     56  N   UNL A   1      47.142  29.212  27.639  1.00  0.00    -0.248 NA
ATOM     57  C   UNL A   1      48.919  30.722  27.777  1.00  0.00     0.031 C 
ATOM     58  C   UNL A   1      47.617  24.903  26.612  1.00  0.00     0.029 A 
ATOM     59  C   UNL A   1      47.491  26.247  26.930  1.00  0.00     0.049 A 
ATOM     60  H   UNL A   1      45.760  27.326  27.466  1.00  0.00     0.167 HD
ATOM     61  C   UNL A   1      48.327  28.553  27.323  1.00  0.00     0.074 A 
ATOM     62  C   UNL A   1      49.386  29.537  27.408  1.00  0.00     0.031 C 
ATOM     63  C   UNL A   1      48.521  27.253  26.988  1.00  0.00     0.037 A 
BRANCH  50  64
ATOM     64  C   UNL A   1      43.388  23.803  27.043  1.00  0.00     0.058 A 
ATOM     65  C   UNL A   1      43.128  22.947  28.124  1.00  0.00     0.135 A 
ATOM     66  C   UNL A   1      43.019  23.368  25.759  1.00  0.00     0.135 A 
ATOM     67  F   UNL A   1      43.483  23.303  29.369  1.00  0.00    -0.206 F 
ATOM     68  C   UNL A   1      42.549  21.696  27.936  1.00  0.00     0.059 A 
ATOM     69  C   UNL A   1      42.413  22.132  25.551  1.00  0.00     0.059 A 
ATOM     70  F   UNL A   1      43.251  24.145  24.690  1.00  0.00    -0.206 F 
ATOM     71  C   UNL A   1      42.196  21.296  26.645  1.00  0.00     0.060 A 
BRANCH  71  72
ATOM     72  S   UNL A   1      41.450  19.669  26.417  1.00  0.00     0.124 S 
ATOM     73  O   UNL A   1      41.702  19.051  27.714  1.00  0.00    -0.237 OA
ATOM     74  O   UNL A   1      40.057  20.001  26.134  1.00  0.00    -0.237 OA
ATOM     75  O   UNL A   1      42.198  19.106  25.297  1.00  0.00    -0.744 OA
ENDBRANCH  71  72
ENDBRANCH  50  64
BRANCH  51  76
ATOM     76  C   UNL A   1      47.169  32.960  28.537  1.00  0.00     0.058 A 
ATOM     77  C   UNL A   1      47.547  33.322  29.838  1.00  0.00     0.135 A 
ATOM     78  C   UNL A   1      47.365  33.903  27.515  1.00  0.00     0.135 A 
ATOM     79  F   UNL A   1      47.365  32.462  30.852  1.00  0.00    -0.206 F 
ATOM     80  C   UNL A   1      48.094  34.570  30.119  1.00  0.00     0.059 A 
ATOM     81  C   UNL A   1      47.935  35.148  27.765  1.00  0.00     0.059 A 
ATOM     82  F   UNL A   1      47.027  33.605  26.251  1.00  0.00    -0.206 F 
ATOM     83  C   UNL A   1      48.289  35.475  29.074  1.00  0.00     0.060 A 
BRANCH  83  84
ATOM     84  S   UNL A   1      49.057  37.069  29.440  1.00  0.00     0.124 S 
ATOM     85  O   UNL A   1      49.955  37.229  28.302  1.00  0.00    -0.237 OA
ATOM     86  O   UNL A   1      47.904  37.963  29.476  1.00  0.00    -0.237 OA
ATOM     87  O   UNL A   1      49.704  36.840  30.729  1.00  0.00    -0.744 OA
ENDBRANCH  83  84
ENDBRANCH  51  76
BRANCH  63  88
ATOM     88  C   UNL A   1      49.911  26.823  26.615  1.00  0.00     0.058 A 
ATOM     89  C   UNL A   1      50.763  26.189  27.531  1.00  0.00     0.135 A 
ATOM     90  C   UNL A   1      50.351  26.952  25.286  1.00  0.00     0.135 A 
ATOM     91  F   UNL A   1      50.392  26.048  28.813  1.00  0.00    -0.206 F 
ATOM     92  C   UNL A   1      52.005  25.697  27.142  1.00  0.00     0.059 A 
ATOM     93  C   UNL A   1      51.577  26.447  24.872  1.00  0.00     0.059 A 
ATOM     94  F   UNL A   1      49.566  27.543  24.370  1.00  0.00    -0.206 F 
ATOM     95  C   UNL A   1      52.399  25.823  25.808  1.00  0.00     0.060 A 
BRANCH  95  96
ATOM     96  S   UNL A   1      53.978  25.109  25.299  1.00  0.00     0.124 S 
ATOM     97  O   UNL A   1      54.137  25.671  23.963  1.00  0.00    -0.237 OA
ATOM     98  O   UNL A   1      54.894  25.618  26.316  1.00  0.00    -0.237 OA
ATOM     99  O   UNL A   1      53.733  23.671  25.351  1.00  0.00    -0.744 OA
ENDBRANCH  95  96
ENDBRANCH  63  88
ENDBRANCH  37  38
ENDBRANCH  30  32
ENDBRANCH  29  30
ENDBRANCH  28  29
ENDBRANCH  27  28
ENDBRANCH  26  27
ENDBRANCH  25  26
ENDBRANCH   1  25
TORSDOF 25
ENDMDL
