MODEL 1
REMARK VINA RESULT:     -10.7      0.000      0.000
REMARK SMILES CC(C)CCc1cc2c(cc1Cl)C=C(C(=O)OCCOCCOCCOC(=O)c1ccc(-c3c4nc(c(-c5c(F)cc(S(=O)(=O)[O-])cc5F)c5ccc([nH]5)c(-c5c(F)cc(S(=O)(=O)[O-])cc5F)c5nc(c(-c6c(F)cc(S(=O)(=O)[O-])cc6F)c6ccc3[nH]6)C=C5)C=C4)cc1)[C@@H](C(F)(F)F)O2
REMARK SMILES IDX 21 1 20 2 19 3 18 4 17 5 15 6 16 7 14 8 6 9 7 10 11 11 8 12
REMARK SMILES IDX 10 13 12 14 9 15 100 16 13 17 95 18 5 19 4 20 2 21 1 22 3 23
REMARK SMILES IDX 96 24 97 25 98 26 99 27 22 28 23 29 24 30 25 31 26 32 27 33
REMARK SMILES IDX 28 34 29 35 30 36 94 37 31 38 93 39 32 40 33 41 34 42 87 43
REMARK SMILES IDX 35 44 92 45 86 46 88 47 36 48 91 49 85 50 84 51 37 53 71 54
REMARK SMILES IDX 50 55 70 56 51 57 54 58 69 59 89 60 52 61 53 62 68 64 90 65
REMARK SMILES IDX 55 66 38 67 39 68 48 69 40 70 41 71 47 72 49 73 42 74 43 75
REMARK SMILES IDX 44 76 45 77 46 78 72 79 73 80 82 81 74 82 75 83 81 84 83 85
REMARK SMILES IDX 76 86 77 87 78 88 79 89 80 90 56 91 57 92 66 93 58 94 59 95
REMARK SMILES IDX 65 96 67 97 60 98 61 99 62 100 63 101 64 102
REMARK H PARENT 88 52 54 63
REMARK Flexibility Score: inf
ROOT
ATOM      1  C   UNL A   1      38.806  21.976  25.762  1.00  0.00     0.188 C 
ENDROOT
BRANCH   1   2
ATOM      2  O   UNL A   1      37.611  21.215  25.671  1.00  0.00    -0.376 OA
BRANCH   2   3
ATOM      3  C   UNL A   1      36.400  21.953  25.632  1.00  0.00     0.202 C 
BRANCH   3   4
ATOM      4  C   UNL A   1      35.131  21.101  25.751  1.00  0.00     0.261 C 
BRANCH   4   5
ATOM      5  O   UNL A   1      33.924  21.851  25.967  1.00  0.00    -0.460 OA
BRANCH   5   6
ATOM      6  C   UNL A   1      32.909  21.644  25.101  1.00  0.00     0.338 C 
ATOM      7  O   UNL A   1      32.431  20.566  24.791  1.00  0.00    -0.246 OA
BRANCH   6   8
ATOM      8  C   UNL A   1      32.382  22.960  24.675  1.00  0.00     0.087 C 
ATOM      9  C   UNL A   1      31.762  27.709  23.140  1.00  0.00    -0.026 A 
ATOM     10  C   UNL A   1      30.900  26.692  23.589  1.00  0.00     0.052 A 
ATOM     11  C   UNL A   1      33.080  27.345  22.817  1.00  0.00     0.045 A 
ATOM     12  C   UNL A   1      31.377  25.410  23.869  1.00  0.00     0.128 A 
ATOM     13  C   UNL A   1      33.554  26.051  23.073  1.00  0.00     0.032 A 
ATOM     14  Cl  UNL A   1      34.190  28.465  22.107  1.00  0.00    -0.084 Cl
ATOM     15  C   UNL A   1      32.715  25.095  23.651  1.00  0.00     0.019 A 
ATOM     16  O   UNL A   1      30.459  24.534  24.370  1.00  0.00    -0.475 OA
ATOM     17  C   UNL A   1      33.228  23.796  24.057  1.00  0.00     0.027 C 
ATOM     18  C   UNL A   1      30.924  23.268  24.911  1.00  0.00     0.316 C 
BRANCH   9  19
ATOM     19  C   UNL A   1      31.270  29.138  23.014  1.00  0.00     0.037 C 
BRANCH  19  20
ATOM     20  C   UNL A   1      30.147  29.393  21.987  1.00  0.00     0.008 C 
BRANCH  20  21
ATOM     21  C   UNL A   1      28.922  30.172  22.517  1.00  0.00    -0.017 C 
ATOM     22  C   UNL A   1      27.697  29.278  22.710  1.00  0.00     0.007 C 
ATOM     23  C   UNL A   1      29.276  30.866  23.833  1.00  0.00     0.007 C 
ENDBRANCH  20  21
ENDBRANCH  19  20
ENDBRANCH   9  19
BRANCH  18  24
ATOM     24  C   UNL A   1      30.546  23.205  26.398  1.00  0.00     0.430 C 
ATOM     25  F   UNL A   1      29.686  22.185  26.642  1.00  0.00    -0.167 F 
ATOM     26  F   UNL A   1      31.625  22.991  27.186  1.00  0.00    -0.167 F 
ATOM     27  F   UNL A   1      29.952  24.343  26.823  1.00  0.00    -0.167 F 
ENDBRANCH  18  24
ENDBRANCH   6   8
ENDBRANCH   5   6
ENDBRANCH   4   5
ENDBRANCH   3   4
ENDBRANCH   2   3
ENDBRANCH   1   2
BRANCH   1  28
ATOM     28  C   UNL A   1      39.964  21.206  26.430  1.00  0.00     0.188 C 
BRANCH  28  29
ATOM     29  O   UNL A   1      40.519  21.682  27.651  1.00  0.00    -0.376 OA
BRANCH  29  30
ATOM     30  C   UNL A   1      41.837  22.220  27.641  1.00  0.00     0.202 C 
BRANCH  30  31
ATOM     31  C   UNL A   1      42.219  23.178  26.506  1.00  0.00     0.261 C 
BRANCH  31  32
ATOM     32  O   UNL A   1      41.253  24.213  26.258  1.00  0.00    -0.460 OA
BRANCH  32  33
ATOM     33  C   UNL A   1      41.760  25.453  26.039  1.00  0.00     0.338 C 
ATOM     34  O   UNL A   1      42.111  25.929  24.973  1.00  0.00    -0.246 OA
BRANCH  33  35
ATOM     35  C   UNL A   1      41.635  26.247  27.280  1.00  0.00     0.060 A 
ATOM     36  C   UNL A   1      42.488  27.321  27.538  1.00  0.00     0.016 A 
ATOM     37  C   UNL A   1      40.637  25.895  28.202  1.00  0.00     0.016 A 
ATOM     38  C   UNL A   1      42.331  28.053  28.718  1.00  0.00     0.010 A 
ATOM     39  C   UNL A   1      40.495  26.617  29.390  1.00  0.00     0.010 A 
ATOM     40  C   UNL A   1      41.332  27.711  29.647  1.00  0.00    -0.014 A 
BRANCH  40  41
ATOM     41  C   UNL A   1      41.076  28.595  30.810  1.00  0.00     0.031 A 
ATOM     42  C   UNL A   1      41.913  28.531  32.051  1.00  0.00     0.074 A 
ATOM     43  C   UNL A   1      40.068  29.483  30.719  1.00  0.00     0.049 A 
ATOM     44  N   UNL A   1      41.890  29.318  33.097  1.00  0.00    -0.248 NA
ATOM     45  C   UNL A   1      42.900  27.445  32.135  1.00  0.00     0.031 C 
ATOM     46  C   UNL A   1      39.169  29.611  29.570  1.00  0.00     0.029 A 
ATOM     47  N   UNL A   1      39.639  30.450  31.591  1.00  0.00    -0.354 N 
ATOM     48  C   UNL A   1      42.878  28.848  33.951  1.00  0.00     0.074 A 
ATOM     49  C   UNL A   1      43.449  27.673  33.324  1.00  0.00     0.031 C 
ATOM     50  C   UNL A   1      38.310  30.618  29.798  1.00  0.00     0.029 A 
ATOM     51  C   UNL A   1      38.591  31.196  31.109  1.00  0.00     0.049 A 
ATOM     52  H   UNL A   1      40.042  30.594  32.477  1.00  0.00     0.167 HD
ATOM     53  C   UNL A   1      43.282  29.367  35.137  1.00  0.00     0.037 A 
ATOM     54  C   UNL A   1      37.938  32.240  31.653  1.00  0.00     0.037 A 
ATOM     55  C   UNL A   1      42.691  30.526  35.762  1.00  0.00     0.049 A 
ATOM     56  C   UNL A   1      38.378  32.769  32.989  1.00  0.00     0.074 A 
ATOM     57  C   UNL A   1      43.059  31.147  36.944  1.00  0.00     0.029 A 
ATOM     58  N   UNL A   1      41.602  31.229  35.268  1.00  0.00    -0.354 N 
ATOM     59  N   UNL A   1      39.367  32.363  33.748  1.00  0.00    -0.248 NA
ATOM     60  C   UNL A   1      37.622  33.903  33.537  1.00  0.00     0.031 C 
ATOM     61  C   UNL A   1      42.163  32.195  37.189  1.00  0.00     0.029 A 
ATOM     62  C   UNL A   1      41.266  32.259  36.136  1.00  0.00     0.049 A 
ATOM     63  H   UNL A   1      41.134  31.027  34.426  1.00  0.00     0.167 HD
ATOM     64  C   UNL A   1      39.362  33.202  34.857  1.00  0.00     0.074 A 
ATOM     65  C   UNL A   1      38.283  34.147  34.661  1.00  0.00     0.031 C 
ATOM     66  C   UNL A   1      40.181  33.188  35.939  1.00  0.00     0.037 A 
BRANCH  53  67
ATOM     67  C   UNL A   1      44.434  28.701  35.840  1.00  0.00     0.058 A 
ATOM     68  C   UNL A   1      45.755  29.132  35.640  1.00  0.00     0.135 A 
ATOM     69  C   UNL A   1      44.213  27.686  36.785  1.00  0.00     0.135 A 
ATOM     70  F   UNL A   1      46.024  30.093  34.741  1.00  0.00    -0.206 F 
ATOM     71  C   UNL A   1      46.818  28.571  36.341  1.00  0.00     0.059 A 
ATOM     72  C   UNL A   1      45.259  27.126  37.514  1.00  0.00     0.059 A 
ATOM     73  F   UNL A   1      42.969  27.238  37.018  1.00  0.00    -0.206 F 
ATOM     74  C   UNL A   1      46.559  27.570  37.279  1.00  0.00     0.060 A 
BRANCH  74  75
ATOM     75  S   UNL A   1      47.950  26.873  38.195  1.00  0.00     0.124 S 
ATOM     76  O   UNL A   1      48.722  26.250  37.124  1.00  0.00    -0.237 OA
ATOM     77  O   UNL A   1      48.550  28.059  38.800  1.00  0.00    -0.237 OA
ATOM     78  O   UNL A   1      47.316  25.949  39.129  1.00  0.00    -0.744 OA
ENDBRANCH  74  75
ENDBRANCH  53  67
BRANCH  54  79
ATOM     79  C   UNL A   1      36.826  32.876  30.904  1.00  0.00     0.058 A 
ATOM     80  C   UNL A   1      35.490  32.630  31.252  1.00  0.00     0.135 A 
ATOM     81  C   UNL A   1      37.076  33.777  29.857  1.00  0.00     0.135 A 
ATOM     82  F   UNL A   1      35.202  31.773  32.244  1.00  0.00    -0.206 F 
ATOM     83  C   UNL A   1      34.440  33.249  30.584  1.00  0.00     0.059 A 
ATOM     84  C   UNL A   1      36.044  34.426  29.190  1.00  0.00     0.059 A 
ATOM     85  F   UNL A   1      38.339  34.058  29.500  1.00  0.00    -0.206 F 
ATOM     86  C   UNL A   1      34.728  34.152  29.559  1.00  0.00     0.060 A 
BRANCH  86  87
ATOM     87  S   UNL A   1      33.356  34.998  28.744  1.00  0.00     0.124 S 
ATOM     88  O   UNL A   1      32.376  35.073  29.822  1.00  0.00    -0.237 OA
ATOM     89  O   UNL A   1      33.969  36.262  28.349  1.00  0.00    -0.237 OA
ATOM     90  O   UNL A   1      33.016  34.103  27.642  1.00  0.00    -0.744 OA
ENDBRANCH  86  87
ENDBRANCH  54  79
BRANCH  66  91
ATOM     91  C   UNL A   1      39.942  34.228  36.999  1.00  0.00     0.058 A 
ATOM     92  C   UNL A   1      39.242  33.925  38.178  1.00  0.00     0.135 A 
ATOM     93  C   UNL A   1      40.462  35.525  36.861  1.00  0.00     0.135 A 
ATOM     94  F   UNL A   1      38.716  32.702  38.357  1.00  0.00    -0.206 F 
ATOM     95  C   UNL A   1      39.051  34.876  39.175  1.00  0.00     0.059 A 
ATOM     96  C   UNL A   1      40.304  36.485  37.857  1.00  0.00     0.059 A 
ATOM     97  F   UNL A   1      41.146  35.865  35.758  1.00  0.00    -0.206 F 
ATOM     98  C   UNL A   1      39.589  36.153  39.007  1.00  0.00     0.060 A 
BRANCH  98  99
ATOM     99  S   UNL A   1      39.364  37.365  40.325  1.00  0.00     0.124 S 
ATOM    100  O   UNL A   1      40.744  37.693  40.665  1.00  0.00    -0.237 OA
ATOM    101  O   UNL A   1      38.609  38.420  39.654  1.00  0.00    -0.237 OA
ATOM    102  O   UNL A   1      38.625  36.628  41.345  1.00  0.00    -0.744 OA
ENDBRANCH  98  99
ENDBRANCH  66  91
ENDBRANCH  40  41
ENDBRANCH  33  35
ENDBRANCH  32  33
ENDBRANCH  31  32
ENDBRANCH  30  31
ENDBRANCH  29  30
ENDBRANCH  28  29
ENDBRANCH   1  28
TORSDOF 24
ENDMDL
MODEL 2
REMARK VINA RESULT:      -9.8      1.200      8.003
REMARK SMILES CC(C)CCc1cc2c(cc1Cl)C=C(C(=O)OCCOCCOCCOC(=O)c1ccc(-c3c4nc(c(-c5c(F)cc(S(=O)(=O)[O-])cc5F)c5ccc([nH]5)c(-c5c(F)cc(S(=O)(=O)[O-])cc5F)c5nc(c(-c6c(F)cc(S(=O)(=O)[O-])cc6F)c6ccc3[nH]6)C=C5)C=C4)cc1)[C@@H](C(F)(F)F)O2
REMARK SMILES IDX 21 1 20 2 19 3 18 4 17 5 15 6 16 7 14 8 6 9 7 10 11 11 8 12
REMARK SMILES IDX 10 13 12 14 9 15 100 16 13 17 95 18 5 19 4 20 2 21 1 22 3 23
REMARK SMILES IDX 96 24 97 25 98 26 99 27 22 28 23 29 24 30 25 31 26 32 27 33
REMARK SMILES IDX 28 34 29 35 30 36 94 37 31 38 93 39 32 40 33 41 34 42 87 43
REMARK SMILES IDX 35 44 92 45 86 46 88 47 36 48 91 49 85 50 84 51 37 53 71 54
REMARK SMILES IDX 50 55 70 56 51 57 54 58 69 59 89 60 52 61 53 62 68 64 90 65
REMARK SMILES IDX 55 66 38 67 39 68 48 69 40 70 41 71 47 72 49 73 42 74 43 75
REMARK SMILES IDX 44 76 45 77 46 78 72 79 73 80 82 81 74 82 75 83 81 84 83 85
REMARK SMILES IDX 76 86 77 87 78 88 79 89 80 90 56 91 57 92 66 93 58 94 59 95
REMARK SMILES IDX 65 96 67 97 60 98 61 99 62 100 63 101 64 102
REMARK H PARENT 88 52 54 63
REMARK Flexibility Score: inf
ROOT
ATOM      1  C   UNL A   1      39.302  21.389  25.553  1.00  0.00     0.188 C 
ENDROOT
BRANCH   1   2
ATOM      2  O   UNL A   1      37.920  21.219  25.827  1.00  0.00    -0.376 OA
BRANCH   2   3
ATOM      3  C   UNL A   1      37.104  22.369  25.669  1.00  0.00     0.202 C 
BRANCH   3   4
ATOM      4  C   UNL A   1      35.819  22.358  26.504  1.00  0.00     0.261 C 
BRANCH   4   5
ATOM      5  O   UNL A   1      34.698  23.013  25.888  1.00  0.00    -0.460 OA
BRANCH   5   6
ATOM      6  C   UNL A   1      34.675  23.052  24.539  1.00  0.00     0.338 C 
ATOM      7  O   UNL A   1      35.152  22.224  23.783  1.00  0.00    -0.246 OA
BRANCH   6   8
ATOM      8  C   UNL A   1      33.863  24.217  24.119  1.00  0.00     0.087 C 
ATOM      9  C   UNL A   1      31.437  28.609  23.766  1.00  0.00    -0.026 A 
ATOM     10  C   UNL A   1      31.485  27.438  22.988  1.00  0.00     0.052 A 
ATOM     11  C   UNL A   1      32.406  28.758  24.772  1.00  0.00     0.045 A 
ATOM     12  C   UNL A   1      32.348  26.389  23.311  1.00  0.00     0.128 A 
ATOM     13  C   UNL A   1      33.291  27.716  25.082  1.00  0.00     0.032 A 
ATOM     14  Cl  UNL A   1      32.554  30.215  25.691  1.00  0.00    -0.084 Cl
ATOM     15  C   UNL A   1      33.227  26.506  24.384  1.00  0.00     0.019 A 
ATOM     16  O   UNL A   1      32.248  25.277  22.527  1.00  0.00    -0.475 OA
ATOM     17  C   UNL A   1      34.035  25.366  24.787  1.00  0.00     0.027 C 
ATOM     18  C   UNL A   1      32.929  24.064  22.943  1.00  0.00     0.316 C 
BRANCH   9  19
ATOM     19  C   UNL A   1      30.373  29.659  23.514  1.00  0.00     0.037 C 
BRANCH  19  20
ATOM     20  C   UNL A   1      29.717  29.655  22.118  1.00  0.00     0.008 C 
BRANCH  20  21
ATOM     21  C   UNL A   1      28.364  30.396  22.013  1.00  0.00    -0.017 C 
ATOM     22  C   UNL A   1      27.432  30.083  23.183  1.00  0.00     0.007 C 
ATOM     23  C   UNL A   1      28.603  31.904  21.922  1.00  0.00     0.007 C 
ENDBRANCH  20  21
ENDBRANCH  19  20
ENDBRANCH   9  19
BRANCH  18  24
ATOM     24  C   UNL A   1      31.879  22.967  23.169  1.00  0.00     0.430 C 
ATOM     25  F   UNL A   1      31.859  22.565  24.464  1.00  0.00    -0.167 F 
ATOM     26  F   UNL A   1      30.628  23.398  22.883  1.00  0.00    -0.167 F 
ATOM     27  F   UNL A   1      32.113  21.871  22.411  1.00  0.00    -0.167 F 
ENDBRANCH  18  24
ENDBRANCH   6   8
ENDBRANCH   5   6
ENDBRANCH   4   5
ENDBRANCH   3   4
ENDBRANCH   2   3
ENDBRANCH   1   2
BRANCH   1  28
ATOM     28  C   UNL A   1      40.214  20.788  26.643  1.00  0.00     0.188 C 
BRANCH  28  29
ATOM     29  O   UNL A   1      40.545  21.559  27.793  1.00  0.00    -0.376 OA
BRANCH  29  30
ATOM     30  C   UNL A   1      41.837  22.150  27.872  1.00  0.00     0.202 C 
BRANCH  30  31
ATOM     31  C   UNL A   1      42.195  23.247  26.861  1.00  0.00     0.261 C 
BRANCH  31  32
ATOM     32  O   UNL A   1      41.094  24.097  26.501  1.00  0.00    -0.460 OA
BRANCH  32  33
ATOM     33  C   UNL A   1      41.419  25.367  26.148  1.00  0.00     0.338 C 
ATOM     34  O   UNL A   1      41.548  25.809  25.019  1.00  0.00    -0.246 OA
BRANCH  33  35
ATOM     35  C   UNL A   1      41.399  26.219  27.356  1.00  0.00     0.060 A 
ATOM     36  C   UNL A   1      42.402  27.160  27.592  1.00  0.00     0.016 A 
ATOM     37  C   UNL A   1      40.347  26.060  28.270  1.00  0.00     0.016 A 
ATOM     38  C   UNL A   1      42.342  27.954  28.740  1.00  0.00     0.010 A 
ATOM     39  C   UNL A   1      40.298  26.841  29.427  1.00  0.00     0.010 A 
ATOM     40  C   UNL A   1      41.289  27.805  29.661  1.00  0.00    -0.014 A 
BRANCH  40  41
ATOM     41  C   UNL A   1      41.154  28.763  30.785  1.00  0.00     0.031 A 
ATOM     42  C   UNL A   1      40.107  29.834  30.788  1.00  0.00     0.074 A 
ATOM     43  C   UNL A   1      41.996  28.635  31.828  1.00  0.00     0.049 A 
ATOM     44  N   UNL A   1      39.787  30.664  31.748  1.00  0.00    -0.248 NA
ATOM     45  C   UNL A   1      39.321  30.003  29.558  1.00  0.00     0.031 C 
ATOM     46  C   UNL A   1      43.073  27.647  31.917  1.00  0.00     0.029 A 
ATOM     47  N   UNL A   1      42.072  29.322  33.012  1.00  0.00    -0.354 N 
ATOM     48  C   UNL A   1      38.741  31.433  31.257  1.00  0.00     0.074 A 
ATOM     49  C   UNL A   1      38.514  31.005  29.891  1.00  0.00     0.031 C 
ATOM     50  C   UNL A   1      43.686  27.775  33.105  1.00  0.00     0.029 A 
ATOM     51  C   UNL A   1      43.054  28.859  33.852  1.00  0.00     0.049 A 
ATOM     52  H   UNL A   1      41.481  30.076  33.237  1.00  0.00     0.167 HD
ATOM     53  C   UNL A   1      38.025  32.390  31.898  1.00  0.00     0.037 A 
ATOM     54  C   UNL A   1      43.399  29.249  35.094  1.00  0.00     0.037 A 
ATOM     55  C   UNL A   1      38.275  32.822  33.252  1.00  0.00     0.049 A 
ATOM     56  C   UNL A   1      42.617  30.342  35.766  1.00  0.00     0.074 A 
ATOM     57  C   UNL A   1      37.578  33.757  33.999  1.00  0.00     0.029 A 
ATOM     58  N   UNL A   1      39.307  32.363  34.058  1.00  0.00    -0.354 N 
ATOM     59  N   UNL A   1      41.578  31.004  35.317  1.00  0.00    -0.248 NA
ATOM     60  C   UNL A   1      43.045  30.732  37.116  1.00  0.00     0.031 C 
ATOM     61  C   UNL A   1      38.217  33.898  35.236  1.00  0.00     0.029 A 
ATOM     62  C   UNL A   1      39.283  33.016  35.282  1.00  0.00     0.049 A 
ATOM     63  H   UNL A   1      39.961  31.674  33.800  1.00  0.00     0.167 HD
ATOM     64  C   UNL A   1      41.219  31.880  36.336  1.00  0.00     0.074 A 
ATOM     65  C   UNL A   1      42.141  31.650  37.429  1.00  0.00     0.031 C 
ATOM     66  C   UNL A   1      40.214  32.791  36.361  1.00  0.00     0.037 A 
BRANCH  53  67
ATOM     67  C   UNL A   1      36.884  33.031  31.156  1.00  0.00     0.058 A 
ATOM     68  C   UNL A   1      37.116  33.952  30.122  1.00  0.00     0.135 A 
ATOM     69  C   UNL A   1      35.555  32.662  31.417  1.00  0.00     0.135 A 
ATOM     70  F   UNL A   1      38.366  34.348  29.837  1.00  0.00    -0.206 F 
ATOM     71  C   UNL A   1      36.070  34.493  29.382  1.00  0.00     0.059 A 
ATOM     72  C   UNL A   1      34.494  33.174  30.674  1.00  0.00     0.059 A 
ATOM     73  F   UNL A   1      35.277  31.782  32.393  1.00  0.00    -0.206 F 
ATOM     74  C   UNL A   1      34.762  34.096  29.664  1.00  0.00     0.060 A 
BRANCH  74  75
ATOM     75  S   UNL A   1      33.421  34.793  28.676  1.00  0.00     0.124 S 
ATOM     76  O   UNL A   1      33.128  33.692  27.763  1.00  0.00    -0.237 OA
ATOM     77  O   UNL A   1      32.401  35.065  29.685  1.00  0.00    -0.237 OA
ATOM     78  O   UNL A   1      34.024  35.972  28.063  1.00  0.00    -0.744 OA
ENDBRANCH  74  75
ENDBRANCH  53  67
BRANCH  54  79
ATOM     79  C   UNL A   1      44.516  28.563  35.791  1.00  0.00     0.058 A 
ATOM     80  C   UNL A   1      45.831  29.037  35.682  1.00  0.00     0.135 A 
ATOM     81  C   UNL A   1      44.285  27.451  36.615  1.00  0.00     0.135 A 
ATOM     82  F   UNL A   1      46.100  30.096  34.903  1.00  0.00    -0.206 F 
ATOM     83  C   UNL A   1      46.881  28.429  36.361  1.00  0.00     0.059 A 
ATOM     84  C   UNL A   1      45.314  26.840  37.321  1.00  0.00     0.059 A 
ATOM     85  F   UNL A   1      43.040  26.972  36.764  1.00  0.00    -0.206 F 
ATOM     86  C   UNL A   1      46.610  27.334  37.184  1.00  0.00     0.060 A 
BRANCH  86  87
ATOM     87  S   UNL A   1      47.973  26.594  38.110  1.00  0.00     0.124 S 
ATOM     88  O   UNL A   1      47.278  26.055  39.274  1.00  0.00    -0.237 OA
ATOM     89  O   UNL A   1      48.489  25.612  37.162  1.00  0.00    -0.237 OA
ATOM     90  O   UNL A   1      48.856  27.728  38.370  1.00  0.00    -0.744 OA
ENDBRANCH  86  87
ENDBRANCH  54  79
BRANCH  66  91
ATOM     91  C   UNL A   1      40.056  33.612  37.611  1.00  0.00     0.058 A 
ATOM     92  C   UNL A   1      39.186  33.219  38.641  1.00  0.00     0.135 A 
ATOM     93  C   UNL A   1      40.819  34.775  37.806  1.00  0.00     0.135 A 
ATOM     94  F   UNL A   1      38.427  32.121  38.502  1.00  0.00    -0.206 F 
ATOM     95  C   UNL A   1      39.066  33.960  39.812  1.00  0.00     0.059 A 
ATOM     96  C   UNL A   1      40.733  35.516  38.981  1.00  0.00     0.059 A 
ATOM     97  F   UNL A   1      41.672  35.191  36.857  1.00  0.00    -0.206 F 
ATOM     98  C   UNL A   1      39.846  35.106  39.975  1.00  0.00     0.060 A 
BRANCH  98  99
ATOM     99  S   UNL A   1      39.705  36.035  41.516  1.00  0.00     0.124 S 
ATOM    100  O   UNL A   1      38.258  36.159  41.655  1.00  0.00    -0.237 OA
ATOM    101  O   UNL A   1      40.361  35.150  42.475  1.00  0.00    -0.237 OA
ATOM    102  O   UNL A   1      40.416  37.277  41.232  1.00  0.00    -0.744 OA
ENDBRANCH  98  99
ENDBRANCH  66  91
ENDBRANCH  40  41
ENDBRANCH  33  35
ENDBRANCH  32  33
ENDBRANCH  31  32
ENDBRANCH  30  31
ENDBRANCH  29  30
ENDBRANCH  28  29
ENDBRANCH   1  28
TORSDOF 24
ENDMDL
MODEL 3
REMARK VINA RESULT:      -9.7      1.592      8.091
REMARK SMILES CC(C)CCc1cc2c(cc1Cl)C=C(C(=O)OCCOCCOCCOC(=O)c1ccc(-c3c4nc(c(-c5c(F)cc(S(=O)(=O)[O-])cc5F)c5ccc([nH]5)c(-c5c(F)cc(S(=O)(=O)[O-])cc5F)c5nc(c(-c6c(F)cc(S(=O)(=O)[O-])cc6F)c6ccc3[nH]6)C=C5)C=C4)cc1)[C@@H](C(F)(F)F)O2
REMARK SMILES IDX 21 1 20 2 19 3 18 4 17 5 15 6 16 7 14 8 6 9 7 10 11 11 8 12
REMARK SMILES IDX 10 13 12 14 9 15 100 16 13 17 95 18 5 19 4 20 2 21 1 22 3 23
REMARK SMILES IDX 96 24 97 25 98 26 99 27 22 28 23 29 24 30 25 31 26 32 27 33
REMARK SMILES IDX 28 34 29 35 30 36 94 37 31 38 93 39 32 40 33 41 34 42 87 43
REMARK SMILES IDX 35 44 92 45 86 46 88 47 36 48 91 49 85 50 84 51 37 53 71 54
REMARK SMILES IDX 50 55 70 56 51 57 54 58 69 59 89 60 52 61 53 62 68 64 90 65
REMARK SMILES IDX 55 66 38 67 39 68 48 69 40 70 41 71 47 72 49 73 42 74 43 75
REMARK SMILES IDX 44 76 45 77 46 78 72 79 73 80 82 81 74 82 75 83 81 84 83 85
REMARK SMILES IDX 76 86 77 87 78 88 79 89 80 90 56 91 57 92 66 93 58 94 59 95
REMARK SMILES IDX 65 96 67 97 60 98 61 99 62 100 63 101 64 102
REMARK H PARENT 88 52 54 63
REMARK Flexibility Score: inf
ROOT
ATOM      1  C   UNL A   1      39.330  23.050  27.044  1.00  0.00     0.188 C 
ENDROOT
BRANCH   1   2
ATOM      2  O   UNL A   1      38.332  22.632  26.125  1.00  0.00    -0.376 OA
BRANCH   2   3
ATOM      3  C   UNL A   1      38.617  21.458  25.382  1.00  0.00     0.202 C 
BRANCH   3   4
ATOM      4  C   UNL A   1      37.382  20.645  24.976  1.00  0.00     0.261 C 
BRANCH   4   5
ATOM      5  O   UNL A   1      36.192  21.425  24.772  1.00  0.00    -0.460 OA
BRANCH   5   6
ATOM      6  C   UNL A   1      35.014  20.767  24.807  1.00  0.00     0.338 C 
ATOM      7  O   UNL A   1      34.859  19.566  24.942  1.00  0.00    -0.246 OA
BRANCH   6   8
ATOM      8  C   UNL A   1      33.921  21.765  24.774  1.00  0.00     0.087 C 
ATOM      9  C   UNL A   1      30.851  25.617  23.756  1.00  0.00    -0.026 A 
ATOM     10  C   UNL A   1      30.908  24.635  24.760  1.00  0.00     0.052 A 
ATOM     11  C   UNL A   1      31.669  25.438  22.627  1.00  0.00     0.045 A 
ATOM     12  C   UNL A   1      31.861  23.614  24.722  1.00  0.00     0.128 A 
ATOM     13  C   UNL A   1      32.608  24.400  22.575  1.00  0.00     0.032 A 
ATOM     14  Cl  UNL A   1      31.577  26.487  21.255  1.00  0.00    -0.084 Cl
ATOM     15  C   UNL A   1      32.743  23.516  23.649  1.00  0.00     0.019 A 
ATOM     16  O   UNL A   1      31.865  22.768  25.792  1.00  0.00    -0.475 OA
ATOM     17  C   UNL A   1      33.807  22.525  23.676  1.00  0.00     0.027 C 
ATOM     18  C   UNL A   1      32.972  21.839  25.945  1.00  0.00     0.316 C 
BRANCH   9  19
ATOM     19  C   UNL A   1      29.936  26.817  23.901  1.00  0.00     0.037 C 
BRANCH  19  20
ATOM     20  C   UNL A   1      30.620  28.198  23.991  1.00  0.00     0.008 C 
BRANCH  20  21
ATOM     21  C   UNL A   1      31.902  28.254  24.852  1.00  0.00    -0.017 C 
ATOM     22  C   UNL A   1      33.148  28.576  24.028  1.00  0.00     0.007 C 
ATOM     23  C   UNL A   1      31.732  29.285  25.970  1.00  0.00     0.007 C 
ENDBRANCH  20  21
ENDBRANCH  19  20
ENDBRANCH   9  19
BRANCH  18  24
ATOM     24  C   UNL A   1      33.692  22.153  27.264  1.00  0.00     0.430 C 
ATOM     25  F   UNL A   1      34.816  22.881  27.048  1.00  0.00    -0.167 F 
ATOM     26  F   UNL A   1      32.920  22.882  28.102  1.00  0.00    -0.167 F 
ATOM     27  F   UNL A   1      34.061  21.031  27.924  1.00  0.00    -0.167 F 
ENDBRANCH  18  24
ENDBRANCH   6   8
ENDBRANCH   5   6
ENDBRANCH   4   5
ENDBRANCH   3   4
ENDBRANCH   2   3
ENDBRANCH   1   2
BRANCH   1  28
ATOM     28  C   UNL A   1      39.982  24.394  26.658  1.00  0.00     0.188 C 
BRANCH  28  29
ATOM     29  O   UNL A   1      41.316  24.417  26.163  1.00  0.00    -0.376 OA
BRANCH  29  30
ATOM     30  C   UNL A   1      42.053  23.200  26.123  1.00  0.00     0.202 C 
BRANCH  30  31
ATOM     31  C   UNL A   1      43.565  23.260  26.379  1.00  0.00     0.261 C 
BRANCH  31  32
ATOM     32  O   UNL A   1      43.952  24.195  27.399  1.00  0.00    -0.460 OA
BRANCH  32  33
ATOM     33  C   UNL A   1      44.247  25.449  26.971  1.00  0.00     0.338 C 
ATOM     34  O   UNL A   1      44.703  25.769  25.887  1.00  0.00    -0.246 OA
BRANCH  33  35
ATOM     35  C   UNL A   1      43.735  26.424  27.957  1.00  0.00     0.060 A 
ATOM     36  C   UNL A   1      42.879  26.027  28.986  1.00  0.00     0.016 A 
ATOM     37  C   UNL A   1      44.125  27.766  27.837  1.00  0.00     0.016 A 
ATOM     38  C   UNL A   1      42.426  26.977  29.905  1.00  0.00     0.010 A 
ATOM     39  C   UNL A   1      43.655  28.717  28.745  1.00  0.00     0.010 A 
ATOM     40  C   UNL A   1      42.814  28.324  29.795  1.00  0.00    -0.014 A 
BRANCH  40  41
ATOM     41  C   UNL A   1      42.455  29.283  30.868  1.00  0.00     0.031 A 
ATOM     42  C   UNL A   1      41.225  30.135  30.789  1.00  0.00     0.074 A 
ATOM     43  C   UNL A   1      43.264  29.359  31.942  1.00  0.00     0.049 A 
ATOM     44  N   UNL A   1      40.716  30.926  31.699  1.00  0.00    -0.248 NA
ATOM     45  C   UNL A   1      40.471  30.101  29.528  1.00  0.00     0.031 C 
ATOM     46  C   UNL A   1      44.504  28.599  32.111  1.00  0.00     0.029 A 
ATOM     47  N   UNL A   1      43.162  30.096  33.094  1.00  0.00    -0.354 N 
ATOM     48  C   UNL A   1      39.564  31.461  31.140  1.00  0.00     0.074 A 
ATOM     49  C   UNL A   1      39.477  30.944  29.788  1.00  0.00     0.031 C 
ATOM     50  C   UNL A   1      45.034  28.889  33.310  1.00  0.00     0.029 A 
ATOM     51  C   UNL A   1      44.180  29.861  33.986  1.00  0.00     0.049 A 
ATOM     52  H   UNL A   1      42.430  30.731  33.265  1.00  0.00     0.167 HD
ATOM     53  C   UNL A   1      38.656  32.289  31.713  1.00  0.00     0.037 A 
ATOM     54  C   UNL A   1      44.396  30.360  35.218  1.00  0.00     0.037 A 
ATOM     55  C   UNL A   1      38.765  32.814  33.053  1.00  0.00     0.049 A 
ATOM     56  C   UNL A   1      43.395  31.309  35.814  1.00  0.00     0.074 A 
ATOM     57  C   UNL A   1      37.875  33.629  33.732  1.00  0.00     0.029 A 
ATOM     58  N   UNL A   1      39.833  32.593  33.911  1.00  0.00    -0.354 N 
ATOM     59  N   UNL A   1      42.269  31.743  35.302  1.00  0.00    -0.248 NA
ATOM     60  C   UNL A   1      43.688  31.827  37.157  1.00  0.00     0.031 C 
ATOM     61  C   UNL A   1      38.426  33.938  34.982  1.00  0.00     0.029 A 
ATOM     62  C   UNL A   1      39.638  33.278  35.101  1.00  0.00     0.049 A 
ATOM     63  H   UNL A   1      40.615  32.032  33.705  1.00  0.00     0.167 HD
ATOM     64  C   UNL A   1      41.710  32.574  36.268  1.00  0.00     0.074 A 
ATOM     65  C   UNL A   1      42.615  32.568  37.398  1.00  0.00     0.031 C 
ATOM     66  C   UNL A   1      40.551  33.277  36.218  1.00  0.00     0.037 A 
BRANCH  53  67
ATOM     67  C   UNL A   1      37.444  32.671  30.906  1.00  0.00     0.058 A 
ATOM     68  C   UNL A   1      37.508  33.682  29.934  1.00  0.00     0.135 A 
ATOM     69  C   UNL A   1      36.236  31.968  31.042  1.00  0.00     0.135 A 
ATOM     70  F   UNL A   1      38.635  34.392  29.770  1.00  0.00    -0.206 F 
ATOM     71  C   UNL A   1      36.413  33.991  29.133  1.00  0.00     0.059 A 
ATOM     72  C   UNL A   1      35.135  32.245  30.235  1.00  0.00     0.059 A 
ATOM     73  F   UNL A   1      36.122  30.989  31.954  1.00  0.00    -0.206 F 
ATOM     74  C   UNL A   1      35.231  33.264  29.289  1.00  0.00     0.060 A 
BRANCH  74  75
ATOM     75  S   UNL A   1      33.830  33.666  28.224  1.00  0.00     0.124 S 
ATOM     76  O   UNL A   1      33.452  32.345  27.729  1.00  0.00    -0.237 OA
ATOM     77  O   UNL A   1      32.894  34.282  29.160  1.00  0.00    -0.237 OA
ATOM     78  O   UNL A   1      34.403  34.567  27.230  1.00  0.00    -0.744 OA
ENDBRANCH  74  75
ENDBRANCH  53  67
BRANCH  54  79
ATOM     79  C   UNL A   1      45.594  29.927  35.981  1.00  0.00     0.058 A 
ATOM     80  C   UNL A   1      45.551  28.793  36.805  1.00  0.00     0.135 A 
ATOM     81  C   UNL A   1      46.814  30.610  35.866  1.00  0.00     0.135 A 
ATOM     82  F   UNL A   1      44.404  28.111  36.948  1.00  0.00    -0.206 F 
ATOM     83  C   UNL A   1      46.675  28.354  37.494  1.00  0.00     0.059 A 
ATOM     84  C   UNL A   1      47.957  30.177  36.527  1.00  0.00     0.059 A 
ATOM     85  F   UNL A   1      46.908  31.690  35.075  1.00  0.00    -0.206 F 
ATOM     86  C   UNL A   1      47.877  29.049  37.343  1.00  0.00     0.060 A 
BRANCH  86  87
ATOM     87  S   UNL A   1      49.345  28.429  38.192  1.00  0.00     0.124 S 
ATOM     88  O   UNL A   1      48.875  27.140  38.688  1.00  0.00    -0.237 OA
ATOM     89  O   UNL A   1      50.324  28.379  37.111  1.00  0.00    -0.237 OA
ATOM     90  O   UNL A   1      49.598  29.444  39.210  1.00  0.00    -0.744 OA
ENDBRANCH  86  87
ENDBRANCH  54  79
BRANCH  66  91
ATOM     91  C   UNL A   1      40.191  34.102  37.423  1.00  0.00     0.058 A 
ATOM     92  C   UNL A   1      40.695  35.401  37.599  1.00  0.00     0.135 A 
ATOM     93  C   UNL A   1      39.294  33.612  38.386  1.00  0.00     0.135 A 
ATOM     94  F   UNL A   1      41.563  35.914  36.713  1.00  0.00    -0.206 F 
ATOM     95  C   UNL A   1      40.335  36.178  38.695  1.00  0.00     0.059 A 
ATOM     96  C   UNL A   1      38.901  34.382  39.477  1.00  0.00     0.059 A 
ATOM     97  F   UNL A   1      38.777  32.380  38.262  1.00  0.00    -0.206 F 
ATOM     98  C   UNL A   1      39.435  35.661  39.628  1.00  0.00     0.060 A 
BRANCH  98  99
ATOM     99  S   UNL A   1      38.950  36.695  41.026  1.00  0.00     0.124 S 
ATOM    100  O   UNL A   1      40.233  36.928  41.680  1.00  0.00    -0.237 OA
ATOM    101  O   UNL A   1      38.357  37.854  40.365  1.00  0.00    -0.237 OA
ATOM    102  O   UNL A   1      38.013  35.855  41.764  1.00  0.00    -0.744 OA
ENDBRANCH  98  99
ENDBRANCH  66  91
ENDBRANCH  40  41
ENDBRANCH  33  35
ENDBRANCH  32  33
ENDBRANCH  31  32
ENDBRANCH  30  31
ENDBRANCH  29  30
ENDBRANCH  28  29
ENDBRANCH   1  28
TORSDOF 24
ENDMDL
