MODEL 1
REMARK VINA RESULT:      -9.9      0.000      0.000
REMARK SMILES O=C(NC[C@@H]1CCOC1)NC[C@@H]1CC[C@H](C(=O)OCCOCCOCCOC(=O)c2ccc(-c3c4nc(c(-c5c(F)cc(S(=O)(=O)[O-])cc5F)c5ccc([nH]5)c(-c5c(F)cc(S(=O)(=O)[O-])cc5F)c5nc(c(-c6c(F)cc(S(=O)(=O)[O-])cc6F)c6ccc3[nH]6)C=C5)C=C4)cc2)O1
REMARK SMILES IDX 22 1 21 2 20 3 19 4 18 5 16 6 17 7 15 8 12 9 13 10 96 11
REMARK SMILES IDX 14 12 11 13 10 14 1 15 2 16 3 17 4 20 5 21 6 22 9 23 7 24
REMARK SMILES IDX 8 25 23 26 24 27 25 28 26 29 27 30 28 31 29 32 30 33 31 34
REMARK SMILES IDX 95 35 32 36 94 37 33 38 34 39 35 40 88 41 36 42 93 43 87 44
REMARK SMILES IDX 89 45 37 46 92 47 86 48 85 49 38 51 72 52 51 53 71 54 52 55
REMARK SMILES IDX 55 56 70 57 90 58 53 59 54 60 69 62 91 63 56 64 39 65 40 66
REMARK SMILES IDX 49 67 41 68 42 69 48 70 50 71 43 72 44 73 45 74 46 75 47 76
REMARK SMILES IDX 73 77 74 78 83 79 75 80 76 81 82 82 84 83 77 84 78 85 79 86
REMARK SMILES IDX 80 87 81 88 57 89 58 90 67 91 59 92 60 93 66 94 68 95 61 96
REMARK SMILES IDX 62 97 63 98 64 99 65 100
REMARK H PARENT 3 18 10 19 89 50 55 61
REMARK Flexibility Score: inf
ROOT
ATOM      1  C   UNL A   1      32.904  30.059  25.909  1.00  0.00     0.188 C 
ENDROOT
BRANCH   1   2
ATOM      2  O   UNL A   1      32.739  28.649  25.998  1.00  0.00    -0.376 OA
BRANCH   2   3
ATOM      3  C   UNL A   1      33.815  27.843  25.509  1.00  0.00     0.202 C 
BRANCH   3   4
ATOM      4  C   UNL A   1      33.718  26.323  25.737  1.00  0.00     0.261 C 
BRANCH   4   5
ATOM      5  O   UNL A   1      34.332  25.531  24.693  1.00  0.00    -0.461 OA
BRANCH   5   6
ATOM      6  C   UNL A   1      33.939  24.231  24.630  1.00  0.00     0.335 C 
ATOM      7  O   UNL A   1      33.964  23.461  25.586  1.00  0.00    -0.249 OA
BRANCH   6   8
ATOM      8  C   UNL A   1      33.403  23.796  23.252  1.00  0.00     0.228 C 
ATOM      9  C   UNL A   1      31.319  24.784  22.944  1.00  0.00     0.138 C 
ATOM     10  C   UNL A   1      31.087  23.339  23.378  1.00  0.00     0.037 C 
ATOM     11  O   UNL A   1      32.722  24.914  22.647  1.00  0.00    -0.361 OA
ATOM     12  C   UNL A   1      32.405  22.664  23.131  1.00  0.00     0.047 C 
BRANCH   9  13
ATOM     13  C   UNL A   1      30.895  25.819  24.001  1.00  0.00     0.149 C 
BRANCH  13  14
ATOM     14  N   UNL A   1      29.996  26.822  23.453  1.00  0.00    -0.336 N 
ATOM     15  O   UNL A   1      31.650  28.248  22.787  1.00  0.00    -0.249 OA
ATOM     16  C   UNL A   1      30.462  28.002  22.970  1.00  0.00     0.314 C 
ATOM     17  N   UNL A   1      29.557  28.977  22.727  1.00  0.00    -0.338 N 
ATOM     18  H   UNL A   1      29.957  29.832  22.448  1.00  0.00     0.165 HD
ATOM     19  H   UNL A   1      29.029  26.641  23.432  1.00  0.00     0.165 HD
BRANCH  17  20
ATOM     20  C   UNL A   1      28.109  29.001  22.800  1.00  0.00     0.123 C 
BRANCH  20  21
ATOM     21  C   UNL A   1      27.471  30.358  22.475  1.00  0.00     0.036 C 
ATOM     22  C   UNL A   1      28.064  31.106  21.292  1.00  0.00     0.036 C 
ATOM     23  C   UNL A   1      27.531  31.359  23.623  1.00  0.00     0.165 C 
ATOM     24  C   UNL A   1      28.796  32.270  21.922  1.00  0.00     0.160 C 
ATOM     25  O   UNL A   1      28.070  32.580  23.110  1.00  0.00    -0.381 OA
ENDBRANCH  20  21
ENDBRANCH  17  20
ENDBRANCH  13  14
ENDBRANCH   9  13
ENDBRANCH   6   8
ENDBRANCH   5   6
ENDBRANCH   4   5
ENDBRANCH   3   4
ENDBRANCH   2   3
ENDBRANCH   1   2
BRANCH   1  26
ATOM     26  C   UNL A   1      33.017  30.801  27.245  1.00  0.00     0.188 C 
BRANCH  26  27
ATOM     27  O   UNL A   1      34.335  31.173  27.589  1.00  0.00    -0.376 OA
BRANCH  27  28
ATOM     28  C   UNL A   1      34.597  32.376  28.300  1.00  0.00     0.202 C 
BRANCH  28  29
ATOM     29  C   UNL A   1      35.132  32.368  29.751  1.00  0.00     0.261 C 
BRANCH  29  30
ATOM     30  O   UNL A   1      36.546  32.210  29.951  1.00  0.00    -0.460 OA
BRANCH  30  31
ATOM     31  C   UNL A   1      36.962  31.182  30.729  1.00  0.00     0.338 C 
ATOM     32  O   UNL A   1      36.298  30.600  31.571  1.00  0.00    -0.246 OA
BRANCH  31  33
ATOM     33  C   UNL A   1      38.255  30.690  30.172  1.00  0.00     0.060 A 
ATOM     34  C   UNL A   1      39.301  30.419  31.069  1.00  0.00     0.016 A 
ATOM     35  C   UNL A   1      38.410  30.386  28.816  1.00  0.00     0.016 A 
ATOM     36  C   UNL A   1      40.506  29.876  30.611  1.00  0.00     0.010 A 
ATOM     37  C   UNL A   1      39.627  29.863  28.355  1.00  0.00     0.010 A 
ATOM     38  C   UNL A   1      40.693  29.632  29.244  1.00  0.00    -0.014 A 
BRANCH  38  39
ATOM     39  C   UNL A   1      42.051  29.347  28.707  1.00  0.00     0.031 A 
ATOM     40  C   UNL A   1      42.358  27.934  28.287  1.00  0.00     0.074 A 
ATOM     41  C   UNL A   1      42.996  30.300  28.589  1.00  0.00     0.049 A 
ATOM     42  N   UNL A   1      43.486  27.408  27.887  1.00  0.00    -0.248 NA
ATOM     43  C   UNL A   1      41.234  26.983  28.333  1.00  0.00     0.031 C 
ATOM     44  C   UNL A   1      42.820  31.715  28.906  1.00  0.00     0.029 A 
ATOM     45  N   UNL A   1      44.306  30.208  28.180  1.00  0.00    -0.354 N 
ATOM     46  C   UNL A   1      43.213  26.066  27.646  1.00  0.00     0.074 A 
ATOM     47  C   UNL A   1      41.820  25.852  27.970  1.00  0.00     0.031 C 
ATOM     48  C   UNL A   1      43.986  32.356  28.699  1.00  0.00     0.029 A 
ATOM     49  C   UNL A   1      45.001  31.391  28.273  1.00  0.00     0.049 A 
ATOM     50  H   UNL A   1      44.710  29.372  27.853  1.00  0.00     0.167 HD
ATOM     51  C   UNL A   1      44.043  25.099  27.190  1.00  0.00     0.037 A 
ATOM     52  C   UNL A   1      46.308  31.659  28.068  1.00  0.00     0.037 A 
ATOM     53  C   UNL A   1      45.431  25.311  26.871  1.00  0.00     0.049 A 
ATOM     54  C   UNL A   1      47.240  30.546  27.645  1.00  0.00     0.074 A 
ATOM     55  C   UNL A   1      46.351  24.395  26.392  1.00  0.00     0.029 A 
ATOM     56  N   UNL A   1      46.102  26.517  27.008  1.00  0.00    -0.354 N 
ATOM     57  N   UNL A   1      46.967  29.285  27.407  1.00  0.00    -0.248 NA
ATOM     58  C   UNL A   1      48.658  30.892  27.468  1.00  0.00     0.031 C 
ATOM     59  C   UNL A   1      47.591  25.032  26.295  1.00  0.00     0.029 A 
ATOM     60  C   UNL A   1      47.431  26.361  26.651  1.00  0.00     0.049 A 
ATOM     61  H   UNL A   1      45.693  27.358  27.315  1.00  0.00     0.167 HD
ATOM     62  C   UNL A   1      48.169  28.698  27.020  1.00  0.00     0.074 A 
ATOM     63  C   UNL A   1      49.171  29.742  27.049  1.00  0.00     0.031 C 
ATOM     64  C   UNL A   1      48.419  27.411  26.670  1.00  0.00     0.037 A 
BRANCH  51  65
ATOM     65  C   UNL A   1      43.480  23.713  27.040  1.00  0.00     0.058 A 
ATOM     66  C   UNL A   1      43.300  22.862  28.142  1.00  0.00     0.135 A 
ATOM     67  C   UNL A   1      43.090  23.239  25.776  1.00  0.00     0.135 A 
ATOM     68  F   UNL A   1      43.677  23.255  29.369  1.00  0.00    -0.206 F 
ATOM     69  C   UNL A   1      42.777  21.582  27.993  1.00  0.00     0.059 A 
ATOM     70  C   UNL A   1      42.536  21.974  25.609  1.00  0.00     0.059 A 
ATOM     71  F   UNL A   1      43.245  24.010  24.687  1.00  0.00    -0.206 F 
ATOM     72  C   UNL A   1      42.397  21.147  26.722  1.00  0.00     0.060 A 
BRANCH  72  73
ATOM     73  S   UNL A   1      41.715  19.486  26.549  1.00  0.00     0.124 S 
ATOM     74  O   UNL A   1      40.288  19.736  26.721  1.00  0.00    -0.237 OA
ATOM     75  O   UNL A   1      42.135  19.116  25.200  1.00  0.00    -0.237 OA
ATOM     76  O   UNL A   1      42.354  18.739  27.628  1.00  0.00    -0.744 OA
ENDBRANCH  72  73
ENDBRANCH  51  65
BRANCH  52  77
ATOM     77  C   UNL A   1      46.835  33.037  28.281  1.00  0.00     0.058 A 
ATOM     78  C   UNL A   1      46.839  33.983  27.244  1.00  0.00     0.135 A 
ATOM     79  C   UNL A   1      47.365  33.432  29.521  1.00  0.00     0.135 A 
ATOM     80  F   UNL A   1      46.363  33.651  26.033  1.00  0.00    -0.206 F 
ATOM     81  C   UNL A   1      47.358  35.262  27.421  1.00  0.00     0.059 A 
ATOM     82  C   UNL A   1      47.863  34.714  29.732  1.00  0.00     0.059 A 
ATOM     83  F   UNL A   1      47.386  32.568  30.548  1.00  0.00    -0.206 F 
ATOM     84  C   UNL A   1      47.865  35.619  28.672  1.00  0.00     0.060 A 
BRANCH  84  85
ATOM     85  S   UNL A   1      48.495  37.298  28.903  1.00  0.00     0.124 S 
ATOM     86  O   UNL A   1      47.989  37.621  30.232  1.00  0.00    -0.237 OA
ATOM     87  O   UNL A   1      49.937  37.099  28.800  1.00  0.00    -0.237 OA
ATOM     88  O   UNL A   1      47.890  38.038  27.800  1.00  0.00    -0.744 OA
ENDBRANCH  84  85
ENDBRANCH  52  77
BRANCH  64  89
ATOM     89  C   UNL A   1      49.821  27.055  26.242  1.00  0.00     0.058 A 
ATOM     90  C   UNL A   1      50.763  26.537  27.144  1.00  0.00     0.135 A 
ATOM     91  C   UNL A   1      50.198  27.161  24.893  1.00  0.00     0.135 A 
ATOM     92  F   UNL A   1      50.458  26.417  28.446  1.00  0.00    -0.206 F 
ATOM     93  C   UNL A   1      52.035  26.154  26.727  1.00  0.00     0.059 A 
ATOM     94  C   UNL A   1      51.453  26.756  24.449  1.00  0.00     0.059 A 
ATOM     95  F   UNL A   1      49.332  27.638  23.984  1.00  0.00    -0.206 F 
ATOM     96  C   UNL A   1      52.370  26.262  25.376  1.00  0.00     0.060 A 
BRANCH  96  97
ATOM     97  S   UNL A   1      54.006  25.715  24.842  1.00  0.00     0.124 S 
ATOM     98  O   UNL A   1      54.865  26.334  25.846  1.00  0.00    -0.237 OA
ATOM     99  O   UNL A   1      53.889  24.262  24.915  1.00  0.00    -0.237 OA
ATOM    100  O   UNL A   1      54.124  26.261  23.493  1.00  0.00    -0.744 OA
ENDBRANCH  96  97
ENDBRANCH  64  89
ENDBRANCH  38  39
ENDBRANCH  31  33
ENDBRANCH  30  31
ENDBRANCH  29  30
ENDBRANCH  28  29
ENDBRANCH  27  28
ENDBRANCH  26  27
ENDBRANCH   1  26
TORSDOF 24
ENDMDL
MODEL 2
REMARK VINA RESULT:      -9.6      1.950      4.022
REMARK SMILES O=C(NC[C@@H]1CCOC1)NC[C@@H]1CC[C@H](C(=O)OCCOCCOCCOC(=O)c2ccc(-c3c4nc(c(-c5c(F)cc(S(=O)(=O)[O-])cc5F)c5ccc([nH]5)c(-c5c(F)cc(S(=O)(=O)[O-])cc5F)c5nc(c(-c6c(F)cc(S(=O)(=O)[O-])cc6F)c6ccc3[nH]6)C=C5)C=C4)cc2)O1
REMARK SMILES IDX 22 1 21 2 20 3 19 4 18 5 16 6 17 7 15 8 12 9 13 10 96 11
REMARK SMILES IDX 14 12 11 13 10 14 1 15 2 16 3 17 4 20 5 21 6 22 9 23 7 24
REMARK SMILES IDX 8 25 23 26 24 27 25 28 26 29 27 30 28 31 29 32 30 33 31 34
REMARK SMILES IDX 95 35 32 36 94 37 33 38 34 39 35 40 88 41 36 42 93 43 87 44
REMARK SMILES IDX 89 45 37 46 92 47 86 48 85 49 38 51 72 52 51 53 71 54 52 55
REMARK SMILES IDX 55 56 70 57 90 58 53 59 54 60 69 62 91 63 56 64 39 65 40 66
REMARK SMILES IDX 49 67 41 68 42 69 48 70 50 71 43 72 44 73 45 74 46 75 47 76
REMARK SMILES IDX 73 77 74 78 83 79 75 80 76 81 82 82 84 83 77 84 78 85 79 86
REMARK SMILES IDX 80 87 81 88 57 89 58 90 67 91 59 92 60 93 66 94 68 95 61 96
REMARK SMILES IDX 62 97 63 98 64 99 65 100
REMARK H PARENT 3 18 10 19 89 50 55 61
REMARK Flexibility Score: inf
ROOT
ATOM      1  C   UNL A   1      33.679  29.963  27.358  1.00  0.00     0.188 C 
ENDROOT
BRANCH   1   2
ATOM      2  O   UNL A   1      34.343  29.104  26.438  1.00  0.00    -0.376 OA
BRANCH   2   3
ATOM      3  C   UNL A   1      33.577  28.643  25.320  1.00  0.00     0.202 C 
BRANCH   3   4
ATOM      4  C   UNL A   1      32.060  28.903  25.349  1.00  0.00     0.261 C 
BRANCH   4   5
ATOM      5  O   UNL A   1      31.260  27.762  24.958  1.00  0.00    -0.461 OA
BRANCH   5   6
ATOM      6  C   UNL A   1      30.931  26.901  25.958  1.00  0.00     0.335 C 
ATOM      7  O   UNL A   1      31.276  27.047  27.128  1.00  0.00    -0.249 OA
BRANCH   6   8
ATOM      8  C   UNL A   1      30.034  25.728  25.516  1.00  0.00     0.228 C 
ATOM      9  C   UNL A   1      31.413  23.993  24.810  1.00  0.00     0.138 C 
ATOM     10  C   UNL A   1      30.904  24.717  23.566  1.00  0.00     0.037 C 
ATOM     11  O   UNL A   1      30.655  24.493  25.927  1.00  0.00    -0.361 OA
ATOM     12  C   UNL A   1      29.721  25.500  24.053  1.00  0.00     0.047 C 
BRANCH   9  13
ATOM     13  C   UNL A   1      32.920  24.179  25.056  1.00  0.00     0.149 C 
BRANCH  13  14
ATOM     14  N   UNL A   1      33.633  22.911  25.061  1.00  0.00    -0.336 N 
ATOM     15  O   UNL A   1      33.267  22.471  27.271  1.00  0.00    -0.249 OA
ATOM     16  C   UNL A   1      33.819  22.208  26.207  1.00  0.00     0.314 C 
ATOM     17  N   UNL A   1      34.708  21.190  26.177  1.00  0.00    -0.338 N 
ATOM     18  H   UNL A   1      34.855  20.762  27.051  1.00  0.00     0.165 HD
ATOM     19  H   UNL A   1      33.989  22.556  24.215  1.00  0.00     0.165 HD
BRANCH  17  20
ATOM     20  C   UNL A   1      35.484  20.607  25.099  1.00  0.00     0.123 C 
BRANCH  20  21
ATOM     21  C   UNL A   1      36.753  21.385  24.727  1.00  0.00     0.036 C 
ATOM     22  C   UNL A   1      37.447  22.110  25.869  1.00  0.00     0.036 C 
ATOM     23  C   UNL A   1      36.530  22.464  23.675  1.00  0.00     0.165 C 
ATOM     24  C   UNL A   1      37.184  23.573  25.589  1.00  0.00     0.160 C 
ATOM     25  O   UNL A   1      37.095  23.681  24.170  1.00  0.00    -0.381 OA
ENDBRANCH  20  21
ENDBRANCH  17  20
ENDBRANCH  13  14
ENDBRANCH   9  13
ENDBRANCH   6   8
ENDBRANCH   5   6
ENDBRANCH   4   5
ENDBRANCH   3   4
ENDBRANCH   2   3
ENDBRANCH   1   2
BRANCH   1  26
ATOM     26  C   UNL A   1      34.142  31.423  27.355  1.00  0.00     0.188 C 
BRANCH  26  27
ATOM     27  O   UNL A   1      33.829  32.129  28.537  1.00  0.00    -0.376 OA
BRANCH  27  28
ATOM     28  C   UNL A   1      34.851  32.699  29.345  1.00  0.00     0.202 C 
BRANCH  28  29
ATOM     29  C   UNL A   1      35.619  31.868  30.398  1.00  0.00     0.261 C 
BRANCH  29  30
ATOM     30  O   UNL A   1      36.240  30.643  29.975  1.00  0.00    -0.460 OA
BRANCH  30  31
ATOM     31  C   UNL A   1      36.956  29.949  30.891  1.00  0.00     0.338 C 
ATOM     32  O   UNL A   1      36.504  29.318  31.832  1.00  0.00    -0.246 OA
BRANCH  31  33
ATOM     33  C   UNL A   1      38.353  29.837  30.381  1.00  0.00     0.060 A 
ATOM     34  C   UNL A   1      38.559  29.921  28.994  1.00  0.00     0.016 A 
ATOM     35  C   UNL A   1      39.454  29.770  31.240  1.00  0.00     0.016 A 
ATOM     36  C   UNL A   1      39.854  29.906  28.466  1.00  0.00     0.010 A 
ATOM     37  C   UNL A   1      40.751  29.733  30.709  1.00  0.00     0.010 A 
ATOM     38  C   UNL A   1      40.959  29.771  29.317  1.00  0.00    -0.014 A 
BRANCH  38  39
ATOM     39  C   UNL A   1      42.303  29.451  28.764  1.00  0.00     0.031 A 
ATOM     40  C   UNL A   1      42.559  28.036  28.318  1.00  0.00     0.074 A 
ATOM     41  C   UNL A   1      43.278  30.373  28.656  1.00  0.00     0.049 A 
ATOM     42  N   UNL A   1      43.666  27.480  27.899  1.00  0.00    -0.248 NA
ATOM     43  C   UNL A   1      41.404  27.123  28.355  1.00  0.00     0.031 C 
ATOM     44  C   UNL A   1      43.152  31.788  28.999  1.00  0.00     0.029 A 
ATOM     45  N   UNL A   1      44.581  30.245  28.236  1.00  0.00    -0.354 N 
ATOM     46  C   UNL A   1      43.346  26.153  27.637  1.00  0.00     0.074 A 
ATOM     47  C   UNL A   1      41.949  25.979  27.968  1.00  0.00     0.031 C 
ATOM     48  C   UNL A   1      44.337  32.394  28.795  1.00  0.00     0.029 A 
ATOM     49  C   UNL A   1      45.316  31.403  28.344  1.00  0.00     0.049 A 
ATOM     50  H   UNL A   1      44.955  29.402  27.891  1.00  0.00     0.167 HD
ATOM     51  C   UNL A   1      44.141  25.167  27.157  1.00  0.00     0.037 A 
ATOM     52  C   UNL A   1      46.630  31.631  28.134  1.00  0.00     0.037 A 
ATOM     53  C   UNL A   1      45.533  25.338  26.832  1.00  0.00     0.049 A 
ATOM     54  C   UNL A   1      47.521  30.496  27.684  1.00  0.00     0.074 A 
ATOM     55  C   UNL A   1      46.418  24.401  26.329  1.00  0.00     0.029 A 
ATOM     56  N   UNL A   1      46.244  26.518  26.985  1.00  0.00    -0.354 N 
ATOM     57  N   UNL A   1      47.204  29.249  27.425  1.00  0.00    -0.248 NA
ATOM     58  C   UNL A   1      48.949  30.797  27.502  1.00  0.00     0.031 C 
ATOM     59  C   UNL A   1      47.678  24.998  26.234  1.00  0.00     0.029 A 
ATOM     60  C   UNL A   1      47.565  26.325  26.614  1.00  0.00     0.049 A 
ATOM     61  H   UNL A   1      45.866  27.367  27.309  1.00  0.00     0.167 HD
ATOM     62  C   UNL A   1      48.383  28.629  27.020  1.00  0.00     0.074 A 
ATOM     63  C   UNL A   1      49.420  29.638  27.059  1.00  0.00     0.031 C 
ATOM     64  C   UNL A   1      48.588  27.341  26.644  1.00  0.00     0.037 A 
BRANCH  51  65
ATOM     65  C   UNL A   1      43.531  23.803  26.987  1.00  0.00     0.058 A 
ATOM     66  C   UNL A   1      43.400  22.909  28.061  1.00  0.00     0.135 A 
ATOM     67  C   UNL A   1      43.045  23.395  25.734  1.00  0.00     0.135 A 
ATOM     68  F   UNL A   1      43.868  23.238  29.276  1.00  0.00    -0.206 F 
ATOM     69  C   UNL A   1      42.833  21.650  27.895  1.00  0.00     0.059 A 
ATOM     70  C   UNL A   1      42.446  22.153  25.551  1.00  0.00     0.059 A 
ATOM     71  F   UNL A   1      43.148  24.209  24.670  1.00  0.00    -0.206 F 
ATOM     72  C   UNL A   1      42.357  21.281  26.635  1.00  0.00     0.060 A 
BRANCH  72  73
ATOM     73  S   UNL A   1      41.620  19.647  26.438  1.00  0.00     0.124 S 
ATOM     74  O   UNL A   1      42.290  19.168  25.233  1.00  0.00    -0.237 OA
ATOM     75  O   UNL A   1      42.000  18.982  27.681  1.00  0.00    -0.237 OA
ATOM     76  O   UNL A   1      40.195  19.930  26.292  1.00  0.00    -0.744 OA
ENDBRANCH  72  73
ENDBRANCH  51  65
BRANCH  52  77
ATOM     77  C   UNL A   1      47.204  32.987  28.368  1.00  0.00     0.058 A 
ATOM     78  C   UNL A   1      47.701  33.359  29.627  1.00  0.00     0.135 A 
ATOM     79  C   UNL A   1      47.248  33.946  27.343  1.00  0.00     0.135 A 
ATOM     80  F   UNL A   1      47.664  32.487  30.646  1.00  0.00    -0.206 F 
ATOM     81  C   UNL A   1      48.209  34.632  29.865  1.00  0.00     0.059 A 
ATOM     82  C   UNL A   1      47.778  35.217  27.549  1.00  0.00     0.059 A 
ATOM     83  F   UNL A   1      46.786  33.644  26.120  1.00  0.00    -0.206 F 
ATOM     84  C   UNL A   1      48.247  35.554  28.818  1.00  0.00     0.060 A 
BRANCH  84  85
ATOM     85  S   UNL A   1      48.950  37.190  29.128  1.00  0.00     0.124 S 
ATOM     86  O   UNL A   1      47.926  37.796  29.970  1.00  0.00    -0.237 OA
ATOM     87  O   UNL A   1      50.208  36.859  29.791  1.00  0.00    -0.237 OA
ATOM     88  O   UNL A   1      49.085  37.756  27.789  1.00  0.00    -0.744 OA
ENDBRANCH  84  85
ENDBRANCH  52  77
BRANCH  64  89
ATOM     89  C   UNL A   1      49.973  26.946  26.200  1.00  0.00     0.058 A 
ATOM     90  C   UNL A   1      50.367  27.010  24.854  1.00  0.00     0.135 A 
ATOM     91  C   UNL A   1      50.941  26.572  27.147  1.00  0.00     0.135 A 
ATOM     92  F   UNL A   1      49.483  27.357  23.906  1.00  0.00    -0.206 F 
ATOM     93  C   UNL A   1      51.667  26.700  24.461  1.00  0.00     0.059 A 
ATOM     94  C   UNL A   1      52.254  26.287  26.780  1.00  0.00     0.059 A 
ATOM     95  F   UNL A   1      50.623  26.506  28.449  1.00  0.00    -0.206 F 
ATOM     96  C   UNL A   1      52.606  26.345  25.433  1.00  0.00     0.060 A 
BRANCH  96  97
ATOM     97  S   UNL A   1      54.299  25.994  24.914  1.00  0.00     0.124 S 
ATOM     98  O   UNL A   1      55.068  26.559  26.018  1.00  0.00    -0.237 OA
ATOM     99  O   UNL A   1      54.301  24.538  24.820  1.00  0.00    -0.237 OA
ATOM    100  O   UNL A   1      54.419  26.698  23.641  1.00  0.00    -0.744 OA
ENDBRANCH  96  97
ENDBRANCH  64  89
ENDBRANCH  38  39
ENDBRANCH  31  33
ENDBRANCH  30  31
ENDBRANCH  29  30
ENDBRANCH  28  29
ENDBRANCH  27  28
ENDBRANCH  26  27
ENDBRANCH   1  26
TORSDOF 24
ENDMDL
MODEL 3
REMARK VINA RESULT:      -9.6      1.150      8.288
REMARK SMILES O=C(NC[C@@H]1CCOC1)NC[C@@H]1CC[C@H](C(=O)OCCOCCOCCOC(=O)c2ccc(-c3c4nc(c(-c5c(F)cc(S(=O)(=O)[O-])cc5F)c5ccc([nH]5)c(-c5c(F)cc(S(=O)(=O)[O-])cc5F)c5nc(c(-c6c(F)cc(S(=O)(=O)[O-])cc6F)c6ccc3[nH]6)C=C5)C=C4)cc2)O1
REMARK SMILES IDX 22 1 21 2 20 3 19 4 18 5 16 6 17 7 15 8 12 9 13 10 96 11
REMARK SMILES IDX 14 12 11 13 10 14 1 15 2 16 3 17 4 20 5 21 6 22 9 23 7 24
REMARK SMILES IDX 8 25 23 26 24 27 25 28 26 29 27 30 28 31 29 32 30 33 31 34
REMARK SMILES IDX 95 35 32 36 94 37 33 38 34 39 35 40 88 41 36 42 93 43 87 44
REMARK SMILES IDX 89 45 37 46 92 47 86 48 85 49 38 51 72 52 51 53 71 54 52 55
REMARK SMILES IDX 55 56 70 57 90 58 53 59 54 60 69 62 91 63 56 64 39 65 40 66
REMARK SMILES IDX 49 67 41 68 42 69 48 70 50 71 43 72 44 73 45 74 46 75 47 76
REMARK SMILES IDX 73 77 74 78 83 79 75 80 76 81 82 82 84 83 77 84 78 85 79 86
REMARK SMILES IDX 80 87 81 88 57 89 58 90 67 91 59 92 60 93 66 94 68 95 61 96
REMARK SMILES IDX 62 97 63 98 64 99 65 100
REMARK H PARENT 3 18 10 19 89 50 55 61
REMARK Flexibility Score: inf
ROOT
ATOM      1  C   UNL A   1      34.564  32.224  27.935  1.00  0.00     0.188 C 
ENDROOT
BRANCH   1   2
ATOM      2  O   UNL A   1      35.560  31.220  27.783  1.00  0.00    -0.376 OA
BRANCH   2   3
ATOM      3  C   UNL A   1      35.124  29.860  27.883  1.00  0.00     0.202 C 
BRANCH   3   4
ATOM      4  C   UNL A   1      34.004  29.407  26.928  1.00  0.00     0.261 C 
BRANCH   4   5
ATOM      5  O   UNL A   1      33.785  27.977  26.914  1.00  0.00    -0.461 OA
BRANCH   5   6
ATOM      6  C   UNL A   1      32.685  27.555  26.235  1.00  0.00     0.335 C 
ATOM      7  O   UNL A   1      31.916  28.308  25.643  1.00  0.00    -0.249 OA
BRANCH   6   8
ATOM      8  C   UNL A   1      32.495  26.026  26.220  1.00  0.00     0.228 C 
ATOM      9  C   UNL A   1      32.113  25.368  24.022  1.00  0.00     0.138 C 
ATOM     10  C   UNL A   1      30.762  25.427  24.730  1.00  0.00     0.037 C 
ATOM     11  O   UNL A   1      33.125  25.494  25.037  1.00  0.00    -0.361 OA
ATOM     12  C   UNL A   1      31.110  25.417  26.190  1.00  0.00     0.047 C 
BRANCH   9  13
ATOM     13  C   UNL A   1      32.292  26.454  22.946  1.00  0.00     0.149 C 
BRANCH  13  14
ATOM     14  N   UNL A   1      31.184  27.395  22.932  1.00  0.00    -0.336 N 
ATOM     15  O   UNL A   1      32.461  29.218  22.425  1.00  0.00    -0.249 OA
ATOM     16  C   UNL A   1      31.387  28.725  22.758  1.00  0.00     0.314 C 
ATOM     17  N   UNL A   1      30.352  29.554  23.020  1.00  0.00    -0.338 N 
ATOM     18  H   UNL A   1      30.577  30.510  22.946  1.00  0.00     0.165 HD
ATOM     19  H   UNL A   1      30.266  27.060  23.052  1.00  0.00     0.165 HD
BRANCH  17  20
ATOM     20  C   UNL A   1      28.972  29.302  23.388  1.00  0.00     0.123 C 
BRANCH  20  21
ATOM     21  C   UNL A   1      27.943  30.183  22.669  1.00  0.00     0.036 C 
ATOM     22  C   UNL A   1      28.341  30.680  21.288  1.00  0.00     0.036 C 
ATOM     23  C   UNL A   1      27.574  31.449  23.433  1.00  0.00     0.165 C 
ATOM     24  C   UNL A   1      28.588  32.159  21.486  1.00  0.00     0.160 C 
ATOM     25  O   UNL A   1      27.709  32.556  22.538  1.00  0.00    -0.381 OA
ENDBRANCH  20  21
ENDBRANCH  17  20
ENDBRANCH  13  14
ENDBRANCH   9  13
ENDBRANCH   6   8
ENDBRANCH   5   6
ENDBRANCH   4   5
ENDBRANCH   3   4
ENDBRANCH   2   3
ENDBRANCH   1   2
BRANCH   1  26
ATOM     26  C   UNL A   1      35.075  33.668  27.965  1.00  0.00     0.188 C 
BRANCH  26  27
ATOM     27  O   UNL A   1      35.180  34.215  29.262  1.00  0.00    -0.376 OA
BRANCH  27  28
ATOM     28  C   UNL A   1      34.392  33.716  30.336  1.00  0.00     0.202 C 
BRANCH  28  29
ATOM     29  C   UNL A   1      34.930  32.647  31.316  1.00  0.00     0.261 C 
BRANCH  29  30
ATOM     30  O   UNL A   1      36.132  31.943  30.960  1.00  0.00    -0.460 OA
BRANCH  30  31
ATOM     31  C   UNL A   1      37.077  31.784  31.917  1.00  0.00     0.338 C 
ATOM     32  O   UNL A   1      36.911  31.903  33.120  1.00  0.00    -0.246 OA
BRANCH  31  33
ATOM     33  C   UNL A   1      38.262  31.144  31.278  1.00  0.00     0.060 A 
ATOM     34  C   UNL A   1      39.133  30.402  32.093  1.00  0.00     0.016 A 
ATOM     35  C   UNL A   1      38.461  31.166  29.894  1.00  0.00     0.016 A 
ATOM     36  C   UNL A   1      40.214  29.712  31.534  1.00  0.00     0.010 A 
ATOM     37  C   UNL A   1      39.558  30.492  29.337  1.00  0.00     0.010 A 
ATOM     38  C   UNL A   1      40.458  29.785  30.156  1.00  0.00    -0.014 A 
BRANCH  38  39
ATOM     39  C   UNL A   1      41.754  29.318  29.593  1.00  0.00     0.031 A 
ATOM     40  C   UNL A   1      42.874  30.319  29.487  1.00  0.00     0.074 A 
ATOM     41  C   UNL A   1      41.949  28.051  29.183  1.00  0.00     0.049 A 
ATOM     42  N   UNL A   1      44.057  30.194  28.944  1.00  0.00    -0.248 NA
ATOM     43  C   UNL A   1      42.618  31.647  30.071  1.00  0.00     0.031 C 
ATOM     44  C   UNL A   1      40.973  26.967  29.276  1.00  0.00     0.029 A 
ATOM     45  N   UNL A   1      43.042  27.466  28.587  1.00  0.00    -0.354 N 
ATOM     46  C   UNL A   1      44.680  31.426  29.108  1.00  0.00     0.074 A 
ATOM     47  C   UNL A   1      43.736  32.294  29.777  1.00  0.00     0.031 C 
ATOM     48  C   UNL A   1      41.504  25.854  28.737  1.00  0.00     0.029 A 
ATOM     49  C   UNL A   1      42.843  26.154  28.225  1.00  0.00     0.049 A 
ATOM     50  H   UNL A   1      43.890  27.943  28.432  1.00  0.00     0.167 HD
ATOM     51  C   UNL A   1      45.928  31.801  28.741  1.00  0.00     0.037 A 
ATOM     52  C   UNL A   1      43.633  25.305  27.535  1.00  0.00     0.037 A 
ATOM     53  C   UNL A   1      46.867  30.939  28.072  1.00  0.00     0.049 A 
ATOM     54  C   UNL A   1      44.988  25.771  27.055  1.00  0.00     0.074 A 
ATOM     55  C   UNL A   1      48.159  31.227  27.670  1.00  0.00     0.029 A 
ATOM     56  N   UNL A   1      46.614  29.629  27.697  1.00  0.00    -0.354 N 
ATOM     57  N   UNL A   1      45.572  26.933  27.229  1.00  0.00    -0.248 NA
ATOM     58  C   UNL A   1      45.791  24.811  26.282  1.00  0.00     0.031 C 
ATOM     59  C   UNL A   1      48.666  30.109  27.000  1.00  0.00     0.029 A 
ATOM     60  C   UNL A   1      47.715  29.103  27.042  1.00  0.00     0.049 A 
ATOM     61  H   UNL A   1      45.774  29.144  27.871  1.00  0.00     0.167 HD
ATOM     62  C   UNL A   1      46.819  26.832  26.617  1.00  0.00     0.074 A 
ATOM     63  C   UNL A   1      46.910  25.493  26.075  1.00  0.00     0.031 C 
ATOM     64  C   UNL A   1      47.801  27.763  26.517  1.00  0.00     0.037 A 
BRANCH  51  65
ATOM     65  C   UNL A   1      46.340  33.219  29.027  1.00  0.00     0.058 A 
ATOM     66  C   UNL A   1      46.100  34.260  28.116  1.00  0.00     0.135 A 
ATOM     67  C   UNL A   1      46.960  33.546  30.245  1.00  0.00     0.135 A 
ATOM     68  F   UNL A   1      45.531  34.001  26.928  1.00  0.00    -0.206 F 
ATOM     69  C   UNL A   1      46.483  35.568  28.389  1.00  0.00     0.059 A 
ATOM     70  C   UNL A   1      47.323  34.854  30.553  1.00  0.00     0.059 A 
ATOM     71  F   UNL A   1      47.217  32.589  31.151  1.00  0.00    -0.206 F 
ATOM     72  C   UNL A   1      47.093  35.856  29.612  1.00  0.00     0.060 A 
BRANCH  72  73
ATOM     73  S   UNL A   1      47.578  37.560  29.953  1.00  0.00     0.124 S 
ATOM     74  O   UNL A   1      48.591  37.374  30.987  1.00  0.00    -0.237 OA
ATOM     75  O   UNL A   1      48.074  38.008  28.655  1.00  0.00    -0.237 OA
ATOM     76  O   UNL A   1      46.337  38.187  30.397  1.00  0.00    -0.744 OA
ENDBRANCH  72  73
ENDBRANCH  51  65
BRANCH  52  77
ATOM     77  C   UNL A   1      43.162  23.924  27.227  1.00  0.00     0.058 A 
ATOM     78  C   UNL A   1      43.336  22.875  28.143  1.00  0.00     0.135 A 
ATOM     79  C   UNL A   1      42.547  23.620  26.001  1.00  0.00     0.135 A 
ATOM     80  F   UNL A   1      43.937  23.106  29.321  1.00  0.00    -0.206 F 
ATOM     81  C   UNL A   1      42.932  21.576  27.853  1.00  0.00     0.059 A 
ATOM     82  C   UNL A   1      42.108  22.335  25.699  1.00  0.00     0.059 A 
ATOM     83  F   UNL A   1      42.356  24.585  25.088  1.00  0.00    -0.206 F 
ATOM     84  C   UNL A   1      42.314  21.316  26.628  1.00  0.00     0.060 A 
BRANCH  84  85
ATOM     85  S   UNL A   1      41.751  19.634  26.282  1.00  0.00     0.124 S 
ATOM     86  O   UNL A   1      42.096  18.947  27.520  1.00  0.00    -0.237 OA
ATOM     87  O   UNL A   1      40.325  19.834  26.039  1.00  0.00    -0.237 OA
ATOM     88  O   UNL A   1      42.532  19.253  25.109  1.00  0.00    -0.744 OA
ENDBRANCH  84  85
ENDBRANCH  52  77
BRANCH  64  89
ATOM     89  C   UNL A   1      49.086  27.365  25.836  1.00  0.00     0.058 A 
ATOM     90  C   UNL A   1      49.223  27.388  24.439  1.00  0.00     0.135 A 
ATOM     91  C   UNL A   1      50.218  27.032  26.598  1.00  0.00     0.135 A 
ATOM     92  F   UNL A   1      48.173  27.695  23.661  1.00  0.00    -0.206 F 
ATOM     93  C   UNL A   1      50.432  27.077  23.821  1.00  0.00     0.059 A 
ATOM     94  C   UNL A   1      51.444  26.747  26.003  1.00  0.00     0.059 A 
ATOM     95  F   UNL A   1      50.148  27.007  27.938  1.00  0.00    -0.206 F 
ATOM     96  C   UNL A   1      51.539  26.763  24.612  1.00  0.00     0.060 A 
BRANCH  96  97
ATOM     97  S   UNL A   1      53.113  26.409  23.800  1.00  0.00     0.124 S 
ATOM     98  O   UNL A   1      53.370  25.042  24.240  1.00  0.00    -0.237 OA
ATOM     99  O   UNL A   1      52.777  26.569  22.388  1.00  0.00    -0.237 OA
ATOM    100  O   UNL A   1      54.012  27.424  24.342  1.00  0.00    -0.744 OA
ENDBRANCH  96  97
ENDBRANCH  64  89
ENDBRANCH  38  39
ENDBRANCH  31  33
ENDBRANCH  30  31
ENDBRANCH  29  30
ENDBRANCH  28  29
ENDBRANCH  27  28
ENDBRANCH  26  27
ENDBRANCH   1  26
TORSDOF 24
ENDMDL
