MODEL 1
REMARK VINA RESULT:      -9.5      0.000      0.000
REMARK SMILES COc1ccc(NCc2ccc(C(=O)OCCOCCOCCOC(=O)c3ccc(-c4c5nc(c(-c6c(F)cc(S(=O)(=O)[O-])cc6F)c6ccc([nH]6)c(-c6c(F)cc(S(=O)(=O)[O-])cc6F)c6nc(c(-c7c(F)cc(S(=O)(=O)[O-])cc7F)c7ccc4[nH]7)C=C6)C=C5)cc3)o2)cc1
REMARK SMILES IDX 19 1 18 2 17 3 16 4 15 5 13 6 14 7 12 8 9 9 10 10 93 11
REMARK SMILES IDX 11 12 8 13 7 14 6 16 3 17 4 18 95 19 5 20 94 21 2 22 1 23
REMARK SMILES IDX 20 24 21 25 22 26 23 27 24 28 25 29 26 30 27 31 28 32 92 33
REMARK SMILES IDX 29 34 91 35 30 36 31 37 32 38 85 39 33 40 90 41 84 42 86 43
REMARK SMILES IDX 34 44 89 45 83 46 82 47 35 49 69 50 48 51 68 52 49 53 52 54
REMARK SMILES IDX 67 55 87 56 50 57 51 58 66 60 88 61 53 62 36 63 37 64 46 65
REMARK SMILES IDX 38 66 39 67 45 68 47 69 40 70 41 71 42 72 43 73 44 74 70 75
REMARK SMILES IDX 71 76 80 77 72 78 73 79 79 80 81 81 74 82 75 83 76 84 77 85
REMARK SMILES IDX 78 86 54 87 55 88 64 89 56 90 57 91 63 92 65 93 58 94 59 95
REMARK SMILES IDX 60 96 61 97 62 98
REMARK H PARENT 7 15 86 48 52 59
REMARK Flexibility Score: inf
ROOT
ATOM      1  C   UNL A   1      33.342  27.446  26.302  1.00  0.00     0.188 C 
ENDROOT
BRANCH   1   2
ATOM      2  O   UNL A   1      33.122  26.152  25.751  1.00  0.00    -0.376 OA
BRANCH   2   3
ATOM      3  C   UNL A   1      34.187  25.206  25.754  1.00  0.00     0.202 C 
BRANCH   3   4
ATOM      4  C   UNL A   1      34.766  24.815  24.393  1.00  0.00     0.261 C 
BRANCH   4   5
ATOM      5  O   UNL A   1      36.000  24.092  24.529  1.00  0.00    -0.457 OA
BRANCH   5   6
ATOM      6  C   UNL A   1      36.114  22.971  23.755  1.00  0.00     0.374 C 
ATOM      7  O   UNL A   1      36.804  22.889  22.746  1.00  0.00    -0.242 OA
BRANCH   6   8
ATOM      8  C   UNL A   1      35.393  21.884  24.373  1.00  0.00     0.211 A 
ATOM      9  C   UNL A   1      33.539  20.821  24.921  1.00  0.00     0.124 A 
ATOM     10  C   UNL A   1      34.577  19.958  25.204  1.00  0.00     0.048 A 
ATOM     11  O   UNL A   1      34.036  22.009  24.473  1.00  0.00    -0.452 OA
ATOM     12  C   UNL A   1      35.768  20.636  24.837  1.00  0.00     0.058 A 
BRANCH   9  13
ATOM     13  C   UNL A   1      32.050  20.673  24.946  1.00  0.00     0.188 C 
BRANCH  13  14
ATOM     14  N   UNL A   1      31.368  21.638  25.783  1.00  0.00    -0.378 N 
ATOM     15  H   UNL A   1      31.174  21.363  26.709  1.00  0.00     0.161 HD
BRANCH  14  16
ATOM     16  C   UNL A   1      30.962  22.902  25.416  1.00  0.00     0.035 A 
ATOM     17  C   UNL A   1      30.068  25.507  24.780  1.00  0.00     0.119 A 
ATOM     18  C   UNL A   1      30.523  24.654  23.783  1.00  0.00     0.048 A 
ATOM     19  C   UNL A   1      30.034  25.062  26.097  1.00  0.00     0.048 A 
ATOM     20  C   UNL A   1      30.959  23.365  24.096  1.00  0.00     0.029 A 
ATOM     21  C   UNL A   1      30.482  23.772  26.406  1.00  0.00     0.029 A 
BRANCH  17  22
ATOM     22  O   UNL A   1      29.650  26.732  24.343  1.00  0.00    -0.497 OA
ATOM     23  C   UNL A   1      30.583  27.415  23.520  1.00  0.00     0.278 C 
ENDBRANCH  17  22
ENDBRANCH  14  16
ENDBRANCH  13  14
ENDBRANCH   9  13
ENDBRANCH   6   8
ENDBRANCH   5   6
ENDBRANCH   4   5
ENDBRANCH   3   4
ENDBRANCH   2   3
ENDBRANCH   1   2
BRANCH   1  24
ATOM     24  C   UNL A   1      33.782  28.584  25.363  1.00  0.00     0.188 C 
BRANCH  24  25
ATOM     25  O   UNL A   1      32.831  29.630  25.211  1.00  0.00    -0.376 OA
BRANCH  25  26
ATOM     26  C   UNL A   1      32.164  30.028  26.402  1.00  0.00     0.202 C 
BRANCH  26  27
ATOM     27  C   UNL A   1      32.950  31.046  27.234  1.00  0.00     0.261 C 
BRANCH  27  28
ATOM     28  O   UNL A   1      34.342  30.736  27.409  1.00  0.00    -0.460 OA
BRANCH  28  29
ATOM     29  C   UNL A   1      34.935  31.205  28.531  1.00  0.00     0.338 C 
ATOM     30  O   UNL A   1      34.455  31.961  29.356  1.00  0.00    -0.246 OA
BRANCH  29  31
ATOM     31  C   UNL A   1      36.236  30.524  28.676  1.00  0.00     0.060 A 
ATOM     32  C   UNL A   1      36.640  30.092  29.945  1.00  0.00     0.016 A 
ATOM     33  C   UNL A   1      37.059  30.335  27.564  1.00  0.00     0.016 A 
ATOM     34  C   UNL A   1      37.893  29.497  30.107  1.00  0.00     0.010 A 
ATOM     35  C   UNL A   1      38.316  29.753  27.730  1.00  0.00     0.010 A 
ATOM     36  C   UNL A   1      38.752  29.359  29.006  1.00  0.00    -0.014 A 
BRANCH  36  37
ATOM     37  C   UNL A   1      40.168  28.967  29.211  1.00  0.00     0.031 A 
ATOM     38  C   UNL A   1      41.091  29.956  29.872  1.00  0.00     0.074 A 
ATOM     39  C   UNL A   1      40.627  27.772  28.797  1.00  0.00     0.049 A 
ATOM     40  N   UNL A   1      42.347  29.824  30.204  1.00  0.00    -0.248 NA
ATOM     41  C   UNL A   1      40.515  31.271  30.203  1.00  0.00     0.031 C 
ATOM     42  C   UNL A   1      39.815  26.737  28.163  1.00  0.00     0.029 A 
ATOM     43  N   UNL A   1      41.888  27.226  28.849  1.00  0.00    -0.354 N 
ATOM     44  C   UNL A   1      42.716  31.036  30.774  1.00  0.00     0.074 A 
ATOM     45  C   UNL A   1      41.557  31.900  30.729  1.00  0.00     0.031 C 
ATOM     46  C   UNL A   1      40.595  25.674  27.898  1.00  0.00     0.029 A 
ATOM     47  C   UNL A   1      41.965  25.956  28.324  1.00  0.00     0.049 A 
ATOM     48  H   UNL A   1      42.663  27.700  29.228  1.00  0.00     0.167 HD
ATOM     49  C   UNL A   1      43.915  31.395  31.291  1.00  0.00     0.037 A 
ATOM     50  C   UNL A   1      43.017  25.111  28.230  1.00  0.00     0.037 A 
ATOM     51  C   UNL A   1      45.060  30.527  31.335  1.00  0.00     0.049 A 
ATOM     52  C   UNL A   1      44.342  25.548  28.816  1.00  0.00     0.074 A 
ATOM     53  C   UNL A   1      46.315  30.781  31.861  1.00  0.00     0.029 A 
ATOM     54  N   UNL A   1      45.092  29.238  30.824  1.00  0.00    -0.354 N 
ATOM     55  N   UNL A   1      44.637  26.646  29.473  1.00  0.00    -0.248 NA
ATOM     56  C   UNL A   1      45.470  24.617  28.676  1.00  0.00     0.031 C 
ATOM     57  C   UNL A   1      47.118  29.659  31.631  1.00  0.00     0.029 A 
ATOM     58  C   UNL A   1      46.354  28.693  30.992  1.00  0.00     0.049 A 
ATOM     59  H   UNL A   1      44.329  28.778  30.403  1.00  0.00     0.167 HD
ATOM     60  C   UNL A   1      45.964  26.511  29.872  1.00  0.00     0.074 A 
ATOM     61  C   UNL A   1      46.408  25.217  29.396  1.00  0.00     0.031 C 
ATOM     62  C   UNL A   1      46.751  27.377  30.559  1.00  0.00     0.037 A 
BRANCH  49  63
ATOM     63  C   UNL A   1      44.051  32.796  31.815  1.00  0.00     0.058 A 
ATOM     64  C   UNL A   1      44.484  33.853  30.998  1.00  0.00     0.135 A 
ATOM     65  C   UNL A   1      43.733  33.087  33.150  1.00  0.00     0.135 A 
ATOM     66  F   UNL A   1      44.821  33.624  29.719  1.00  0.00    -0.206 F 
ATOM     67  C   UNL A   1      44.618  35.146  31.494  1.00  0.00     0.059 A 
ATOM     68  C   UNL A   1      43.841  34.376  33.663  1.00  0.00     0.059 A 
ATOM     69  F   UNL A   1      43.321  32.111  33.975  1.00  0.00    -0.206 F 
ATOM     70  C   UNL A   1      44.299  35.396  32.830  1.00  0.00     0.060 A 
BRANCH  70  71
ATOM     71  S   UNL A   1      44.484  37.077  33.466  1.00  0.00     0.124 S 
ATOM     72  O   UNL A   1      43.370  37.758  32.813  1.00  0.00    -0.237 OA
ATOM     73  O   UNL A   1      44.352  36.885  34.907  1.00  0.00    -0.237 OA
ATOM     74  O   UNL A   1      45.814  37.468  33.009  1.00  0.00    -0.744 OA
ENDBRANCH  70  71
ENDBRANCH  49  63
BRANCH  50  75
ATOM     75  C   UNL A   1      42.835  23.733  27.677  1.00  0.00     0.058 A 
ATOM     76  C   UNL A   1      42.614  22.638  28.531  1.00  0.00     0.135 A 
ATOM     77  C   UNL A   1      42.839  23.473  26.298  1.00  0.00     0.135 A 
ATOM     78  F   UNL A   1      42.662  22.799  29.860  1.00  0.00    -0.206 F 
ATOM     79  C   UNL A   1      42.366  21.358  28.048  1.00  0.00     0.059 A 
ATOM     80  C   UNL A   1      42.575  22.202  25.787  1.00  0.00     0.059 A 
ATOM     81  F   UNL A   1      43.069  24.466  25.427  1.00  0.00    -0.206 F 
ATOM     82  C   UNL A   1      42.330  21.152  26.672  1.00  0.00     0.060 A 
BRANCH  82  83
ATOM     83  S   UNL A   1      41.922  19.501  26.070  1.00  0.00     0.124 S 
ATOM     84  O   UNL A   1      42.258  18.674  27.222  1.00  0.00    -0.237 OA
ATOM     85  O   UNL A   1      40.497  19.635  25.776  1.00  0.00    -0.237 OA
ATOM     86  O   UNL A   1      42.786  19.343  24.905  1.00  0.00    -0.744 OA
ENDBRANCH  82  83
ENDBRANCH  50  75
BRANCH  62  87
ATOM     87  C   UNL A   1      48.152  26.935  30.884  1.00  0.00     0.058 A 
ATOM     88  C   UNL A   1      49.246  27.318  30.093  1.00  0.00     0.135 A 
ATOM     89  C   UNL A   1      48.409  26.162  32.029  1.00  0.00     0.135 A 
ATOM     90  F   UNL A   1      49.054  28.058  28.989  1.00  0.00    -0.206 F 
ATOM     91  C   UNL A   1      50.542  26.923  30.404  1.00  0.00     0.059 A 
ATOM     92  C   UNL A   1      49.702  25.778  32.375  1.00  0.00     0.059 A 
ATOM     93  F   UNL A   1      47.402  25.784  32.831  1.00  0.00    -0.206 F 
ATOM     94  C   UNL A   1      50.760  26.149  31.546  1.00  0.00     0.060 A 
BRANCH  94  95
ATOM     95  S   UNL A   1      52.450  25.663  31.957  1.00  0.00     0.124 S 
ATOM     96  O   UNL A   1      53.147  25.947  30.707  1.00  0.00    -0.237 OA
ATOM     97  O   UNL A   1      52.771  26.544  33.076  1.00  0.00    -0.237 OA
ATOM     98  O   UNL A   1      52.320  24.249  32.298  1.00  0.00    -0.744 OA
ENDBRANCH  94  95
ENDBRANCH  62  87
ENDBRANCH  36  37
ENDBRANCH  29  31
ENDBRANCH  28  29
ENDBRANCH  27  28
ENDBRANCH  26  27
ENDBRANCH  25  26
ENDBRANCH  24  25
ENDBRANCH   1  24
TORSDOF 24
ENDMDL
MODEL 2
REMARK VINA RESULT:      -9.0      2.783      4.525
REMARK SMILES COc1ccc(NCc2ccc(C(=O)OCCOCCOCCOC(=O)c3ccc(-c4c5nc(c(-c6c(F)cc(S(=O)(=O)[O-])cc6F)c6ccc([nH]6)c(-c6c(F)cc(S(=O)(=O)[O-])cc6F)c6nc(c(-c7c(F)cc(S(=O)(=O)[O-])cc7F)c7ccc4[nH]7)C=C6)C=C5)cc3)o2)cc1
REMARK SMILES IDX 19 1 18 2 17 3 16 4 15 5 13 6 14 7 12 8 9 9 10 10 93 11
REMARK SMILES IDX 11 12 8 13 7 14 6 16 3 17 4 18 95 19 5 20 94 21 2 22 1 23
REMARK SMILES IDX 20 24 21 25 22 26 23 27 24 28 25 29 26 30 27 31 28 32 92 33
REMARK SMILES IDX 29 34 91 35 30 36 31 37 32 38 85 39 33 40 90 41 84 42 86 43
REMARK SMILES IDX 34 44 89 45 83 46 82 47 35 49 69 50 48 51 68 52 49 53 52 54
REMARK SMILES IDX 67 55 87 56 50 57 51 58 66 60 88 61 53 62 36 63 37 64 46 65
REMARK SMILES IDX 38 66 39 67 45 68 47 69 40 70 41 71 42 72 43 73 44 74 70 75
REMARK SMILES IDX 71 76 80 77 72 78 73 79 79 80 81 81 74 82 75 83 76 84 77 85
REMARK SMILES IDX 78 86 54 87 55 88 64 89 56 90 57 91 63 92 65 93 58 94 59 95
REMARK SMILES IDX 60 96 61 97 62 98
REMARK H PARENT 7 15 86 48 52 59
REMARK Flexibility Score: inf
ROOT
ATOM      1  C   UNL A   1      33.694  31.782  28.138  1.00  0.00     0.188 C 
ENDROOT
BRANCH   1   2
ATOM      2  O   UNL A   1      34.471  30.596  28.014  1.00  0.00    -0.376 OA
BRANCH   2   3
ATOM      3  C   UNL A   1      34.430  29.863  26.794  1.00  0.00     0.202 C 
BRANCH   3   4
ATOM      4  C   UNL A   1      33.055  29.396  26.316  1.00  0.00     0.261 C 
BRANCH   4   5
ATOM      5  O   UNL A   1      32.833  29.722  24.934  1.00  0.00    -0.457 OA
BRANCH   5   6
ATOM      6  C   UNL A   1      33.084  28.715  24.044  1.00  0.00     0.374 C 
ATOM      7  O   UNL A   1      34.133  28.577  23.427  1.00  0.00    -0.242 OA
BRANCH   6   8
ATOM      8  C   UNL A   1      31.975  27.791  24.038  1.00  0.00     0.211 A 
ATOM      9  C   UNL A   1      31.063  25.820  24.430  1.00  0.00     0.124 A 
ATOM     10  C   UNL A   1      30.023  26.674  24.128  1.00  0.00     0.048 A 
ATOM     11  O   UNL A   1      32.250  26.481  24.319  1.00  0.00    -0.452 OA
ATOM     12  C   UNL A   1      30.608  27.944  23.891  1.00  0.00     0.058 A 
BRANCH   9  13
ATOM     13  C   UNL A   1      31.117  24.401  24.903  1.00  0.00     0.188 C 
BRANCH  13  14
ATOM     14  N   UNL A   1      31.928  23.528  24.078  1.00  0.00    -0.378 N 
ATOM     15  H   UNL A   1      31.512  23.183  23.255  1.00  0.00     0.161 HD
BRANCH  14  16
ATOM     16  C   UNL A   1      33.222  23.131  24.331  1.00  0.00     0.035 A 
ATOM     17  C   UNL A   1      35.838  22.272  24.970  1.00  0.00     0.119 A 
ATOM     18  C   UNL A   1      35.622  23.152  23.917  1.00  0.00     0.048 A 
ATOM     19  C   UNL A   1      34.758  21.831  25.725  1.00  0.00     0.048 A 
ATOM     20  C   UNL A   1      34.329  23.581  23.606  1.00  0.00     0.029 A 
ATOM     21  C   UNL A   1      33.463  22.257  25.401  1.00  0.00     0.029 A 
BRANCH  17  22
ATOM     22  O   UNL A   1      37.147  21.945  25.187  1.00  0.00    -0.497 OA
ATOM     23  C   UNL A   1      37.504  20.635  24.772  1.00  0.00     0.278 C 
ENDBRANCH  17  22
ENDBRANCH  14  16
ENDBRANCH  13  14
ENDBRANCH   9  13
ENDBRANCH   6   8
ENDBRANCH   5   6
ENDBRANCH   4   5
ENDBRANCH   3   4
ENDBRANCH   2   3
ENDBRANCH   1   2
BRANCH   1  24
ATOM     24  C   UNL A   1      34.378  33.142  27.899  1.00  0.00     0.188 C 
BRANCH  24  25
ATOM     25  O   UNL A   1      34.172  34.099  28.931  1.00  0.00    -0.376 OA
BRANCH  25  26
ATOM     26  C   UNL A   1      34.672  33.735  30.211  1.00  0.00     0.202 C 
BRANCH  26  27
ATOM     27  C   UNL A   1      36.200  33.653  30.273  1.00  0.00     0.261 C 
BRANCH  27  28
ATOM     28  O   UNL A   1      36.767  32.485  29.657  1.00  0.00    -0.460 OA
BRANCH  28  29
ATOM     29  C   UNL A   1      36.890  31.385  30.433  1.00  0.00     0.338 C 
ATOM     30  O   UNL A   1      36.090  30.969  31.252  1.00  0.00    -0.246 OA
BRANCH  29  31
ATOM     31  C   UNL A   1      38.112  30.670  30.019  1.00  0.00     0.060 A 
ATOM     32  C   UNL A   1      39.108  30.417  30.969  1.00  0.00     0.016 A 
ATOM     33  C   UNL A   1      38.278  30.272  28.690  1.00  0.00     0.016 A 
ATOM     34  C   UNL A   1      40.294  29.792  30.580  1.00  0.00     0.010 A 
ATOM     35  C   UNL A   1      39.469  29.660  28.300  1.00  0.00     0.010 A 
ATOM     36  C   UNL A   1      40.495  29.444  29.235  1.00  0.00    -0.014 A 
BRANCH  36  37
ATOM     37  C   UNL A   1      41.838  29.018  28.769  1.00  0.00     0.031 A 
ATOM     38  C   UNL A   1      42.944  30.038  28.758  1.00  0.00     0.074 A 
ATOM     39  C   UNL A   1      42.060  27.761  28.342  1.00  0.00     0.049 A 
ATOM     40  N   UNL A   1      44.203  29.893  28.446  1.00  0.00    -0.248 NA
ATOM     41  C   UNL A   1      42.577  31.409  29.154  1.00  0.00     0.031 C 
ATOM     42  C   UNL A   1      41.065  26.692  28.329  1.00  0.00     0.029 A 
ATOM     43  N   UNL A   1      43.196  27.169  27.842  1.00  0.00    -0.354 N 
ATOM     44  C   UNL A   1      44.778  31.148  28.598  1.00  0.00     0.074 A 
ATOM     45  C   UNL A   1      43.728  32.051  29.015  1.00  0.00     0.031 C 
ATOM     46  C   UNL A   1      41.637  25.570  27.856  1.00  0.00     0.029 A 
ATOM     47  C   UNL A   1      43.033  25.842  27.516  1.00  0.00     0.049 A 
ATOM     48  H   UNL A   1      44.046  27.652  27.726  1.00  0.00     0.167 HD
ATOM     49  C   UNL A   1      46.068  31.515  28.410  1.00  0.00     0.037 A 
ATOM     50  C   UNL A   1      43.922  24.946  27.030  1.00  0.00     0.037 A 
ATOM     51  C   UNL A   1      47.106  30.608  28.000  1.00  0.00     0.049 A 
ATOM     52  C   UNL A   1      45.353  25.392  26.829  1.00  0.00     0.074 A 
ATOM     53  C   UNL A   1      48.451  30.869  27.805  1.00  0.00     0.029 A 
ATOM     54  N   UNL A   1      46.912  29.265  27.712  1.00  0.00    -0.354 N 
ATOM     55  N   UNL A   1      45.908  26.548  27.108  1.00  0.00    -0.248 NA
ATOM     56  C   UNL A   1      46.287  24.401  26.276  1.00  0.00     0.031 C 
ATOM     57  C   UNL A   1      49.062  29.692  27.361  1.00  0.00     0.029 A 
ATOM     58  C   UNL A   1      48.105  28.690  27.310  1.00  0.00     0.049 A 
ATOM     59  H   UNL A   1      46.051  28.792  27.783  1.00  0.00     0.167 HD
ATOM     60  C   UNL A   1      47.263  26.405  26.819  1.00  0.00     0.074 A 
ATOM     61  C   UNL A   1      47.445  25.043  26.360  1.00  0.00     0.031 C 
ATOM     62  C   UNL A   1      48.267  27.313  26.913  1.00  0.00     0.037 A 
BRANCH  49  63
ATOM     63  C   UNL A   1      46.413  32.962  28.613  1.00  0.00     0.058 A 
ATOM     64  C   UNL A   1      46.339  33.894  27.565  1.00  0.00     0.135 A 
ATOM     65  C   UNL A   1      46.812  33.425  29.875  1.00  0.00     0.135 A 
ATOM     66  F   UNL A   1      45.983  33.499  26.333  1.00  0.00    -0.206 F 
ATOM     67  C   UNL A   1      46.671  35.231  27.758  1.00  0.00     0.059 A 
ATOM     68  C   UNL A   1      47.131  34.761  30.097  1.00  0.00     0.059 A 
ATOM     69  F   UNL A   1      46.906  32.573  30.909  1.00  0.00    -0.206 F 
ATOM     70  C   UNL A   1      47.071  35.654  29.027  1.00  0.00     0.060 A 
BRANCH  70  71
ATOM     71  S   UNL A   1      47.507  37.391  29.265  1.00  0.00     0.124 S 
ATOM     72  O   UNL A   1      48.483  37.594  28.199  1.00  0.00    -0.237 OA
ATOM     73  O   UNL A   1      46.224  38.065  29.087  1.00  0.00    -0.237 OA
ATOM     74  O   UNL A   1      48.044  37.423  30.622  1.00  0.00    -0.744 OA
ENDBRANCH  70  71
ENDBRANCH  49  63
BRANCH  50  75
ATOM     75  C   UNL A   1      43.522  23.519  26.822  1.00  0.00     0.058 A 
ATOM     76  C   UNL A   1      43.281  22.671  27.917  1.00  0.00     0.135 A 
ATOM     77  C   UNL A   1      43.333  22.973  25.542  1.00  0.00     0.135 A 
ATOM     78  F   UNL A   1      43.503  23.103  29.166  1.00  0.00    -0.206 F 
ATOM     79  C   UNL A   1      42.836  21.364  27.761  1.00  0.00     0.059 A 
ATOM     80  C   UNL A   1      42.870  21.670  25.358  1.00  0.00     0.059 A 
ATOM     81  F   UNL A   1      43.570  23.717  24.452  1.00  0.00    -0.206 F 
ATOM     82  C   UNL A   1      42.615  20.877  26.476  1.00  0.00     0.060 A 
BRANCH  82  83
ATOM     83  S   UNL A   1      41.955  19.206  26.303  1.00  0.00     0.124 S 
ATOM     84  O   UNL A   1      42.751  18.685  25.198  1.00  0.00    -0.237 OA
ATOM     85  O   UNL A   1      42.240  18.636  27.617  1.00  0.00    -0.237 OA
ATOM     86  O   UNL A   1      40.542  19.429  26.014  1.00  0.00    -0.744 OA
ENDBRANCH  82  83
ENDBRANCH  50  75
BRANCH  62  87
ATOM     87  C   UNL A   1      49.656  26.852  26.564  1.00  0.00     0.058 A 
ATOM     88  C   UNL A   1      50.524  26.335  27.538  1.00  0.00     0.135 A 
ATOM     89  C   UNL A   1      50.104  26.881  25.233  1.00  0.00     0.135 A 
ATOM     90  F   UNL A   1      50.144  26.285  28.824  1.00  0.00    -0.206 F 
ATOM     91  C   UNL A   1      51.802  25.894  27.211  1.00  0.00     0.059 A 
ATOM     92  C   UNL A   1      51.369  26.418  24.879  1.00  0.00     0.059 A 
ATOM     93  F   UNL A   1      49.307  27.347  24.260  1.00  0.00    -0.206 F 
ATOM     94  C   UNL A   1      52.217  25.943  25.879  1.00  0.00     0.060 A 
BRANCH  94  95
ATOM     95  S   UNL A   1      53.868  25.343  25.460  1.00  0.00     0.124 S 
ATOM     96  O   UNL A   1      54.408  26.473  24.710  1.00  0.00    -0.237 OA
ATOM     97  O   UNL A   1      54.464  25.111  26.772  1.00  0.00    -0.237 OA
ATOM     98  O   UNL A   1      53.601  24.139  24.678  1.00  0.00    -0.744 OA
ENDBRANCH  94  95
ENDBRANCH  62  87
ENDBRANCH  36  37
ENDBRANCH  29  31
ENDBRANCH  28  29
ENDBRANCH  27  28
ENDBRANCH  26  27
ENDBRANCH  25  26
ENDBRANCH  24  25
ENDBRANCH   1  24
TORSDOF 24
ENDMDL
MODEL 3
REMARK VINA RESULT:      -8.8      3.429      5.094
REMARK SMILES COc1ccc(NCc2ccc(C(=O)OCCOCCOCCOC(=O)c3ccc(-c4c5nc(c(-c6c(F)cc(S(=O)(=O)[O-])cc6F)c6ccc([nH]6)c(-c6c(F)cc(S(=O)(=O)[O-])cc6F)c6nc(c(-c7c(F)cc(S(=O)(=O)[O-])cc7F)c7ccc4[nH]7)C=C6)C=C5)cc3)o2)cc1
REMARK SMILES IDX 19 1 18 2 17 3 16 4 15 5 13 6 14 7 12 8 9 9 10 10 93 11
REMARK SMILES IDX 11 12 8 13 7 14 6 16 3 17 4 18 95 19 5 20 94 21 2 22 1 23
REMARK SMILES IDX 20 24 21 25 22 26 23 27 24 28 25 29 26 30 27 31 28 32 92 33
REMARK SMILES IDX 29 34 91 35 30 36 31 37 32 38 85 39 33 40 90 41 84 42 86 43
REMARK SMILES IDX 34 44 89 45 83 46 82 47 35 49 69 50 48 51 68 52 49 53 52 54
REMARK SMILES IDX 67 55 87 56 50 57 51 58 66 60 88 61 53 62 36 63 37 64 46 65
REMARK SMILES IDX 38 66 39 67 45 68 47 69 40 70 41 71 42 72 43 73 44 74 70 75
REMARK SMILES IDX 71 76 80 77 72 78 73 79 79 80 81 81 74 82 75 83 76 84 77 85
REMARK SMILES IDX 78 86 54 87 55 88 64 89 56 90 57 91 63 92 65 93 58 94 59 95
REMARK SMILES IDX 60 96 61 97 62 98
REMARK H PARENT 7 15 86 48 52 59
REMARK Flexibility Score: inf
ROOT
ATOM      1  C   UNL A   1      34.580  32.465  28.613  1.00  0.00     0.188 C 
ENDROOT
BRANCH   1   2
ATOM      2  O   UNL A   1      35.431  31.324  28.614  1.00  0.00    -0.376 OA
BRANCH   2   3
ATOM      3  C   UNL A   1      35.268  30.335  27.602  1.00  0.00     0.202 C 
BRANCH   3   4
ATOM      4  C   UNL A   1      33.847  29.822  27.363  1.00  0.00     0.261 C 
BRANCH   4   5
ATOM      5  O   UNL A   1      33.822  28.397  27.176  1.00  0.00    -0.457 OA
BRANCH   5   6
ATOM      6  C   UNL A   1      32.745  27.913  26.487  1.00  0.00     0.374 C 
ATOM      7  O   UNL A   1      31.712  27.507  27.005  1.00  0.00    -0.242 OA
BRANCH   6   8
ATOM      8  C   UNL A   1      32.974  28.063  25.070  1.00  0.00     0.211 A 
ATOM      9  C   UNL A   1      32.841  27.374  22.978  1.00  0.00     0.124 A 
ATOM     10  C   UNL A   1      33.248  28.691  22.925  1.00  0.00     0.048 A 
ATOM     11  O   UNL A   1      32.731  26.977  24.277  1.00  0.00    -0.452 OA
ATOM     12  C   UNL A   1      33.318  29.139  24.270  1.00  0.00     0.058 A 
BRANCH   9  13
ATOM     13  C   UNL A   1      32.449  26.382  21.928  1.00  0.00     0.188 C 
BRANCH  13  14
ATOM     14  N   UNL A   1      33.164  25.124  22.000  1.00  0.00    -0.378 N 
ATOM     15  H   UNL A   1      33.940  25.020  21.402  1.00  0.00     0.161 HD
BRANCH  14  16
ATOM     16  C   UNL A   1      32.866  24.057  22.818  1.00  0.00     0.035 A 
ATOM     17  C   UNL A   1      32.381  21.822  24.480  1.00  0.00     0.119 A 
ATOM     18  C   UNL A   1      31.324  22.567  23.972  1.00  0.00     0.048 A 
ATOM     19  C   UNL A   1      33.685  22.171  24.146  1.00  0.00     0.048 A 
ATOM     20  C   UNL A   1      31.564  23.668  23.146  1.00  0.00     0.029 A 
ATOM     21  C   UNL A   1      33.919  23.281  23.326  1.00  0.00     0.029 A 
BRANCH  17  22
ATOM     22  O   UNL A   1      32.016  20.760  25.257  1.00  0.00    -0.497 OA
ATOM     23  C   UNL A   1      32.628  19.530  24.901  1.00  0.00     0.278 C 
ENDBRANCH  17  22
ENDBRANCH  14  16
ENDBRANCH  13  14
ENDBRANCH   9  13
ENDBRANCH   6   8
ENDBRANCH   5   6
ENDBRANCH   4   5
ENDBRANCH   3   4
ENDBRANCH   2   3
ENDBRANCH   1   2
BRANCH   1  24
ATOM     24  C   UNL A   1      34.782  33.538  29.699  1.00  0.00     0.188 C 
BRANCH  24  25
ATOM     25  O   UNL A   1      34.008  33.344  30.876  1.00  0.00    -0.376 OA
BRANCH  25  26
ATOM     26  C   UNL A   1      34.262  34.261  31.934  1.00  0.00     0.202 C 
BRANCH  26  27
ATOM     27  C   UNL A   1      35.049  33.650  33.098  1.00  0.00     0.261 C 
BRANCH  27  28
ATOM     28  O   UNL A   1      35.662  32.382  32.814  1.00  0.00    -0.460 OA
BRANCH  28  29
ATOM     29  C   UNL A   1      36.745  32.050  33.552  1.00  0.00     0.338 C 
ATOM     30  O   UNL A   1      36.863  32.126  34.761  1.00  0.00    -0.246 OA
BRANCH  29  31
ATOM     31  C   UNL A   1      37.736  31.429  32.652  1.00  0.00     0.060 A 
ATOM     32  C   UNL A   1      38.820  30.739  33.205  1.00  0.00     0.016 A 
ATOM     33  C   UNL A   1      37.601  31.552  31.266  1.00  0.00     0.016 A 
ATOM     34  C   UNL A   1      39.795  30.194  32.367  1.00  0.00     0.010 A 
ATOM     35  C   UNL A   1      38.584  31.019  30.432  1.00  0.00     0.010 A 
ATOM     36  C   UNL A   1      39.701  30.365  30.978  1.00  0.00    -0.014 A 
BRANCH  36  37
ATOM     37  C   UNL A   1      40.849  30.018  30.105  1.00  0.00     0.031 A 
ATOM     38  C   UNL A   1      41.841  31.100  29.772  1.00  0.00     0.074 A 
ATOM     39  C   UNL A   1      40.992  28.779  29.602  1.00  0.00     0.049 A 
ATOM     40  N   UNL A   1      42.945  31.028  29.078  1.00  0.00    -0.248 NA
ATOM     41  C   UNL A   1      41.546  32.445  30.294  1.00  0.00     0.031 C 
ATOM     42  C   UNL A   1      40.100  27.655  29.875  1.00  0.00     0.029 A 
ATOM     43  N   UNL A   1      41.942  28.255  28.757  1.00  0.00    -0.354 N 
ATOM     44  C   UNL A   1      43.472  32.313  29.071  1.00  0.00     0.074 A 
ATOM     45  C   UNL A   1      42.560  33.152  29.816  1.00  0.00     0.031 C 
ATOM     46  C   UNL A   1      40.553  26.570  29.222  1.00  0.00     0.029 A 
ATOM     47  C   UNL A   1      41.755  26.922  28.468  1.00  0.00     0.049 A 
ATOM     48  H   UNL A   1      42.687  28.785  28.392  1.00  0.00     0.167 HD
ATOM     49  C   UNL A   1      44.617  32.753  28.497  1.00  0.00     0.037 A 
ATOM     50  C   UNL A   1      42.492  26.081  27.708  1.00  0.00     0.037 A 
ATOM     51  C   UNL A   1      45.520  31.909  27.762  1.00  0.00     0.049 A 
ATOM     52  C   UNL A   1      43.763  26.608  27.079  1.00  0.00     0.074 A 
ATOM     53  C   UNL A   1      46.720  32.247  27.163  1.00  0.00     0.029 A 
ATOM     54  N   UNL A   1      45.315  30.559  27.519  1.00  0.00    -0.354 N 
ATOM     55  N   UNL A   1      44.316  27.793  27.197  1.00  0.00    -0.248 NA
ATOM     56  C   UNL A   1      44.527  25.675  26.240  1.00  0.00     0.031 C 
ATOM     57  C   UNL A   1      47.221  31.109  26.522  1.00  0.00     0.029 A 
ATOM     58  C   UNL A   1      46.350  30.054  26.750  1.00  0.00     0.049 A 
ATOM     59  H   UNL A   1      44.546  30.037  27.845  1.00  0.00     0.167 HD
ATOM     60  C   UNL A   1      45.517  27.728  26.495  1.00  0.00     0.074 A 
ATOM     61  C   UNL A   1      45.617  26.381  25.972  1.00  0.00     0.031 C 
ATOM     62  C   UNL A   1      46.451  28.691  26.292  1.00  0.00     0.037 A 
BRANCH  49  63
ATOM     63  C   UNL A   1      44.932  34.217  28.615  1.00  0.00     0.058 A 
ATOM     64  C   UNL A   1      44.368  35.167  27.749  1.00  0.00     0.135 A 
ATOM     65  C   UNL A   1      45.802  34.676  29.615  1.00  0.00     0.135 A 
ATOM     66  F   UNL A   1      43.546  34.778  26.762  1.00  0.00    -0.206 F 
ATOM     67  C   UNL A   1      44.673  36.520  27.857  1.00  0.00     0.059 A 
ATOM     68  C   UNL A   1      46.107  36.026  29.755  1.00  0.00     0.059 A 
ATOM     69  F   UNL A   1      46.373  33.807  30.465  1.00  0.00    -0.206 F 
ATOM     70  C   UNL A   1      45.549  36.939  28.861  1.00  0.00     0.060 A 
BRANCH  70  71
ATOM     71  S   UNL A   1      45.944  38.697  28.988  1.00  0.00     0.124 S 
ATOM     72  O   UNL A   1      47.323  38.719  28.511  1.00  0.00    -0.237 OA
ATOM     73  O   UNL A   1      44.957  39.307  28.103  1.00  0.00    -0.237 OA
ATOM     74  O   UNL A   1      45.767  38.982  30.409  1.00  0.00    -0.744 OA
ENDBRANCH  70  71
ENDBRANCH  49  63
BRANCH  50  75
ATOM     75  C   UNL A   1      42.122  24.635  27.603  1.00  0.00     0.058 A 
ATOM     76  C   UNL A   1      41.123  24.210  26.710  1.00  0.00     0.135 A 
ATOM     77  C   UNL A   1      42.771  23.639  28.350  1.00  0.00     0.135 A 
ATOM     78  F   UNL A   1      40.416  25.109  26.012  1.00  0.00    -0.206 F 
ATOM     79  C   UNL A   1      40.807  22.868  26.532  1.00  0.00     0.059 A 
ATOM     80  C   UNL A   1      42.486  22.284  28.177  1.00  0.00     0.059 A 
ATOM     81  F   UNL A   1      43.717  23.975  29.239  1.00  0.00    -0.206 F 
ATOM     82  C   UNL A   1      41.508  21.909  27.257  1.00  0.00     0.060 A 
BRANCH  82  83
ATOM     83  S   UNL A   1      41.140  20.170  26.944  1.00  0.00     0.124 S 
ATOM     84  O   UNL A   1      42.391  19.702  26.361  1.00  0.00    -0.237 OA
ATOM     85  O   UNL A   1      40.841  19.684  28.289  1.00  0.00    -0.237 OA
ATOM     86  O   UNL A   1      40.000  20.225  26.035  1.00  0.00    -0.744 OA
ENDBRANCH  82  83
ENDBRANCH  50  75
BRANCH  62  87
ATOM     87  C   UNL A   1      47.682  28.312  25.515  1.00  0.00     0.058 A 
ATOM     88  C   UNL A   1      48.915  28.098  26.151  1.00  0.00     0.135 A 
ATOM     89  C   UNL A   1      47.617  28.111  24.126  1.00  0.00     0.135 A 
ATOM     90  F   UNL A   1      49.031  28.276  27.477  1.00  0.00    -0.206 F 
ATOM     91  C   UNL A   1      50.049  27.730  25.434  1.00  0.00     0.059 A 
ATOM     92  C   UNL A   1      48.733  27.716  23.393  1.00  0.00     0.059 A 
ATOM     93  F   UNL A   1      46.459  28.283  23.471  1.00  0.00    -0.206 F 
ATOM     94  C   UNL A   1      49.949  27.546  24.054  1.00  0.00     0.060 A 
BRANCH  94  95
ATOM     95  S   UNL A   1      51.419  27.043  23.135  1.00  0.00     0.124 S 
ATOM     96  O   UNL A   1      52.093  28.322  22.940  1.00  0.00    -0.237 OA
ATOM     97  O   UNL A   1      52.070  26.119  24.058  1.00  0.00    -0.237 OA
ATOM     98  O   UNL A   1      50.870  26.431  21.928  1.00  0.00    -0.744 OA
ENDBRANCH  94  95
ENDBRANCH  62  87
ENDBRANCH  36  37
ENDBRANCH  29  31
ENDBRANCH  28  29
ENDBRANCH  27  28
ENDBRANCH  26  27
ENDBRANCH  25  26
ENDBRANCH  24  25
ENDBRANCH   1  24
TORSDOF 24
ENDMDL
