MODEL 1
REMARK VINA RESULT:     -10.5      0.000      0.000
REMARK SMILES C[C@@H](NC(=O)[C@H]1CC=CC[C@@H]1C(=O)OCCOCCOCCOC(=O)c1ccc(-c2c3nc(c(-c4c(F)cc(S(=O)(=O)[O-])cc4F)c4ccc([nH]4)c(-c4c(F)cc(S(=O)(=O)[O-])cc4F)c4nc(c(-c5c(F)cc(S(=O)(=O)[O-])cc5F)c5ccc2[nH]5)C=C4)C=C3)cc1)c1ccc(-n2ccnc2)cc1
REMARK SMILES IDX 18 1 17 2 16 3 15 4 14 5 12 6 13 7 11 8 6 9 7 10 8 11 10 12
REMARK SMILES IDX 9 13 4 14 3 15 5 17 2 18 1 19 92 20 93 21 102 22 94 23
REMARK SMILES IDX 101 24 95 25 96 26 97 27 100 28 98 29 99 30 19 31 20 32
REMARK SMILES IDX 21 33 22 34 23 35 24 36 25 37 26 38 27 39 91 40 28 41 90 42
REMARK SMILES IDX 29 43 30 44 31 45 84 46 32 47 89 48 83 49 85 50 33 51 88 52
REMARK SMILES IDX 82 53 81 54 34 56 68 57 47 58 67 59 48 60 51 61 66 62 86 63
REMARK SMILES IDX 49 64 50 65 65 67 87 68 52 69 35 70 36 71 45 72 37 73 38 74
REMARK SMILES IDX 44 75 46 76 39 77 40 78 41 79 42 80 43 81 69 82 70 83 79 84
REMARK SMILES IDX 71 85 72 86 78 87 80 88 73 89 74 90 75 91 76 92 77 93 53 94
REMARK SMILES IDX 54 95 63 96 55 97 56 98 62 99 64 100 57 101 58 102 59 103
REMARK SMILES IDX 60 104 61 105
REMARK H PARENT 3 16 85 55 51 66
REMARK Flexibility Score: inf
ROOT
ATOM      1  C   UNL A   1      34.293  30.532  27.125  1.00  0.00     0.188 C 
ENDROOT
BRANCH   1   2
ATOM      2  O   UNL A   1      33.755  29.238  27.289  1.00  0.00    -0.376 OA
BRANCH   2   3
ATOM      3  C   UNL A   1      32.446  29.009  26.786  1.00  0.00     0.202 C 
BRANCH   3   4
ATOM      4  C   UNL A   1      31.430  28.081  27.496  1.00  0.00     0.261 C 
BRANCH   4   5
ATOM      5  O   UNL A   1      30.813  27.022  26.725  1.00  0.00    -0.463 OA
BRANCH   5   6
ATOM      6  C   UNL A   1      31.693  26.189  26.108  1.00  0.00     0.310 C 
ATOM      7  O   UNL A   1      32.456  25.453  26.736  1.00  0.00    -0.252 OA
BRANCH   6   8
ATOM      8  C   UNL A   1      31.739  26.196  24.579  1.00  0.00     0.115 C 
ATOM      9  C   UNL A   1      32.959  26.769  23.791  1.00  0.00     0.097 C 
ATOM     10  C   UNL A   1      32.708  28.027  22.940  1.00  0.00     0.041 C 
ATOM     11  C   UNL A   1      31.300  28.314  22.550  1.00  0.00    -0.030 C 
ATOM     12  C   UNL A   1      30.332  26.596  24.071  1.00  0.00     0.043 C 
ATOM     13  C   UNL A   1      30.243  27.674  23.049  1.00  0.00    -0.030 C 
BRANCH   9  14
ATOM     14  C   UNL A   1      33.463  25.712  22.810  1.00  0.00     0.224 C 
ATOM     15  N   UNL A   1      33.766  24.444  23.181  1.00  0.00    -0.349 N 
ATOM     16  H   UNL A   1      33.762  23.828  22.413  1.00  0.00     0.164 HD
ATOM     17  O   UNL A   1      33.633  25.956  21.611  1.00  0.00    -0.275 OA
BRANCH  15  18
ATOM     18  C   UNL A   1      34.100  23.752  24.433  1.00  0.00     0.109 C 
ATOM     19  C   UNL A   1      35.549  24.144  24.773  1.00  0.00     0.036 C 
BRANCH  18  20
ATOM     20  C   UNL A   1      33.998  22.237  24.455  1.00  0.00    -0.026 A 
ATOM     21  C   UNL A   1      32.751  21.613  24.236  1.00  0.00     0.008 A 
ATOM     22  C   UNL A   1      35.084  21.430  24.826  1.00  0.00     0.008 A 
ATOM     23  C   UNL A   1      32.586  20.230  24.398  1.00  0.00     0.027 A 
ATOM     24  C   UNL A   1      34.945  20.042  24.920  1.00  0.00     0.027 A 
ATOM     25  C   UNL A   1      33.700  19.444  24.700  1.00  0.00     0.046 A 
BRANCH  25  26
ATOM     26  N   UNL A   1      33.621  18.039  24.608  1.00  0.00    -0.306 N 
ATOM     27  C   UNL A   1      32.713  17.191  25.193  1.00  0.00     0.113 A 
ATOM     28  C   UNL A   1      34.419  17.253  23.806  1.00  0.00     0.204 A 
ATOM     29  C   UNL A   1      33.043  15.931  24.744  1.00  0.00     0.131 A 
ATOM     30  N   UNL A   1      34.090  15.982  23.864  1.00  0.00    -0.245 NA
ENDBRANCH  25  26
ENDBRANCH  18  20
ENDBRANCH  15  18
ENDBRANCH   9  14
ENDBRANCH   6   8
ENDBRANCH   5   6
ENDBRANCH   4   5
ENDBRANCH   3   4
ENDBRANCH   2   3
ENDBRANCH   1   2
BRANCH   1  31
ATOM     31  C   UNL A   1      33.345  31.592  27.682  1.00  0.00     0.188 C 
BRANCH  31  32
ATOM     32  O   UNL A   1      33.813  32.928  27.809  1.00  0.00    -0.376 OA
BRANCH  32  33
ATOM     33  C   UNL A   1      33.851  33.556  29.082  1.00  0.00     0.202 C 
BRANCH  33  34
ATOM     34  C   UNL A   1      33.094  34.868  29.323  1.00  0.00     0.261 C 
BRANCH  34  35
ATOM     35  O   UNL A   1      33.598  35.629  30.413  1.00  0.00    -0.460 OA
BRANCH  35  36
ATOM     36  C   UNL A   1      33.350  35.123  31.642  1.00  0.00     0.338 C 
ATOM     37  O   UNL A   1      32.288  34.951  32.196  1.00  0.00    -0.246 OA
BRANCH  36  38
ATOM     38  C   UNL A   1      34.640  34.575  32.077  1.00  0.00     0.060 A 
ATOM     39  C   UNL A   1      34.602  33.363  32.767  1.00  0.00     0.016 A 
ATOM     40  C   UNL A   1      35.845  35.161  31.701  1.00  0.00     0.016 A 
ATOM     41  C   UNL A   1      35.777  32.702  33.074  1.00  0.00     0.010 A 
ATOM     42  C   UNL A   1      37.031  34.511  32.030  1.00  0.00     0.010 A 
ATOM     43  C   UNL A   1      36.995  33.285  32.721  1.00  0.00    -0.014 A 
BRANCH  43  44
ATOM     44  C   UNL A   1      38.239  32.697  33.244  1.00  0.00     0.031 A 
ATOM     45  C   UNL A   1      38.888  31.629  32.422  1.00  0.00     0.074 A 
ATOM     46  C   UNL A   1      38.774  33.143  34.393  1.00  0.00     0.049 A 
ATOM     47  N   UNL A   1      39.879  30.839  32.720  1.00  0.00    -0.248 NA
ATOM     48  C   UNL A   1      38.327  31.418  31.075  1.00  0.00     0.031 C 
ATOM     49  C   UNL A   1      38.260  34.260  35.188  1.00  0.00     0.029 A 
ATOM     50  N   UNL A   1      39.870  32.713  35.088  1.00  0.00    -0.354 N 
ATOM     51  C   UNL A   1      40.024  29.996  31.624  1.00  0.00     0.074 A 
ATOM     52  C   UNL A   1      39.021  30.373  30.655  1.00  0.00     0.031 C 
ATOM     53  C   UNL A   1      39.044  34.426  36.266  1.00  0.00     0.029 A 
ATOM     54  C   UNL A   1      40.068  33.385  36.270  1.00  0.00     0.049 A 
ATOM     55  H   UNL A   1      40.460  31.990  34.773  1.00  0.00     0.167 HD
ATOM     56  C   UNL A   1      40.911  28.989  31.465  1.00  0.00     0.037 A 
ATOM     57  C   UNL A   1      40.955  33.147  37.255  1.00  0.00     0.037 A 
ATOM     58  C   UNL A   1      41.900  28.665  32.457  1.00  0.00     0.049 A 
ATOM     59  C   UNL A   1      41.891  31.978  37.087  1.00  0.00     0.074 A 
ATOM     60  C   UNL A   1      42.861  27.673  32.430  1.00  0.00     0.029 A 
ATOM     61  N   UNL A   1      42.048  29.338  33.665  1.00  0.00    -0.354 N 
ATOM     62  N   UNL A   1      41.997  31.148  36.074  1.00  0.00    -0.248 NA
ATOM     63  C   UNL A   1      42.810  31.700  38.195  1.00  0.00     0.031 C 
ATOM     64  C   UNL A   1      43.551  27.710  33.648  1.00  0.00     0.029 A 
ATOM     65  C   UNL A   1      43.066  28.767  34.406  1.00  0.00     0.049 A 
ATOM     66  H   UNL A   1      41.507  30.109  33.952  1.00  0.00     0.167 HD
ATOM     67  C   UNL A   1      43.014  30.262  36.409  1.00  0.00     0.074 A 
ATOM     68  C   UNL A   1      43.495  30.669  37.717  1.00  0.00     0.031 C 
ATOM     69  C   UNL A   1      43.512  29.213  35.706  1.00  0.00     0.037 A 
BRANCH  56  70
ATOM     70  C   UNL A   1      40.781  28.141  30.229  1.00  0.00     0.058 A 
ATOM     71  C   UNL A   1      39.758  27.192  30.066  1.00  0.00     0.135 A 
ATOM     72  C   UNL A   1      41.731  28.253  29.200  1.00  0.00     0.135 A 
ATOM     73  F   UNL A   1      38.837  27.016  31.028  1.00  0.00    -0.206 F 
ATOM     74  C   UNL A   1      39.708  26.357  28.952  1.00  0.00     0.059 A 
ATOM     75  C   UNL A   1      41.681  27.453  28.062  1.00  0.00     0.059 A 
ATOM     76  F   UNL A   1      42.739  29.133  29.305  1.00  0.00    -0.206 F 
ATOM     77  C   UNL A   1      40.678  26.493  27.958  1.00  0.00     0.060 A 
BRANCH  77  78
ATOM     78  S   UNL A   1      40.614  25.390  26.530  1.00  0.00     0.124 S 
ATOM     79  O   UNL A   1      41.066  26.273  25.459  1.00  0.00    -0.237 OA
ATOM     80  O   UNL A   1      41.544  24.332  26.912  1.00  0.00    -0.237 OA
ATOM     81  O   UNL A   1      39.211  24.995  26.467  1.00  0.00    -0.744 OA
ENDBRANCH  77  78
ENDBRANCH  56  70
BRANCH  57  82
ATOM     82  C   UNL A   1      40.979  34.008  38.468  1.00  0.00     0.058 A 
ATOM     83  C   UNL A   1      41.798  35.146  38.529  1.00  0.00     0.135 A 
ATOM     84  C   UNL A   1      40.157  33.740  39.576  1.00  0.00     0.135 A 
ATOM     85  F   UNL A   1      42.610  35.443  37.504  1.00  0.00    -0.206 F 
ATOM     86  C   UNL A   1      41.800  35.986  39.640  1.00  0.00     0.059 A 
ATOM     87  C   UNL A   1      40.122  34.580  40.686  1.00  0.00     0.059 A 
ATOM     88  F   UNL A   1      39.348  32.670  39.570  1.00  0.00    -0.206 F 
ATOM     89  C   UNL A   1      40.951  35.699  40.710  1.00  0.00     0.060 A 
BRANCH  89  90
ATOM     90  S   UNL A   1      40.915  36.837  42.113  1.00  0.00     0.124 S 
ATOM     91  O   UNL A   1      39.485  36.918  42.390  1.00  0.00    -0.237 OA
ATOM     92  O   UNL A   1      41.718  36.127  43.103  1.00  0.00    -0.237 OA
ATOM     93  O   UNL A   1      41.522  38.052  41.576  1.00  0.00    -0.744 OA
ENDBRANCH  89  90
ENDBRANCH  57  82
BRANCH  69  94
ATOM     94  C   UNL A   1      44.659  28.465  36.324  1.00  0.00     0.058 A 
ATOM     95  C   UNL A   1      44.459  27.325  37.116  1.00  0.00     0.135 A 
ATOM     96  C   UNL A   1      45.979  28.867  36.064  1.00  0.00     0.135 A 
ATOM     97  F   UNL A   1      43.215  26.906  37.398  1.00  0.00    -0.206 F 
ATOM     98  C   UNL A   1      45.531  26.622  37.653  1.00  0.00     0.059 A 
ATOM     99  C   UNL A   1      47.066  28.158  36.561  1.00  0.00     0.059 A 
ATOM    100  F   UNL A   1      46.222  29.944  35.300  1.00  0.00    -0.206 F 
ATOM    101  C   UNL A   1      46.831  27.044  37.365  1.00  0.00     0.060 A 
BRANCH 101 102
ATOM    102  S   UNL A   1      48.213  26.100  38.036  1.00  0.00     0.124 S 
ATOM    103  O   UNL A   1      47.522  25.097  38.838  1.00  0.00    -0.237 OA
ATOM    104  O   UNL A   1      48.867  25.606  36.828  1.00  0.00    -0.237 OA
ATOM    105  O   UNL A   1      48.971  27.095  38.789  1.00  0.00    -0.744 OA
ENDBRANCH 101 102
ENDBRANCH  69  94
ENDBRANCH  43  44
ENDBRANCH  36  38
ENDBRANCH  35  36
ENDBRANCH  34  35
ENDBRANCH  33  34
ENDBRANCH  32  33
ENDBRANCH  31  32
ENDBRANCH   1  31
TORSDOF 24
ENDMDL
MODEL 2
REMARK VINA RESULT:     -10.4      5.469      9.981
REMARK SMILES C[C@@H](NC(=O)[C@H]1CC=CC[C@@H]1C(=O)OCCOCCOCCOC(=O)c1ccc(-c2c3nc(c(-c4c(F)cc(S(=O)(=O)[O-])cc4F)c4ccc([nH]4)c(-c4c(F)cc(S(=O)(=O)[O-])cc4F)c4nc(c(-c5c(F)cc(S(=O)(=O)[O-])cc5F)c5ccc2[nH]5)C=C4)C=C3)cc1)c1ccc(-n2ccnc2)cc1
REMARK SMILES IDX 18 1 17 2 16 3 15 4 14 5 12 6 13 7 11 8 6 9 7 10 8 11 10 12
REMARK SMILES IDX 9 13 4 14 3 15 5 17 2 18 1 19 92 20 93 21 102 22 94 23
REMARK SMILES IDX 101 24 95 25 96 26 97 27 100 28 98 29 99 30 19 31 20 32
REMARK SMILES IDX 21 33 22 34 23 35 24 36 25 37 26 38 27 39 91 40 28 41 90 42
REMARK SMILES IDX 29 43 30 44 31 45 84 46 32 47 89 48 83 49 85 50 33 51 88 52
REMARK SMILES IDX 82 53 81 54 34 56 68 57 47 58 67 59 48 60 51 61 66 62 86 63
REMARK SMILES IDX 49 64 50 65 65 67 87 68 52 69 35 70 36 71 45 72 37 73 38 74
REMARK SMILES IDX 44 75 46 76 39 77 40 78 41 79 42 80 43 81 69 82 70 83 79 84
REMARK SMILES IDX 71 85 72 86 78 87 80 88 73 89 74 90 75 91 76 92 77 93 53 94
REMARK SMILES IDX 54 95 63 96 55 97 56 98 62 99 64 100 57 101 58 102 59 103
REMARK SMILES IDX 60 104 61 105
REMARK H PARENT 3 16 85 55 51 66
REMARK Flexibility Score: inf
ROOT
ATOM      1  C   UNL A   1      34.408  23.356  25.178  1.00  0.00     0.188 C 
ENDROOT
BRANCH   1   2
ATOM      2  O   UNL A   1      33.311  23.805  25.943  1.00  0.00    -0.376 OA
BRANCH   2   3
ATOM      3  C   UNL A   1      32.026  23.313  25.590  1.00  0.00     0.202 C 
BRANCH   3   4
ATOM      4  C   UNL A   1      30.715  23.999  26.047  1.00  0.00     0.261 C 
BRANCH   4   5
ATOM      5  O   UNL A   1      30.239  25.141  25.295  1.00  0.00    -0.463 OA
BRANCH   5   6
ATOM      6  C   UNL A   1      30.691  26.341  25.748  1.00  0.00     0.310 C 
ATOM      7  O   UNL A   1      30.692  26.636  26.945  1.00  0.00    -0.252 OA
BRANCH   6   8
ATOM      8  C   UNL A   1      31.191  27.357  24.720  1.00  0.00     0.115 C 
ATOM      9  C   UNL A   1      31.622  28.802  25.127  1.00  0.00     0.097 C 
ATOM     10  C   UNL A   1      30.763  29.960  24.592  1.00  0.00     0.041 C 
ATOM     11  C   UNL A   1      29.923  29.687  23.393  1.00  0.00    -0.030 C 
ATOM     12  C   UNL A   1      30.300  27.225  23.461  1.00  0.00     0.043 C 
ATOM     13  C   UNL A   1      29.721  28.470  22.887  1.00  0.00    -0.030 C 
BRANCH   9  14
ATOM     14  C   UNL A   1      33.032  29.069  24.604  1.00  0.00     0.224 C 
ATOM     15  N   UNL A   1      34.114  29.173  25.413  1.00  0.00    -0.349 N 
ATOM     16  H   UNL A   1      34.954  29.026  24.922  1.00  0.00     0.164 HD
ATOM     17  O   UNL A   1      33.269  29.217  23.400  1.00  0.00    -0.275 OA
BRANCH  15  18
ATOM     18  C   UNL A   1      34.357  29.449  26.836  1.00  0.00     0.109 C 
ATOM     19  C   UNL A   1      33.377  28.561  27.624  1.00  0.00     0.036 C 
BRANCH  18  20
ATOM     20  C   UNL A   1      34.196  30.881  27.317  1.00  0.00    -0.026 A 
ATOM     21  C   UNL A   1      32.930  31.502  27.264  1.00  0.00     0.008 A 
ATOM     22  C   UNL A   1      35.300  31.662  27.688  1.00  0.00     0.008 A 
ATOM     23  C   UNL A   1      32.770  32.865  27.555  1.00  0.00     0.027 A 
ATOM     24  C   UNL A   1      35.139  33.004  28.048  1.00  0.00     0.027 A 
ATOM     25  C   UNL A   1      33.876  33.600  27.987  1.00  0.00     0.046 A 
BRANCH  25  26
ATOM     26  N   UNL A   1      33.698  34.888  28.535  1.00  0.00    -0.306 N 
ATOM     27  C   UNL A   1      34.203  36.085  28.093  1.00  0.00     0.113 A 
ATOM     28  C   UNL A   1      32.875  35.187  29.599  1.00  0.00     0.204 A 
ATOM     29  C   UNL A   1      33.690  37.038  28.946  1.00  0.00     0.131 A 
ATOM     30  N   UNL A   1      32.847  36.474  29.864  1.00  0.00    -0.245 NA
ENDBRANCH  25  26
ENDBRANCH  18  20
ENDBRANCH  15  18
ENDBRANCH   9  14
ENDBRANCH   6   8
ENDBRANCH   5   6
ENDBRANCH   4   5
ENDBRANCH   3   4
ENDBRANCH   2   3
ENDBRANCH   1   2
BRANCH   1  31
ATOM     31  C   UNL A   1      34.403  21.833  25.059  1.00  0.00     0.188 C 
BRANCH  31  32
ATOM     32  O   UNL A   1      35.574  21.181  24.586  1.00  0.00    -0.376 OA
BRANCH  32  33
ATOM     33  C   UNL A   1      36.814  21.872  24.548  1.00  0.00     0.202 C 
BRANCH  33  34
ATOM     34  C   UNL A   1      37.997  21.392  25.399  1.00  0.00     0.261 C 
BRANCH  34  35
ATOM     35  O   UNL A   1      38.884  22.433  25.785  1.00  0.00    -0.460 OA
BRANCH  35  36
ATOM     36  C   UNL A   1      39.870  22.073  26.637  1.00  0.00     0.338 C 
ATOM     37  O   UNL A   1      40.353  20.980  26.826  1.00  0.00    -0.246 OA
BRANCH  36  38
ATOM     38  C   UNL A   1      40.422  23.346  27.113  1.00  0.00     0.060 A 
ATOM     39  C   UNL A   1      39.977  24.500  26.469  1.00  0.00     0.016 A 
ATOM     40  C   UNL A   1      41.241  23.409  28.237  1.00  0.00     0.016 A 
ATOM     41  C   UNL A   1      40.327  25.746  26.957  1.00  0.00     0.010 A 
ATOM     42  C   UNL A   1      41.616  24.661  28.716  1.00  0.00     0.010 A 
ATOM     43  C   UNL A   1      41.162  25.828  28.072  1.00  0.00    -0.014 A 
BRANCH  43  44
ATOM     44  C   UNL A   1      41.712  27.140  28.449  1.00  0.00     0.031 A 
ATOM     45  C   UNL A   1      43.165  27.374  28.177  1.00  0.00     0.074 A 
ATOM     46  C   UNL A   1      40.918  28.089  28.972  1.00  0.00     0.049 A 
ATOM     47  N   UNL A   1      43.931  28.357  28.554  1.00  0.00    -0.248 NA
ATOM     48  C   UNL A   1      43.849  26.343  27.377  1.00  0.00     0.031 C 
ATOM     49  C   UNL A   1      39.471  27.972  29.157  1.00  0.00     0.029 A 
ATOM     50  N   UNL A   1      41.217  29.337  29.444  1.00  0.00    -0.354 N 
ATOM     51  C   UNL A   1      45.202  28.036  28.089  1.00  0.00     0.074 A 
ATOM     52  C   UNL A   1      45.101  26.769  27.401  1.00  0.00     0.031 C 
ATOM     53  C   UNL A   1      39.007  29.108  29.704  1.00  0.00     0.029 A 
ATOM     54  C   UNL A   1      40.134  29.998  29.970  1.00  0.00     0.049 A 
ATOM     55  H   UNL A   1      42.122  29.725  29.410  1.00  0.00     0.167 HD
ATOM     56  C   UNL A   1      46.344  28.741  28.246  1.00  0.00     0.037 A 
ATOM     57  C   UNL A   1      40.081  31.171  30.629  1.00  0.00     0.037 A 
ATOM     58  C   UNL A   1      46.386  30.006  28.927  1.00  0.00     0.049 A 
ATOM     59  C   UNL A   1      41.377  31.908  30.852  1.00  0.00     0.074 A 
ATOM     60  C   UNL A   1      47.471  30.828  29.161  1.00  0.00     0.029 A 
ATOM     61  N   UNL A   1      45.277  30.631  29.489  1.00  0.00    -0.354 N 
ATOM     62  N   UNL A   1      42.587  31.582  30.457  1.00  0.00    -0.248 NA
ATOM     63  C   UNL A   1      41.307  33.155  31.621  1.00  0.00     0.031 C 
ATOM     64  C   UNL A   1      47.027  31.921  29.914  1.00  0.00     0.029 A 
ATOM     65  C   UNL A   1      45.654  31.816  30.093  1.00  0.00     0.049 A 
ATOM     66  H   UNL A   1      44.357  30.281  29.460  1.00  0.00     0.167 HD
ATOM     67  C   UNL A   1      43.423  32.597  30.906  1.00  0.00     0.074 A 
ATOM     68  C   UNL A   1      42.572  33.552  31.595  1.00  0.00     0.031 C 
ATOM     69  C   UNL A   1      44.766  32.736  30.764  1.00  0.00     0.037 A 
BRANCH  56  70
ATOM     70  C   UNL A   1      47.618  28.112  27.751  1.00  0.00     0.058 A 
ATOM     71  C   UNL A   1      48.369  27.211  28.525  1.00  0.00     0.135 A 
ATOM     72  C   UNL A   1      48.121  28.454  26.484  1.00  0.00     0.135 A 
ATOM     73  F   UNL A   1      47.957  26.868  29.755  1.00  0.00    -0.206 F 
ATOM     74  C   UNL A   1      49.590  26.709  28.080  1.00  0.00     0.059 A 
ATOM     75  C   UNL A   1      49.322  27.938  26.005  1.00  0.00     0.059 A 
ATOM     76  F   UNL A   1      47.454  29.319  25.704  1.00  0.00    -0.206 F 
ATOM     77  C   UNL A   1      50.059  27.083  26.820  1.00  0.00     0.060 A 
BRANCH  77  78
ATOM     78  S   UNL A   1      51.654  26.443  26.265  1.00  0.00     0.124 S 
ATOM     79  O   UNL A   1      52.050  25.620  27.404  1.00  0.00    -0.237 OA
ATOM     80  O   UNL A   1      51.292  25.714  25.053  1.00  0.00    -0.237 OA
ATOM     81  O   UNL A   1      52.451  27.647  26.055  1.00  0.00    -0.744 OA
ENDBRANCH  77  78
ENDBRANCH  56  70
BRANCH  57  82
ATOM     82  C   UNL A   1      38.782  31.694  31.130  1.00  0.00     0.058 A 
ATOM     83  C   UNL A   1      38.260  31.269  32.362  1.00  0.00     0.135 A 
ATOM     84  C   UNL A   1      38.051  32.658  30.415  1.00  0.00     0.135 A 
ATOM     85  F   UNL A   1      38.911  30.343  33.082  1.00  0.00    -0.206 F 
ATOM     86  C   UNL A   1      37.067  31.780  32.866  1.00  0.00     0.059 A 
ATOM     87  C   UNL A   1      36.869  33.202  30.910  1.00  0.00     0.059 A 
ATOM     88  F   UNL A   1      38.506  33.106  29.235  1.00  0.00    -0.206 F 
ATOM     89  C   UNL A   1      36.383  32.754  32.136  1.00  0.00     0.060 A 
BRANCH  89  90
ATOM     90  S   UNL A   1      34.873  33.457  32.836  1.00  0.00     0.124 S 
ATOM     91  O   UNL A   1      33.844  32.655  32.184  1.00  0.00    -0.237 OA
ATOM     92  O   UNL A   1      35.059  33.221  34.263  1.00  0.00    -0.237 OA
ATOM     93  O   UNL A   1      34.934  34.858  32.426  1.00  0.00    -0.744 OA
ENDBRANCH  89  90
ENDBRANCH  57  82
BRANCH  69  94
ATOM     94  C   UNL A   1      45.382  33.985  31.328  1.00  0.00     0.058 A 
ATOM     95  C   UNL A   1      45.500  35.160  30.572  1.00  0.00     0.135 A 
ATOM     96  C   UNL A   1      45.805  34.015  32.667  1.00  0.00     0.135 A 
ATOM     97  F   UNL A   1      45.116  35.178  29.285  1.00  0.00    -0.206 F 
ATOM     98  C   UNL A   1      46.040  36.318  31.116  1.00  0.00     0.059 A 
ATOM     99  C   UNL A   1      46.315  35.172  33.242  1.00  0.00     0.059 A 
ATOM    100  F   UNL A   1      45.701  32.919  33.436  1.00  0.00    -0.206 F 
ATOM    101  C   UNL A   1      46.440  36.316  32.454  1.00  0.00     0.060 A 
BRANCH 101 102
ATOM    102  S   UNL A   1      47.104  37.837  33.160  1.00  0.00     0.124 S 
ATOM    103  O   UNL A   1      46.927  37.599  34.589  1.00  0.00    -0.237 OA
ATOM    104  O   UNL A   1      48.483  37.825  32.682  1.00  0.00    -0.237 OA
ATOM    105  O   UNL A   1      46.257  38.877  32.586  1.00  0.00    -0.744 OA
ENDBRANCH 101 102
ENDBRANCH  69  94
ENDBRANCH  43  44
ENDBRANCH  36  38
ENDBRANCH  35  36
ENDBRANCH  34  35
ENDBRANCH  33  34
ENDBRANCH  32  33
ENDBRANCH  31  32
ENDBRANCH   1  31
TORSDOF 24
ENDMDL
MODEL 3
REMARK VINA RESULT:     -10.3      6.427     11.266
REMARK SMILES C[C@@H](NC(=O)[C@H]1CC=CC[C@@H]1C(=O)OCCOCCOCCOC(=O)c1ccc(-c2c3nc(c(-c4c(F)cc(S(=O)(=O)[O-])cc4F)c4ccc([nH]4)c(-c4c(F)cc(S(=O)(=O)[O-])cc4F)c4nc(c(-c5c(F)cc(S(=O)(=O)[O-])cc5F)c5ccc2[nH]5)C=C4)C=C3)cc1)c1ccc(-n2ccnc2)cc1
REMARK SMILES IDX 18 1 17 2 16 3 15 4 14 5 12 6 13 7 11 8 6 9 7 10 8 11 10 12
REMARK SMILES IDX 9 13 4 14 3 15 5 17 2 18 1 19 92 20 93 21 102 22 94 23
REMARK SMILES IDX 101 24 95 25 96 26 97 27 100 28 98 29 99 30 19 31 20 32
REMARK SMILES IDX 21 33 22 34 23 35 24 36 25 37 26 38 27 39 91 40 28 41 90 42
REMARK SMILES IDX 29 43 30 44 31 45 84 46 32 47 89 48 83 49 85 50 33 51 88 52
REMARK SMILES IDX 82 53 81 54 34 56 68 57 47 58 67 59 48 60 51 61 66 62 86 63
REMARK SMILES IDX 49 64 50 65 65 67 87 68 52 69 35 70 36 71 45 72 37 73 38 74
REMARK SMILES IDX 44 75 46 76 39 77 40 78 41 79 42 80 43 81 69 82 70 83 79 84
REMARK SMILES IDX 71 85 72 86 78 87 80 88 73 89 74 90 75 91 76 92 77 93 53 94
REMARK SMILES IDX 54 95 63 96 55 97 56 98 62 99 64 100 57 101 58 102 59 103
REMARK SMILES IDX 60 104 61 105
REMARK H PARENT 3 16 85 55 51 66
REMARK Flexibility Score: inf
ROOT
ATOM      1  C   UNL A   1      32.720  28.639  26.871  1.00  0.00     0.188 C 
ENDROOT
BRANCH   1   2
ATOM      2  O   UNL A   1      31.912  27.684  27.524  1.00  0.00    -0.376 OA
BRANCH   2   3
ATOM      3  C   UNL A   1      32.030  26.333  27.101  1.00  0.00     0.202 C 
BRANCH   3   4
ATOM      4  C   UNL A   1      30.823  25.511  26.586  1.00  0.00     0.261 C 
BRANCH   4   5
ATOM      5  O   UNL A   1      30.877  24.068  26.698  1.00  0.00    -0.463 OA
BRANCH   5   6
ATOM      6  C   UNL A   1      32.127  23.563  26.872  1.00  0.00     0.310 C 
ATOM      7  O   UNL A   1      32.467  22.983  27.905  1.00  0.00    -0.252 OA
BRANCH   6   8
ATOM      8  C   UNL A   1      33.143  23.751  25.744  1.00  0.00     0.115 C 
ATOM      9  C   UNL A   1      32.828  23.337  24.271  1.00  0.00     0.097 C 
ATOM     10  C   UNL A   1      33.661  22.186  23.680  1.00  0.00     0.041 C 
ATOM     11  C   UNL A   1      34.967  21.887  24.331  1.00  0.00    -0.030 C 
ATOM     12  C   UNL A   1      34.533  23.355  26.296  1.00  0.00     0.043 C 
ATOM     13  C   UNL A   1      35.357  22.411  25.493  1.00  0.00    -0.030 C 
BRANCH   9  14
ATOM     14  C   UNL A   1      33.078  24.531  23.351  1.00  0.00     0.224 C 
ATOM     15  N   UNL A   1      32.280  25.626  23.328  1.00  0.00    -0.349 N 
ATOM     16  H   UNL A   1      32.740  26.405  22.939  1.00  0.00     0.164 HD
ATOM     17  O   UNL A   1      34.027  24.564  22.560  1.00  0.00    -0.275 OA
BRANCH  15  18
ATOM     18  C   UNL A   1      30.906  25.951  23.734  1.00  0.00     0.109 C 
ATOM     19  C   UNL A   1      30.003  24.870  23.113  1.00  0.00     0.036 C 
BRANCH  18  20
ATOM     20  C   UNL A   1      30.356  27.313  23.346  1.00  0.00    -0.026 A 
ATOM     21  C   UNL A   1      31.193  28.447  23.390  1.00  0.00     0.008 A 
ATOM     22  C   UNL A   1      28.993  27.507  23.076  1.00  0.00     0.008 A 
ATOM     23  C   UNL A   1      30.687  29.740  23.189  1.00  0.00     0.027 A 
ATOM     24  C   UNL A   1      28.493  28.784  22.803  1.00  0.00     0.027 A 
ATOM     25  C   UNL A   1      29.340  29.896  22.853  1.00  0.00     0.046 A 
BRANCH  25  26
ATOM     26  N   UNL A   1      28.867  31.140  22.389  1.00  0.00    -0.306 N 
ATOM     27  C   UNL A   1      28.236  31.431  21.205  1.00  0.00     0.113 A 
ATOM     28  C   UNL A   1      28.875  32.311  23.117  1.00  0.00     0.204 A 
ATOM     29  C   UNL A   1      27.937  32.774  21.267  1.00  0.00     0.131 A 
ATOM     30  N   UNL A   1      28.316  33.307  22.469  1.00  0.00    -0.245 NA
ENDBRANCH  25  26
ENDBRANCH  18  20
ENDBRANCH  15  18
ENDBRANCH   9  14
ENDBRANCH   6   8
ENDBRANCH   5   6
ENDBRANCH   4   5
ENDBRANCH   3   4
ENDBRANCH   2   3
ENDBRANCH   1   2
BRANCH   1  31
ATOM     31  C   UNL A   1      32.243  30.057  27.176  1.00  0.00     0.188 C 
BRANCH  31  32
ATOM     32  O   UNL A   1      33.190  31.116  27.156  1.00  0.00    -0.376 OA
BRANCH  32  33
ATOM     33  C   UNL A   1      34.360  31.047  27.957  1.00  0.00     0.202 C 
BRANCH  33  34
ATOM     34  C   UNL A   1      34.650  32.130  29.004  1.00  0.00     0.261 C 
BRANCH  34  35
ATOM     35  O   UNL A   1      36.017  32.204  29.388  1.00  0.00    -0.460 OA
BRANCH  35  36
ATOM     36  C   UNL A   1      36.390  31.365  30.379  1.00  0.00     0.338 C 
ATOM     37  O   UNL A   1      35.740  30.947  31.310  1.00  0.00    -0.246 OA
BRANCH  36  38
ATOM     38  C   UNL A   1      37.694  30.849  29.947  1.00  0.00     0.060 A 
ATOM     39  C   UNL A   1      38.607  30.537  30.956  1.00  0.00     0.016 A 
ATOM     40  C   UNL A   1      37.957  30.557  28.612  1.00  0.00     0.016 A 
ATOM     41  C   UNL A   1      39.795  29.902  30.644  1.00  0.00     0.010 A 
ATOM     42  C   UNL A   1      39.162  29.940  28.292  1.00  0.00     0.010 A 
ATOM     43  C   UNL A   1      40.082  29.618  29.307  1.00  0.00    -0.014 A 
BRANCH  43  44
ATOM     44  C   UNL A   1      41.434  29.152  28.958  1.00  0.00     0.031 A 
ATOM     45  C   UNL A   1      42.541  30.155  29.029  1.00  0.00     0.074 A 
ATOM     46  C   UNL A   1      41.650  27.866  28.634  1.00  0.00     0.049 A 
ATOM     47  N   UNL A   1      43.774  30.061  28.622  1.00  0.00    -0.248 NA
ATOM     48  C   UNL A   1      42.200  31.455  29.636  1.00  0.00     0.031 C 
ATOM     49  C   UNL A   1      40.640  26.807  28.657  1.00  0.00     0.029 A 
ATOM     50  N   UNL A   1      42.791  27.234  28.224  1.00  0.00    -0.354 N 
ATOM     51  C   UNL A   1      44.342  31.306  28.867  1.00  0.00     0.074 A 
ATOM     52  C   UNL A   1      43.320  32.137  29.459  1.00  0.00     0.031 C 
ATOM     53  C   UNL A   1      41.210  25.652  28.277  1.00  0.00     0.029 A 
ATOM     54  C   UNL A   1      42.602  25.907  27.918  1.00  0.00     0.049 A 
ATOM     55  H   UNL A   1      43.663  27.684  28.154  1.00  0.00     0.167 HD
ATOM     56  C   UNL A   1      45.604  31.708  28.598  1.00  0.00     0.037 A 
ATOM     57  C   UNL A   1      43.456  25.023  27.368  1.00  0.00     0.037 A 
ATOM     58  C   UNL A   1      46.589  30.834  28.021  1.00  0.00     0.049 A 
ATOM     59  C   UNL A   1      44.837  25.511  27.015  1.00  0.00     0.074 A 
ATOM     60  C   UNL A   1      47.903  31.106  27.695  1.00  0.00     0.029 A 
ATOM     61  N   UNL A   1      46.354  29.505  27.681  1.00  0.00    -0.354 N 
ATOM     62  N   UNL A   1      45.362  26.701  27.200  1.00  0.00    -0.248 NA
ATOM     63  C   UNL A   1      45.735  24.550  26.366  1.00  0.00     0.031 C 
ATOM     64  C   UNL A   1      48.445  29.958  27.104  1.00  0.00     0.029 A 
ATOM     65  C   UNL A   1      47.491  28.950  27.123  1.00  0.00     0.049 A 
ATOM     66  H   UNL A   1      45.504  29.029  27.817  1.00  0.00     0.167 HD
ATOM     67  C   UNL A   1      46.662  26.627  26.713  1.00  0.00     0.074 A 
ATOM     68  C   UNL A   1      46.842  25.268  26.236  1.00  0.00     0.031 C 
ATOM     69  C   UNL A   1      47.622  27.586  26.665  1.00  0.00     0.037 A 
BRANCH  56  70
ATOM     70  C   UNL A   1      45.937  33.154  28.848  1.00  0.00     0.058 A 
ATOM     71  C   UNL A   1      45.700  34.161  27.898  1.00  0.00     0.135 A 
ATOM     72  C   UNL A   1      46.550  33.532  30.055  1.00  0.00     0.135 A 
ATOM     73  F   UNL A   1      45.145  33.858  26.714  1.00  0.00    -0.206 F 
ATOM     74  C   UNL A   1      46.096  35.479  28.117  1.00  0.00     0.059 A 
ATOM     75  C   UNL A   1      46.923  34.848  30.309  1.00  0.00     0.059 A 
ATOM     76  F   UNL A   1      46.813  32.612  30.996  1.00  0.00    -0.206 F 
ATOM     77  C   UNL A   1      46.712  35.810  29.325  1.00  0.00     0.060 A 
BRANCH  77  78
ATOM     78  S   UNL A   1      47.240  37.517  29.586  1.00  0.00     0.124 S 
ATOM     79  O   UNL A   1      46.225  38.254  28.840  1.00  0.00    -0.237 OA
ATOM     80  O   UNL A   1      47.175  37.644  31.039  1.00  0.00    -0.237 OA
ATOM     81  O   UNL A   1      48.583  37.549  29.017  1.00  0.00    -0.744 OA
ENDBRANCH  77  78
ENDBRANCH  56  70
BRANCH  57  82
ATOM     82  C   UNL A   1      43.024  23.623  27.108  1.00  0.00     0.058 A 
ATOM     83  C   UNL A   1      42.720  23.193  25.808  1.00  0.00     0.135 A 
ATOM     84  C   UNL A   1      42.946  22.674  28.141  1.00  0.00     0.135 A 
ATOM     85  F   UNL A   1      42.769  24.059  24.786  1.00  0.00    -0.206 F 
ATOM     86  C   UNL A   1      42.356  21.875  25.541  1.00  0.00     0.059 A 
ATOM     87  C   UNL A   1      42.610  21.345  27.895  1.00  0.00     0.059 A 
ATOM     88  F   UNL A   1      43.233  23.028  29.403  1.00  0.00    -0.206 F 
ATOM     89  C   UNL A   1      42.313  20.956  26.591  1.00  0.00     0.060 A 
BRANCH  89  90
ATOM     90  S   UNL A   1      41.907  19.236  26.218  1.00  0.00     0.124 S 
ATOM     91  O   UNL A   1      42.202  18.581  27.487  1.00  0.00    -0.237 OA
ATOM     92  O   UNL A   1      40.496  19.326  25.858  1.00  0.00    -0.237 OA
ATOM     93  O   UNL A   1      42.808  18.909  25.116  1.00  0.00    -0.744 OA
ENDBRANCH  89  90
ENDBRANCH  57  82
BRANCH  69  94
ATOM     94  C   UNL A   1      48.960  27.179  26.116  1.00  0.00     0.058 A 
ATOM     95  C   UNL A   1      49.286  27.341  24.762  1.00  0.00     0.135 A 
ATOM     96  C   UNL A   1      49.948  26.677  26.979  1.00  0.00     0.135 A 
ATOM     97  F   UNL A   1      48.371  27.811  23.897  1.00  0.00    -0.206 F 
ATOM     98  C   UNL A   1      50.539  26.994  24.274  1.00  0.00     0.059 A 
ATOM     99  C   UNL A   1      51.219  26.357  26.519  1.00  0.00     0.059 A 
ATOM    100  F   UNL A   1      49.689  26.517  28.286  1.00  0.00    -0.206 F 
ATOM    101  C   UNL A   1      51.501  26.507  25.162  1.00  0.00     0.060 A 
BRANCH 101 102
ATOM    102  S   UNL A   1      53.137  26.096  24.523  1.00  0.00     0.124 S 
ATOM    103  O   UNL A   1      53.980  27.039  25.249  1.00  0.00    -0.237 OA
ATOM    104  O   UNL A   1      53.276  24.694  24.906  1.00  0.00    -0.237 OA
ATOM    105  O   UNL A   1      53.012  26.338  23.089  1.00  0.00    -0.744 OA
ENDBRANCH 101 102
ENDBRANCH  69  94
ENDBRANCH  43  44
ENDBRANCH  36  38
ENDBRANCH  35  36
ENDBRANCH  34  35
ENDBRANCH  33  34
ENDBRANCH  32  33
ENDBRANCH  31  32
ENDBRANCH   1  31
TORSDOF 24
ENDMDL
