MODEL 1
REMARK VINA RESULT:     -10.5      0.000      0.000
REMARK SMILES C[C@@](NC(=O)CCOC1CC[NH2+]CC1)(C(=O)OCCOCCOCCOC(=O)c1ccc(-c2c3nc(c(-c4c(F)cc(S(=O)(=O)[O-])cc4F)c4ccc([nH]4)c(-c4c(F)cc(S(=O)(=O)[O-])cc4F)c4nc(c(-c5c(F)cc(S(=O)(=O)[O-])cc5F)c5ccc2[nH]5)C=C4)C=C3)cc1)C(F)(F)F
REMARK SMILES IDX 21 1 20 2 19 3 18 4 17 5 15 6 16 7 2 8 1 9 3 10 4 11 5 13
REMARK SMILES IDX 6 14 7 15 8 16 9 17 10 18 14 19 11 20 13 21 12 22 95 25
REMARK SMILES IDX 96 26 97 27 98 28 22 29 23 30 24 31 25 32 26 33 27 34 28 35
REMARK SMILES IDX 29 36 30 37 94 38 31 39 93 40 32 41 33 42 34 43 87 44 35 45
REMARK SMILES IDX 92 46 86 47 88 48 36 49 91 50 85 51 84 52 37 54 71 55 50 56
REMARK SMILES IDX 70 57 51 58 54 59 69 60 89 61 52 62 53 63 68 65 90 66 55 67
REMARK SMILES IDX 38 68 39 69 48 70 40 71 41 72 47 73 49 74 42 75 43 76 44 77
REMARK SMILES IDX 45 78 46 79 72 80 73 81 82 82 74 83 75 84 81 85 83 86 76 87
REMARK SMILES IDX 77 88 78 89 79 90 80 91 56 92 57 93 66 94 58 95 59 96 65 97
REMARK SMILES IDX 67 98 60 99 61 100 62 101 63 102 64 103
REMARK H PARENT 3 12 12 23 12 24 88 53 54 64
REMARK Flexibility Score: inf
ROOT
ATOM      1  C   UNL A   1      36.329  21.848  25.752  1.00  0.00     0.188 C 
ENDROOT
BRANCH   1   2
ATOM      2  O   UNL A   1      34.979  21.442  25.559  1.00  0.00    -0.376 OA
BRANCH   2   3
ATOM      3  C   UNL A   1      34.724  20.197  24.936  1.00  0.00     0.202 C 
BRANCH   3   4
ATOM      4  C   UNL A   1      33.302  19.690  25.145  1.00  0.00     0.261 C 
BRANCH   4   5
ATOM      5  O   UNL A   1      32.297  20.020  24.145  1.00  0.00    -0.461 OA
BRANCH   5   6
ATOM      6  C   UNL A   1      32.075  21.325  23.599  1.00  0.00     0.341 C 
ATOM      7  O   UNL A   1      32.139  21.087  22.344  1.00  0.00    -0.249 OA
BRANCH   6   8
ATOM      8  C   UNL A   1      31.676  23.081  24.746  1.00  0.00     0.231 C 
ATOM      9  C   UNL A   1      32.833  24.337  25.085  1.00  0.00     0.058 C 
BRANCH   8  10
ATOM     10  N   UNL A   1      30.417  24.342  24.351  1.00  0.00    -0.333 N 
ATOM     11  C   UNL A   1      30.200  25.613  23.858  1.00  0.00     0.223 C 
ATOM     12  H   UNL A   1      29.538  23.963  24.583  1.00  0.00     0.164 HD
ATOM     13  O   UNL A   1      29.229  26.216  24.335  1.00  0.00    -0.275 OA
BRANCH  11  14
ATOM     14  C   UNL A   1      30.967  26.272  22.680  1.00  0.00     0.128 C 
BRANCH  14  15
ATOM     15  C   UNL A   1      30.863  27.783  22.475  1.00  0.00     0.170 C 
BRANCH  15  16
ATOM     16  O   UNL A   1      31.971  28.560  22.935  1.00  0.00    -0.377 OA
BRANCH  16  17
ATOM     17  C   UNL A   1      31.954  28.638  24.358  1.00  0.00     0.129 C 
ATOM     18  C   UNL A   1      31.258  30.260  25.154  1.00  0.00     0.093 C 
ATOM     19  C   UNL A   1      33.700  27.967  25.071  1.00  0.00     0.093 C 
ATOM     20  C   UNL A   1      31.946  30.775  26.866  1.00  0.00     0.263 C 
ATOM     21  C   UNL A   1      34.369  28.673  26.719  1.00  0.00     0.263 C 
ATOM     22  N   UNL A   1      33.322  29.859  27.663  1.00  0.00    -0.346 N 
ATOM     23  H   UNL A   1      32.906  29.328  28.429  1.00  0.00     0.346 HD
ATOM     24  H   UNL A   1      33.982  30.604  27.882  1.00  0.00     0.346 HD
ENDBRANCH  16  17
ENDBRANCH  15  16
ENDBRANCH  14  15
ENDBRANCH  11  14
ENDBRANCH   8  10
BRANCH   8  25
ATOM     25  C   UNL A   1      31.142  23.143  26.490  1.00  0.00     0.422 C 
ATOM     26  F   UNL A   1      29.972  22.585  26.856  1.00  0.00    -0.168 F 
ATOM     27  F   UNL A   1      32.066  22.402  27.220  1.00  0.00    -0.168 F 
ATOM     28  F   UNL A   1      31.299  24.347  27.089  1.00  0.00    -0.168 F 
ENDBRANCH   8  25
ENDBRANCH   6   8
ENDBRANCH   5   6
ENDBRANCH   4   5
ENDBRANCH   3   4
ENDBRANCH   2   3
ENDBRANCH   1   2
BRANCH   1  29
ATOM     29  C   UNL A   1      37.414  21.340  24.793  1.00  0.00     0.188 C 
BRANCH  29  30
ATOM     30  O   UNL A   1      37.521  19.945  24.533  1.00  0.00    -0.376 OA
BRANCH  30  31
ATOM     31  C   UNL A   1      38.430  19.206  25.336  1.00  0.00     0.202 C 
BRANCH  31  32
ATOM     32  C   UNL A   1      39.603  20.003  25.925  1.00  0.00     0.261 C 
BRANCH  32  33
ATOM     33  O   UNL A   1      40.873  19.598  25.370  1.00  0.00    -0.460 OA
BRANCH  33  34
ATOM     34  C   UNL A   1      41.934  19.605  26.218  1.00  0.00     0.338 C 
ATOM     35  O   UNL A   1      42.674  18.665  26.462  1.00  0.00    -0.246 OA
BRANCH  34  36
ATOM     36  C   UNL A   1      42.237  20.997  26.638  1.00  0.00     0.060 A 
ATOM     37  C   UNL A   1      42.492  21.956  25.642  1.00  0.00     0.016 A 
ATOM     38  C   UNL A   1      42.293  21.362  27.983  1.00  0.00     0.016 A 
ATOM     39  C   UNL A   1      42.842  23.266  25.985  1.00  0.00     0.010 A 
ATOM     40  C   UNL A   1      42.677  22.665  28.325  1.00  0.00     0.010 A 
ATOM     41  C   UNL A   1      42.988  23.613  27.332  1.00  0.00    -0.014 A 
BRANCH  41  42
ATOM     42  C   UNL A   1      43.703  24.855  27.733  1.00  0.00     0.031 A 
ATOM     43  C   UNL A   1      42.873  26.004  28.240  1.00  0.00     0.074 A 
ATOM     44  C   UNL A   1      45.033  25.006  27.596  1.00  0.00     0.049 A 
ATOM     45  N   UNL A   1      43.199  27.258  28.409  1.00  0.00    -0.248 NA
ATOM     46  C   UNL A   1      41.479  25.688  28.588  1.00  0.00     0.031 C 
ATOM     47  C   UNL A   1      45.970  23.960  27.197  1.00  0.00     0.029 A 
ATOM     48  N   UNL A   1      45.817  26.127  27.745  1.00  0.00    -0.354 N 
ATOM     49  C   UNL A   1      42.039  27.890  28.843  1.00  0.00     0.074 A 
ATOM     50  C   UNL A   1      41.006  26.880  28.916  1.00  0.00     0.031 C 
ATOM     51  C   UNL A   1      47.198  24.500  27.087  1.00  0.00     0.029 A 
ATOM     52  C   UNL A   1      47.121  25.938  27.351  1.00  0.00     0.049 A 
ATOM     53  H   UNL A   1      45.478  26.981  28.099  1.00  0.00     0.167 HD
ATOM     54  C   UNL A   1      41.846  29.199  29.135  1.00  0.00     0.037 A 
ATOM     55  C   UNL A   1      48.119  26.830  27.166  1.00  0.00     0.037 A 
ATOM     56  C   UNL A   1      42.874  30.202  29.055  1.00  0.00     0.049 A 
ATOM     57  C   UNL A   1      47.873  28.299  27.421  1.00  0.00     0.074 A 
ATOM     58  C   UNL A   1      42.777  31.554  29.336  1.00  0.00     0.029 A 
ATOM     59  N   UNL A   1      44.179  29.969  28.651  1.00  0.00    -0.354 N 
ATOM     60  N   UNL A   1      46.772  28.895  27.819  1.00  0.00    -0.248 NA
ATOM     61  C   UNL A   1      48.996  29.220  27.191  1.00  0.00     0.031 C 
ATOM     62  C   UNL A   1      44.011  32.147  29.048  1.00  0.00     0.029 A 
ATOM     63  C   UNL A   1      44.892  31.155  28.648  1.00  0.00     0.049 A 
ATOM     64  H   UNL A   1      44.546  29.088  28.404  1.00  0.00     0.167 HD
ATOM     65  C   UNL A   1      47.079  30.250  27.910  1.00  0.00     0.074 A 
ATOM     66  C   UNL A   1      48.468  30.390  27.527  1.00  0.00     0.031 C 
ATOM     67  C   UNL A   1      46.283  31.283  28.281  1.00  0.00     0.037 A 
BRANCH  54  68
ATOM     68  C   UNL A   1      40.451  29.622  29.498  1.00  0.00     0.058 A 
ATOM     69  C   UNL A   1      39.454  29.821  28.529  1.00  0.00     0.135 A 
ATOM     70  C   UNL A   1      40.114  29.850  30.842  1.00  0.00     0.135 A 
ATOM     71  F   UNL A   1      39.729  29.638  27.228  1.00  0.00    -0.206 F 
ATOM     72  C   UNL A   1      38.186  30.278  28.877  1.00  0.00     0.059 A 
ATOM     73  C   UNL A   1      38.843  30.275  31.215  1.00  0.00     0.059 A 
ATOM     74  F   UNL A   1      41.029  29.675  31.808  1.00  0.00    -0.206 F 
ATOM     75  C   UNL A   1      37.894  30.509  30.222  1.00  0.00     0.060 A 
BRANCH  75  76
ATOM     76  S   UNL A   1      36.260  31.140  30.655  1.00  0.00     0.124 S 
ATOM     77  O   UNL A   1      35.463  30.680  29.522  1.00  0.00    -0.237 OA
ATOM     78  O   UNL A   1      35.994  30.477  31.928  1.00  0.00    -0.237 OA
ATOM     79  O   UNL A   1      36.462  32.584  30.734  1.00  0.00    -0.744 OA
ENDBRANCH  75  76
ENDBRANCH  54  68
BRANCH  55  80
ATOM     80  C   UNL A   1      49.437  26.363  26.653  1.00  0.00     0.058 A 
ATOM     81  C   UNL A   1      49.750  26.412  25.287  1.00  0.00     0.135 A 
ATOM     82  C   UNL A   1      50.420  25.871  27.528  1.00  0.00     0.135 A 
ATOM     83  F   UNL A   1      48.838  26.850  24.406  1.00  0.00    -0.206 F 
ATOM     84  C   UNL A   1      50.990  25.999  24.806  1.00  0.00     0.059 A 
ATOM     85  C   UNL A   1      51.675  25.475  27.075  1.00  0.00     0.059 A 
ATOM     86  F   UNL A   1      50.172  25.798  28.845  1.00  0.00    -0.206 F 
ATOM     87  C   UNL A   1      51.951  25.542  25.711  1.00  0.00     0.060 A 
BRANCH  87  88
ATOM     88  S   UNL A   1      53.585  25.090  25.087  1.00  0.00     0.124 S 
ATOM     89  O   UNL A   1      53.569  23.640  25.234  1.00  0.00    -0.237 OA
ATOM     90  O   UNL A   1      53.539  25.595  23.717  1.00  0.00    -0.237 OA
ATOM     91  O   UNL A   1      54.493  25.806  25.978  1.00  0.00    -0.744 OA
ENDBRANCH  87  88
ENDBRANCH  55  80
BRANCH  67  92
ATOM     92  C   UNL A   1      46.881  32.663  28.345  1.00  0.00     0.058 A 
ATOM     93  C   UNL A   1      46.759  33.577  27.286  1.00  0.00     0.135 A 
ATOM     94  C   UNL A   1      47.484  33.116  29.532  1.00  0.00     0.135 A 
ATOM     95  F   UNL A   1      46.197  33.197  26.129  1.00  0.00    -0.206 F 
ATOM     96  C   UNL A   1      47.208  34.889  27.403  1.00  0.00     0.059 A 
ATOM     97  C   UNL A   1      47.919  34.430  29.679  1.00  0.00     0.059 A 
ATOM     98  F   UNL A   1      47.618  32.287  30.579  1.00  0.00    -0.206 F 
ATOM     99  C   UNL A   1      47.777  35.311  28.608  1.00  0.00     0.060 A 
BRANCH  99 100
ATOM    100  S   UNL A   1      48.281  37.038  28.774  1.00  0.00     0.124 S 
ATOM    101  O   UNL A   1      47.653  37.642  27.604  1.00  0.00    -0.237 OA
ATOM    102  O   UNL A   1      47.708  37.408  30.065  1.00  0.00    -0.237 OA
ATOM    103  O   UNL A   1      49.739  36.972  28.739  1.00  0.00    -0.744 OA
ENDBRANCH  99 100
ENDBRANCH  67  92
ENDBRANCH  41  42
ENDBRANCH  34  36
ENDBRANCH  33  34
ENDBRANCH  32  33
ENDBRANCH  31  32
ENDBRANCH  30  31
ENDBRANCH  29  30
ENDBRANCH   1  29
TORSDOF 26
ENDMDL
MODEL 2
REMARK VINA RESULT:     -10.2      1.581      2.385
REMARK SMILES C[C@@](NC(=O)CCOC1CC[NH2+]CC1)(C(=O)OCCOCCOCCOC(=O)c1ccc(-c2c3nc(c(-c4c(F)cc(S(=O)(=O)[O-])cc4F)c4ccc([nH]4)c(-c4c(F)cc(S(=O)(=O)[O-])cc4F)c4nc(c(-c5c(F)cc(S(=O)(=O)[O-])cc5F)c5ccc2[nH]5)C=C4)C=C3)cc1)C(F)(F)F
REMARK SMILES IDX 21 1 20 2 19 3 18 4 17 5 15 6 16 7 2 8 1 9 3 10 4 11 5 13
REMARK SMILES IDX 6 14 7 15 8 16 9 17 10 18 14 19 11 20 13 21 12 22 95 25
REMARK SMILES IDX 96 26 97 27 98 28 22 29 23 30 24 31 25 32 26 33 27 34 28 35
REMARK SMILES IDX 29 36 30 37 94 38 31 39 93 40 32 41 33 42 34 43 87 44 35 45
REMARK SMILES IDX 92 46 86 47 88 48 36 49 91 50 85 51 84 52 37 54 71 55 50 56
REMARK SMILES IDX 70 57 51 58 54 59 69 60 89 61 52 62 53 63 68 65 90 66 55 67
REMARK SMILES IDX 38 68 39 69 48 70 40 71 41 72 47 73 49 74 42 75 43 76 44 77
REMARK SMILES IDX 45 78 46 79 72 80 73 81 82 82 74 83 75 84 81 85 83 86 76 87
REMARK SMILES IDX 77 88 78 89 79 90 80 91 56 92 57 93 66 94 58 95 59 96 65 97
REMARK SMILES IDX 67 98 60 99 61 100 62 101 63 102 64 103
REMARK H PARENT 3 12 12 23 12 24 88 53 54 64
REMARK Flexibility Score: inf
ROOT
ATOM      1  C   UNL A   1      36.390  21.355  25.413  1.00  0.00     0.188 C 
ENDROOT
BRANCH   1   2
ATOM      2  O   UNL A   1      35.075  21.033  24.976  1.00  0.00    -0.376 OA
BRANCH   2   3
ATOM      3  C   UNL A   1      34.649  19.684  25.032  1.00  0.00     0.202 C 
BRANCH   3   4
ATOM      4  C   UNL A   1      33.187  19.522  25.431  1.00  0.00     0.261 C 
BRANCH   4   5
ATOM      5  O   UNL A   1      32.188  19.442  24.376  1.00  0.00    -0.461 OA
BRANCH   5   6
ATOM      6  C   UNL A   1      32.113  20.316  23.244  1.00  0.00     0.341 C 
ATOM      7  O   UNL A   1      31.872  19.486  22.302  1.00  0.00    -0.249 OA
BRANCH   6   8
ATOM      8  C   UNL A   1      32.302  22.441  23.321  1.00  0.00     0.231 C 
ATOM      9  C   UNL A   1      31.032  23.571  22.948  1.00  0.00     0.058 C 
BRANCH   8  10
ATOM     10  N   UNL A   1      32.736  23.413  24.805  1.00  0.00    -0.333 N 
ATOM     11  C   UNL A   1      32.286  24.335  25.728  1.00  0.00     0.223 C 
ATOM     12  H   UNL A   1      33.666  23.189  25.041  1.00  0.00     0.164 HD
ATOM     13  O   UNL A   1      33.145  25.101  26.185  1.00  0.00    -0.275 OA
BRANCH  11  14
ATOM     14  C   UNL A   1      30.858  24.389  26.334  1.00  0.00     0.128 C 
BRANCH  14  15
ATOM     15  C   UNL A   1      29.891  25.475  25.867  1.00  0.00     0.170 C 
BRANCH  15  16
ATOM     16  O   UNL A   1      29.846  25.720  24.459  1.00  0.00    -0.377 OA
BRANCH  16  17
ATOM     17  C   UNL A   1      30.035  27.109  24.201  1.00  0.00     0.129 C 
ATOM     18  C   UNL A   1      28.656  28.024  23.196  1.00  0.00     0.093 C 
ATOM     19  C   UNL A   1      31.925  27.414  23.613  1.00  0.00     0.093 C 
ATOM     20  C   UNL A   1      29.182  29.529  22.134  1.00  0.00     0.263 C 
ATOM     21  C   UNL A   1      32.310  28.859  22.420  1.00  0.00     0.263 C 
ATOM     22  N   UNL A   1      30.945  30.003  21.947  1.00  0.00    -0.346 N 
ATOM     23  H   UNL A   1      31.075  30.849  22.502  1.00  0.00     0.346 HD
ATOM     24  H   UNL A   1      31.049  30.058  20.935  1.00  0.00     0.346 HD
ENDBRANCH  16  17
ENDBRANCH  15  16
ENDBRANCH  14  15
ENDBRANCH  11  14
ENDBRANCH   8  10
BRANCH   8  25
ATOM     25  C   UNL A   1      33.459  23.465  22.353  1.00  0.00     0.422 C 
ATOM     26  F   UNL A   1      33.756  24.715  22.760  1.00  0.00    -0.168 F 
ATOM     27  F   UNL A   1      34.698  22.834  22.407  1.00  0.00    -0.168 F 
ATOM     28  F   UNL A   1      33.255  23.441  21.014  1.00  0.00    -0.168 F 
ENDBRANCH   8  25
ENDBRANCH   6   8
ENDBRANCH   5   6
ENDBRANCH   4   5
ENDBRANCH   3   4
ENDBRANCH   2   3
ENDBRANCH   1   2
BRANCH   1  29
ATOM     29  C   UNL A   1      37.596  20.718  24.709  1.00  0.00     0.188 C 
BRANCH  29  30
ATOM     30  O   UNL A   1      37.809  19.316  24.819  1.00  0.00    -0.376 OA
BRANCH  30  31
ATOM     31  C   UNL A   1      38.816  18.883  25.722  1.00  0.00     0.202 C 
BRANCH  31  32
ATOM     32  C   UNL A   1      39.958  19.877  25.977  1.00  0.00     0.261 C 
BRANCH  32  33
ATOM     33  O   UNL A   1      41.179  19.490  25.310  1.00  0.00    -0.460 OA
BRANCH  33  34
ATOM     34  C   UNL A   1      42.315  19.529  26.055  1.00  0.00     0.338 C 
ATOM     35  O   UNL A   1      43.115  18.620  26.206  1.00  0.00    -0.246 OA
BRANCH  34  36
ATOM     36  C   UNL A   1      42.594  20.926  26.480  1.00  0.00     0.060 A 
ATOM     37  C   UNL A   1      42.891  21.878  25.490  1.00  0.00     0.016 A 
ATOM     38  C   UNL A   1      42.586  21.301  27.822  1.00  0.00     0.016 A 
ATOM     39  C   UNL A   1      43.221  23.192  25.839  1.00  0.00     0.010 A 
ATOM     40  C   UNL A   1      42.949  22.607  28.173  1.00  0.00     0.010 A 
ATOM     41  C   UNL A   1      43.303  23.549  27.188  1.00  0.00    -0.014 A 
BRANCH  41  42
ATOM     42  C   UNL A   1      43.995  24.796  27.614  1.00  0.00     0.031 A 
ATOM     43  C   UNL A   1      43.140  25.938  28.095  1.00  0.00     0.074 A 
ATOM     44  C   UNL A   1      45.328  24.958  27.519  1.00  0.00     0.049 A 
ATOM     45  N   UNL A   1      43.450  27.194  28.276  1.00  0.00    -0.248 NA
ATOM     46  C   UNL A   1      41.738  25.610  28.399  1.00  0.00     0.031 C 
ATOM     47  C   UNL A   1      46.285  23.920  27.149  1.00  0.00     0.029 A 
ATOM     48  N   UNL A   1      46.098  26.085  27.694  1.00  0.00    -0.354 N 
ATOM     49  C   UNL A   1      42.273  27.816  28.674  1.00  0.00     0.074 A 
ATOM     50  C   UNL A   1      41.246  26.798  28.713  1.00  0.00     0.031 C 
ATOM     51  C   UNL A   1      47.512  24.470  27.078  1.00  0.00     0.029 A 
ATOM     52  C   UNL A   1      47.415  25.907  27.341  1.00  0.00     0.049 A 
ATOM     53  H   UNL A   1      45.740  26.936  28.038  1.00  0.00     0.167 HD
ATOM     54  C   UNL A   1      42.060  29.123  28.961  1.00  0.00     0.037 A 
ATOM     55  C   UNL A   1      48.411  26.808  27.189  1.00  0.00     0.037 A 
ATOM     56  C   UNL A   1      43.081  30.134  28.915  1.00  0.00     0.049 A 
ATOM     57  C   UNL A   1      48.145  28.273  27.438  1.00  0.00     0.074 A 
ATOM     58  C   UNL A   1      42.966  31.485  29.195  1.00  0.00     0.029 A 
ATOM     59  N   UNL A   1      44.401  29.912  28.552  1.00  0.00    -0.354 N 
ATOM     60  N   UNL A   1      47.028  28.860  27.802  1.00  0.00    -0.248 NA
ATOM     61  C   UNL A   1      49.268  29.204  27.245  1.00  0.00     0.031 C 
ATOM     62  C   UNL A   1      44.203  32.089  28.947  1.00  0.00     0.029 A 
ATOM     63  C   UNL A   1      45.104  31.104  28.573  1.00  0.00     0.049 A 
ATOM     64  H   UNL A   1      44.782  29.035  28.316  1.00  0.00     0.167 HD
ATOM     65  C   UNL A   1      47.320  30.218  27.904  1.00  0.00     0.074 A 
ATOM     66  C   UNL A   1      48.720  30.369  27.565  1.00  0.00     0.031 C 
ATOM     67  C   UNL A   1      46.505  31.244  28.251  1.00  0.00     0.037 A 
BRANCH  54  68
ATOM     68  C   UNL A   1      40.650  29.534  29.280  1.00  0.00     0.058 A 
ATOM     69  C   UNL A   1      40.226  29.795  30.593  1.00  0.00     0.135 A 
ATOM     70  C   UNL A   1      39.703  29.650  28.250  1.00  0.00     0.135 A 
ATOM     71  F   UNL A   1      41.086  29.678  31.617  1.00  0.00    -0.206 F 
ATOM     72  C   UNL A   1      38.901  30.110  30.877  1.00  0.00     0.059 A 
ATOM     73  C   UNL A   1      38.381  29.995  28.507  1.00  0.00     0.059 A 
ATOM     74  F   UNL A   1      40.056  29.411  26.977  1.00  0.00    -0.206 F 
ATOM     75  C   UNL A   1      37.985  30.199  29.827  1.00  0.00     0.060 A 
BRANCH  75  76
ATOM     76  S   UNL A   1      36.261  30.568  30.214  1.00  0.00     0.124 S 
ATOM     77  O   UNL A   1      36.247  32.024  30.115  1.00  0.00    -0.237 OA
ATOM     78  O   UNL A   1      35.543  29.853  29.164  1.00  0.00    -0.237 OA
ATOM     79  O   UNL A   1      36.092  30.030  31.561  1.00  0.00    -0.744 OA
ENDBRANCH  75  76
ENDBRANCH  54  68
BRANCH  55  80
ATOM     80  C   UNL A   1      49.749  26.352  26.717  1.00  0.00     0.058 A 
ATOM     81  C   UNL A   1      50.070  26.314  25.353  1.00  0.00     0.135 A 
ATOM     82  C   UNL A   1      50.741  25.958  27.631  1.00  0.00     0.135 A 
ATOM     83  F   UNL A   1      49.150  26.655  24.438  1.00  0.00    -0.206 F 
ATOM     84  C   UNL A   1      51.327  25.911  24.909  1.00  0.00     0.059 A 
ATOM     85  C   UNL A   1      52.013  25.576  27.214  1.00  0.00     0.059 A 
ATOM     86  F   UNL A   1      50.486  25.971  28.948  1.00  0.00    -0.206 F 
ATOM     87  C   UNL A   1      52.296  25.555  25.849  1.00  0.00     0.060 A 
BRANCH  87  88
ATOM     88  S   UNL A   1      53.950  25.118  25.268  1.00  0.00     0.124 S 
ATOM     89  O   UNL A   1      54.748  25.304  26.474  1.00  0.00    -0.237 OA
ATOM     90  O   UNL A   1      53.764  23.737  24.830  1.00  0.00    -0.237 OA
ATOM     91  O   UNL A   1      54.193  26.077  24.195  1.00  0.00    -0.744 OA
ENDBRANCH  87  88
ENDBRANCH  55  80
BRANCH  67  92
ATOM     92  C   UNL A   1      47.090  32.629  28.335  1.00  0.00     0.058 A 
ATOM     93  C   UNL A   1      47.655  33.126  29.520  1.00  0.00     0.135 A 
ATOM     94  C   UNL A   1      47.190  33.424  27.180  1.00  0.00     0.135 A 
ATOM     95  F   UNL A   1      47.582  32.412  30.654  1.00  0.00    -0.206 F 
ATOM     96  C   UNL A   1      48.301  34.359  29.555  1.00  0.00     0.059 A 
ATOM     97  C   UNL A   1      47.853  34.648  27.187  1.00  0.00     0.059 A 
ATOM     98  F   UNL A   1      46.675  32.992  26.018  1.00  0.00    -0.206 F 
ATOM     99  C   UNL A   1      48.405  35.108  28.380  1.00  0.00     0.060 A 
BRANCH  99 100
ATOM    100  S   UNL A   1      49.317  36.667  28.422  1.00  0.00     0.124 S 
ATOM    101  O   UNL A   1      50.652  36.218  28.805  1.00  0.00    -0.237 OA
ATOM    102  O   UNL A   1      49.178  37.147  27.050  1.00  0.00    -0.237 OA
ATOM    103  O   UNL A   1      48.607  37.450  29.428  1.00  0.00    -0.744 OA
ENDBRANCH  99 100
ENDBRANCH  67  92
ENDBRANCH  41  42
ENDBRANCH  34  36
ENDBRANCH  33  34
ENDBRANCH  32  33
ENDBRANCH  31  32
ENDBRANCH  30  31
ENDBRANCH  29  30
ENDBRANCH   1  29
TORSDOF 26
ENDMDL
MODEL 3
REMARK VINA RESULT:     -10.1      2.371      3.595
REMARK SMILES C[C@@](NC(=O)CCOC1CC[NH2+]CC1)(C(=O)OCCOCCOCCOC(=O)c1ccc(-c2c3nc(c(-c4c(F)cc(S(=O)(=O)[O-])cc4F)c4ccc([nH]4)c(-c4c(F)cc(S(=O)(=O)[O-])cc4F)c4nc(c(-c5c(F)cc(S(=O)(=O)[O-])cc5F)c5ccc2[nH]5)C=C4)C=C3)cc1)C(F)(F)F
REMARK SMILES IDX 21 1 20 2 19 3 18 4 17 5 15 6 16 7 2 8 1 9 3 10 4 11 5 13
REMARK SMILES IDX 6 14 7 15 8 16 9 17 10 18 14 19 11 20 13 21 12 22 95 25
REMARK SMILES IDX 96 26 97 27 98 28 22 29 23 30 24 31 25 32 26 33 27 34 28 35
REMARK SMILES IDX 29 36 30 37 94 38 31 39 93 40 32 41 33 42 34 43 87 44 35 45
REMARK SMILES IDX 92 46 86 47 88 48 36 49 91 50 85 51 84 52 37 54 71 55 50 56
REMARK SMILES IDX 70 57 51 58 54 59 69 60 89 61 52 62 53 63 68 65 90 66 55 67
REMARK SMILES IDX 38 68 39 69 48 70 40 71 41 72 47 73 49 74 42 75 43 76 44 77
REMARK SMILES IDX 45 78 46 79 72 80 73 81 82 82 74 83 75 84 81 85 83 86 76 87
REMARK SMILES IDX 77 88 78 89 79 90 80 91 56 92 57 93 66 94 58 95 59 96 65 97
REMARK SMILES IDX 67 98 60 99 61 100 62 101 63 102 64 103
REMARK H PARENT 3 12 12 23 12 24 88 53 54 64
REMARK Flexibility Score: inf
ROOT
ATOM      1  C   UNL A   1      32.933  20.794  26.219  1.00  0.00     0.188 C 
ENDROOT
BRANCH   1   2
ATOM      2  O   UNL A   1      31.976  20.746  25.168  1.00  0.00    -0.376 OA
BRANCH   2   3
ATOM      3  C   UNL A   1      32.401  20.353  23.876  1.00  0.00     0.202 C 
BRANCH   3   4
ATOM      4  C   UNL A   1      32.296  21.461  22.835  1.00  0.00     0.261 C 
BRANCH   4   5
ATOM      5  O   UNL A   1      33.418  22.376  22.685  1.00  0.00    -0.461 OA
BRANCH   5   6
ATOM      6  C   UNL A   1      33.311  23.798  22.550  1.00  0.00     0.341 C 
ATOM      7  O   UNL A   1      33.400  23.937  21.282  1.00  0.00    -0.249 OA
BRANCH   6   8
ATOM      8  C   UNL A   1      33.004  25.162  24.162  1.00  0.00     0.231 C 
ATOM      9  C   UNL A   1      33.016  26.897  24.019  1.00  0.00     0.058 C 
BRANCH   8  10
ATOM     10  N   UNL A   1      31.506  25.254  25.203  1.00  0.00    -0.333 N 
ATOM     11  C   UNL A   1      30.273  25.853  25.364  1.00  0.00     0.223 C 
ATOM     12  H   UNL A   1      31.627  24.623  25.948  1.00  0.00     0.164 HD
ATOM     13  O   UNL A   1      29.896  25.999  26.534  1.00  0.00    -0.275 OA
BRANCH  11  14
ATOM     14  C   UNL A   1      29.282  26.212  24.224  1.00  0.00     0.128 C 
BRANCH  14  15
ATOM     15  C   UNL A   1      29.682  27.267  23.194  1.00  0.00     0.170 C 
BRANCH  15  16
ATOM     16  O   UNL A   1      28.671  28.207  22.825  1.00  0.00    -0.377 OA
BRANCH  16  17
ATOM     17  C   UNL A   1      29.250  29.498  22.646  1.00  0.00     0.129 C 
ATOM     18  C   UNL A   1      29.818  30.448  24.235  1.00  0.00     0.093 C 
ATOM     19  C   UNL A   1      28.151  30.530  21.329  1.00  0.00     0.093 C 
ATOM     20  C   UNL A   1      29.791  32.362  24.182  1.00  0.00     0.263 C 
ATOM     21  C   UNL A   1      28.071  32.437  21.471  1.00  0.00     0.263 C 
ATOM     22  N   UNL A   1      29.111  33.273  22.742  1.00  0.00    -0.346 N 
ATOM     23  H   UNL A   1      29.912  33.664  22.246  1.00  0.00     0.346 HD
ATOM     24  H   UNL A   1      28.446  33.910  23.181  1.00  0.00     0.346 HD
ENDBRANCH  16  17
ENDBRANCH  15  16
ENDBRANCH  14  15
ENDBRANCH  11  14
ENDBRANCH   8  10
BRANCH   8  25
ATOM     25  C   UNL A   1      34.019  25.308  25.671  1.00  0.00     0.422 C 
ATOM     26  F   UNL A   1      33.711  24.581  26.763  1.00  0.00    -0.168 F 
ATOM     27  F   UNL A   1      35.288  24.838  25.349  1.00  0.00    -0.168 F 
ATOM     28  F   UNL A   1      34.334  26.578  26.022  1.00  0.00    -0.168 F 
ENDBRANCH   8  25
ENDBRANCH   6   8
ENDBRANCH   5   6
ENDBRANCH   4   5
ENDBRANCH   3   4
ENDBRANCH   2   3
ENDBRANCH   1   2
BRANCH   1  29
ATOM     29  C   UNL A   1      34.194  21.652  26.053  1.00  0.00     0.188 C 
BRANCH  29  30
ATOM     30  O   UNL A   1      35.385  21.055  25.551  1.00  0.00    -0.376 OA
BRANCH  30  31
ATOM     31  C   UNL A   1      36.272  21.895  24.826  1.00  0.00     0.202 C 
BRANCH  31  32
ATOM     32  C   UNL A   1      37.769  21.617  25.028  1.00  0.00     0.261 C 
BRANCH  32  33
ATOM     33  O   UNL A   1      38.451  22.722  25.659  1.00  0.00    -0.460 OA
BRANCH  33  34
ATOM     34  C   UNL A   1      39.481  22.405  26.487  1.00  0.00     0.338 C 
ATOM     35  O   UNL A   1      40.051  21.328  26.557  1.00  0.00    -0.246 OA
BRANCH  34  36
ATOM     36  C   UNL A   1      39.999  23.633  27.142  1.00  0.00     0.060 A 
ATOM     37  C   UNL A   1      39.554  24.881  26.671  1.00  0.00     0.016 A 
ATOM     38  C   UNL A   1      40.920  23.575  28.187  1.00  0.00     0.016 A 
ATOM     39  C   UNL A   1      40.057  26.069  27.212  1.00  0.00     0.010 A 
ATOM     40  C   UNL A   1      41.448  24.764  28.704  1.00  0.00     0.010 A 
ATOM     41  C   UNL A   1      41.048  26.015  28.197  1.00  0.00    -0.014 A 
BRANCH  41  42
ATOM     42  C   UNL A   1      41.865  27.213  28.533  1.00  0.00     0.031 A 
ATOM     43  C   UNL A   1      41.164  28.374  29.185  1.00  0.00     0.074 A 
ATOM     44  C   UNL A   1      43.169  27.317  28.216  1.00  0.00     0.049 A 
ATOM     45  N   UNL A   1      41.565  29.607  29.345  1.00  0.00    -0.248 NA
ATOM     46  C   UNL A   1      39.819  28.100  29.715  1.00  0.00     0.031 C 
ATOM     47  C   UNL A   1      43.995  26.250  27.658  1.00  0.00     0.029 A 
ATOM     48  N   UNL A   1      44.014  28.400  28.288  1.00  0.00    -0.354 N 
ATOM     49  C   UNL A   1      40.506  30.269  29.956  1.00  0.00     0.074 A 
ATOM     50  C   UNL A   1      39.450  29.298  30.142  1.00  0.00     0.031 C 
ATOM     51  C   UNL A   1      45.218  26.745  27.394  1.00  0.00     0.029 A 
ATOM     52  C   UNL A   1      45.242  28.175  27.710  1.00  0.00     0.049 A 
ATOM     53  H   UNL A   1      43.765  29.253  28.711  1.00  0.00     0.167 HD
ATOM     54  C   UNL A   1      40.413  31.572  30.312  1.00  0.00     0.037 A 
ATOM     55  C   UNL A   1      46.243  29.033  27.414  1.00  0.00     0.037 A 
ATOM     56  C   UNL A   1      41.462  32.537  30.120  1.00  0.00     0.049 A 
ATOM     57  C   UNL A   1      46.099  30.499  27.746  1.00  0.00     0.074 A 
ATOM     58  C   UNL A   1      41.465  33.880  30.453  1.00  0.00     0.029 A 
ATOM     59  N   UNL A   1      42.687  32.267  29.530  1.00  0.00    -0.354 N 
ATOM     60  N   UNL A   1      45.091  31.124  28.312  1.00  0.00    -0.248 NA
ATOM     61  C   UNL A   1      47.219  31.383  27.389  1.00  0.00     0.031 C 
ATOM     62  C   UNL A   1      42.672  34.435  30.014  1.00  0.00     0.029 A 
ATOM     63  C   UNL A   1      43.445  33.424  29.464  1.00  0.00     0.049 A 
ATOM     64  H   UNL A   1      42.977  31.383  29.208  1.00  0.00     0.167 HD
ATOM     65  C   UNL A   1      45.466  32.462  28.400  1.00  0.00     0.074 A 
ATOM     66  C   UNL A   1      46.794  32.560  27.831  1.00  0.00     0.031 C 
ATOM     67  C   UNL A   1      44.776  33.511  28.910  1.00  0.00     0.037 A 
BRANCH  54  68
ATOM     68  C   UNL A   1      39.101  32.036  30.879  1.00  0.00     0.058 A 
ATOM     69  C   UNL A   1      38.860  32.089  32.261  1.00  0.00     0.135 A 
ATOM     70  C   UNL A   1      38.059  32.418  30.017  1.00  0.00     0.135 A 
ATOM     71  F   UNL A   1      39.814  31.715  33.129  1.00  0.00    -0.206 F 
ATOM     72  C   UNL A   1      37.617  32.457  32.767  1.00  0.00     0.059 A 
ATOM     73  C   UNL A   1      36.820  32.821  30.501  1.00  0.00     0.059 A 
ATOM     74  F   UNL A   1      38.237  32.385  28.687  1.00  0.00    -0.206 F 
ATOM     75  C   UNL A   1      36.601  32.814  31.877  1.00  0.00     0.060 A 
BRANCH  75  76
ATOM     76  S   UNL A   1      34.982  33.250  32.545  1.00  0.00     0.124 S 
ATOM     77  O   UNL A   1      35.133  32.864  33.944  1.00  0.00    -0.237 OA
ATOM     78  O   UNL A   1      34.912  34.684  32.286  1.00  0.00    -0.237 OA
ATOM     79  O   UNL A   1      34.060  32.429  31.765  1.00  0.00    -0.744 OA
ENDBRANCH  75  76
ENDBRANCH  54  68
BRANCH  55  80
ATOM     80  C   UNL A   1      47.456  28.533  26.708  1.00  0.00     0.058 A 
ATOM     81  C   UNL A   1      48.668  28.339  27.384  1.00  0.00     0.135 A 
ATOM     82  C   UNL A   1      47.418  28.224  25.338  1.00  0.00     0.135 A 
ATOM     83  F   UNL A   1      48.765  28.643  28.687  1.00  0.00    -0.206 F 
ATOM     84  C   UNL A   1      49.798  27.850  26.733  1.00  0.00     0.059 A 
ATOM     85  C   UNL A   1      48.525  27.710  24.670  1.00  0.00     0.059 A 
ATOM     86  F   UNL A   1      46.284  28.395  24.641  1.00  0.00    -0.206 F 
ATOM     87  C   UNL A   1      49.713  27.527  25.377  1.00  0.00     0.060 A 
BRANCH  87  88
ATOM     88  S   UNL A   1      51.158  26.812  24.562  1.00  0.00     0.124 S 
ATOM     89  O   UNL A   1      51.314  25.554  25.283  1.00  0.00    -0.237 OA
ATOM     90  O   UNL A   1      50.706  26.704  23.178  1.00  0.00    -0.237 OA
ATOM     91  O   UNL A   1      52.201  27.807  24.795  1.00  0.00    -0.744 OA
ENDBRANCH  87  88
ENDBRANCH  55  80
BRANCH  67  92
ATOM     92  C   UNL A   1      45.437  34.863  28.932  1.00  0.00     0.058 A 
ATOM     93  C   UNL A   1      46.205  35.298  30.024  1.00  0.00     0.135 A 
ATOM     94  C   UNL A   1      45.397  35.687  27.793  1.00  0.00     0.135 A 
ATOM     95  F   UNL A   1      46.274  34.555  31.138  1.00  0.00    -0.206 F 
ATOM     96  C   UNL A   1      46.912  36.497  29.984  1.00  0.00     0.059 A 
ATOM     97  C   UNL A   1      46.114  36.877  27.722  1.00  0.00     0.059 A 
ATOM     98  F   UNL A   1      44.685  35.315  26.717  1.00  0.00    -0.206 F 
ATOM     99  C   UNL A   1      46.869  37.275  28.824  1.00  0.00     0.060 A 
BRANCH  99 100
ATOM    100  S   UNL A   1      47.856  38.787  28.755  1.00  0.00     0.124 S 
ATOM    101  O   UNL A   1      48.221  38.838  27.343  1.00  0.00    -0.237 OA
ATOM    102  O   UNL A   1      46.905  39.801  29.202  1.00  0.00    -0.237 OA
ATOM    103  O   UNL A   1      48.955  38.519  29.677  1.00  0.00    -0.744 OA
ENDBRANCH  99 100
ENDBRANCH  67  92
ENDBRANCH  41  42
ENDBRANCH  34  36
ENDBRANCH  33  34
ENDBRANCH  32  33
ENDBRANCH  31  32
ENDBRANCH  30  31
ENDBRANCH  29  30
ENDBRANCH   1  29
TORSDOF 26
ENDMDL
