MODEL 1
REMARK VINA RESULT:      -9.7      0.000      0.000
REMARK SMILES C[NH2+][C@@H](C)c1ccc(SCc2ccc(C(=O)OCCOCCOCCOC(=O)c3ccc(-c4c5nc(c(-c6c(F)cc(S(=O)(=O)[O-])cc6F)c6ccc([nH]6)c(-c6c(F)cc(S(=O)(=O)[O-])cc6F)c6nc(c(-c7c(F)cc(S(=O)(=O)[O-])cc7F)c7ccc4[nH]7)C=C6)C=C5)cc3)cc2)cc1
REMARK SMILES IDX 21 1 20 2 19 3 18 4 17 5 15 6 16 7 14 8 11 9 12 10 96 11
REMARK SMILES IDX 13 12 95 13 10 14 9 15 8 16 5 17 6 18 98 19 7 20 97 21 3 22
REMARK SMILES IDX 4 23 2 24 1 25 22 28 23 29 24 30 25 31 26 32 27 33 28 34
REMARK SMILES IDX 29 35 30 36 94 37 31 38 93 39 32 40 33 41 34 42 87 43 35 44
REMARK SMILES IDX 92 45 86 46 88 47 36 48 91 49 85 50 84 51 37 53 71 54 50 55
REMARK SMILES IDX 70 56 51 57 54 58 69 59 89 60 52 61 53 62 68 64 90 65 55 66
REMARK SMILES IDX 38 67 39 68 48 69 40 70 41 71 47 72 49 73 42 74 43 75 44 76
REMARK SMILES IDX 45 77 46 78 72 79 73 80 82 81 74 82 75 83 81 84 83 85 76 86
REMARK SMILES IDX 77 87 78 88 79 89 80 90 56 91 57 92 66 93 58 94 59 95 65 96
REMARK SMILES IDX 67 97 60 98 61 99 62 100 63 101 64 102
REMARK H PARENT 2 26 2 27 88 52 54 63
REMARK Flexibility Score: inf
ROOT
ATOM      1  C   UNL A   1      33.786  26.917  25.861  1.00  0.00     0.188 C 
ENDROOT
BRANCH   1   2
ATOM      2  O   UNL A   1      32.413  27.168  26.118  1.00  0.00    -0.376 OA
BRANCH   2   3
ATOM      3  C   UNL A   1      31.889  28.481  25.996  1.00  0.00     0.202 C 
BRANCH   3   4
ATOM      4  C   UNL A   1      31.416  29.038  24.643  1.00  0.00     0.261 C 
BRANCH   4   5
ATOM      5  O   UNL A   1      30.192  28.488  24.141  1.00  0.00    -0.460 OA
BRANCH   5   6
ATOM      6  C   UNL A   1      30.277  27.949  22.894  1.00  0.00     0.338 C 
ATOM      7  O   UNL A   1      30.107  28.518  21.840  1.00  0.00    -0.246 OA
BRANCH   6   8
ATOM      8  C   UNL A   1      30.779  26.558  22.986  1.00  0.00     0.060 A 
ATOM      9  C   UNL A   1      31.702  23.914  23.291  1.00  0.00    -0.038 A 
ATOM     10  C   UNL A   1      30.641  24.404  24.074  1.00  0.00     0.005 A 
ATOM     11  C   UNL A   1      32.280  24.777  22.343  1.00  0.00     0.005 A 
ATOM     12  C   UNL A   1      30.189  25.717  23.931  1.00  0.00     0.016 A 
ATOM     13  C   UNL A   1      31.811  26.086  22.175  1.00  0.00     0.016 A 
BRANCH   9  14
ATOM     14  C   UNL A   1      32.186  22.509  23.588  1.00  0.00     0.110 C 
BRANCH  14  15
ATOM     15  S   UNL A   1      31.849  21.197  22.376  1.00  0.00    -0.121 SA
BRANCH  15  16
ATOM     16  C   UNL A   1      32.392  19.701  23.189  1.00  0.00     0.008 A 
ATOM     17  C   UNL A   1      33.226  17.437  24.678  1.00  0.00     0.009 A 
ATOM     18  C   UNL A   1      33.013  18.670  25.307  1.00  0.00     0.011 A 
ATOM     19  C   UNL A   1      33.042  17.365  23.288  1.00  0.00     0.011 A 
ATOM     20  C   UNL A   1      32.592  19.782  24.572  1.00  0.00     0.015 A 
ATOM     21  C   UNL A   1      32.619  18.479  22.554  1.00  0.00     0.015 A 
BRANCH  17  22
ATOM     22  C   UNL A   1      33.664  16.188  25.434  1.00  0.00     0.210 C 
ATOM     23  C   UNL A   1      35.150  15.859  25.222  1.00  0.00     0.081 C 
BRANCH  22  24
ATOM     24  N   UNL A   1      32.782  15.073  25.070  1.00  0.00    -0.343 N 
ATOM     25  C   UNL A   1      31.726  14.830  26.038  1.00  0.00     0.331 C 
ATOM     26  H   UNL A   1      32.353  15.282  24.168  1.00  0.00     0.346 HD
ATOM     27  H   UNL A   1      33.359  14.232  25.035  1.00  0.00     0.346 HD
ENDBRANCH  22  24
ENDBRANCH  17  22
ENDBRANCH  15  16
ENDBRANCH  14  15
ENDBRANCH   9  14
ENDBRANCH   6   8
ENDBRANCH   5   6
ENDBRANCH   4   5
ENDBRANCH   3   4
ENDBRANCH   2   3
ENDBRANCH   1   2
BRANCH   1  28
ATOM     28  C   UNL A   1      34.237  25.543  25.322  1.00  0.00     0.188 C 
BRANCH  28  29
ATOM     29  O   UNL A   1      33.952  24.442  26.150  1.00  0.00    -0.376 OA
BRANCH  29  30
ATOM     30  C   UNL A   1      34.794  23.303  26.152  1.00  0.00     0.202 C 
BRANCH  30  31
ATOM     31  C   UNL A   1      36.178  23.183  25.481  1.00  0.00     0.261 C 
BRANCH  31  32
ATOM     32  O   UNL A   1      37.176  24.156  25.790  1.00  0.00    -0.460 OA
BRANCH  32  33
ATOM     33  C   UNL A   1      38.359  23.669  26.234  1.00  0.00     0.338 C 
ATOM     34  O   UNL A   1      38.869  22.597  25.961  1.00  0.00    -0.246 OA
BRANCH  33  35
ATOM     35  C   UNL A   1      39.031  24.726  27.011  1.00  0.00     0.060 A 
ATOM     36  C   UNL A   1      38.776  24.818  28.385  1.00  0.00     0.016 A 
ATOM     37  C   UNL A   1      39.878  25.638  26.381  1.00  0.00     0.016 A 
ATOM     38  C   UNL A   1      39.356  25.843  29.132  1.00  0.00     0.010 A 
ATOM     39  C   UNL A   1      40.445  26.674  27.127  1.00  0.00     0.010 A 
ATOM     40  C   UNL A   1      40.165  26.798  28.501  1.00  0.00    -0.014 A 
BRANCH  40  41
ATOM     41  C   UNL A   1      40.585  28.017  29.234  1.00  0.00     0.031 A 
ATOM     42  C   UNL A   1      41.957  28.049  29.850  1.00  0.00     0.074 A 
ATOM     43  C   UNL A   1      39.766  29.078  29.347  1.00  0.00     0.049 A 
ATOM     44  N   UNL A   1      42.519  28.978  30.579  1.00  0.00    -0.248 NA
ATOM     45  C   UNL A   1      42.809  26.872  29.612  1.00  0.00     0.031 C 
ATOM     46  C   UNL A   1      38.428  29.180  28.767  1.00  0.00     0.029 A 
ATOM     47  N   UNL A   1      39.941  30.270  30.005  1.00  0.00    -0.354 N 
ATOM     48  C   UNL A   1      43.784  28.497  30.894  1.00  0.00     0.074 A 
ATOM     49  C   UNL A   1      43.898  27.183  30.300  1.00  0.00     0.031 C 
ATOM     50  C   UNL A   1      37.896  30.366  29.108  1.00  0.00     0.029 A 
ATOM     51  C   UNL A   1      38.841  31.092  29.956  1.00  0.00     0.049 A 
ATOM     52  H   UNL A   1      40.775  30.514  30.467  1.00  0.00     0.167 HD
ATOM     53  C   UNL A   1      44.764  29.099  31.608  1.00  0.00     0.037 A 
ATOM     54  C   UNL A   1      38.613  32.282  30.550  1.00  0.00     0.037 A 
ATOM     55  C   UNL A   1      44.643  30.404  32.205  1.00  0.00     0.049 A 
ATOM     56  C   UNL A   1      39.693  32.902  31.401  1.00  0.00     0.074 A 
ATOM     57  C   UNL A   1      45.586  31.108  32.933  1.00  0.00     0.029 A 
ATOM     58  N   UNL A   1      43.504  31.195  32.155  1.00  0.00    -0.354 N 
ATOM     59  N   UNL A   1      40.897  32.451  31.668  1.00  0.00    -0.248 NA
ATOM     60  C   UNL A   1      39.385  34.195  32.031  1.00  0.00     0.031 C 
ATOM     61  C   UNL A   1      45.001  32.302  33.367  1.00  0.00     0.029 A 
ATOM     62  C   UNL A   1      43.712  32.368  32.862  1.00  0.00     0.049 A 
ATOM     63  H   UNL A   1      42.672  30.958  31.687  1.00  0.00     0.167 HD
ATOM     64  C   UNL A   1      41.497  33.417  32.471  1.00  0.00     0.074 A 
ATOM     65  C   UNL A   1      40.529  34.480  32.639  1.00  0.00     0.031 C 
ATOM     66  C   UNL A   1      42.741  33.424  33.016  1.00  0.00     0.037 A 
BRANCH  53  67
ATOM     67  C   UNL A   1      46.045  28.336  31.807  1.00  0.00     0.058 A 
ATOM     68  C   UNL A   1      47.108  28.424  30.894  1.00  0.00     0.135 A 
ATOM     69  C   UNL A   1      46.218  27.520  32.936  1.00  0.00     0.135 A 
ATOM     70  F   UNL A   1      46.990  29.175  29.787  1.00  0.00    -0.206 F 
ATOM     71  C   UNL A   1      48.286  27.706  31.078  1.00  0.00     0.059 A 
ATOM     72  C   UNL A   1      47.398  26.815  33.155  1.00  0.00     0.059 A 
ATOM     73  F   UNL A   1      45.232  27.397  33.839  1.00  0.00    -0.206 F 
ATOM     74  C   UNL A   1      48.420  26.901  32.212  1.00  0.00     0.060 A 
BRANCH  74  75
ATOM     75  S   UNL A   1      49.952  25.972  32.433  1.00  0.00     0.124 S 
ATOM     76  O   UNL A   1      50.348  25.733  31.048  1.00  0.00    -0.237 OA
ATOM     77  O   UNL A   1      50.784  26.913  33.174  1.00  0.00    -0.237 OA
ATOM     78  O   UNL A   1      49.529  24.791  33.177  1.00  0.00    -0.744 OA
ENDBRANCH  74  75
ENDBRANCH  53  67
BRANCH  54  79
ATOM     79  C   UNL A   1      37.303  32.964  30.370  1.00  0.00     0.058 A 
ATOM     80  C   UNL A   1      36.309  32.894  31.356  1.00  0.00     0.135 A 
ATOM     81  C   UNL A   1      37.020  33.699  29.209  1.00  0.00     0.135 A 
ATOM     82  F   UNL A   1      36.526  32.192  32.479  1.00  0.00    -0.206 F 
ATOM     83  C   UNL A   1      35.076  33.518  31.194  1.00  0.00     0.059 A 
ATOM     84  C   UNL A   1      35.806  34.355  29.034  1.00  0.00     0.059 A 
ATOM     85  F   UNL A   1      37.941  33.802  28.237  1.00  0.00    -0.206 F 
ATOM     86  C   UNL A   1      34.836  34.251  30.030  1.00  0.00     0.060 A 
BRANCH  86  87
ATOM     87  S   UNL A   1      33.251  35.101  29.854  1.00  0.00     0.124 S 
ATOM     88  O   UNL A   1      33.679  36.455  29.523  1.00  0.00    -0.237 OA
ATOM     89  O   UNL A   1      32.620  34.349  28.775  1.00  0.00    -0.237 OA
ATOM     90  O   UNL A   1      32.635  34.937  31.167  1.00  0.00    -0.744 OA
ENDBRANCH  86  87
ENDBRANCH  54  79
BRANCH  66  91
ATOM     91  C   UNL A   1      43.145  34.634  33.816  1.00  0.00     0.058 A 
ATOM     92  C   UNL A   1      43.059  34.660  35.216  1.00  0.00     0.135 A 
ATOM     93  C   UNL A   1      43.684  35.761  33.172  1.00  0.00     0.135 A 
ATOM     94  F   UNL A   1      42.548  33.613  35.882  1.00  0.00    -0.206 F 
ATOM     95  C   UNL A   1      43.471  35.769  35.949  1.00  0.00     0.059 A 
ATOM     96  C   UNL A   1      44.129  36.869  33.886  1.00  0.00     0.059 A 
ATOM     97  F   UNL A   1      43.801  35.784  31.835  1.00  0.00    -0.206 F 
ATOM     98  C   UNL A   1      44.007  36.869  35.275  1.00  0.00     0.060 A 
BRANCH  98  99
ATOM     99  S   UNL A   1      44.570  38.288  36.240  1.00  0.00     0.124 S 
ATOM    100  O   UNL A   1      43.705  38.209  37.413  1.00  0.00    -0.237 OA
ATOM    101  O   UNL A   1      45.976  37.972  36.468  1.00  0.00    -0.237 OA
ATOM    102  O   UNL A   1      44.323  39.421  35.354  1.00  0.00    -0.744 OA
ENDBRANCH  98  99
ENDBRANCH  66  91
ENDBRANCH  40  41
ENDBRANCH  33  35
ENDBRANCH  32  33
ENDBRANCH  31  32
ENDBRANCH  30  31
ENDBRANCH  29  30
ENDBRANCH  28  29
ENDBRANCH   1  28
TORSDOF 25
ENDMDL
MODEL 2
REMARK VINA RESULT:      -9.6      2.240      2.983
REMARK SMILES C[NH2+][C@@H](C)c1ccc(SCc2ccc(C(=O)OCCOCCOCCOC(=O)c3ccc(-c4c5nc(c(-c6c(F)cc(S(=O)(=O)[O-])cc6F)c6ccc([nH]6)c(-c6c(F)cc(S(=O)(=O)[O-])cc6F)c6nc(c(-c7c(F)cc(S(=O)(=O)[O-])cc7F)c7ccc4[nH]7)C=C6)C=C5)cc3)cc2)cc1
REMARK SMILES IDX 21 1 20 2 19 3 18 4 17 5 15 6 16 7 14 8 11 9 12 10 96 11
REMARK SMILES IDX 13 12 95 13 10 14 9 15 8 16 5 17 6 18 98 19 7 20 97 21 3 22
REMARK SMILES IDX 4 23 2 24 1 25 22 28 23 29 24 30 25 31 26 32 27 33 28 34
REMARK SMILES IDX 29 35 30 36 94 37 31 38 93 39 32 40 33 41 34 42 87 43 35 44
REMARK SMILES IDX 92 45 86 46 88 47 36 48 91 49 85 50 84 51 37 53 71 54 50 55
REMARK SMILES IDX 70 56 51 57 54 58 69 59 89 60 52 61 53 62 68 64 90 65 55 66
REMARK SMILES IDX 38 67 39 68 48 69 40 70 41 71 47 72 49 73 42 74 43 75 44 76
REMARK SMILES IDX 45 77 46 78 72 79 73 80 82 81 74 82 75 83 81 84 83 85 76 86
REMARK SMILES IDX 77 87 78 88 79 89 80 90 56 91 57 92 66 93 58 94 59 95 65 96
REMARK SMILES IDX 67 97 60 98 61 99 62 100 63 101 64 102
REMARK H PARENT 2 26 2 27 88 52 54 63
REMARK Flexibility Score: inf
ROOT
ATOM      1  C   UNL A   1      33.476  26.821  26.112  1.00  0.00     0.188 C 
ENDROOT
BRANCH   1   2
ATOM      2  O   UNL A   1      32.180  27.325  25.827  1.00  0.00    -0.376 OA
BRANCH   2   3
ATOM      3  C   UNL A   1      31.937  28.724  25.833  1.00  0.00     0.202 C 
BRANCH   3   4
ATOM      4  C   UNL A   1      31.634  29.495  24.538  1.00  0.00     0.261 C 
BRANCH   4   5
ATOM      5  O   UNL A   1      30.284  29.407  24.066  1.00  0.00    -0.460 OA
BRANCH   5   6
ATOM      6  C   UNL A   1      30.149  28.887  22.816  1.00  0.00     0.338 C 
ATOM      7  O   UNL A   1      29.886  29.490  21.800  1.00  0.00    -0.246 OA
BRANCH   6   8
ATOM      8  C   UNL A   1      30.533  27.457  22.826  1.00  0.00     0.060 A 
ATOM      9  C   UNL A   1      31.218  24.729  22.971  1.00  0.00    -0.038 A 
ATOM     10  C   UNL A   1      30.111  25.234  23.677  1.00  0.00     0.005 A 
ATOM     11  C   UNL A   1      31.965  25.620  22.182  1.00  0.00     0.005 A 
ATOM     12  C   UNL A   1      29.777  26.587  23.614  1.00  0.00     0.016 A 
ATOM     13  C   UNL A   1      31.616  26.973  22.091  1.00  0.00     0.016 A 
BRANCH   9  14
ATOM     14  C   UNL A   1      31.560  23.267  23.182  1.00  0.00     0.110 C 
BRANCH  14  15
ATOM     15  S   UNL A   1      31.231  22.520  24.807  1.00  0.00    -0.121 SA
BRANCH  15  16
ATOM     16  C   UNL A   1      32.182  21.008  24.793  1.00  0.00     0.008 A 
ATOM     17  C   UNL A   1      33.644  18.591  24.549  1.00  0.00     0.009 A 
ATOM     18  C   UNL A   1      32.863  19.066  23.488  1.00  0.00     0.011 A 
ATOM     19  C   UNL A   1      33.657  19.330  25.742  1.00  0.00     0.011 A 
ATOM     20  C   UNL A   1      32.151  20.264  23.608  1.00  0.00     0.015 A 
ATOM     21  C   UNL A   1      32.945  20.530  25.859  1.00  0.00     0.015 A 
BRANCH  17  22
ATOM     22  C   UNL A   1      34.456  17.304  24.465  1.00  0.00     0.210 C 
ATOM     23  C   UNL A   1      34.282  16.581  23.120  1.00  0.00     0.081 C 
BRANCH  22  24
ATOM     24  N   UNL A   1      34.120  16.450  25.610  1.00  0.00    -0.343 N 
ATOM     25  C   UNL A   1      32.967  15.597  25.379  1.00  0.00     0.331 C 
ATOM     26  H   UNL A   1      34.924  15.857  25.818  1.00  0.00     0.346 HD
ATOM     27  H   UNL A   1      33.886  17.069  26.388  1.00  0.00     0.346 HD
ENDBRANCH  22  24
ENDBRANCH  17  22
ENDBRANCH  15  16
ENDBRANCH  14  15
ENDBRANCH   9  14
ENDBRANCH   6   8
ENDBRANCH   5   6
ENDBRANCH   4   5
ENDBRANCH   3   4
ENDBRANCH   2   3
ENDBRANCH   1   2
BRANCH   1  28
ATOM     28  C   UNL A   1      33.902  25.433  25.587  1.00  0.00     0.188 C 
BRANCH  28  29
ATOM     29  O   UNL A   1      33.752  24.369  26.494  1.00  0.00    -0.376 OA
BRANCH  29  30
ATOM     30  C   UNL A   1      34.740  23.358  26.591  1.00  0.00     0.202 C 
BRANCH  30  31
ATOM     31  C   UNL A   1      35.794  23.000  25.522  1.00  0.00     0.261 C 
BRANCH  31  32
ATOM     32  O   UNL A   1      37.009  23.746  25.482  1.00  0.00    -0.460 OA
BRANCH  32  33
ATOM     33  C   UNL A   1      38.073  23.177  26.099  1.00  0.00     0.338 C 
ATOM     34  O   UNL A   1      38.365  21.995  26.134  1.00  0.00    -0.246 OA
BRANCH  33  35
ATOM     35  C   UNL A   1      38.936  24.254  26.617  1.00  0.00     0.060 A 
ATOM     36  C   UNL A   1      38.898  24.548  27.986  1.00  0.00     0.016 A 
ATOM     37  C   UNL A   1      39.749  24.988  25.752  1.00  0.00     0.016 A 
ATOM     38  C   UNL A   1      39.664  25.599  28.492  1.00  0.00     0.010 A 
ATOM     39  C   UNL A   1      40.502  26.050  26.259  1.00  0.00     0.010 A 
ATOM     40  C   UNL A   1      40.442  26.378  27.626  1.00  0.00    -0.014 A 
BRANCH  40  41
ATOM     41  C   UNL A   1      41.063  27.634  28.113  1.00  0.00     0.031 A 
ATOM     42  C   UNL A   1      42.561  27.761  28.067  1.00  0.00     0.074 A 
ATOM     43  C   UNL A   1      40.311  28.646  28.583  1.00  0.00     0.049 A 
ATOM     44  N   UNL A   1      43.326  28.735  28.487  1.00  0.00    -0.248 NA
ATOM     45  C   UNL A   1      43.295  26.633  27.469  1.00  0.00     0.031 C 
ATOM     46  C   UNL A   1      38.851  28.655  28.647  1.00  0.00     0.029 A 
ATOM     47  N   UNL A   1      40.682  29.859  29.110  1.00  0.00    -0.354 N 
ATOM     48  C   UNL A   1      44.629  28.337  28.212  1.00  0.00     0.074 A 
ATOM     49  C   UNL A   1      44.554  27.022  27.615  1.00  0.00     0.031 C 
ATOM     50  C   UNL A   1      38.448  29.814  29.198  1.00  0.00     0.029 A 
ATOM     51  C   UNL A   1      39.621  30.612  29.555  1.00  0.00     0.049 A 
ATOM     52  H   UNL A   1      41.617  30.160  29.163  1.00  0.00     0.167 HD
ATOM     53  C   UNL A   1      45.783  29.011  28.431  1.00  0.00     0.037 A 
ATOM     54  C   UNL A   1      39.603  31.796  30.200  1.00  0.00     0.037 A 
ATOM     55  C   UNL A   1      45.853  30.317  29.034  1.00  0.00     0.049 A 
ATOM     56  C   UNL A   1      40.905  32.496  30.499  1.00  0.00     0.074 A 
ATOM     57  C   UNL A   1      46.974  31.089  29.283  1.00  0.00     0.029 A 
ATOM     58  N   UNL A   1      44.761  31.037  29.495  1.00  0.00    -0.354 N 
ATOM     59  N   UNL A   1      42.130  32.124  30.208  1.00  0.00    -0.248 NA
ATOM     60  C   UNL A   1      40.823  33.779  31.212  1.00  0.00     0.031 C 
ATOM     61  C   UNL A   1      46.564  32.254  29.941  1.00  0.00     0.029 A 
ATOM     62  C   UNL A   1      45.182  32.233  30.050  1.00  0.00     0.049 A 
ATOM     63  H   UNL A   1      43.824  30.741  29.436  1.00  0.00     0.167 HD
ATOM     64  C   UNL A   1      42.959  33.139  30.677  1.00  0.00     0.074 A 
ATOM     65  C   UNL A   1      42.097  34.144  31.261  1.00  0.00     0.031 C 
ATOM     66  C   UNL A   1      44.312  33.231  30.623  1.00  0.00     0.037 A 
BRANCH  53  67
ATOM     67  C   UNL A   1      47.067  28.330  28.043  1.00  0.00     0.058 A 
ATOM     68  C   UNL A   1      47.606  28.448  26.752  1.00  0.00     0.135 A 
ATOM     69  C   UNL A   1      47.777  27.564  28.981  1.00  0.00     0.135 A 
ATOM     70  F   UNL A   1      46.958  29.152  25.809  1.00  0.00    -0.206 F 
ATOM     71  C   UNL A   1      48.787  27.805  26.395  1.00  0.00     0.059 A 
ATOM     72  C   UNL A   1      48.976  26.937  28.655  1.00  0.00     0.059 A 
ATOM     73  F   UNL A   1      47.306  27.416  30.229  1.00  0.00    -0.206 F 
ATOM     74  C   UNL A   1      49.465  27.050  27.355  1.00  0.00     0.060 A 
BRANCH  74  75
ATOM     75  S   UNL A   1      50.994  26.219  26.875  1.00  0.00     0.124 S 
ATOM     76  O   UNL A   1      51.969  26.889  27.730  1.00  0.00    -0.237 OA
ATOM     77  O   UNL A   1      50.711  24.827  27.210  1.00  0.00    -0.237 OA
ATOM     78  O   UNL A   1      51.105  26.508  25.449  1.00  0.00    -0.744 OA
ENDBRANCH  74  75
ENDBRANCH  53  67
BRANCH  54  79
ATOM     79  C   UNL A   1      38.306  32.395  30.618  1.00  0.00     0.058 A 
ATOM     80  C   UNL A   1      37.566  33.202  29.742  1.00  0.00     0.135 A 
ATOM     81  C   UNL A   1      37.783  32.173  31.901  1.00  0.00     0.135 A 
ATOM     82  F   UNL A   1      38.031  33.456  28.510  1.00  0.00    -0.206 F 
ATOM     83  C   UNL A   1      36.359  33.777  30.125  1.00  0.00     0.059 A 
ATOM     84  C   UNL A   1      36.565  32.714  32.299  1.00  0.00     0.059 A 
ATOM     85  F   UNL A   1      38.450  31.403  32.775  1.00  0.00    -0.206 F 
ATOM     86  C   UNL A   1      35.864  33.523  31.406  1.00  0.00     0.060 A 
BRANCH  86  87
ATOM     87  S   UNL A   1      34.269  34.232  31.873  1.00  0.00     0.124 S 
ATOM     88  O   UNL A   1      33.662  33.131  32.612  1.00  0.00    -0.237 OA
ATOM     89  O   UNL A   1      34.670  35.388  32.667  1.00  0.00    -0.237 OA
ATOM     90  O   UNL A   1      33.652  34.546  30.588  1.00  0.00    -0.744 OA
ENDBRANCH  86  87
ENDBRANCH  54  79
BRANCH  66  91
ATOM     91  C   UNL A   1      44.949  34.478  31.178  1.00  0.00     0.058 A 
ATOM     92  C   UNL A   1      45.116  35.634  30.401  1.00  0.00     0.135 A 
ATOM     93  C   UNL A   1      45.343  34.533  32.525  1.00  0.00     0.135 A 
ATOM     94  F   UNL A   1      44.760  35.636  29.106  1.00  0.00    -0.206 F 
ATOM     95  C   UNL A   1      45.670  36.795  30.933  1.00  0.00     0.059 A 
ATOM     96  C   UNL A   1      45.874  35.691  33.086  1.00  0.00     0.059 A 
ATOM     97  F   UNL A   1      45.196  33.460  33.318  1.00  0.00    -0.206 F 
ATOM     98  C   UNL A   1      46.045  36.814  32.278  1.00  0.00     0.060 A 
BRANCH  98  99
ATOM     99  S   UNL A   1      46.732  38.336  32.966  1.00  0.00     0.124 S 
ATOM    100  O   UNL A   1      47.102  37.910  34.312  1.00  0.00    -0.237 OA
ATOM    101  O   UNL A   1      47.843  38.614  32.061  1.00  0.00    -0.237 OA
ATOM    102  O   UNL A   1      45.618  39.276  32.890  1.00  0.00    -0.744 OA
ENDBRANCH  98  99
ENDBRANCH  66  91
ENDBRANCH  40  41
ENDBRANCH  33  35
ENDBRANCH  32  33
ENDBRANCH  31  32
ENDBRANCH  30  31
ENDBRANCH  29  30
ENDBRANCH  28  29
ENDBRANCH   1  28
TORSDOF 25
ENDMDL
MODEL 3
REMARK VINA RESULT:      -9.3      2.409      8.162
REMARK SMILES C[NH2+][C@@H](C)c1ccc(SCc2ccc(C(=O)OCCOCCOCCOC(=O)c3ccc(-c4c5nc(c(-c6c(F)cc(S(=O)(=O)[O-])cc6F)c6ccc([nH]6)c(-c6c(F)cc(S(=O)(=O)[O-])cc6F)c6nc(c(-c7c(F)cc(S(=O)(=O)[O-])cc7F)c7ccc4[nH]7)C=C6)C=C5)cc3)cc2)cc1
REMARK SMILES IDX 21 1 20 2 19 3 18 4 17 5 15 6 16 7 14 8 11 9 12 10 96 11
REMARK SMILES IDX 13 12 95 13 10 14 9 15 8 16 5 17 6 18 98 19 7 20 97 21 3 22
REMARK SMILES IDX 4 23 2 24 1 25 22 28 23 29 24 30 25 31 26 32 27 33 28 34
REMARK SMILES IDX 29 35 30 36 94 37 31 38 93 39 32 40 33 41 34 42 87 43 35 44
REMARK SMILES IDX 92 45 86 46 88 47 36 48 91 49 85 50 84 51 37 53 71 54 50 55
REMARK SMILES IDX 70 56 51 57 54 58 69 59 89 60 52 61 53 62 68 64 90 65 55 66
REMARK SMILES IDX 38 67 39 68 48 69 40 70 41 71 47 72 49 73 42 74 43 75 44 76
REMARK SMILES IDX 45 77 46 78 72 79 73 80 82 81 74 82 75 83 81 84 83 85 76 86
REMARK SMILES IDX 77 87 78 88 79 89 80 90 56 91 57 92 66 93 58 94 59 95 65 96
REMARK SMILES IDX 67 97 60 98 61 99 62 100 63 101 64 102
REMARK H PARENT 2 26 2 27 88 52 54 63
REMARK Flexibility Score: inf
ROOT
ATOM      1  C   UNL A   1      33.608  27.245  25.793  1.00  0.00     0.188 C 
ENDROOT
BRANCH   1   2
ATOM      2  O   UNL A   1      32.242  27.579  25.985  1.00  0.00    -0.376 OA
BRANCH   2   3
ATOM      3  C   UNL A   1      31.793  28.910  25.778  1.00  0.00     0.202 C 
BRANCH   3   4
ATOM      4  C   UNL A   1      31.341  29.403  24.394  1.00  0.00     0.261 C 
BRANCH   4   5
ATOM      5  O   UNL A   1      30.055  28.941  23.963  1.00  0.00    -0.460 OA
BRANCH   5   6
ATOM      6  C   UNL A   1      30.044  28.339  22.743  1.00  0.00     0.338 C 
ATOM      7  O   UNL A   1      29.771  28.848  21.680  1.00  0.00    -0.246 OA
BRANCH   6   8
ATOM      8  C   UNL A   1      30.584  26.965  22.860  1.00  0.00     0.060 A 
ATOM      9  C   UNL A   1      31.580  24.353  23.215  1.00  0.00    -0.038 A 
ATOM     10  C   UNL A   1      30.502  24.826  23.986  1.00  0.00     0.005 A 
ATOM     11  C   UNL A   1      32.137  25.215  22.254  1.00  0.00     0.005 A 
ATOM     12  C   UNL A   1      30.015  26.123  23.819  1.00  0.00     0.016 A 
ATOM     13  C   UNL A   1      31.632  26.507  22.061  1.00  0.00     0.016 A 
BRANCH   9  14
ATOM     14  C   UNL A   1      32.102  22.968  23.538  1.00  0.00     0.110 C 
BRANCH  14  15
ATOM     15  S   UNL A   1      31.779  21.618  22.364  1.00  0.00    -0.121 SA
BRANCH  15  16
ATOM     16  C   UNL A   1      32.333  20.151  23.220  1.00  0.00     0.008 A 
ATOM     17  C   UNL A   1      33.190  17.940  24.774  1.00  0.00     0.009 A 
ATOM     18  C   UNL A   1      32.998  19.197  25.361  1.00  0.00     0.011 A 
ATOM     19  C   UNL A   1      32.975  17.817  23.392  1.00  0.00     0.011 A 
ATOM     20  C   UNL A   1      32.565  20.282  24.594  1.00  0.00     0.015 A 
ATOM     21  C   UNL A   1      32.540  18.905  22.626  1.00  0.00     0.015 A 
BRANCH  17  22
ATOM     22  C   UNL A   1      33.640  16.718  25.566  1.00  0.00     0.210 C 
ATOM     23  C   UNL A   1      34.586  15.809  24.767  1.00  0.00     0.081 C 
BRANCH  22  24
ATOM     24  N   UNL A   1      32.456  16.004  26.059  1.00  0.00    -0.343 N 
ATOM     25  C   UNL A   1      32.393  14.619  25.625  1.00  0.00     0.331 C 
ATOM     26  H   UNL A   1      32.469  16.023  27.079  1.00  0.00     0.346 HD
ATOM     27  H   UNL A   1      31.638  16.478  25.675  1.00  0.00     0.346 HD
ENDBRANCH  22  24
ENDBRANCH  17  22
ENDBRANCH  15  16
ENDBRANCH  14  15
ENDBRANCH   9  14
ENDBRANCH   6   8
ENDBRANCH   5   6
ENDBRANCH   4   5
ENDBRANCH   3   4
ENDBRANCH   2   3
ENDBRANCH   1   2
BRANCH   1  28
ATOM     28  C   UNL A   1      34.004  25.823  25.343  1.00  0.00     0.188 C 
BRANCH  28  29
ATOM     29  O   UNL A   1      33.664  24.787  26.231  1.00  0.00    -0.376 OA
BRANCH  29  30
ATOM     30  C   UNL A   1      34.445  23.607  26.298  1.00  0.00     0.202 C 
BRANCH  30  31
ATOM     31  C   UNL A   1      35.807  23.368  25.615  1.00  0.00     0.261 C 
BRANCH  31  32
ATOM     32  O   UNL A   1      36.911  24.195  25.981  1.00  0.00    -0.460 OA
BRANCH  32  33
ATOM     33  C   UNL A   1      38.066  23.548  26.269  1.00  0.00     0.338 C 
ATOM     34  O   UNL A   1      38.339  22.383  26.044  1.00  0.00    -0.246 OA
BRANCH  33  35
ATOM     35  C   UNL A   1      39.032  24.535  26.783  1.00  0.00     0.060 A 
ATOM     36  C   UNL A   1      39.071  24.787  28.160  1.00  0.00     0.016 A 
ATOM     37  C   UNL A   1      39.869  25.229  25.907  1.00  0.00     0.016 A 
ATOM     38  C   UNL A   1      39.938  25.756  28.665  1.00  0.00     0.010 A 
ATOM     39  C   UNL A   1      40.724  26.211  26.414  1.00  0.00     0.010 A 
ATOM     40  C   UNL A   1      40.743  26.498  27.791  1.00  0.00    -0.014 A 
BRANCH  40  41
ATOM     41  C   UNL A   1      41.483  27.684  28.288  1.00  0.00     0.031 A 
ATOM     42  C   UNL A   1      40.701  28.827  28.873  1.00  0.00     0.074 A 
ATOM     43  C   UNL A   1      42.826  27.742  28.226  1.00  0.00     0.049 A 
ATOM     44  N   UNL A   1      41.124  29.982  29.317  1.00  0.00    -0.248 NA
ATOM     45  C   UNL A   1      39.244  28.643  28.967  1.00  0.00     0.031 C 
ATOM     46  C   UNL A   1      43.696  26.686  27.711  1.00  0.00     0.029 A 
ATOM     47  N   UNL A   1      43.690  28.746  28.588  1.00  0.00    -0.354 N 
ATOM     48  C   UNL A   1      39.989  30.665  29.736  1.00  0.00     0.074 A 
ATOM     49  C   UNL A   1      38.855  29.807  29.468  1.00  0.00     0.031 C 
ATOM     50  C   UNL A   1      44.972  27.104  27.777  1.00  0.00     0.029 A 
ATOM     51  C   UNL A   1      45.006  28.467  28.306  1.00  0.00     0.049 A 
ATOM     52  H   UNL A   1      43.396  29.585  29.010  1.00  0.00     0.167 HD
ATOM     53  C   UNL A   1      39.899  31.893  30.299  1.00  0.00     0.037 A 
ATOM     54  C   UNL A   1      46.108  29.235  28.436  1.00  0.00     0.037 A 
ATOM     55  C   UNL A   1      41.030  32.747  30.556  1.00  0.00     0.049 A 
ATOM     56  C   UNL A   1      45.976  30.628  28.999  1.00  0.00     0.074 A 
ATOM     57  C   UNL A   1      41.044  34.003  31.139  1.00  0.00     0.029 A 
ATOM     58  N   UNL A   1      42.344  32.441  30.234  1.00  0.00    -0.354 N 
ATOM     59  N   UNL A   1      44.900  31.252  29.419  1.00  0.00    -0.248 NA
ATOM     60  C   UNL A   1      47.210  31.421  29.109  1.00  0.00     0.031 C 
ATOM     61  C   UNL A   1      42.360  34.476  31.122  1.00  0.00     0.029 A 
ATOM     62  C   UNL A   1      43.174  33.493  30.582  1.00  0.00     0.049 A 
ATOM     63  H   UNL A   1      42.642  31.600  29.819  1.00  0.00     0.167 HD
ATOM     64  C   UNL A   1      45.331  32.498  29.867  1.00  0.00     0.074 A 
ATOM     65  C   UNL A   1      46.766  32.535  29.677  1.00  0.00     0.031 C 
ATOM     66  C   UNL A   1      44.604  33.516  30.393  1.00  0.00     0.037 A 
BRANCH  53  67
ATOM     67  C   UNL A   1      38.526  32.398  30.647  1.00  0.00     0.058 A 
ATOM     68  C   UNL A   1      37.965  32.199  31.919  1.00  0.00     0.135 A 
ATOM     69  C   UNL A   1      37.767  33.105  29.701  1.00  0.00     0.135 A 
ATOM     70  F   UNL A   1      38.639  31.511  32.856  1.00  0.00    -0.206 F 
ATOM     71  C   UNL A   1      36.689  32.657  32.231  1.00  0.00     0.059 A 
ATOM     72  C   UNL A   1      36.501  33.598  30.000  1.00  0.00     0.059 A 
ATOM     73  F   UNL A   1      38.254  33.322  28.469  1.00  0.00    -0.206 F 
ATOM     74  C   UNL A   1      35.963  33.354  31.263  1.00  0.00     0.060 A 
BRANCH  74  75
ATOM     75  S   UNL A   1      34.307  33.938  31.682  1.00  0.00     0.124 S 
ATOM     76  O   UNL A   1      33.749  34.201  30.358  1.00  0.00    -0.237 OA
ATOM     77  O   UNL A   1      33.742  32.794  32.390  1.00  0.00    -0.237 OA
ATOM     78  O   UNL A   1      34.559  35.118  32.502  1.00  0.00    -0.744 OA
ENDBRANCH  74  75
ENDBRANCH  53  67
BRANCH  54  79
ATOM     79  C   UNL A   1      47.435  28.708  28.017  1.00  0.00     0.058 A 
ATOM     80  C   UNL A   1      47.864  28.803  26.685  1.00  0.00     0.135 A 
ATOM     81  C   UNL A   1      48.299  28.098  28.940  1.00  0.00     0.135 A 
ATOM     82  F   UNL A   1      47.068  29.364  25.763  1.00  0.00    -0.206 F 
ATOM     83  C   UNL A   1      49.097  28.304  26.280  1.00  0.00     0.059 A 
ATOM     84  C   UNL A   1      49.549  27.615  28.564  1.00  0.00     0.059 A 
ATOM     85  F   UNL A   1      47.938  27.987  30.228  1.00  0.00    -0.206 F 
ATOM     86  C   UNL A   1      49.935  27.715  27.229  1.00  0.00     0.060 A 
BRANCH  86  87
ATOM     87  S   UNL A   1      51.557  27.118  26.700  1.00  0.00     0.124 S 
ATOM     88  O   UNL A   1      51.813  27.956  25.535  1.00  0.00    -0.237 OA
ATOM     89  O   UNL A   1      52.379  27.388  27.875  1.00  0.00    -0.237 OA
ATOM     90  O   UNL A   1      51.319  25.705  26.421  1.00  0.00    -0.744 OA
ENDBRANCH  86  87
ENDBRANCH  54  79
BRANCH  66  91
ATOM     91  C   UNL A   1      45.348  34.747  30.838  1.00  0.00     0.058 A 
ATOM     92  C   UNL A   1      45.873  34.869  32.134  1.00  0.00     0.135 A 
ATOM     93  C   UNL A   1      45.591  35.794  29.933  1.00  0.00     0.135 A 
ATOM     94  F   UNL A   1      45.668  33.900  33.041  1.00  0.00    -0.206 F 
ATOM     95  C   UNL A   1      46.593  35.995  32.524  1.00  0.00     0.059 A 
ATOM     96  C   UNL A   1      46.331  36.916  30.293  1.00  0.00     0.059 A 
ATOM     97  F   UNL A   1      45.122  35.725  28.677  1.00  0.00    -0.206 F 
ATOM     98  C   UNL A   1      46.818  37.013  31.596  1.00  0.00     0.060 A 
BRANCH  98  99
ATOM     99  S   UNL A   1      47.783  38.453  32.104  1.00  0.00     0.124 S 
ATOM    100  O   UNL A   1      49.141  37.918  32.089  1.00  0.00    -0.237 OA
ATOM    101  O   UNL A   1      47.472  39.422  31.057  1.00  0.00    -0.237 OA
ATOM    102  O   UNL A   1      47.249  38.771  33.424  1.00  0.00    -0.744 OA
ENDBRANCH  98  99
ENDBRANCH  66  91
ENDBRANCH  40  41
ENDBRANCH  33  35
ENDBRANCH  32  33
ENDBRANCH  31  32
ENDBRANCH  30  31
ENDBRANCH  29  30
ENDBRANCH  28  29
ENDBRANCH   1  28
TORSDOF 25
ENDMDL
