MODEL 1
REMARK VINA RESULT:      -9.9      0.000      0.000
REMARK SMILES CC[NH2+][C@]1(C(=O)OCCOCCOCCOC(=O)c2ccc(-c3c4nc(c(-c5c(F)cc(S(=O)(=O)[O-])cc5F)c5ccc([nH]5)c(-c5c(F)cc(S(=O)(=O)[O-])cc5F)c5nc(c(-c6c(F)cc(S(=O)(=O)[O-])cc6F)c6ccc3[nH]6)C=C5)C=C4)cc2)CCC[C@@H]([N@@H+](C)CC2CCCC2)C1
REMARK SMILES IDX 11 1 10 2 9 3 8 4 7 5 5 6 6 7 4 8 85 9 97 10 86 11 88 12
REMARK SMILES IDX 87 13 3 14 2 17 1 18 89 19 90 20 91 22 92 23 93 24 96 25
REMARK SMILES IDX 94 26 95 27 12 28 13 29 14 30 15 31 16 32 17 33 18 34 19 35
REMARK SMILES IDX 20 36 84 37 21 38 83 39 22 40 23 41 24 42 77 43 25 44 82 45
REMARK SMILES IDX 76 46 78 47 26 48 81 49 75 50 74 51 27 53 61 54 40 55 60 56
REMARK SMILES IDX 41 57 44 58 59 59 79 60 42 61 43 62 58 64 80 65 45 66 28 67
REMARK SMILES IDX 29 68 38 69 30 70 31 71 37 72 39 73 32 74 33 75 34 76 35 77
REMARK SMILES IDX 36 78 62 79 63 80 72 81 64 82 65 83 71 84 73 85 66 86 67 87
REMARK SMILES IDX 68 88 69 89 70 90 46 91 47 92 56 93 48 94 49 95 55 96 57 97
REMARK SMILES IDX 50 98 51 99 52 100 53 101 54 102
REMARK H PARENT 3 15 3 16 89 21 78 52 44 63
REMARK Flexibility Score: inf
ROOT
ATOM      1  C   UNL A   1      38.088  19.606  25.031  1.00  0.00     0.188 C 
ENDROOT
BRANCH   1   2
ATOM      2  O   UNL A   1      37.713  20.967  24.829  1.00  0.00    -0.376 OA
BRANCH   2   3
ATOM      3  C   UNL A   1      36.476  21.400  25.382  1.00  0.00     0.202 C 
BRANCH   3   4
ATOM      4  C   UNL A   1      35.665  22.336  24.491  1.00  0.00     0.261 C 
BRANCH   4   5
ATOM      5  O   UNL A   1      34.370  22.608  25.053  1.00  0.00    -0.459 OA
BRANCH   5   6
ATOM      6  C   UNL A   1      34.087  23.916  25.325  1.00  0.00     0.368 C 
ATOM      7  O   UNL A   1      34.911  24.722  25.743  1.00  0.00    -0.245 OA
BRANCH   6   8
ATOM      8  C   UNL A   1      32.603  24.266  25.017  1.00  0.00     0.200 C 
ATOM      9  C   UNL A   1      31.819  24.424  26.348  1.00  0.00     0.081 C 
ATOM     10  C   UNL A   1      32.637  25.646  24.306  1.00  0.00     0.146 C 
ATOM     11  C   UNL A   1      30.410  24.978  26.129  1.00  0.00     0.013 C 
ATOM     12  C   UNL A   1      31.261  26.297  24.118  1.00  0.00     0.190 C 
ATOM     13  C   UNL A   1      30.490  26.326  25.437  1.00  0.00     0.065 C 
BRANCH   8  14
ATOM     14  N   UNL A   1      31.959  23.131  24.302  1.00  0.00    -0.332 N 
ATOM     15  H   UNL A   1      32.358  22.271  24.679  1.00  0.00     0.347 HD
ATOM     16  H   UNL A   1      30.961  23.269  24.460  1.00  0.00     0.347 HD
BRANCH  14  17
ATOM     17  C   UNL A   1      32.084  23.064  22.854  1.00  0.00     0.257 C 
ATOM     18  C   UNL A   1      32.074  21.589  22.452  1.00  0.00     0.071 C 
ENDBRANCH  14  17
ENDBRANCH   8  14
BRANCH  12  19
ATOM     19  N   UNL A   1      31.390  27.592  23.447  1.00  0.00    -0.334 N 
ATOM     20  C   UNL A   1      31.529  27.540  22.002  1.00  0.00     0.332 C 
ATOM     21  H   UNL A   1      32.301  27.770  23.868  1.00  0.00     0.348 HD
BRANCH  19  22
ATOM     22  C   UNL A   1      30.783  28.820  23.956  1.00  0.00     0.265 C 
BRANCH  22  23
ATOM     23  C   UNL A   1      29.665  29.579  23.204  1.00  0.00     0.044 C 
ATOM     24  C   UNL A   1      28.383  28.736  23.138  1.00  0.00     0.009 C 
ATOM     25  C   UNL A   1      29.154  30.917  23.760  1.00  0.00     0.009 C 
ATOM     26  C   UNL A   1      27.332  29.731  22.679  1.00  0.00     0.001 C 
ATOM     27  C   UNL A   1      27.659  30.989  23.462  1.00  0.00     0.001 C 
ENDBRANCH  22  23
ENDBRANCH  19  22
ENDBRANCH  12  19
ENDBRANCH   6   8
ENDBRANCH   5   6
ENDBRANCH   4   5
ENDBRANCH   3   4
ENDBRANCH   2   3
ENDBRANCH   1   2
BRANCH   1  28
ATOM     28  C   UNL A   1      39.431  19.352  25.736  1.00  0.00     0.188 C 
BRANCH  28  29
ATOM     29  O   UNL A   1      40.145  20.514  26.165  1.00  0.00    -0.376 OA
BRANCH  29  30
ATOM     30  C   UNL A   1      41.551  20.359  26.359  1.00  0.00     0.202 C 
BRANCH  30  31
ATOM     31  C   UNL A   1      42.340  21.636  26.085  1.00  0.00     0.261 C 
BRANCH  31  32
ATOM     32  O   UNL A   1      41.565  22.780  26.487  1.00  0.00    -0.460 OA
BRANCH  32  33
ATOM     33  C   UNL A   1      41.982  23.943  25.961  1.00  0.00     0.338 C 
ATOM     34  O   UNL A   1      42.740  24.085  25.000  1.00  0.00    -0.246 OA
BRANCH  33  35
ATOM     35  C   UNL A   1      41.376  25.078  26.670  1.00  0.00     0.060 A 
ATOM     36  C   UNL A   1      41.872  26.363  26.450  1.00  0.00     0.016 A 
ATOM     37  C   UNL A   1      40.470  24.845  27.701  1.00  0.00     0.016 A 
ATOM     38  C   UNL A   1      41.570  27.394  27.345  1.00  0.00     0.010 A 
ATOM     39  C   UNL A   1      40.121  25.892  28.561  1.00  0.00     0.010 A 
ATOM     40  C   UNL A   1      40.735  27.156  28.444  1.00  0.00    -0.014 A 
BRANCH  40  41
ATOM     41  C   UNL A   1      40.672  28.119  29.586  1.00  0.00     0.031 A 
ATOM     42  C   UNL A   1      41.699  27.994  30.691  1.00  0.00     0.074 A 
ATOM     43  C   UNL A   1      39.778  29.126  29.649  1.00  0.00     0.049 A 
ATOM     44  N   UNL A   1      41.715  28.533  31.884  1.00  0.00    -0.248 NA
ATOM     45  C   UNL A   1      42.857  27.129  30.413  1.00  0.00     0.031 C 
ATOM     46  C   UNL A   1      38.792  29.456  28.623  1.00  0.00     0.029 A 
ATOM     47  N   UNL A   1      39.566  30.066  30.629  1.00  0.00    -0.354 N 
ATOM     48  C   UNL A   1      42.835  28.010  32.522  1.00  0.00     0.074 A 
ATOM     49  C   UNL A   1      43.480  27.120  31.582  1.00  0.00     0.031 C 
ATOM     50  C   UNL A   1      38.095  30.536  29.017  1.00  0.00     0.029 A 
ATOM     51  C   UNL A   1      38.531  30.929  30.356  1.00  0.00     0.049 A 
ATOM     52  H   UNL A   1      40.105  30.116  31.452  1.00  0.00     0.167 HD
ATOM     53  C   UNL A   1      43.284  28.242  33.779  1.00  0.00     0.037 A 
ATOM     54  C   UNL A   1      37.969  31.896  31.111  1.00  0.00     0.037 A 
ATOM     55  C   UNL A   1      42.693  29.189  34.688  1.00  0.00     0.049 A 
ATOM     56  C   UNL A   1      38.474  32.135  32.512  1.00  0.00     0.074 A 
ATOM     57  C   UNL A   1      43.060  29.482  35.991  1.00  0.00     0.029 A 
ATOM     58  N   UNL A   1      41.632  30.024  34.374  1.00  0.00    -0.354 N 
ATOM     59  N   UNL A   1      39.453  31.542  33.151  1.00  0.00    -0.248 NA
ATOM     60  C   UNL A   1      37.774  33.160  33.303  1.00  0.00     0.031 C 
ATOM     61  C   UNL A   1      42.210  30.486  36.470  1.00  0.00     0.029 A 
ATOM     62  C   UNL A   1      41.335  30.838  35.455  1.00  0.00     0.049 A 
ATOM     63  H   UNL A   1      41.160  30.037  33.511  1.00  0.00     0.167 HD
ATOM     64  C   UNL A   1      39.491  32.125  34.415  1.00  0.00     0.074 A 
ATOM     65  C   UNL A   1      38.453  33.134  34.442  1.00  0.00     0.031 C 
ATOM     66  C   UNL A   1      40.304  31.844  35.463  1.00  0.00     0.037 A 
BRANCH  53  67
ATOM     67  C   UNL A   1      44.446  27.419  34.260  1.00  0.00     0.058 A 
ATOM     68  C   UNL A   1      44.279  26.150  34.834  1.00  0.00     0.135 A 
ATOM     69  C   UNL A   1      45.754  27.918  34.143  1.00  0.00     0.135 A 
ATOM     70  F   UNL A   1      43.048  25.637  34.991  1.00  0.00    -0.206 F 
ATOM     71  C   UNL A   1      45.364  25.417  35.306  1.00  0.00     0.059 A 
ATOM     72  C   UNL A   1      46.856  27.192  34.585  1.00  0.00     0.059 A 
ATOM     73  F   UNL A   1      45.971  29.127  33.602  1.00  0.00    -0.206 F 
ATOM     74  C   UNL A   1      46.648  25.950  35.183  1.00  0.00     0.060 A 
BRANCH  74  75
ATOM     75  S   UNL A   1      48.050  25.001  35.813  1.00  0.00     0.124 S 
ATOM     76  O   UNL A   1      48.698  25.983  36.677  1.00  0.00    -0.237 OA
ATOM     77  O   UNL A   1      47.396  23.891  36.498  1.00  0.00    -0.237 OA
ATOM     78  O   UNL A   1      48.787  24.642  34.606  1.00  0.00    -0.744 OA
ENDBRANCH  74  75
ENDBRANCH  53  67
BRANCH  54  79
ATOM     79  C   UNL A   1      36.826  32.688  30.581  1.00  0.00     0.058 A 
ATOM     80  C   UNL A   1      35.507  32.400  30.963  1.00  0.00     0.135 A 
ATOM     81  C   UNL A   1      37.029  33.739  29.673  1.00  0.00     0.135 A 
ATOM     82  F   UNL A   1      35.260  31.392  31.813  1.00  0.00    -0.206 F 
ATOM     83  C   UNL A   1      34.428  33.119  30.457  1.00  0.00     0.059 A 
ATOM     84  C   UNL A   1      35.969  34.489  29.174  1.00  0.00     0.059 A 
ATOM     85  F   UNL A   1      38.271  34.056  29.277  1.00  0.00    -0.206 F 
ATOM     86  C   UNL A   1      34.670  34.164  29.563  1.00  0.00     0.060 A 
BRANCH  86  87
ATOM     87  S   UNL A   1      33.272  35.130  28.950  1.00  0.00     0.124 S 
ATOM     88  O   UNL A   1      32.670  34.202  28.000  1.00  0.00    -0.237 OA
ATOM     89  O   UNL A   1      32.508  35.381  30.168  1.00  0.00    -0.237 OA
ATOM     90  O   UNL A   1      33.911  36.306  28.367  1.00  0.00    -0.744 OA
ENDBRANCH  86  87
ENDBRANCH  54  79
BRANCH  66  91
ATOM     91  C   UNL A   1      40.121  32.655  36.716  1.00  0.00     0.058 A 
ATOM     92  C   UNL A   1      39.071  32.397  37.610  1.00  0.00     0.135 A 
ATOM     93  C   UNL A   1      41.022  33.681  37.038  1.00  0.00     0.135 A 
ATOM     94  F   UNL A   1      38.180  31.429  37.345  1.00  0.00    -0.206 F 
ATOM     95  C   UNL A   1      38.902  33.151  38.768  1.00  0.00     0.059 A 
ATOM     96  C   UNL A   1      40.885  34.432  38.201  1.00  0.00     0.059 A 
ATOM     97  F   UNL A   1      42.051  33.959  36.222  1.00  0.00    -0.206 F 
ATOM     98  C   UNL A   1      39.812  34.170  39.053  1.00  0.00     0.060 A 
BRANCH  98  99
ATOM     99  S   UNL A   1      39.595  35.137  40.563  1.00  0.00     0.124 S 
ATOM    100  O   UNL A   1      40.241  34.283  41.553  1.00  0.00    -0.237 OA
ATOM    101  O   UNL A   1      40.291  36.380  40.247  1.00  0.00    -0.237 OA
ATOM    102  O   UNL A   1      38.144  35.254  40.683  1.00  0.00    -0.744 OA
ENDBRANCH  98  99
ENDBRANCH  66  91
ENDBRANCH  40  41
ENDBRANCH  33  35
ENDBRANCH  32  33
ENDBRANCH  31  32
ENDBRANCH  30  31
ENDBRANCH  29  30
ENDBRANCH  28  29
ENDBRANCH   1  28
TORSDOF 25
ENDMDL
MODEL 2
REMARK VINA RESULT:      -9.6      1.343      8.188
REMARK SMILES CC[NH2+][C@]1(C(=O)OCCOCCOCCOC(=O)c2ccc(-c3c4nc(c(-c5c(F)cc(S(=O)(=O)[O-])cc5F)c5ccc([nH]5)c(-c5c(F)cc(S(=O)(=O)[O-])cc5F)c5nc(c(-c6c(F)cc(S(=O)(=O)[O-])cc6F)c6ccc3[nH]6)C=C5)C=C4)cc2)CCC[C@@H]([N@@H+](C)CC2CCCC2)C1
REMARK SMILES IDX 11 1 10 2 9 3 8 4 7 5 5 6 6 7 4 8 85 9 97 10 86 11 88 12
REMARK SMILES IDX 87 13 3 14 2 17 1 18 89 19 90 20 91 22 92 23 93 24 96 25
REMARK SMILES IDX 94 26 95 27 12 28 13 29 14 30 15 31 16 32 17 33 18 34 19 35
REMARK SMILES IDX 20 36 84 37 21 38 83 39 22 40 23 41 24 42 77 43 25 44 82 45
REMARK SMILES IDX 76 46 78 47 26 48 81 49 75 50 74 51 27 53 61 54 40 55 60 56
REMARK SMILES IDX 41 57 44 58 59 59 79 60 42 61 43 62 58 64 80 65 45 66 28 67
REMARK SMILES IDX 29 68 38 69 30 70 31 71 37 72 39 73 32 74 33 75 34 76 35 77
REMARK SMILES IDX 36 78 62 79 63 80 72 81 64 82 65 83 71 84 73 85 66 86 67 87
REMARK SMILES IDX 68 88 69 89 70 90 46 91 47 92 56 93 48 94 49 95 55 96 57 97
REMARK SMILES IDX 50 98 51 99 52 100 53 101 54 102
REMARK H PARENT 3 15 3 16 89 21 78 52 44 63
REMARK Flexibility Score: inf
ROOT
ATOM      1  C   UNL A   1      38.684  19.658  25.384  1.00  0.00     0.188 C 
ENDROOT
BRANCH   1   2
ATOM      2  O   UNL A   1      38.070  20.839  24.873  1.00  0.00    -0.376 OA
BRANCH   2   3
ATOM      3  C   UNL A   1      36.704  21.065  25.195  1.00  0.00     0.202 C 
BRANCH   3   4
ATOM      4  C   UNL A   1      36.392  22.455  25.742  1.00  0.00     0.261 C 
BRANCH   4   5
ATOM      5  O   UNL A   1      34.979  22.721  25.732  1.00  0.00    -0.459 OA
BRANCH   5   6
ATOM      6  C   UNL A   1      34.454  23.174  24.555  1.00  0.00     0.368 C 
ATOM      7  O   UNL A   1      35.127  23.461  23.572  1.00  0.00    -0.245 OA
BRANCH   6   8
ATOM      8  C   UNL A   1      32.902  23.258  24.606  1.00  0.00     0.200 C 
ATOM      9  C   UNL A   1      32.429  23.256  26.085  1.00  0.00     0.081 C 
ATOM     10  C   UNL A   1      32.535  24.632  23.980  1.00  0.00     0.146 C 
ATOM     11  C   UNL A   1      30.934  23.553  26.217  1.00  0.00     0.013 C 
ATOM     12  C   UNL A   1      31.062  25.029  24.140  1.00  0.00     0.190 C 
ATOM     13  C   UNL A   1      30.622  24.903  25.598  1.00  0.00     0.065 C 
BRANCH   8  14
ATOM     14  N   UNL A   1      32.314  22.035  23.993  1.00  0.00    -0.332 N 
ATOM     15  H   UNL A   1      31.302  22.156  23.991  1.00  0.00     0.347 HD
ATOM     16  H   UNL A   1      32.761  21.974  23.077  1.00  0.00     0.347 HD
BRANCH  14  17
ATOM     17  C   UNL A   1      32.593  20.749  24.612  1.00  0.00     0.257 C 
ATOM     18  C   UNL A   1      32.499  19.678  23.525  1.00  0.00     0.071 C 
ENDBRANCH  14  17
ENDBRANCH   8  14
BRANCH  12  19
ATOM     19  N   UNL A   1      30.811  26.335  23.528  1.00  0.00    -0.334 N 
ATOM     20  C   UNL A   1      31.298  26.496  22.168  1.00  0.00     0.332 C 
ATOM     21  H   UNL A   1      31.444  26.809  24.171  1.00  0.00     0.348 HD
BRANCH  19  22
ATOM     22  C   UNL A   1      29.658  27.166  23.863  1.00  0.00     0.265 C 
BRANCH  22  23
ATOM     23  C   UNL A   1      29.281  28.439  23.070  1.00  0.00     0.044 C 
ATOM     24  C   UNL A   1      27.760  28.652  23.072  1.00  0.00     0.009 C 
ATOM     25  C   UNL A   1      29.808  29.805  23.537  1.00  0.00     0.009 C 
ATOM     26  C   UNL A   1      27.603  30.071  22.554  1.00  0.00     0.001 C 
ATOM     27  C   UNL A   1      28.718  30.834  23.247  1.00  0.00     0.001 C 
ENDBRANCH  22  23
ENDBRANCH  19  22
ENDBRANCH  12  19
ENDBRANCH   6   8
ENDBRANCH   5   6
ENDBRANCH   4   5
ENDBRANCH   3   4
ENDBRANCH   2   3
ENDBRANCH   1   2
BRANCH   1  28
ATOM     28  C   UNL A   1      40.077  19.816  26.017  1.00  0.00     0.188 C 
BRANCH  28  29
ATOM     29  O   UNL A   1      40.517  21.157  26.242  1.00  0.00    -0.376 OA
BRANCH  29  30
ATOM     30  C   UNL A   1      41.580  21.327  27.180  1.00  0.00     0.202 C 
BRANCH  30  31
ATOM     31  C   UNL A   1      42.452  22.544  26.886  1.00  0.00     0.261 C 
BRANCH  31  32
ATOM     32  O   UNL A   1      41.913  23.698  27.556  1.00  0.00    -0.460 OA
BRANCH  32  33
ATOM     33  C   UNL A   1      41.871  24.807  26.799  1.00  0.00     0.338 C 
ATOM     34  O   UNL A   1      42.189  24.899  25.612  1.00  0.00    -0.246 OA
BRANCH  33  35
ATOM     35  C   UNL A   1      41.344  25.940  27.571  1.00  0.00     0.060 A 
ATOM     36  C   UNL A   1      42.083  27.122  27.637  1.00  0.00     0.016 A 
ATOM     37  C   UNL A   1      40.237  25.761  28.395  1.00  0.00     0.016 A 
ATOM     38  C   UNL A   1      41.798  28.072  28.623  1.00  0.00     0.010 A 
ATOM     39  C   UNL A   1      39.917  26.740  29.342  1.00  0.00     0.010 A 
ATOM     40  C   UNL A   1      40.746  27.865  29.524  1.00  0.00    -0.014 A 
BRANCH  40  41
ATOM     41  C   UNL A   1      40.636  28.671  30.778  1.00  0.00     0.031 A 
ATOM     42  C   UNL A   1      39.553  29.726  30.863  1.00  0.00     0.074 A 
ATOM     43  C   UNL A   1      41.418  28.464  31.855  1.00  0.00     0.049 A 
ATOM     44  N   UNL A   1      39.403  30.704  31.721  1.00  0.00    -0.248 NA
ATOM     45  C   UNL A   1      38.508  29.676  29.828  1.00  0.00     0.031 C 
ATOM     46  C   UNL A   1      42.435  27.422  31.984  1.00  0.00     0.029 A 
ATOM     47  N   UNL A   1      41.469  29.128  33.058  1.00  0.00    -0.354 N 
ATOM     48  C   UNL A   1      38.300  31.428  31.281  1.00  0.00     0.074 A 
ATOM     49  C   UNL A   1      37.812  30.772  30.088  1.00  0.00     0.031 C 
ATOM     50  C   UNL A   1      42.992  27.502  33.204  1.00  0.00     0.029 A 
ATOM     51  C   UNL A   1      42.430  28.648  33.917  1.00  0.00     0.049 A 
ATOM     52  H   UNL A   1      40.873  29.879  33.284  1.00  0.00     0.167 HD
ATOM     53  C   UNL A   1      37.745  32.543  31.816  1.00  0.00     0.037 A 
ATOM     54  C   UNL A   1      42.840  29.101  35.120  1.00  0.00     0.037 A 
ATOM     55  C   UNL A   1      38.176  33.150  33.048  1.00  0.00     0.049 A 
ATOM     56  C   UNL A   1      42.220  30.349  35.697  1.00  0.00     0.074 A 
ATOM     57  C   UNL A   1      37.694  34.293  33.663  1.00  0.00     0.029 A 
ATOM     58  N   UNL A   1      39.167  32.640  33.872  1.00  0.00    -0.354 N 
ATOM     59  N   UNL A   1      41.263  31.100  35.208  1.00  0.00    -0.248 NA
ATOM     60  C   UNL A   1      42.758  30.824  36.982  1.00  0.00     0.031 C 
ATOM     61  C   UNL A   1      38.406  34.482  34.854  1.00  0.00     0.029 A 
ATOM     62  C   UNL A   1      39.308  33.441  34.993  1.00  0.00     0.049 A 
ATOM     63  H   UNL A   1      39.694  31.829  33.687  1.00  0.00     0.167 HD
ATOM     64  C   UNL A   1      41.082  32.132  36.125  1.00  0.00     0.074 A 
ATOM     65  C   UNL A   1      42.010  31.895  37.210  1.00  0.00     0.031 C 
ATOM     66  C   UNL A   1      40.231  33.187  36.070  1.00  0.00     0.037 A 
BRANCH  53  67
ATOM     67  C   UNL A   1      36.641  33.205  31.041  1.00  0.00     0.058 A 
ATOM     68  C   UNL A   1      36.875  33.888  29.838  1.00  0.00     0.135 A 
ATOM     69  C   UNL A   1      35.321  33.153  31.519  1.00  0.00     0.135 A 
ATOM     70  F   UNL A   1      38.121  33.986  29.349  1.00  0.00    -0.206 F 
ATOM     71  C   UNL A   1      35.845  34.525  29.152  1.00  0.00     0.059 A 
ATOM     72  C   UNL A   1      34.272  33.761  30.837  1.00  0.00     0.059 A 
ATOM     73  F   UNL A   1      35.042  32.514  32.665  1.00  0.00    -0.206 F 
ATOM     74  C   UNL A   1      34.547  34.462  29.663  1.00  0.00     0.060 A 
BRANCH  74  75
ATOM     75  S   UNL A   1      33.219  35.306  28.777  1.00  0.00     0.124 S 
ATOM     76  O   UNL A   1      32.592  34.194  28.069  1.00  0.00    -0.237 OA
ATOM     77  O   UNL A   1      32.435  35.886  29.863  1.00  0.00    -0.237 OA
ATOM     78  O   UNL A   1      33.929  36.266  27.938  1.00  0.00    -0.744 OA
ENDBRANCH  74  75
ENDBRANCH  53  67
BRANCH  54  79
ATOM     79  C   UNL A   1      43.932  28.401  35.850  1.00  0.00     0.058 A 
ATOM     80  C   UNL A   1      45.276  28.747  35.646  1.00  0.00     0.135 A 
ATOM     81  C   UNL A   1      43.654  27.365  36.755  1.00  0.00     0.135 A 
ATOM     82  F   UNL A   1      45.594  29.717  34.776  1.00  0.00    -0.206 F 
ATOM     83  C   UNL A   1      46.307  28.084  36.304  1.00  0.00     0.059 A 
ATOM     84  C   UNL A   1      44.665  26.705  37.445  1.00  0.00     0.059 A 
ATOM     85  F   UNL A   1      42.384  26.996  36.987  1.00  0.00    -0.206 F 
ATOM     86  C   UNL A   1      45.992  27.065  37.205  1.00  0.00     0.060 A 
BRANCH  86  87
ATOM     87  S   UNL A   1      47.329  26.243  38.099  1.00  0.00     0.124 S 
ATOM     88  O   UNL A   1      48.497  26.681  37.344  1.00  0.00    -0.237 OA
ATOM     89  O   UNL A   1      47.193  26.797  39.441  1.00  0.00    -0.237 OA
ATOM     90  O   UNL A   1      46.990  24.828  37.976  1.00  0.00    -0.744 OA
ENDBRANCH  86  87
ENDBRANCH  54  79
BRANCH  66  91
ATOM     91  C   UNL A   1      40.247  34.147  37.226  1.00  0.00     0.058 A 
ATOM     92  C   UNL A   1      41.134  35.235  37.264  1.00  0.00     0.135 A 
ATOM     93  C   UNL A   1      39.348  33.995  38.292  1.00  0.00     0.135 A 
ATOM     94  F   UNL A   1      42.016  35.423  36.270  1.00  0.00    -0.206 F 
ATOM     95  C   UNL A   1      41.148  36.122  38.336  1.00  0.00     0.059 A 
ATOM     96  C   UNL A   1      39.330  34.882  39.363  1.00  0.00     0.059 A 
ATOM     97  F   UNL A   1      38.471  32.978  38.297  1.00  0.00    -0.206 F 
ATOM     98  C   UNL A   1      40.245  35.935  39.385  1.00  0.00     0.060 A 
BRANCH  98  99
ATOM     99  S   UNL A   1      40.261  37.096  40.767  1.00  0.00     0.124 S 
ATOM    100  O   UNL A   1      40.508  38.361  40.085  1.00  0.00    -0.237 OA
ATOM    101  O   UNL A   1      38.925  36.932  41.335  1.00  0.00    -0.237 OA
ATOM    102  O   UNL A   1      41.353  36.609  41.605  1.00  0.00    -0.744 OA
ENDBRANCH  98  99
ENDBRANCH  66  91
ENDBRANCH  40  41
ENDBRANCH  33  35
ENDBRANCH  32  33
ENDBRANCH  31  32
ENDBRANCH  30  31
ENDBRANCH  29  30
ENDBRANCH  28  29
ENDBRANCH   1  28
TORSDOF 25
ENDMDL
MODEL 3
REMARK VINA RESULT:      -9.4      1.878      8.297
REMARK SMILES CC[NH2+][C@]1(C(=O)OCCOCCOCCOC(=O)c2ccc(-c3c4nc(c(-c5c(F)cc(S(=O)(=O)[O-])cc5F)c5ccc([nH]5)c(-c5c(F)cc(S(=O)(=O)[O-])cc5F)c5nc(c(-c6c(F)cc(S(=O)(=O)[O-])cc6F)c6ccc3[nH]6)C=C5)C=C4)cc2)CCC[C@@H]([N@@H+](C)CC2CCCC2)C1
REMARK SMILES IDX 11 1 10 2 9 3 8 4 7 5 5 6 6 7 4 8 85 9 97 10 86 11 88 12
REMARK SMILES IDX 87 13 3 14 2 17 1 18 89 19 90 20 91 22 92 23 93 24 96 25
REMARK SMILES IDX 94 26 95 27 12 28 13 29 14 30 15 31 16 32 17 33 18 34 19 35
REMARK SMILES IDX 20 36 84 37 21 38 83 39 22 40 23 41 24 42 77 43 25 44 82 45
REMARK SMILES IDX 76 46 78 47 26 48 81 49 75 50 74 51 27 53 61 54 40 55 60 56
REMARK SMILES IDX 41 57 44 58 59 59 79 60 42 61 43 62 58 64 80 65 45 66 28 67
REMARK SMILES IDX 29 68 38 69 30 70 31 71 37 72 39 73 32 74 33 75 34 76 35 77
REMARK SMILES IDX 36 78 62 79 63 80 72 81 64 82 65 83 71 84 73 85 66 86 67 87
REMARK SMILES IDX 68 88 69 89 70 90 46 91 47 92 56 93 48 94 49 95 55 96 57 97
REMARK SMILES IDX 50 98 51 99 52 100 53 101 54 102
REMARK H PARENT 3 15 3 16 89 21 78 52 44 63
REMARK Flexibility Score: inf
ROOT
ATOM      1  C   UNL A   1      38.588  22.773  25.845  1.00  0.00     0.188 C 
ENDROOT
BRANCH   1   2
ATOM      2  O   UNL A   1      38.184  21.414  25.993  1.00  0.00    -0.376 OA
BRANCH   2   3
ATOM      3  C   UNL A   1      37.604  20.771  24.864  1.00  0.00     0.202 C 
BRANCH   3   4
ATOM      4  C   UNL A   1      36.119  20.447  25.000  1.00  0.00     0.261 C 
BRANCH   4   5
ATOM      5  O   UNL A   1      35.371  21.586  25.457  1.00  0.00    -0.459 OA
BRANCH   5   6
ATOM      6  C   UNL A   1      34.717  22.308  24.501  1.00  0.00     0.368 C 
ATOM      7  O   UNL A   1      35.225  22.659  23.442  1.00  0.00    -0.245 OA
BRANCH   6   8
ATOM      8  C   UNL A   1      33.246  22.610  24.904  1.00  0.00     0.200 C 
ATOM      9  C   UNL A   1      33.102  22.525  26.449  1.00  0.00     0.081 C 
ATOM     10  C   UNL A   1      32.984  24.079  24.472  1.00  0.00     0.146 C 
ATOM     11  C   UNL A   1      31.738  23.020  26.933  1.00  0.00     0.013 C 
ATOM     12  C   UNL A   1      31.664  24.666  24.985  1.00  0.00     0.190 C 
ATOM     13  C   UNL A   1      31.527  24.457  26.493  1.00  0.00     0.065 C 
BRANCH   8  14
ATOM     14  N   UNL A   1      32.350  21.554  24.358  1.00  0.00    -0.332 N 
ATOM     15  H   UNL A   1      31.391  21.858  24.524  1.00  0.00     0.347 HD
ATOM     16  H   UNL A   1      32.631  21.467  23.381  1.00  0.00     0.347 HD
BRANCH  14  17
ATOM     17  C   UNL A   1      32.471  20.204  24.884  1.00  0.00     0.257 C 
ATOM     18  C   UNL A   1      32.546  19.244  23.696  1.00  0.00     0.071 C 
ENDBRANCH  14  17
ENDBRANCH   8  14
BRANCH  12  19
ATOM     19  N   UNL A   1      31.506  26.050  24.535  1.00  0.00    -0.334 N 
ATOM     20  C   UNL A   1      30.942  26.218  23.206  1.00  0.00     0.332 C 
ATOM     21  H   UNL A   1      32.513  26.200  24.495  1.00  0.00     0.348 HD
BRANCH  19  22
ATOM     22  C   UNL A   1      31.257  27.164  25.447  1.00  0.00     0.265 C 
BRANCH  22  23
ATOM     23  C   UNL A   1      32.342  27.740  26.386  1.00  0.00     0.044 C 
ATOM     24  C   UNL A   1      33.605  28.113  25.595  1.00  0.00     0.009 C 
ATOM     25  C   UNL A   1      32.053  29.026  27.176  1.00  0.00     0.009 C 
ATOM     26  C   UNL A   1      34.407  28.940  26.584  1.00  0.00     0.001 C 
ATOM     27  C   UNL A   1      33.362  29.808  27.261  1.00  0.00     0.001 C 
ENDBRANCH  22  23
ENDBRANCH  19  22
ENDBRANCH  12  19
ENDBRANCH   6   8
ENDBRANCH   5   6
ENDBRANCH   4   5
ENDBRANCH   3   4
ENDBRANCH   2   3
ENDBRANCH   1   2
BRANCH   1  28
ATOM     28  C   UNL A   1      39.440  23.372  26.977  1.00  0.00     0.188 C 
BRANCH  28  29
ATOM     29  O   UNL A   1      40.775  22.873  27.090  1.00  0.00    -0.376 OA
BRANCH  29  30
ATOM     30  C   UNL A   1      41.624  23.069  25.959  1.00  0.00     0.202 C 
BRANCH  30  31
ATOM     31  C   UNL A   1      42.286  24.443  25.935  1.00  0.00     0.261 C 
BRANCH  31  32
ATOM     32  O   UNL A   1      41.333  25.433  25.509  1.00  0.00    -0.460 OA
BRANCH  32  33
ATOM     33  C   UNL A   1      41.676  26.697  25.808  1.00  0.00     0.338 C 
ATOM     34  O   UNL A   1      41.903  27.606  25.007  1.00  0.00    -0.246 OA
BRANCH  33  35
ATOM     35  C   UNL A   1      41.716  26.890  27.263  1.00  0.00     0.060 A 
ATOM     36  C   UNL A   1      40.583  26.595  28.021  1.00  0.00     0.016 A 
ATOM     37  C   UNL A   1      42.790  27.561  27.843  1.00  0.00     0.016 A 
ATOM     38  C   UNL A   1      40.463  27.087  29.325  1.00  0.00     0.010 A 
ATOM     39  C   UNL A   1      42.692  28.002  29.168  1.00  0.00     0.010 A 
ATOM     40  C   UNL A   1      41.494  27.846  29.894  1.00  0.00    -0.014 A 
BRANCH  40  41
ATOM     41  C   UNL A   1      41.262  28.662  31.124  1.00  0.00     0.031 A 
ATOM     42  C   UNL A   1      40.092  29.623  31.140  1.00  0.00     0.074 A 
ATOM     43  C   UNL A   1      42.011  28.541  32.237  1.00  0.00     0.049 A 
ATOM     44  N   UNL A   1      39.822  30.600  31.969  1.00  0.00    -0.248 NA
ATOM     45  C   UNL A   1      39.101  29.466  30.063  1.00  0.00     0.031 C 
ATOM     46  C   UNL A   1      43.104  27.592  32.431  1.00  0.00     0.029 A 
ATOM     47  N   UNL A   1      41.953  29.229  33.426  1.00  0.00    -0.354 N 
ATOM     48  C   UNL A   1      38.683  31.220  31.467  1.00  0.00     0.074 A 
ATOM     49  C   UNL A   1      38.304  30.504  30.269  1.00  0.00     0.031 C 
ATOM     50  C   UNL A   1      43.599  27.741  33.672  1.00  0.00     0.029 A 
ATOM     51  C   UNL A   1      42.912  28.848  34.335  1.00  0.00     0.049 A 
ATOM     52  H   UNL A   1      41.286  29.931  33.610  1.00  0.00     0.167 HD
ATOM     53  C   UNL A   1      38.014  32.294  31.954  1.00  0.00     0.037 A 
ATOM     54  C   UNL A   1      43.229  29.356  35.544  1.00  0.00     0.037 A 
ATOM     55  C   UNL A   1      38.338  32.958  33.189  1.00  0.00     0.049 A 
ATOM     56  C   UNL A   1      42.483  30.558  36.067  1.00  0.00     0.074 A 
ATOM     57  C   UNL A   1      37.736  34.067  33.759  1.00  0.00     0.029 A 
ATOM     58  N   UNL A   1      39.331  32.548  34.065  1.00  0.00    -0.354 N 
ATOM     59  N   UNL A   1      41.489  31.216  35.522  1.00  0.00    -0.248 NA
ATOM     60  C   UNL A   1      42.923  31.100  37.363  1.00  0.00     0.031 C 
ATOM     61  C   UNL A   1      38.376  34.337  34.974  1.00  0.00     0.029 A 
ATOM     62  C   UNL A   1      39.355  33.378  35.174  1.00  0.00     0.049 A 
ATOM     63  H   UNL A   1      39.931  31.781  33.920  1.00  0.00     0.167 HD
ATOM     64  C   UNL A   1      41.181  32.245  36.408  1.00  0.00     0.074 A 
ATOM     65  C   UNL A   1      42.078  32.107  37.536  1.00  0.00     0.031 C 
ATOM     66  C   UNL A   1      40.249  33.223  36.293  1.00  0.00     0.037 A 
BRANCH  53  67
ATOM     67  C   UNL A   1      36.893  32.846  31.118  1.00  0.00     0.058 A 
ATOM     68  C   UNL A   1      35.545  32.587  31.407  1.00  0.00     0.135 A 
ATOM     69  C   UNL A   1      37.183  33.650  30.003  1.00  0.00     0.135 A 
ATOM     70  F   UNL A   1      35.216  31.806  32.448  1.00  0.00    -0.206 F 
ATOM     71  C   UNL A   1      34.523  33.079  30.600  1.00  0.00     0.059 A 
ATOM     72  C   UNL A   1      36.176  34.172  29.198  1.00  0.00     0.059 A 
ATOM     73  F   UNL A   1      38.456  33.929  29.682  1.00  0.00    -0.206 F 
ATOM     74  C   UNL A   1      34.849  33.865  29.494  1.00  0.00     0.060 A 
BRANCH  74  75
ATOM     75  S   UNL A   1      33.517  34.483  28.442  1.00  0.00     0.124 S 
ATOM     76  O   UNL A   1      32.523  34.878  29.436  1.00  0.00    -0.237 OA
ATOM     77  O   UNL A   1      34.164  35.578  27.726  1.00  0.00    -0.237 OA
ATOM     78  O   UNL A   1      33.165  33.326  27.625  1.00  0.00    -0.744 OA
ENDBRANCH  74  75
ENDBRANCH  53  67
BRANCH  54  79
ATOM     79  C   UNL A   1      44.343  28.764  36.334  1.00  0.00     0.058 A 
ATOM     80  C   UNL A   1      44.128  27.659  37.172  1.00  0.00     0.135 A 
ATOM     81  C   UNL A   1      45.640  29.299  36.277  1.00  0.00     0.135 A 
ATOM     82  F   UNL A   1      42.902  27.125  37.276  1.00  0.00    -0.206 F 
ATOM     83  C   UNL A   1      45.156  27.111  37.934  1.00  0.00     0.059 A 
ATOM     84  C   UNL A   1      46.689  28.752  37.008  1.00  0.00     0.059 A 
ATOM     85  F   UNL A   1      45.898  30.354  35.490  1.00  0.00    -0.206 F 
ATOM     86  C   UNL A   1      46.435  27.664  37.843  1.00  0.00     0.060 A 
BRANCH  86  87
ATOM     87  S   UNL A   1      47.779  26.917  38.791  1.00  0.00     0.124 S 
ATOM     88  O   UNL A   1      48.064  25.724  38.003  1.00  0.00    -0.237 OA
ATOM     89  O   UNL A   1      48.799  27.960  38.762  1.00  0.00    -0.237 OA
ATOM     90  O   UNL A   1      47.172  26.681  40.099  1.00  0.00    -0.744 OA
ENDBRANCH  86  87
ENDBRANCH  54  79
BRANCH  66  91
ATOM     91  C   UNL A   1      40.133  34.202  37.428  1.00  0.00     0.058 A 
ATOM     92  C   UNL A   1      40.934  35.353  37.488  1.00  0.00     0.135 A 
ATOM     93  C   UNL A   1      39.193  34.002  38.450  1.00  0.00     0.135 A 
ATOM     94  F   UNL A   1      41.851  35.589  36.537  1.00  0.00    -0.206 F 
ATOM     95  C   UNL A   1      40.827  36.258  38.540  1.00  0.00     0.059 A 
ATOM     96  C   UNL A   1      39.053  34.904  39.500  1.00  0.00     0.059 A 
ATOM     97  F   UNL A   1      38.394  32.923  38.432  1.00  0.00    -0.206 F 
ATOM     98  C   UNL A   1      39.886  36.022  39.545  1.00  0.00     0.060 A 
BRANCH  98  99
ATOM     99  S   UNL A   1      39.744  37.206  40.901  1.00  0.00     0.124 S 
ATOM    100  O   UNL A   1      41.047  37.862  40.855  1.00  0.00    -0.237 OA
ATOM    101  O   UNL A   1      38.607  38.024  40.490  1.00  0.00    -0.237 OA
ATOM    102  O   UNL A   1      39.507  36.358  42.066  1.00  0.00    -0.744 OA
ENDBRANCH  98  99
ENDBRANCH  66  91
ENDBRANCH  40  41
ENDBRANCH  33  35
ENDBRANCH  32  33
ENDBRANCH  31  32
ENDBRANCH  30  31
ENDBRANCH  29  30
ENDBRANCH  28  29
ENDBRANCH   1  28
TORSDOF 25
ENDMDL
