MODEL 1
REMARK VINA RESULT:     -11.5      0.000      0.000
REMARK SMILES Cc1ccc(S(=O)(=O)Nc2cc(C(=O)OCCOCCOCCOC(=O)c3ccc(-c4c5nc(c(-c6c(F)cc(S(=O)(=O)[O-])cc6F)c6ccc([nH]6)c(-c6c(F)cc(S(=O)(=O)[O-])cc6F)c6nc(c(-c7c(F)cc(S(=O)(=O)[O-])cc7F)c7ccc4[nH]7)C=C6)C=C5)cc3)ccc2C)c(Br)c1
REMARK SMILES IDX 19 1 18 2 17 3 16 4 15 5 13 6 14 7 12 8 10 9 11 10 95 11
REMARK SMILES IDX 94 12 96 13 93 14 9 15 6 17 7 18 8 19 5 20 1 21 2 22 3 23
REMARK SMILES IDX 99 24 4 25 97 26 98 27 20 28 21 29 22 30 23 31 24 32 25 33
REMARK SMILES IDX 26 34 27 35 28 36 92 37 29 38 91 39 30 40 31 41 32 42 85 43
REMARK SMILES IDX 33 44 90 45 84 46 86 47 34 48 89 49 83 50 82 51 35 53 69 54
REMARK SMILES IDX 48 55 68 56 49 57 52 58 67 59 87 60 50 61 51 62 66 64 88 65
REMARK SMILES IDX 53 66 36 67 37 68 46 69 38 70 39 71 45 72 47 73 40 74 41 75
REMARK SMILES IDX 42 76 43 77 44 78 70 79 71 80 80 81 72 82 73 83 79 84 81 85
REMARK SMILES IDX 74 86 75 87 76 88 77 89 78 90 54 91 55 92 64 93 56 94 57 95
REMARK SMILES IDX 63 96 65 97 58 98 59 99 60 100 61 101 62 102
REMARK H PARENT 9 16 86 52 52 63
REMARK Flexibility Score: inf
ROOT
ATOM      1  C   UNL A   1      31.409  30.753  26.342  1.00  0.00     0.188 C 
ENDROOT
BRANCH   1   2
ATOM      2  O   UNL A   1      31.587  29.344  26.600  1.00  0.00    -0.376 OA
BRANCH   2   3
ATOM      3  C   UNL A   1      32.536  28.384  26.071  1.00  0.00     0.202 C 
BRANCH   3   4
ATOM      4  C   UNL A   1      33.855  28.394  24.858  1.00  0.00     0.261 C 
BRANCH   4   5
ATOM      5  O   UNL A   1      34.074  27.697  23.283  1.00  0.00    -0.460 OA
BRANCH   5   6
ATOM      6  C   UNL A   1      33.330  26.918  22.327  1.00  0.00     0.338 C 
ATOM      7  O   UNL A   1      33.718  26.442  21.251  1.00  0.00    -0.246 OA
BRANCH   6   8
ATOM      8  C   UNL A   1      31.905  26.567  22.406  1.00  0.00     0.062 A 
ATOM      9  C   UNL A   1      30.408  25.269  23.740  1.00  0.00     0.053 A 
ATOM     10  C   UNL A   1      31.590  25.357  22.990  1.00  0.00     0.042 A 
ATOM     11  C   UNL A   1      29.440  26.301  23.759  1.00  0.00    -0.027 A 
ATOM     12  C   UNL A   1      29.760  27.519  23.170  1.00  0.00     0.006 A 
ATOM     13  C   UNL A   1      28.137  26.203  24.504  1.00  0.00     0.046 C 
ATOM     14  C   UNL A   1      30.993  27.658  22.543  1.00  0.00     0.016 A 
BRANCH   9  15
ATOM     15  N   UNL A   1      30.207  24.155  24.622  1.00  0.00    -0.279 N 
ATOM     16  H   UNL A   1      29.531  23.471  24.414  1.00  0.00     0.180 HD
BRANCH  15  17
ATOM     17  S   UNL A   1      31.167  24.031  26.053  1.00  0.00     0.263 S 
ATOM     18  O   UNL A   1      30.575  22.846  26.694  1.00  0.00    -0.201 OA
ATOM     19  O   UNL A   1      31.123  25.305  26.685  1.00  0.00    -0.201 OA
BRANCH  17  20
ATOM     20  C   UNL A   1      32.855  23.635  25.668  1.00  0.00     0.101 A 
ATOM     21  C   UNL A   1      36.575  23.364  23.585  1.00  0.00     0.044 C 
ATOM     22  C   UNL A   1      35.334  23.367  24.414  1.00  0.00    -0.050 A 
ATOM     23  C   UNL A   1      35.104  24.427  25.287  1.00  0.00     0.005 A 
ATOM     24  C   UNL A   1      34.396  22.331  24.335  1.00  0.00     0.020 A 
ATOM     25  C   UNL A   1      33.877  24.546  25.931  1.00  0.00     0.024 A 
ATOM     26  C   UNL A   1      33.159  22.458  24.980  1.00  0.00     0.038 A 
ATOM     27  Br  UNL A   1      32.027  20.930  25.027  1.00  0.00    -0.049 Br
ENDBRANCH  17  20
ENDBRANCH  15  17
ENDBRANCH   9  15
ENDBRANCH   6   8
ENDBRANCH   5   6
ENDBRANCH   4   5
ENDBRANCH   3   4
ENDBRANCH   2   3
ENDBRANCH   1   2
BRANCH   1  28
ATOM     28  C   UNL A   1      32.518  31.771  26.500  1.00  0.00     0.188 C 
BRANCH  28  29
ATOM     29  O   UNL A   1      32.013  32.852  27.243  1.00  0.00    -0.376 OA
BRANCH  29  30
ATOM     30  C   UNL A   1      32.928  33.561  28.034  1.00  0.00     0.202 C 
BRANCH  30  31
ATOM     31  C   UNL A   1      34.354  32.990  28.018  1.00  0.00     0.261 C 
BRANCH  31  32
ATOM     32  O   UNL A   1      34.582  31.986  29.044  1.00  0.00    -0.460 OA
BRANCH  32  33
ATOM     33  C   UNL A   1      35.358  30.874  28.742  1.00  0.00     0.338 C 
ATOM     34  O   UNL A   1      35.138  30.177  27.771  1.00  0.00    -0.246 OA
BRANCH  33  35
ATOM     35  C   UNL A   1      36.547  30.785  29.669  1.00  0.00     0.060 A 
ATOM     36  C   UNL A   1      37.358  31.783  30.229  1.00  0.00     0.016 A 
ATOM     37  C   UNL A   1      37.045  29.549  29.791  1.00  0.00     0.016 A 
ATOM     38  C   UNL A   1      38.765  31.545  30.664  1.00  0.00     0.010 A 
ATOM     39  C   UNL A   1      38.433  29.483  29.888  1.00  0.00     0.010 A 
ATOM     40  C   UNL A   1      39.437  30.338  30.438  1.00  0.00    -0.014 A 
BRANCH  40  41
ATOM     41  C   UNL A   1      41.127  29.914  30.678  1.00  0.00     0.031 A 
ATOM     42  C   UNL A   1      42.235  28.810  29.861  1.00  0.00     0.074 A 
ATOM     43  C   UNL A   1      41.816  30.658  31.577  1.00  0.00     0.049 A 
ATOM     44  N   UNL A   1      43.554  28.960  29.779  1.00  0.00    -0.248 NA
ATOM     45  C   UNL A   1      41.957  27.627  28.948  1.00  0.00     0.031 C 
ATOM     46  C   UNL A   1      43.268  30.820  31.738  1.00  0.00     0.029 A 
ATOM     47  N   UNL A   1      41.306  31.461  32.596  1.00  0.00    -0.354 N 
ATOM     48  C   UNL A   1      44.067  28.007  28.891  1.00  0.00     0.074 A 
ATOM     49  C   UNL A   1      42.970  27.650  28.093  1.00  0.00     0.031 C 
ATOM     50  C   UNL A   1      43.528  31.352  32.938  1.00  0.00     0.029 A 
ATOM     51  C   UNL A   1      42.263  31.434  33.622  1.00  0.00     0.049 A 
ATOM     52  H   UNL A   1      40.451  31.950  32.596  1.00  0.00     0.167 HD
ATOM     53  C   UNL A   1      45.189  27.232  29.014  1.00  0.00     0.037 A 
ATOM     54  C   UNL A   1      41.945  30.799  34.776  1.00  0.00     0.037 A 
ATOM     55  C   UNL A   1      45.812  27.508  30.292  1.00  0.00     0.049 A 
ATOM     56  C   UNL A   1      42.821  29.579  34.967  1.00  0.00     0.074 A 
ATOM     57  C   UNL A   1      46.461  28.622  30.788  1.00  0.00     0.029 A 
ATOM     58  N   UNL A   1      45.397  26.781  31.398  1.00  0.00    -0.354 N 
ATOM     59  N   UNL A   1      43.451  28.917  34.019  1.00  0.00    -0.248 NA
ATOM     60  C   UNL A   1      43.180  29.131  36.301  1.00  0.00     0.031 C 
ATOM     61  C   UNL A   1      46.237  28.646  32.199  1.00  0.00     0.029 A 
ATOM     62  C   UNL A   1      45.526  27.510  32.575  1.00  0.00     0.049 A 
ATOM     63  H   UNL A   1      45.052  25.860  31.354  1.00  0.00     0.167 HD
ATOM     64  C   UNL A   1      44.265  27.964  34.589  1.00  0.00     0.074 A 
ATOM     65  C   UNL A   1      44.105  28.204  36.014  1.00  0.00     0.031 C 
ATOM     66  C   UNL A   1      45.009  27.041  33.885  1.00  0.00     0.037 A 
BRANCH  53  67
ATOM     67  C   UNL A   1      45.640  26.177  27.958  1.00  0.00     0.058 A 
ATOM     68  C   UNL A   1      46.015  26.568  26.660  1.00  0.00     0.135 A 
ATOM     69  C   UNL A   1      45.644  24.763  28.118  1.00  0.00     0.135 A 
ATOM     70  F   UNL A   1      46.182  27.866  26.371  1.00  0.00    -0.206 F 
ATOM     71  C   UNL A   1      46.219  25.649  25.602  1.00  0.00     0.059 A 
ATOM     72  C   UNL A   1      45.746  23.833  27.075  1.00  0.00     0.059 A 
ATOM     73  F   UNL A   1      45.630  24.193  29.327  1.00  0.00    -0.206 F 
ATOM     74  C   UNL A   1      46.016  24.286  25.803  1.00  0.00     0.060 A 
BRANCH  74  75
ATOM     75  S   UNL A   1      46.118  23.121  24.422  1.00  0.00     0.124 S 
ATOM     76  O   UNL A   1      44.776  23.208  23.852  1.00  0.00    -0.237 OA
ATOM     77  O   UNL A   1      47.189  23.688  23.612  1.00  0.00    -0.237 OA
ATOM     78  O   UNL A   1      46.429  21.844  25.062  1.00  0.00    -0.744 OA
ENDBRANCH  74  75
ENDBRANCH  53  67
BRANCH  54  79
ATOM     79  C   UNL A   1      40.530  31.105  35.179  1.00  0.00     0.058 A 
ATOM     80  C   UNL A   1      40.329  32.368  35.800  1.00  0.00     0.135 A 
ATOM     81  C   UNL A   1      39.398  30.505  34.616  1.00  0.00     0.135 A 
ATOM     82  F   UNL A   1      41.368  33.007  36.365  1.00  0.00    -0.206 F 
ATOM     83  C   UNL A   1      39.135  33.076  35.701  1.00  0.00     0.059 A 
ATOM     84  C   UNL A   1      38.160  31.181  34.559  1.00  0.00     0.059 A 
ATOM     85  F   UNL A   1      39.500  29.328  33.982  1.00  0.00    -0.206 F 
ATOM     86  C   UNL A   1      38.066  32.495  35.035  1.00  0.00     0.060 A 
BRANCH  86  87
ATOM     87  S   UNL A   1      36.649  33.564  34.663  1.00  0.00     0.124 S 
ATOM     88  O   UNL A   1      35.980  33.658  35.954  1.00  0.00    -0.237 OA
ATOM     89  O   UNL A   1      37.314  34.786  34.212  1.00  0.00    -0.237 OA
ATOM     90  O   UNL A   1      35.929  32.820  33.635  1.00  0.00    -0.744 OA
ENDBRANCH  86  87
ENDBRANCH  54  79
BRANCH  66  91
ATOM     91  C   UNL A   1      45.364  25.653  34.464  1.00  0.00     0.058 A 
ATOM     92  C   UNL A   1      46.384  25.417  35.413  1.00  0.00     0.135 A 
ATOM     93  C   UNL A   1      44.593  24.494  34.188  1.00  0.00     0.135 A 
ATOM     94  F   UNL A   1      47.041  26.405  36.030  1.00  0.00    -0.206 F 
ATOM     95  C   UNL A   1      46.743  24.151  35.872  1.00  0.00     0.059 A 
ATOM     96  C   UNL A   1      44.881  23.222  34.701  1.00  0.00     0.059 A 
ATOM     97  F   UNL A   1      43.467  24.545  33.465  1.00  0.00    -0.206 F 
ATOM     98  C   UNL A   1      45.998  23.050  35.496  1.00  0.00     0.060 A 
BRANCH  98  99
ATOM     99  S   UNL A   1      46.473  21.437  36.128  1.00  0.00     0.124 S 
ATOM    100  O   UNL A   1      46.237  20.591  34.962  1.00  0.00    -0.237 OA
ATOM    101  O   UNL A   1      47.874  21.641  36.485  1.00  0.00    -0.237 OA
ATOM    102  O   UNL A   1      45.567  21.231  37.253  1.00  0.00    -0.744 OA
ENDBRANCH  98  99
ENDBRANCH  66  91
ENDBRANCH  40  41
ENDBRANCH  33  35
ENDBRANCH  32  33
ENDBRANCH  31  32
ENDBRANCH  30  31
ENDBRANCH  29  30
ENDBRANCH  28  29
ENDBRANCH   1  28
TORSDOF 23
ENDMDL
MODEL 2
REMARK VINA RESULT:     -11.3      5.540     14.505
REMARK SMILES Cc1ccc(S(=O)(=O)Nc2cc(C(=O)OCCOCCOCCOC(=O)c3ccc(-c4c5nc(c(-c6c(F)cc(S(=O)(=O)[O-])cc6F)c6ccc([nH]6)c(-c6c(F)cc(S(=O)(=O)[O-])cc6F)c6nc(c(-c7c(F)cc(S(=O)(=O)[O-])cc7F)c7ccc4[nH]7)C=C6)C=C5)cc3)ccc2C)c(Br)c1
REMARK SMILES IDX 19 1 18 2 17 3 16 4 15 5 13 6 14 7 12 8 10 9 11 10 95 11
REMARK SMILES IDX 94 12 96 13 93 14 9 15 6 17 7 18 8 19 5 20 1 21 2 22 3 23
REMARK SMILES IDX 99 24 4 25 97 26 98 27 20 28 21 29 22 30 23 31 24 32 25 33
REMARK SMILES IDX 26 34 27 35 28 36 92 37 29 38 91 39 30 40 31 41 32 42 85 43
REMARK SMILES IDX 33 44 90 45 84 46 86 47 34 48 89 49 83 50 82 51 35 53 69 54
REMARK SMILES IDX 48 55 68 56 49 57 52 58 67 59 87 60 50 61 51 62 66 64 88 65
REMARK SMILES IDX 53 66 36 67 37 68 46 69 38 70 39 71 45 72 47 73 40 74 41 75
REMARK SMILES IDX 42 76 43 77 44 78 70 79 71 80 80 81 72 82 73 83 79 84 81 85
REMARK SMILES IDX 74 86 75 87 76 88 77 89 78 90 54 91 55 92 64 93 56 94 57 95
REMARK SMILES IDX 63 96 65 97 58 98 59 99 60 100 61 101 62 102
REMARK H PARENT 9 16 86 52 52 63
REMARK Flexibility Score: inf
ROOT
ATOM      1  C   UNL A   1      44.752  24.284  29.299  1.00  0.00     0.188 C 
ENDROOT
BRANCH   1   2
ATOM      2  O   UNL A   1      44.483  25.154  30.420  1.00  0.00    -0.376 OA
BRANCH   2   3
ATOM      3  C   UNL A   1      44.857  25.063  31.818  1.00  0.00     0.202 C 
BRANCH   3   4
ATOM      4  C   UNL A   1      44.249  25.718  33.371  1.00  0.00     0.261 C 
BRANCH   4   5
ATOM      5  O   UNL A   1      44.728  25.571  35.033  1.00  0.00    -0.460 OA
BRANCH   5   6
ATOM      6  C   UNL A   1      44.189  25.094  36.280  1.00  0.00     0.338 C 
ATOM      7  O   UNL A   1      43.149  25.445  36.854  1.00  0.00    -0.246 OA
BRANCH   6   8
ATOM      8  C   UNL A   1      44.807  24.110  37.179  1.00  0.00     0.062 A 
ATOM      9  C   UNL A   1      46.616  22.552  37.227  1.00  0.00     0.053 A 
ATOM     10  C   UNL A   1      45.472  23.054  36.591  1.00  0.00     0.042 A 
ATOM     11  C   UNL A   1      46.998  22.948  38.531  1.00  0.00    -0.027 A 
ATOM     12  C   UNL A   1      46.326  24.012  39.122  1.00  0.00     0.006 A 
ATOM     13  C   UNL A   1      48.184  22.376  39.258  1.00  0.00     0.046 C 
ATOM     14  C   UNL A   1      45.276  24.608  38.433  1.00  0.00     0.016 A 
BRANCH   9  15
ATOM     15  N   UNL A   1      47.513  21.695  36.505  1.00  0.00    -0.279 N 
ATOM     16  H   UNL A   1      47.587  20.742  36.738  1.00  0.00     0.180 HD
BRANCH  15  17
ATOM     17  S   UNL A   1      48.463  22.360  35.223  1.00  0.00     0.263 S 
ATOM     18  O   UNL A   1      48.913  23.624  35.825  1.00  0.00    -0.201 OA
ATOM     19  O   UNL A   1      47.640  22.352  34.062  1.00  0.00    -0.201 OA
BRANCH  17  20
ATOM     20  C   UNL A   1      49.909  21.377  34.913  1.00  0.00     0.101 A 
ATOM     21  C   UNL A   1      53.759  19.582  35.375  1.00  0.00     0.044 C 
ATOM     22  C   UNL A   1      52.410  20.149  35.078  1.00  0.00    -0.050 A 
ATOM     23  C   UNL A   1      51.279  19.496  35.559  1.00  0.00     0.005 A 
ATOM     24  C   UNL A   1      52.255  21.321  34.328  1.00  0.00     0.020 A 
ATOM     25  C   UNL A   1      50.029  20.098  35.454  1.00  0.00     0.024 A 
ATOM     26  C   UNL A   1      50.997  21.927  34.230  1.00  0.00     0.038 A 
ATOM     27  Br  UNL A   1      50.807  23.379  33.017  1.00  0.00    -0.049 Br
ENDBRANCH  17  20
ENDBRANCH  15  17
ENDBRANCH   9  15
ENDBRANCH   6   8
ENDBRANCH   5   6
ENDBRANCH   4   5
ENDBRANCH   3   4
ENDBRANCH   2   3
ENDBRANCH   1   2
BRANCH   1  28
ATOM     28  C   UNL A   1      44.330  22.830  29.259  1.00  0.00     0.188 C 
BRANCH  28  29
ATOM     29  O   UNL A   1      43.253  22.716  28.364  1.00  0.00    -0.376 OA
BRANCH  29  30
ATOM     30  C   UNL A   1      43.570  22.538  27.010  1.00  0.00     0.202 C 
BRANCH  30  31
ATOM     31  C   UNL A   1      42.563  21.679  26.231  1.00  0.00     0.261 C 
BRANCH  31  32
ATOM     32  O   UNL A   1      41.417  22.432  25.749  1.00  0.00    -0.460 OA
BRANCH  32  33
ATOM     33  C   UNL A   1      40.348  22.659  26.606  1.00  0.00     0.338 C 
ATOM     34  O   UNL A   1      39.794  21.756  27.201  1.00  0.00    -0.246 OA
BRANCH  33  35
ATOM     35  C   UNL A   1      40.117  24.140  26.792  1.00  0.00     0.060 A 
ATOM     36  C   UNL A   1      40.816  25.253  26.300  1.00  0.00     0.016 A 
ATOM     37  C   UNL A   1      39.246  24.434  27.764  1.00  0.00     0.016 A 
ATOM     38  C   UNL A   1      40.813  26.583  26.973  1.00  0.00     0.010 A 
ATOM     39  C   UNL A   1      39.559  25.568  28.509  1.00  0.00     0.010 A 
ATOM     40  C   UNL A   1      40.212  26.805  28.217  1.00  0.00    -0.014 A 
BRANCH  40  41
ATOM     41  C   UNL A   1      40.259  28.214  29.270  1.00  0.00     0.031 A 
ATOM     42  C   UNL A   1      39.089  29.470  29.680  1.00  0.00     0.074 A 
ATOM     43  C   UNL A   1      41.349  28.338  30.067  1.00  0.00     0.049 A 
ATOM     44  N   UNL A   1      39.041  30.134  30.830  1.00  0.00    -0.248 NA
ATOM     45  C   UNL A   1      37.826  29.916  28.960  1.00  0.00     0.031 C 
ATOM     46  C   UNL A   1      41.530  29.145  31.281  1.00  0.00     0.029 A 
ATOM     47  N   UNL A   1      42.593  27.725  29.921  1.00  0.00    -0.354 N 
ATOM     48  C   UNL A   1      37.868  30.898  30.867  1.00  0.00     0.074 A 
ATOM     49  C   UNL A   1      37.015  30.268  29.948  1.00  0.00     0.031 C 
ATOM     50  C   UNL A   1      42.835  29.252  31.556  1.00  0.00     0.029 A 
ATOM     51  C   UNL A   1      43.527  28.620  30.462  1.00  0.00     0.049 A 
ATOM     52  H   UNL A   1      42.778  26.845  29.521  1.00  0.00     0.167 HD
ATOM     53  C   UNL A   1      37.693  32.188  31.290  1.00  0.00     0.037 A 
ATOM     54  C   UNL A   1      44.393  29.229  29.616  1.00  0.00     0.037 A 
ATOM     55  C   UNL A   1      38.976  32.728  31.691  1.00  0.00     0.049 A 
ATOM     56  C   UNL A   1      44.132  30.720  29.575  1.00  0.00     0.074 A 
ATOM     57  C   UNL A   1      39.818  32.438  32.747  1.00  0.00     0.029 A 
ATOM     58  N   UNL A   1      39.767  33.333  30.725  1.00  0.00    -0.354 N 
ATOM     59  N   UNL A   1      43.002  31.321  29.884  1.00  0.00    -0.248 NA
ATOM     60  C   UNL A   1      45.220  31.653  29.340  1.00  0.00     0.031 C 
ATOM     61  C   UNL A   1      41.152  32.690  32.304  1.00  0.00     0.029 A 
ATOM     62  C   UNL A   1      41.121  33.208  31.012  1.00  0.00     0.049 A 
ATOM     63  H   UNL A   1      39.411  33.794  29.931  1.00  0.00     0.167 HD
ATOM     64  C   UNL A   1      43.189  32.685  29.872  1.00  0.00     0.074 A 
ATOM     65  C   UNL A   1      44.611  32.819  29.601  1.00  0.00     0.031 C 
ATOM     66  C   UNL A   1      42.195  33.618  30.073  1.00  0.00     0.037 A 
BRANCH  53  67
ATOM     67  C   UNL A   1      36.328  32.941  31.252  1.00  0.00     0.058 A 
ATOM     68  C   UNL A   1      35.910  33.621  30.094  1.00  0.00     0.135 A 
ATOM     69  C   UNL A   1      35.423  33.113  32.337  1.00  0.00     0.135 A 
ATOM     70  F   UNL A   1      36.581  33.467  28.945  1.00  0.00    -0.206 F 
ATOM     71  C   UNL A   1      34.798  34.498  30.070  1.00  0.00     0.059 A 
ATOM     72  C   UNL A   1      34.375  34.042  32.373  1.00  0.00     0.059 A 
ATOM     73  F   UNL A   1      35.454  32.318  33.410  1.00  0.00    -0.206 F 
ATOM     74  C   UNL A   1      34.076  34.754  31.233  1.00  0.00     0.060 A 
BRANCH  74  75
ATOM     75  S   UNL A   1      32.755  35.992  31.249  1.00  0.00     0.124 S 
ATOM     76  O   UNL A   1      32.378  36.050  29.840  1.00  0.00    -0.237 OA
ATOM     77  O   UNL A   1      31.774  35.393  32.145  1.00  0.00    -0.237 OA
ATOM     78  O   UNL A   1      33.410  37.196  31.758  1.00  0.00    -0.744 OA
ENDBRANCH  74  75
ENDBRANCH  53  67
BRANCH  54  79
ATOM     79  C   UNL A   1      44.903  28.260  28.588  1.00  0.00     0.058 A 
ATOM     80  C   UNL A   1      44.356  28.406  27.283  1.00  0.00     0.135 A 
ATOM     81  C   UNL A   1      46.125  27.583  28.674  1.00  0.00     0.135 A 
ATOM     82  F   UNL A   1      43.185  29.044  27.118  1.00  0.00    -0.206 F 
ATOM     83  C   UNL A   1      45.061  28.077  26.129  1.00  0.00     0.059 A 
ATOM     84  C   UNL A   1      46.829  27.185  27.517  1.00  0.00     0.059 A 
ATOM     85  F   UNL A   1      46.730  27.427  29.861  1.00  0.00    -0.206 F 
ATOM     86  C   UNL A   1      46.321  27.509  26.253  1.00  0.00     0.060 A 
BRANCH  86  87
ATOM     87  S   UNL A   1      47.319  27.386  24.744  1.00  0.00     0.124 S 
ATOM     88  O   UNL A   1      47.586  25.955  24.660  1.00  0.00    -0.237 OA
ATOM     89  O   UNL A   1      46.397  27.911  23.738  1.00  0.00    -0.237 OA
ATOM     90  O   UNL A   1      48.476  28.224  25.040  1.00  0.00    -0.744 OA
ENDBRANCH  86  87
ENDBRANCH  54  79
BRANCH  66  91
ATOM     91  C   UNL A   1      42.249  35.029  29.444  1.00  0.00     0.058 A 
ATOM     92  C   UNL A   1      41.301  35.534  28.525  1.00  0.00     0.135 A 
ATOM     93  C   UNL A   1      43.198  36.005  29.846  1.00  0.00     0.135 A 
ATOM     94  F   UNL A   1      40.166  34.892  28.231  1.00  0.00    -0.206 F 
ATOM     95  C   UNL A   1      41.401  36.780  27.910  1.00  0.00     0.059 A 
ATOM     96  C   UNL A   1      43.270  37.295  29.304  1.00  0.00     0.059 A 
ATOM     97  F   UNL A   1      44.061  35.788  30.846  1.00  0.00    -0.206 F 
ATOM     98  C   UNL A   1      42.402  37.653  28.289  1.00  0.00     0.060 A 
BRANCH  98  99
ATOM     99  S   UNL A   1      42.485  39.262  27.494  1.00  0.00     0.124 S 
ATOM    100  O   UNL A   1      43.904  39.346  27.163  1.00  0.00    -0.237 OA
ATOM    101  O   UNL A   1      41.582  39.097  26.359  1.00  0.00    -0.237 OA
ATOM    102  O   UNL A   1      42.022  40.179  28.530  1.00  0.00    -0.744 OA
ENDBRANCH  98  99
ENDBRANCH  66  91
ENDBRANCH  40  41
ENDBRANCH  33  35
ENDBRANCH  32  33
ENDBRANCH  31  32
ENDBRANCH  30  31
ENDBRANCH  29  30
ENDBRANCH  28  29
ENDBRANCH   1  28
TORSDOF 23
ENDMDL
MODEL 3
REMARK VINA RESULT:     -11.1      3.751     10.630
REMARK SMILES Cc1ccc(S(=O)(=O)Nc2cc(C(=O)OCCOCCOCCOC(=O)c3ccc(-c4c5nc(c(-c6c(F)cc(S(=O)(=O)[O-])cc6F)c6ccc([nH]6)c(-c6c(F)cc(S(=O)(=O)[O-])cc6F)c6nc(c(-c7c(F)cc(S(=O)(=O)[O-])cc7F)c7ccc4[nH]7)C=C6)C=C5)cc3)ccc2C)c(Br)c1
REMARK SMILES IDX 19 1 18 2 17 3 16 4 15 5 13 6 14 7 12 8 10 9 11 10 95 11
REMARK SMILES IDX 94 12 96 13 93 14 9 15 6 17 7 18 8 19 5 20 1 21 2 22 3 23
REMARK SMILES IDX 99 24 4 25 97 26 98 27 20 28 21 29 22 30 23 31 24 32 25 33
REMARK SMILES IDX 26 34 27 35 28 36 92 37 29 38 91 39 30 40 31 41 32 42 85 43
REMARK SMILES IDX 33 44 90 45 84 46 86 47 34 48 89 49 83 50 82 51 35 53 69 54
REMARK SMILES IDX 48 55 68 56 49 57 52 58 67 59 87 60 50 61 51 62 66 64 88 65
REMARK SMILES IDX 53 66 36 67 37 68 46 69 38 70 39 71 45 72 47 73 40 74 41 75
REMARK SMILES IDX 42 76 43 77 44 78 70 79 71 80 80 81 72 82 73 83 79 84 81 85
REMARK SMILES IDX 74 86 75 87 76 88 77 89 78 90 54 91 55 92 64 93 56 94 57 95
REMARK SMILES IDX 63 96 65 97 58 98 59 99 60 100 61 101 62 102
REMARK H PARENT 9 16 86 52 52 63
REMARK Flexibility Score: inf
ROOT
ATOM      1  C   UNL A   1      41.092  25.825  26.836  1.00  0.00     0.188 C 
ENDROOT
BRANCH   1   2
ATOM      2  O   UNL A   1      40.966  27.097  26.164  1.00  0.00    -0.376 OA
BRANCH   2   3
ATOM      3  C   UNL A   1      40.827  28.445  26.680  1.00  0.00     0.202 C 
BRANCH   3   4
ATOM      4  C   UNL A   1      39.474  29.535  27.118  1.00  0.00     0.261 C 
BRANCH   4   5
ATOM      5  O   UNL A   1      38.415  29.684  28.486  1.00  0.00    -0.460 OA
BRANCH   5   6
ATOM      6  C   UNL A   1      37.004  29.702  28.769  1.00  0.00     0.338 C 
ATOM      7  O   UNL A   1      36.422  29.363  29.810  1.00  0.00    -0.246 OA
BRANCH   6   8
ATOM      8  C   UNL A   1      35.931  30.080  27.839  1.00  0.00     0.062 A 
ATOM      9  C   UNL A   1      33.835  29.270  27.029  1.00  0.00     0.053 A 
ATOM     10  C   UNL A   1      35.199  29.056  27.276  1.00  0.00     0.042 A 
ATOM     11  C   UNL A   1      33.231  30.543  27.150  1.00  0.00    -0.027 A 
ATOM     12  C   UNL A   1      33.971  31.575  27.717  1.00  0.00     0.006 A 
ATOM     13  C   UNL A   1      31.786  30.810  26.829  1.00  0.00     0.046 C 
ATOM     14  C   UNL A   1      35.286  31.329  28.094  1.00  0.00     0.016 A 
BRANCH   9  15
ATOM     15  N   UNL A   1      32.977  28.152  26.760  1.00  0.00    -0.279 N 
ATOM     16  H   UNL A   1      32.569  27.647  27.500  1.00  0.00     0.180 HD
BRANCH  15  17
ATOM     17  S   UNL A   1      32.669  27.702  25.120  1.00  0.00     0.263 S 
ATOM     18  O   UNL A   1      33.482  28.691  24.395  1.00  0.00    -0.201 OA
ATOM     19  O   UNL A   1      31.255  27.662  24.968  1.00  0.00    -0.201 OA
BRANCH  17  20
ATOM     20  C   UNL A   1      33.336  26.098  24.753  1.00  0.00     0.101 A 
ATOM     21  C   UNL A   1      36.083  23.002  23.692  1.00  0.00     0.044 C 
ATOM     22  C   UNL A   1      35.016  23.981  24.056  1.00  0.00    -0.050 A 
ATOM     23  C   UNL A   1      34.824  24.307  25.395  1.00  0.00     0.005 A 
ATOM     24  C   UNL A   1      34.206  24.579  23.084  1.00  0.00     0.020 A 
ATOM     25  C   UNL A   1      33.967  25.346  25.743  1.00  0.00     0.024 A 
ATOM     26  C   UNL A   1      33.349  25.629  23.437  1.00  0.00     0.038 A 
ATOM     27  Br  UNL A   1      32.114  26.241  22.126  1.00  0.00    -0.049 Br
ENDBRANCH  17  20
ENDBRANCH  15  17
ENDBRANCH   9  15
ENDBRANCH   6   8
ENDBRANCH   5   6
ENDBRANCH   4   5
ENDBRANCH   3   4
ENDBRANCH   2   3
ENDBRANCH   1   2
BRANCH   1  28
ATOM     28  C   UNL A   1      41.859  24.655  26.257  1.00  0.00     0.188 C 
BRANCH  28  29
ATOM     29  O   UNL A   1      42.828  25.165  25.377  1.00  0.00    -0.376 OA
BRANCH  29  30
ATOM     30  C   UNL A   1      43.725  24.243  24.818  1.00  0.00     0.202 C 
BRANCH  30  31
ATOM     31  C   UNL A   1      43.295  22.775  24.960  1.00  0.00     0.261 C 
BRANCH  31  32
ATOM     32  O   UNL A   1      43.874  22.117  26.119  1.00  0.00    -0.460 OA
BRANCH  32  33
ATOM     33  C   UNL A   1      45.123  22.521  26.572  1.00  0.00     0.338 C 
ATOM     34  O   UNL A   1      46.127  22.396  25.898  1.00  0.00    -0.246 OA
BRANCH  33  35
ATOM     35  C   UNL A   1      45.004  23.250  27.889  1.00  0.00     0.060 A 
ATOM     36  C   UNL A   1      43.994  23.239  28.863  1.00  0.00     0.016 A 
ATOM     37  C   UNL A   1      45.896  24.235  28.045  1.00  0.00     0.016 A 
ATOM     38  C   UNL A   1      43.758  24.369  29.808  1.00  0.00     0.010 A 
ATOM     39  C   UNL A   1      45.414  25.365  28.701  1.00  0.00     0.010 A 
ATOM     40  C   UNL A   1      44.444  25.585  29.727  1.00  0.00    -0.014 A 
BRANCH  40  41
ATOM     41  C   UNL A   1      44.190  27.096  30.591  1.00  0.00     0.031 A 
ATOM     42  C   UNL A   1      42.771  28.099  30.902  1.00  0.00     0.074 A 
ATOM     43  C   UNL A   1      45.239  27.568  31.308  1.00  0.00     0.049 A 
ATOM     44  N   UNL A   1      42.598  28.884  31.961  1.00  0.00    -0.248 NA
ATOM     45  C   UNL A   1      41.424  28.150  30.199  1.00  0.00     0.031 C 
ATOM     46  C   UNL A   1      45.257  28.549  32.402  1.00  0.00     0.029 A 
ATOM     47  N   UNL A   1      46.587  27.237  31.175  1.00  0.00    -0.354 N 
ATOM     48  C   UNL A   1      41.281  29.361  31.964  1.00  0.00     0.074 A 
ATOM     49  C   UNL A   1      40.576  28.439  31.177  1.00  0.00     0.031 C 
ATOM     50  C   UNL A   1      46.508  28.982  32.592  1.00  0.00     0.029 A 
ATOM     51  C   UNL A   1      47.303  28.383  31.551  1.00  0.00     0.049 A 
ATOM     52  H   UNL A   1      46.961  26.375  30.879  1.00  0.00     0.167 HD
ATOM     53  C   UNL A   1      40.824  30.624  32.231  1.00  0.00     0.037 A 
ATOM     54  C   UNL A   1      47.986  29.053  30.592  1.00  0.00     0.037 A 
ATOM     55  C   UNL A   1      41.957  31.487  32.494  1.00  0.00     0.049 A 
ATOM     56  C   UNL A   1      47.388  30.427  30.379  1.00  0.00     0.074 A 
ATOM     57  C   UNL A   1      42.866  31.537  33.532  1.00  0.00     0.029 A 
ATOM     58  N   UNL A   1      42.566  32.120  31.420  1.00  0.00    -0.354 N 
ATOM     59  N   UNL A   1      46.158  30.794  30.669  1.00  0.00    -0.248 NA
ATOM     60  C   UNL A   1      48.226  31.541  29.972  1.00  0.00     0.031 C 
ATOM     61  C   UNL A   1      44.096  32.022  32.992  1.00  0.00     0.029 A 
ATOM     62  C   UNL A   1      43.919  32.343  31.649  1.00  0.00     0.049 A 
ATOM     63  H   UNL A   1      42.096  32.379  30.594  1.00  0.00     0.167 HD
ATOM     64  C   UNL A   1      46.026  32.152  30.476  1.00  0.00     0.074 A 
ATOM     65  C   UNL A   1      47.372  32.564  30.117  1.00  0.00     0.031 C 
ATOM     66  C   UNL A   1      44.848  32.855  30.612  1.00  0.00     0.037 A 
BRANCH  53  67
ATOM     67  C   UNL A   1      39.322  31.038  32.171  1.00  0.00     0.058 A 
ATOM     68  C   UNL A   1      38.848  31.891  31.159  1.00  0.00     0.135 A 
ATOM     69  C   UNL A   1      38.312  30.711  33.119  1.00  0.00     0.135 A 
ATOM     70  F   UNL A   1      39.633  32.201  30.118  1.00  0.00    -0.206 F 
ATOM     71  C   UNL A   1      37.558  32.475  31.178  1.00  0.00     0.059 A 
ATOM     72  C   UNL A   1      37.065  31.341  33.219  1.00  0.00     0.059 A 
ATOM     73  F   UNL A   1      38.449  29.686  33.966  1.00  0.00    -0.206 F 
ATOM     74  C   UNL A   1      36.696  32.246  32.249  1.00  0.00     0.060 A 
BRANCH  74  75
ATOM     75  S   UNL A   1      35.110  33.111  32.363  1.00  0.00     0.124 S 
ATOM     76  O   UNL A   1      34.829  33.041  33.794  1.00  0.00    -0.237 OA
ATOM     77  O   UNL A   1      35.436  34.434  31.844  1.00  0.00    -0.237 OA
ATOM     78  O   UNL A   1      34.216  32.315  31.524  1.00  0.00    -0.744 OA
ENDBRANCH  74  75
ENDBRANCH  53  67
BRANCH  54  79
ATOM     79  C   UNL A   1      48.682  28.095  29.667  1.00  0.00     0.058 A 
ATOM     80  C   UNL A   1      48.109  27.968  28.372  1.00  0.00     0.135 A 
ATOM     81  C   UNL A   1      50.019  27.702  29.794  1.00  0.00     0.135 A 
ATOM     82  F   UNL A   1      46.829  28.324  28.170  1.00  0.00    -0.206 F 
ATOM     83  C   UNL A   1      48.861  27.657  27.242  1.00  0.00     0.059 A 
ATOM     84  C   UNL A   1      50.784  27.323  28.669  1.00  0.00     0.059 A 
ATOM     85  F   UNL A   1      50.650  27.817  30.972  1.00  0.00    -0.206 F 
ATOM     86  C   UNL A   1      50.213  27.381  27.392  1.00  0.00     0.060 A 
BRANCH  86  87
ATOM     87  S   UNL A   1      51.206  27.289  25.878  1.00  0.00     0.124 S 
ATOM     88  O   UNL A   1      52.176  26.251  26.203  1.00  0.00    -0.237 OA
ATOM     89  O   UNL A   1      50.198  26.916  24.887  1.00  0.00    -0.237 OA
ATOM     90  O   UNL A   1      51.748  28.637  25.752  1.00  0.00    -0.744 OA
ENDBRANCH  86  87
ENDBRANCH  54  79
BRANCH  66  91
ATOM     91  C   UNL A   1      44.562  34.145  29.810  1.00  0.00     0.058 A 
ATOM     92  C   UNL A   1      44.608  34.241  28.401  1.00  0.00     0.135 A 
ATOM     93  C   UNL A   1      44.087  35.333  30.425  1.00  0.00     0.135 A 
ATOM     94  F   UNL A   1      44.748  33.174  27.607  1.00  0.00    -0.206 F 
ATOM     95  C   UNL A   1      44.420  35.427  27.694  1.00  0.00     0.059 A 
ATOM     96  C   UNL A   1      43.810  36.517  29.729  1.00  0.00     0.059 A 
ATOM     97  F   UNL A   1      43.790  35.388  31.729  1.00  0.00    -0.206 F 
ATOM     98  C   UNL A   1      44.039  36.571  28.367  1.00  0.00     0.060 A 
BRANCH  98  99
ATOM     99  S   UNL A   1      43.779  38.076  27.421  1.00  0.00     0.124 S 
ATOM    100  O   UNL A   1      43.643  39.065  28.486  1.00  0.00    -0.237 OA
ATOM    101  O   UNL A   1      45.003  38.165  26.631  1.00  0.00    -0.237 OA
ATOM    102  O   UNL A   1      42.566  37.796  26.660  1.00  0.00    -0.744 OA
ENDBRANCH  98  99
ENDBRANCH  66  91
ENDBRANCH  40  41
ENDBRANCH  33  35
ENDBRANCH  32  33
ENDBRANCH  31  32
ENDBRANCH  30  31
ENDBRANCH  29  30
ENDBRANCH  28  29
ENDBRANCH   1  28
TORSDOF 23
ENDMDL
