MODEL 1
REMARK VINA RESULT:     -10.1      0.000      0.000
REMARK SMILES O=C(COc1cc(-c2ccccc2)nc(Nc2ccccc2Br)n1)OCCOCCOCCOC(=O)c1ccc(-c2c3nc(c(-c4c(F)cc(S(=O)(=O)[O-])cc4F)c4ccc([nH]4)c(-c4c(F)cc(S(=O)(=O)[O-])cc4F)c4nc(c(-c5c(F)cc(S(=O)(=O)[O-])cc5F)c5ccc2[nH]5)C=C4)C=C3)cc1
REMARK SMILES IDX 29 1 28 2 27 3 26 4 25 5 2 6 1 7 3 8 4 9 5 10 6 11 24 12
REMARK SMILES IDX 7 13 15 14 14 15 8 16 9 17 13 18 10 19 12 20 11 21 16 22
REMARK SMILES IDX 17 24 18 25 22 26 19 27 21 28 23 29 20 30 30 31 31 32 32 33
REMARK SMILES IDX 33 34 34 35 35 36 36 37 37 38 38 39 102 40 39 41 101 42
REMARK SMILES IDX 40 43 41 44 42 45 95 46 43 47 100 48 94 49 96 50 44 51 99 52
REMARK SMILES IDX 93 53 92 54 45 56 79 57 58 58 78 59 59 60 62 61 77 62 97 63
REMARK SMILES IDX 60 64 61 65 76 67 98 68 63 69 46 70 47 71 56 72 48 73 49 74
REMARK SMILES IDX 55 75 57 76 50 77 51 78 52 79 53 80 54 81 80 82 81 83 90 84
REMARK SMILES IDX 82 85 83 86 89 87 91 88 84 89 85 90 86 91 87 92 88 93 64 94
REMARK SMILES IDX 65 95 74 96 66 97 67 98 73 99 75 100 68 101 69 102 70 103
REMARK SMILES IDX 71 104 72 105
REMARK H PARENT 16 23 96 55 62 66
REMARK Flexibility Score: inf
ROOT
ATOM      1  C   UNL A   1      33.777  35.365  31.747  1.00  0.00     0.188 C 
ENDROOT
BRANCH   1   2
ATOM      2  O   UNL A   1      33.282  34.890  30.509  1.00  0.00    -0.376 OA
BRANCH   2   3
ATOM      3  C   UNL A   1      34.075  33.971  29.789  1.00  0.00     0.202 C 
BRANCH   3   4
ATOM      4  C   UNL A   1      33.668  33.828  28.325  1.00  0.00     0.261 C 
BRANCH   4   5
ATOM      5  O   UNL A   1      34.483  32.954  27.505  1.00  0.00    -0.461 OA
BRANCH   5   6
ATOM      6  C   UNL A   1      34.549  31.602  27.538  1.00  0.00     0.344 C 
ATOM      7  O   UNL A   1      35.601  31.055  27.862  1.00  0.00    -0.248 OA
BRANCH   6   8
ATOM      8  C   UNL A   1      33.321  30.797  27.146  1.00  0.00     0.353 C 
BRANCH   8   9
ATOM      9  O   UNL A   1      33.403  29.435  27.569  1.00  0.00    -0.466 OA
BRANCH   9  10
ATOM     10  C   UNL A   1      32.878  28.678  26.560  1.00  0.00     0.219 A 
ATOM     11  C   UNL A   1      33.241  27.369  26.440  1.00  0.00     0.097 A 
ATOM     12  N   UNL A   1      32.245  29.374  25.633  1.00  0.00    -0.177 NA
ATOM     13  C   UNL A   1      33.082  26.837  25.183  1.00  0.00     0.080 A 
ATOM     14  C   UNL A   1      32.039  28.770  24.462  1.00  0.00     0.231 A 
ATOM     15  N   UNL A   1      32.458  27.518  24.189  1.00  0.00    -0.212 NA
BRANCH  13  16
ATOM     16  C   UNL A   1      33.801  25.587  24.859  1.00  0.00     0.000 A 
ATOM     17  C   UNL A   1      33.790  25.070  23.553  1.00  0.00     0.010 A 
ATOM     18  C   UNL A   1      34.666  24.979  25.793  1.00  0.00     0.010 A 
ATOM     19  C   UNL A   1      34.632  24.013  23.190  1.00  0.00     0.001 A 
ATOM     20  C   UNL A   1      35.510  23.927  25.430  1.00  0.00     0.001 A 
ATOM     21  C   UNL A   1      35.495  23.448  24.126  1.00  0.00     0.000 A 
ENDBRANCH  13  16
BRANCH  14  22
ATOM     22  N   UNL A   1      31.348  29.493  23.494  1.00  0.00    -0.323 N 
ATOM     23  H   UNL A   1      31.860  29.815  22.717  1.00  0.00     0.170 HD
BRANCH  22  24
ATOM     24  C   UNL A   1      29.976  29.800  23.539  1.00  0.00     0.055 A 
ATOM     25  C   UNL A   1      29.594  31.147  23.632  1.00  0.00     0.027 A 
ATOM     26  C   UNL A   1      28.960  28.832  23.392  1.00  0.00     0.041 A 
ATOM     27  C   UNL A   1      28.249  31.524  23.559  1.00  0.00     0.002 A 
ATOM     28  C   UNL A   1      27.612  29.210  23.338  1.00  0.00     0.018 A 
ATOM     29  Br  UNL A   1      29.340  26.969  23.298  1.00  0.00    -0.049 Br
ATOM     30  C   UNL A   1      27.259  30.556  23.413  1.00  0.00     0.001 A 
ENDBRANCH  22  24
ENDBRANCH  14  22
ENDBRANCH   9  10
ENDBRANCH   8   9
ENDBRANCH   6   8
ENDBRANCH   5   6
ENDBRANCH   4   5
ENDBRANCH   3   4
ENDBRANCH   2   3
ENDBRANCH   1   2
BRANCH   1  31
ATOM     31  C   UNL A   1      33.740  34.320  32.876  1.00  0.00     0.188 C 
BRANCH  31  32
ATOM     32  O   UNL A   1      34.854  33.462  33.101  1.00  0.00    -0.376 OA
BRANCH  32  33
ATOM     33  C   UNL A   1      36.121  33.781  32.550  1.00  0.00     0.202 C 
BRANCH  33  34
ATOM     34  C   UNL A   1      37.364  33.545  33.421  1.00  0.00     0.261 C 
BRANCH  34  35
ATOM     35  O   UNL A   1      38.395  32.732  32.829  1.00  0.00    -0.460 OA
BRANCH  35  36
ATOM     36  C   UNL A   1      38.111  31.407  32.727  1.00  0.00     0.338 C 
ATOM     37  O   UNL A   1      37.136  30.839  33.185  1.00  0.00    -0.246 OA
BRANCH  36  38
ATOM     38  C   UNL A   1      39.073  30.724  31.823  1.00  0.00     0.060 A 
ATOM     39  C   UNL A   1      39.941  29.776  32.386  1.00  0.00     0.016 A 
ATOM     40  C   UNL A   1      39.192  31.057  30.471  1.00  0.00     0.016 A 
ATOM     41  C   UNL A   1      40.976  29.221  31.628  1.00  0.00     0.010 A 
ATOM     42  C   UNL A   1      40.244  30.514  29.715  1.00  0.00     0.010 A 
ATOM     43  C   UNL A   1      41.176  29.637  30.307  1.00  0.00    -0.014 A 
BRANCH  43  44
ATOM     44  C   UNL A   1      42.490  29.381  29.652  1.00  0.00     0.031 A 
ATOM     45  C   UNL A   1      42.710  28.028  29.018  1.00  0.00     0.074 A 
ATOM     46  C   UNL A   1      43.455  30.315  29.572  1.00  0.00     0.049 A 
ATOM     47  N   UNL A   1      43.765  27.553  28.404  1.00  0.00    -0.248 NA
ATOM     48  C   UNL A   1      41.584  27.084  29.091  1.00  0.00     0.031 C 
ATOM     49  C   UNL A   1      43.363  31.678  30.088  1.00  0.00     0.029 A 
ATOM     50  N   UNL A   1      44.713  30.248  29.018  1.00  0.00    -0.354 N 
ATOM     51  C   UNL A   1      43.434  26.255  28.032  1.00  0.00     0.074 A 
ATOM     52  C   UNL A   1      42.093  26.006  28.516  1.00  0.00     0.031 C 
ATOM     53  C   UNL A   1      44.518  32.319  29.832  1.00  0.00     0.029 A 
ATOM     54  C   UNL A   1      45.443  31.405  29.158  1.00  0.00     0.049 A 
ATOM     55  H   UNL A   1      45.059  29.446  28.566  1.00  0.00     0.167 HD
ATOM     56  C   UNL A   1      44.170  25.349  27.343  1.00  0.00     0.037 A 
ATOM     57  C   UNL A   1      46.710  31.690  28.793  1.00  0.00     0.037 A 
ATOM     58  C   UNL A   1      45.503  25.590  26.857  1.00  0.00     0.049 A 
ATOM     59  C   UNL A   1      47.539  30.646  28.084  1.00  0.00     0.074 A 
ATOM     60  C   UNL A   1      46.322  24.739  26.136  1.00  0.00     0.029 A 
ATOM     61  N   UNL A   1      46.216  26.763  27.050  1.00  0.00    -0.354 N 
ATOM     62  N   UNL A   1      47.208  29.429  27.724  1.00  0.00    -0.248 NA
ATOM     63  C   UNL A   1      48.916  31.020  27.724  1.00  0.00     0.031 C 
ATOM     64  C   UNL A   1      47.551  25.380  25.938  1.00  0.00     0.029 A 
ATOM     65  C   UNL A   1      47.475  26.651  26.483  1.00  0.00     0.049 A 
ATOM     66  H   UNL A   1      45.877  27.559  27.521  1.00  0.00     0.167 HD
ATOM     67  C   UNL A   1      48.318  28.909  27.060  1.00  0.00     0.074 A 
ATOM     68  C   UNL A   1      49.331  29.943  27.071  1.00  0.00     0.031 C 
ATOM     69  C   UNL A   1      48.476  27.690  26.484  1.00  0.00     0.037 A 
BRANCH  56  70
ATOM     70  C   UNL A   1      43.555  23.993  27.117  1.00  0.00     0.058 A 
ATOM     71  C   UNL A   1      42.976  23.634  25.888  1.00  0.00     0.135 A 
ATOM     72  C   UNL A   1      43.537  23.044  28.151  1.00  0.00     0.135 A 
ATOM     73  F   UNL A   1      42.950  24.510  24.871  1.00  0.00    -0.206 F 
ATOM     74  C   UNL A   1      42.360  22.399  25.709  1.00  0.00     0.059 A 
ATOM     75  C   UNL A   1      42.954  21.791  27.983  1.00  0.00     0.059 A 
ATOM     76  F   UNL A   1      44.078  23.333  29.345  1.00  0.00    -0.206 F 
ATOM     77  C   UNL A   1      42.347  21.488  26.766  1.00  0.00     0.060 A 
BRANCH  77  78
ATOM     78  S   UNL A   1      41.517  19.901  26.532  1.00  0.00     0.124 S 
ATOM     79  O   UNL A   1      42.093  19.457  25.267  1.00  0.00    -0.237 OA
ATOM     80  O   UNL A   1      41.931  19.154  27.714  1.00  0.00    -0.237 OA
ATOM     81  O   UNL A   1      40.103  20.262  26.484  1.00  0.00    -0.744 OA
ENDBRANCH  77  78
ENDBRANCH  56  70
BRANCH  57  82
ATOM     82  C   UNL A   1      47.280  33.036  29.079  1.00  0.00     0.058 A 
ATOM     83  C   UNL A   1      47.902  33.313  30.306  1.00  0.00     0.135 A 
ATOM     84  C   UNL A   1      47.213  34.072  28.134  1.00  0.00     0.135 A 
ATOM     85  F   UNL A   1      47.973  32.363  31.251  1.00  0.00    -0.206 F 
ATOM     86  C   UNL A   1      48.433  34.569  30.589  1.00  0.00     0.059 A 
ATOM     87  C   UNL A   1      47.758  35.328  28.384  1.00  0.00     0.059 A 
ATOM     88  F   UNL A   1      46.630  33.860  26.944  1.00  0.00    -0.206 F 
ATOM     89  C   UNL A   1      48.360  35.569  29.618  1.00  0.00     0.060 A 
BRANCH  89  90
ATOM     90  S   UNL A   1      49.103  37.177  29.973  1.00  0.00     0.124 S 
ATOM     91  O   UNL A   1      50.227  36.802  30.823  1.00  0.00    -0.237 OA
ATOM     92  O   UNL A   1      49.444  37.659  28.638  1.00  0.00    -0.237 OA
ATOM     93  O   UNL A   1      48.026  37.905  30.639  1.00  0.00    -0.744 OA
ENDBRANCH  89  90
ENDBRANCH  57  82
BRANCH  69  94
ATOM     94  C   UNL A   1      49.769  27.417  25.760  1.00  0.00     0.058 A 
ATOM     95  C   UNL A   1      50.935  27.021  26.433  1.00  0.00     0.135 A 
ATOM     96  C   UNL A   1      49.824  27.507  24.357  1.00  0.00     0.135 A 
ATOM     97  F   UNL A   1      50.940  26.919  27.771  1.00  0.00    -0.206 F 
ATOM     98  C   UNL A   1      52.117  26.753  25.746  1.00  0.00     0.059 A 
ATOM     99  C   UNL A   1      50.987  27.217  23.649  1.00  0.00     0.059 A 
ATOM    100  F   UNL A   1      48.735  27.867  23.660  1.00  0.00    -0.206 F 
ATOM    101  C   UNL A   1      52.133  26.855  24.354  1.00  0.00     0.060 A 
BRANCH 101 102
ATOM    102  S   UNL A   1      53.666  26.487  23.472  1.00  0.00     0.124 S 
ATOM    103  O   UNL A   1      53.160  25.950  22.213  1.00  0.00    -0.237 OA
ATOM    104  O   UNL A   1      54.303  27.797  23.390  1.00  0.00    -0.237 OA
ATOM    105  O   UNL A   1      54.337  25.524  24.342  1.00  0.00    -0.744 OA
ENDBRANCH 101 102
ENDBRANCH  69  94
ENDBRANCH  43  44
ENDBRANCH  36  38
ENDBRANCH  35  36
ENDBRANCH  34  35
ENDBRANCH  33  34
ENDBRANCH  32  33
ENDBRANCH  31  32
ENDBRANCH   1  31
TORSDOF 25
ENDMDL
MODEL 2
REMARK VINA RESULT:      -9.6      4.642      8.802
REMARK SMILES O=C(COc1cc(-c2ccccc2)nc(Nc2ccccc2Br)n1)OCCOCCOCCOC(=O)c1ccc(-c2c3nc(c(-c4c(F)cc(S(=O)(=O)[O-])cc4F)c4ccc([nH]4)c(-c4c(F)cc(S(=O)(=O)[O-])cc4F)c4nc(c(-c5c(F)cc(S(=O)(=O)[O-])cc5F)c5ccc2[nH]5)C=C4)C=C3)cc1
REMARK SMILES IDX 29 1 28 2 27 3 26 4 25 5 2 6 1 7 3 8 4 9 5 10 6 11 24 12
REMARK SMILES IDX 7 13 15 14 14 15 8 16 9 17 13 18 10 19 12 20 11 21 16 22
REMARK SMILES IDX 17 24 18 25 22 26 19 27 21 28 23 29 20 30 30 31 31 32 32 33
REMARK SMILES IDX 33 34 34 35 35 36 36 37 37 38 38 39 102 40 39 41 101 42
REMARK SMILES IDX 40 43 41 44 42 45 95 46 43 47 100 48 94 49 96 50 44 51 99 52
REMARK SMILES IDX 93 53 92 54 45 56 79 57 58 58 78 59 59 60 62 61 77 62 97 63
REMARK SMILES IDX 60 64 61 65 76 67 98 68 63 69 46 70 47 71 56 72 48 73 49 74
REMARK SMILES IDX 55 75 57 76 50 77 51 78 52 79 53 80 54 81 80 82 81 83 90 84
REMARK SMILES IDX 82 85 83 86 89 87 91 88 84 89 85 90 86 91 87 92 88 93 64 94
REMARK SMILES IDX 65 95 74 96 66 97 67 98 73 99 75 100 68 101 69 102 70 103
REMARK SMILES IDX 71 104 72 105
REMARK H PARENT 16 23 96 55 62 66
REMARK Flexibility Score: inf
ROOT
ATOM      1  C   UNL A   1      34.751  35.265  33.267  1.00  0.00     0.188 C 
ENDROOT
BRANCH   1   2
ATOM      2  O   UNL A   1      34.081  36.512  33.262  1.00  0.00    -0.376 OA
BRANCH   2   3
ATOM      3  C   UNL A   1      33.554  36.972  32.036  1.00  0.00     0.202 C 
BRANCH   3   4
ATOM      4  C   UNL A   1      32.358  36.161  31.544  1.00  0.00     0.261 C 
BRANCH   4   5
ATOM      5  O   UNL A   1      32.628  35.137  30.555  1.00  0.00    -0.461 OA
BRANCH   5   6
ATOM      6  C   UNL A   1      33.084  35.299  29.291  1.00  0.00     0.344 C 
ATOM      7  O   UNL A   1      32.817  36.331  28.679  1.00  0.00    -0.248 OA
BRANCH   6   8
ATOM      8  C   UNL A   1      33.894  34.183  28.653  1.00  0.00     0.353 C 
BRANCH   8   9
ATOM      9  O   UNL A   1      34.686  33.470  29.605  1.00  0.00    -0.466 OA
BRANCH   9  10
ATOM     10  C   UNL A   1      34.753  32.176  29.169  1.00  0.00     0.219 A 
ATOM     11  C   UNL A   1      35.784  31.381  29.574  1.00  0.00     0.097 A 
ATOM     12  N   UNL A   1      33.925  31.894  28.180  1.00  0.00    -0.177 NA
ATOM     13  C   UNL A   1      36.054  30.317  28.748  1.00  0.00     0.080 A 
ATOM     14  C   UNL A   1      34.188  30.796  27.470  1.00  0.00     0.231 A 
ATOM     15  N   UNL A   1      35.247  29.996  27.705  1.00  0.00    -0.212 NA
BRANCH  13  16
ATOM     16  C   UNL A   1      37.366  29.649  28.876  1.00  0.00     0.000 A 
ATOM     17  C   UNL A   1      37.623  28.767  29.938  1.00  0.00     0.010 A 
ATOM     18  C   UNL A   1      38.328  29.729  27.847  1.00  0.00     0.010 A 
ATOM     19  C   UNL A   1      38.776  27.974  29.952  1.00  0.00     0.001 A 
ATOM     20  C   UNL A   1      39.477  28.934  27.859  1.00  0.00     0.001 A 
ATOM     21  C   UNL A   1      39.697  28.053  28.910  1.00  0.00     0.000 A 
ENDBRANCH  13  16
BRANCH  14  22
ATOM     22  N   UNL A   1      33.301  30.482  26.444  1.00  0.00    -0.323 N 
ATOM     23  H   UNL A   1      33.108  31.184  25.780  1.00  0.00     0.170 HD
BRANCH  22  24
ATOM     24  C   UNL A   1      32.657  29.242  26.281  1.00  0.00     0.055 A 
ATOM     25  C   UNL A   1      31.882  28.745  27.340  1.00  0.00     0.027 A 
ATOM     26  C   UNL A   1      32.666  28.517  25.071  1.00  0.00     0.041 A 
ATOM     27  C   UNL A   1      31.123  27.580  27.196  1.00  0.00     0.002 A 
ATOM     28  C   UNL A   1      31.919  27.340  24.934  1.00  0.00     0.018 A 
ATOM     29  Br  UNL A   1      33.708  29.059  23.572  1.00  0.00    -0.049 Br
ATOM     30  C   UNL A   1      31.142  26.877  25.994  1.00  0.00     0.001 A 
ENDBRANCH  22  24
ENDBRANCH  14  22
ENDBRANCH   9  10
ENDBRANCH   8   9
ENDBRANCH   6   8
ENDBRANCH   5   6
ENDBRANCH   4   5
ENDBRANCH   3   4
ENDBRANCH   2   3
ENDBRANCH   1   2
BRANCH   1  31
ATOM     31  C   UNL A   1      35.160  34.783  34.670  1.00  0.00     0.188 C 
BRANCH  31  32
ATOM     32  O   UNL A   1      35.704  33.480  34.855  1.00  0.00    -0.376 OA
BRANCH  32  33
ATOM     33  C   UNL A   1      37.025  33.323  35.348  1.00  0.00     0.202 C 
BRANCH  33  34
ATOM     34  C   UNL A   1      37.746  31.998  35.065  1.00  0.00     0.261 C 
BRANCH  34  35
ATOM     35  O   UNL A   1      37.415  31.362  33.816  1.00  0.00    -0.460 OA
BRANCH  35  36
ATOM     36  C   UNL A   1      38.004  31.892  32.713  1.00  0.00     0.338 C 
ATOM     37  O   UNL A   1      37.738  32.962  32.193  1.00  0.00    -0.246 OA
BRANCH  36  38
ATOM     38  C   UNL A   1      39.165  31.070  32.281  1.00  0.00     0.060 A 
ATOM     39  C   UNL A   1      39.447  29.903  33.008  1.00  0.00     0.016 A 
ATOM     40  C   UNL A   1      40.017  31.467  31.247  1.00  0.00     0.016 A 
ATOM     41  C   UNL A   1      40.615  29.177  32.760  1.00  0.00     0.010 A 
ATOM     42  C   UNL A   1      41.201  30.748  31.012  1.00  0.00     0.010 A 
ATOM     43  C   UNL A   1      41.533  29.633  31.807  1.00  0.00    -0.014 A 
BRANCH  43  44
ATOM     44  C   UNL A   1      42.933  29.121  31.839  1.00  0.00     0.031 A 
ATOM     45  C   UNL A   1      43.837  29.607  32.948  1.00  0.00     0.074 A 
ATOM     46  C   UNL A   1      43.397  28.221  30.954  1.00  0.00     0.049 A 
ATOM     47  N   UNL A   1      45.093  29.326  33.187  1.00  0.00    -0.248 NA
ATOM     48  C   UNL A   1      43.236  30.539  33.915  1.00  0.00     0.031 C 
ATOM     49  C   UNL A   1      42.625  27.623  29.867  1.00  0.00     0.029 A 
ATOM     50  N   UNL A   1      44.645  27.654  30.833  1.00  0.00    -0.354 N 
ATOM     51  C   UNL A   1      45.435  30.057  34.320  1.00  0.00     0.074 A 
ATOM     52  C   UNL A   1      44.264  30.816  34.702  1.00  0.00     0.031 C 
ATOM     53  C   UNL A   1      43.418  26.775  29.186  1.00  0.00     0.029 A 
ATOM     54  C   UNL A   1      44.761  26.790  29.769  1.00  0.00     0.049 A 
ATOM     55  H   UNL A   1      45.385  27.848  31.450  1.00  0.00     0.167 HD
ATOM     56  C   UNL A   1      46.611  30.091  34.992  1.00  0.00     0.037 A 
ATOM     57  C   UNL A   1      45.828  26.099  29.316  1.00  0.00     0.037 A 
ATOM     58  C   UNL A   1      47.779  29.337  34.619  1.00  0.00     0.049 A 
ATOM     59  C   UNL A   1      47.150  26.200  30.038  1.00  0.00     0.074 A 
ATOM     60  C   UNL A   1      49.012  29.294  35.247  1.00  0.00     0.029 A 
ATOM     61  N   UNL A   1      47.863  28.502  33.516  1.00  0.00    -0.354 N 
ATOM     62  N   UNL A   1      47.454  26.882  31.117  1.00  0.00    -0.248 NA
ATOM     63  C   UNL A   1      48.273  25.429  29.483  1.00  0.00     0.031 C 
ATOM     64  C   UNL A   1      49.858  28.473  34.493  1.00  0.00     0.029 A 
ATOM     65  C   UNL A   1      49.134  27.956  33.430  1.00  0.00     0.049 A 
ATOM     66  H   UNL A   1      47.128  28.321  32.886  1.00  0.00     0.167 HD
ATOM     67  C   UNL A   1      48.789  26.588  31.393  1.00  0.00     0.074 A 
ATOM     68  C   UNL A   1      49.233  25.671  30.366  1.00  0.00     0.031 C 
ATOM     69  C   UNL A   1      49.568  27.030  32.413  1.00  0.00     0.037 A 
BRANCH  56  70
ATOM     70  C   UNL A   1      46.699  31.015  36.177  1.00  0.00     0.058 A 
ATOM     71  C   UNL A   1      46.380  30.589  37.477  1.00  0.00     0.135 A 
ATOM     72  C   UNL A   1      47.098  32.350  36.005  1.00  0.00     0.135 A 
ATOM     73  F   UNL A   1      45.975  29.328  37.696  1.00  0.00    -0.206 F 
ATOM     74  C   UNL A   1      46.409  31.468  38.557  1.00  0.00     0.059 A 
ATOM     75  C   UNL A   1      47.165  33.237  37.075  1.00  0.00     0.059 A 
ATOM     76  F   UNL A   1      47.416  32.809  34.785  1.00  0.00    -0.206 F 
ATOM     77  C   UNL A   1      46.795  32.792  38.344  1.00  0.00     0.060 A 
BRANCH  77  78
ATOM     78  S   UNL A   1      46.799  33.930  39.746  1.00  0.00     0.124 S 
ATOM     79  O   UNL A   1      47.064  33.020  40.856  1.00  0.00    -0.237 OA
ATOM     80  O   UNL A   1      47.882  34.845  39.403  1.00  0.00    -0.237 OA
ATOM     81  O   UNL A   1      45.459  34.508  39.716  1.00  0.00    -0.744 OA
ENDBRANCH  77  78
ENDBRANCH  56  70
BRANCH  57  82
ATOM     82  C   UNL A   1      45.693  25.231  28.113  1.00  0.00     0.058 A 
ATOM     83  C   UNL A   1      45.337  23.879  28.233  1.00  0.00     0.135 A 
ATOM     84  C   UNL A   1      45.917  25.734  26.822  1.00  0.00     0.135 A 
ATOM     85  F   UNL A   1      45.133  23.344  29.446  1.00  0.00    -0.206 F 
ATOM     86  C   UNL A   1      45.214  23.054  27.118  1.00  0.00     0.059 A 
ATOM     87  C   UNL A   1      45.776  24.935  25.690  1.00  0.00     0.059 A 
ATOM     88  F   UNL A   1      46.258  27.021  26.651  1.00  0.00    -0.206 F 
ATOM     89  C   UNL A   1      45.430  23.594  25.849  1.00  0.00     0.060 A 
BRANCH  89  90
ATOM     90  S   UNL A   1      45.212  22.531  24.405  1.00  0.00     0.124 S 
ATOM     91  O   UNL A   1      46.173  23.102  23.469  1.00  0.00    -0.237 OA
ATOM     92  O   UNL A   1      45.546  21.214  24.940  1.00  0.00    -0.237 OA
ATOM     93  O   UNL A   1      43.806  22.720  24.058  1.00  0.00    -0.744 OA
ENDBRANCH  89  90
ENDBRANCH  57  82
BRANCH  69  94
ATOM     94  C   UNL A   1      50.971  26.487  32.513  1.00  0.00     0.058 A 
ATOM     95  C   UNL A   1      51.274  25.330  33.247  1.00  0.00     0.135 A 
ATOM     96  C   UNL A   1      52.020  27.112  31.817  1.00  0.00     0.135 A 
ATOM     97  F   UNL A   1      50.312  24.692  33.931  1.00  0.00    -0.206 F 
ATOM     98  C   UNL A   1      52.573  24.829  33.313  1.00  0.00     0.059 A 
ATOM     99  C   UNL A   1      53.319  26.613  31.845  1.00  0.00     0.059 A 
ATOM    100  F   UNL A   1      51.785  28.214  31.086  1.00  0.00    -0.206 F 
ATOM    101  C   UNL A   1      53.589  25.480  32.609  1.00  0.00     0.060 A 
BRANCH 101 102
ATOM    102  S   UNL A   1      55.266  24.811  32.686  1.00  0.00     0.124 S 
ATOM    103  O   UNL A   1      56.005  25.780  31.884  1.00  0.00    -0.237 OA
ATOM    104  O   UNL A   1      55.546  24.830  34.118  1.00  0.00    -0.237 OA
ATOM    105  O   UNL A   1      55.129  23.482  32.097  1.00  0.00    -0.744 OA
ENDBRANCH 101 102
ENDBRANCH  69  94
ENDBRANCH  43  44
ENDBRANCH  36  38
ENDBRANCH  35  36
ENDBRANCH  34  35
ENDBRANCH  33  34
ENDBRANCH  32  33
ENDBRANCH  31  32
ENDBRANCH   1  31
TORSDOF 25
ENDMDL
MODEL 3
REMARK VINA RESULT:      -9.6      2.332      8.656
REMARK SMILES O=C(COc1cc(-c2ccccc2)nc(Nc2ccccc2Br)n1)OCCOCCOCCOC(=O)c1ccc(-c2c3nc(c(-c4c(F)cc(S(=O)(=O)[O-])cc4F)c4ccc([nH]4)c(-c4c(F)cc(S(=O)(=O)[O-])cc4F)c4nc(c(-c5c(F)cc(S(=O)(=O)[O-])cc5F)c5ccc2[nH]5)C=C4)C=C3)cc1
REMARK SMILES IDX 29 1 28 2 27 3 26 4 25 5 2 6 1 7 3 8 4 9 5 10 6 11 24 12
REMARK SMILES IDX 7 13 15 14 14 15 8 16 9 17 13 18 10 19 12 20 11 21 16 22
REMARK SMILES IDX 17 24 18 25 22 26 19 27 21 28 23 29 20 30 30 31 31 32 32 33
REMARK SMILES IDX 33 34 34 35 35 36 36 37 37 38 38 39 102 40 39 41 101 42
REMARK SMILES IDX 40 43 41 44 42 45 95 46 43 47 100 48 94 49 96 50 44 51 99 52
REMARK SMILES IDX 93 53 92 54 45 56 79 57 58 58 78 59 59 60 62 61 77 62 97 63
REMARK SMILES IDX 60 64 61 65 76 67 98 68 63 69 46 70 47 71 56 72 48 73 49 74
REMARK SMILES IDX 55 75 57 76 50 77 51 78 52 79 53 80 54 81 80 82 81 83 90 84
REMARK SMILES IDX 82 85 83 86 89 87 91 88 84 89 85 90 86 91 87 92 88 93 64 94
REMARK SMILES IDX 65 95 74 96 66 97 67 98 73 99 75 100 68 101 69 102 70 103
REMARK SMILES IDX 71 104 72 105
REMARK H PARENT 16 23 96 55 62 66
REMARK Flexibility Score: inf
ROOT
ATOM      1  C   UNL A   1      35.027  35.193  33.401  1.00  0.00     0.188 C 
ENDROOT
BRANCH   1   2
ATOM      2  O   UNL A   1      34.410  36.448  33.619  1.00  0.00    -0.376 OA
BRANCH   2   3
ATOM      3  C   UNL A   1      33.824  37.096  32.510  1.00  0.00     0.202 C 
BRANCH   3   4
ATOM      4  C   UNL A   1      32.539  36.433  32.024  1.00  0.00     0.261 C 
BRANCH   4   5
ATOM      5  O   UNL A   1      32.687  35.316  31.112  1.00  0.00    -0.461 OA
BRANCH   5   6
ATOM      6  C   UNL A   1      33.006  35.351  29.796  1.00  0.00     0.344 C 
ATOM      7  O   UNL A   1      32.524  36.225  29.080  1.00  0.00    -0.248 OA
BRANCH   6   8
ATOM      8  C   UNL A   1      33.936  34.287  29.237  1.00  0.00     0.353 C 
BRANCH   8   9
ATOM      9  O   UNL A   1      34.740  33.677  30.248  1.00  0.00    -0.466 OA
BRANCH   9  10
ATOM     10  C   UNL A   1      34.895  32.368  29.890  1.00  0.00     0.219 A 
ATOM     11  C   UNL A   1      35.643  31.539  30.673  1.00  0.00     0.097 A 
ATOM     12  N   UNL A   1      34.498  32.091  28.661  1.00  0.00    -0.177 NA
ATOM     13  C   UNL A   1      36.149  30.435  30.029  1.00  0.00     0.080 A 
ATOM     14  C   UNL A   1      34.950  30.958  28.122  1.00  0.00     0.231 A 
ATOM     15  N   UNL A   1      35.790  30.117  28.760  1.00  0.00    -0.212 NA
BRANCH  13  16
ATOM     16  C   UNL A   1      37.270  29.710  30.664  1.00  0.00     0.000 A 
ATOM     17  C   UNL A   1      38.574  29.819  30.156  1.00  0.00     0.010 A 
ATOM     18  C   UNL A   1      37.103  29.042  31.895  1.00  0.00     0.010 A 
ATOM     19  C   UNL A   1      39.668  29.311  30.867  1.00  0.00     0.001 A 
ATOM     20  C   UNL A   1      38.194  28.539  32.607  1.00  0.00     0.001 A 
ATOM     21  C   UNL A   1      39.478  28.680  32.093  1.00  0.00     0.000 A 
ENDBRANCH  13  16
BRANCH  14  22
ATOM     22  N   UNL A   1      34.511  30.652  26.838  1.00  0.00    -0.323 N 
ATOM     23  H   UNL A   1      34.838  31.217  26.100  1.00  0.00     0.170 HD
BRANCH  22  24
ATOM     24  C   UNL A   1      33.637  29.600  26.510  1.00  0.00     0.055 A 
ATOM     25  C   UNL A   1      34.164  28.305  26.385  1.00  0.00     0.027 A 
ATOM     26  C   UNL A   1      32.239  29.759  26.401  1.00  0.00     0.041 A 
ATOM     27  C   UNL A   1      33.330  27.202  26.181  1.00  0.00     0.002 A 
ATOM     28  C   UNL A   1      31.407  28.655  26.177  1.00  0.00     0.018 A 
ATOM     29  Br  UNL A   1      31.401  31.465  26.508  1.00  0.00    -0.049 Br
ATOM     30  C   UNL A   1      31.952  27.376  26.076  1.00  0.00     0.001 A 
ENDBRANCH  22  24
ENDBRANCH  14  22
ENDBRANCH   9  10
ENDBRANCH   8   9
ENDBRANCH   6   8
ENDBRANCH   5   6
ENDBRANCH   4   5
ENDBRANCH   3   4
ENDBRANCH   2   3
ENDBRANCH   1   2
BRANCH   1  31
ATOM     31  C   UNL A   1      35.401  34.449  34.695  1.00  0.00     0.188 C 
BRANCH  31  32
ATOM     32  O   UNL A   1      36.115  33.219  34.639  1.00  0.00    -0.376 OA
BRANCH  32  33
ATOM     33  C   UNL A   1      37.432  33.135  35.158  1.00  0.00     0.202 C 
BRANCH  33  34
ATOM     34  C   UNL A   1      38.403  32.144  34.502  1.00  0.00     0.261 C 
BRANCH  34  35
ATOM     35  O   UNL A   1      38.228  31.944  33.087  1.00  0.00    -0.460 OA
BRANCH  35  36
ATOM     36  C   UNL A   1      38.676  32.950  32.292  1.00  0.00     0.338 C 
ATOM     37  O   UNL A   1      38.079  33.977  32.019  1.00  0.00    -0.246 OA
BRANCH  36  38
ATOM     38  C   UNL A   1      40.093  32.732  31.902  1.00  0.00     0.060 A 
ATOM     39  C   UNL A   1      40.465  33.038  30.584  1.00  0.00     0.016 A 
ATOM     40  C   UNL A   1      41.026  32.159  32.771  1.00  0.00     0.016 A 
ATOM     41  C   UNL A   1      41.735  32.703  30.107  1.00  0.00     0.010 A 
ATOM     42  C   UNL A   1      42.296  31.804  32.285  1.00  0.00     0.010 A 
ATOM     43  C   UNL A   1      42.635  32.022  30.935  1.00  0.00    -0.014 A 
BRANCH  43  44
ATOM     44  C   UNL A   1      43.789  31.304  30.323  1.00  0.00     0.031 A 
ATOM     45  C   UNL A   1      45.135  31.988  30.339  1.00  0.00     0.074 A 
ATOM     46  C   UNL A   1      43.682  30.067  29.804  1.00  0.00     0.049 A 
ATOM     47  N   UNL A   1      46.285  31.586  29.860  1.00  0.00    -0.248 NA
ATOM     48  C   UNL A   1      45.185  33.311  30.982  1.00  0.00     0.031 C 
ATOM     49  C   UNL A   1      42.462  29.264  29.769  1.00  0.00     0.029 A 
ATOM     50  N   UNL A   1      44.627  29.271  29.201  1.00  0.00    -0.354 N 
ATOM     51  C   UNL A   1      47.188  32.608  30.131  1.00  0.00     0.074 A 
ATOM     52  C   UNL A   1      46.447  33.662  30.788  1.00  0.00     0.031 C 
ATOM     53  C   UNL A   1      42.732  28.089  29.171  1.00  0.00     0.029 A 
ATOM     54  C   UNL A   1      44.136  28.066  28.755  1.00  0.00     0.049 A 
ATOM     55  H   UNL A   1      45.568  29.538  29.097  1.00  0.00     0.167 HD
ATOM     56  C   UNL A   1      48.516  32.668  29.868  1.00  0.00     0.037 A 
ATOM     57  C   UNL A   1      44.745  27.067  28.083  1.00  0.00     0.037 A 
ATOM     58  C   UNL A   1      49.261  31.622  29.216  1.00  0.00     0.049 A 
ATOM     59  C   UNL A   1      46.211  27.179  27.739  1.00  0.00     0.074 A 
ATOM     60  C   UNL A   1      50.612  31.585  28.920  1.00  0.00     0.029 A 
ATOM     61  N   UNL A   1      48.717  30.435  28.751  1.00  0.00    -0.354 N 
ATOM     62  N   UNL A   1      47.056  28.144  28.017  1.00  0.00    -0.248 NA
ATOM     63  C   UNL A   1      46.809  26.058  26.996  1.00  0.00     0.031 C 
ATOM     64  C   UNL A   1      50.875  30.396  28.229  1.00  0.00     0.029 A 
ATOM     65  C   UNL A   1      49.700  29.667  28.149  1.00  0.00     0.049 A 
ATOM     66  H   UNL A   1      47.771  30.175  28.837  1.00  0.00     0.167 HD
ATOM     67  C   UNL A   1      48.290  27.728  27.520  1.00  0.00     0.074 A 
ATOM     68  C   UNL A   1      48.081  26.426  26.924  1.00  0.00     0.031 C 
ATOM     69  C   UNL A   1      49.489  28.363  27.568  1.00  0.00     0.037 A 
BRANCH  56  70
ATOM     70  C   UNL A   1      49.236  33.933  30.250  1.00  0.00     0.058 A 
ATOM     71  C   UNL A   1      49.799  34.114  31.524  1.00  0.00     0.135 A 
ATOM     72  C   UNL A   1      49.354  34.986  29.327  1.00  0.00     0.135 A 
ATOM     73  F   UNL A   1      49.699  33.148  32.451  1.00  0.00    -0.206 F 
ATOM     74  C   UNL A   1      50.411  35.310  31.885  1.00  0.00     0.059 A 
ATOM     75  C   UNL A   1      49.991  36.178  29.656  1.00  0.00     0.059 A 
ATOM     76  F   UNL A   1      48.837  34.865  28.095  1.00  0.00    -0.206 F 
ATOM     77  C   UNL A   1      50.495  36.340  30.946  1.00  0.00     0.060 A 
BRANCH  77  78
ATOM     78  S   UNL A   1      51.264  37.899  31.435  1.00  0.00     0.124 S 
ATOM     79  O   UNL A   1      52.191  37.452  32.470  1.00  0.00    -0.237 OA
ATOM     80  O   UNL A   1      51.874  38.351  30.190  1.00  0.00    -0.237 OA
ATOM     81  O   UNL A   1      50.138  38.699  31.906  1.00  0.00    -0.744 OA
ENDBRANCH  77  78
ENDBRANCH  56  70
BRANCH  57  82
ATOM     82  C   UNL A   1      43.972  25.855  27.695  1.00  0.00     0.058 A 
ATOM     83  C   UNL A   1      43.815  24.781  28.585  1.00  0.00     0.135 A 
ATOM     84  C   UNL A   1      43.378  25.743  26.429  1.00  0.00     0.135 A 
ATOM     85  F   UNL A   1      44.382  24.830  29.801  1.00  0.00    -0.206 F 
ATOM     86  C   UNL A   1      43.101  23.639  28.234  1.00  0.00     0.059 A 
ATOM     87  C   UNL A   1      42.638  24.622  26.063  1.00  0.00     0.059 A 
ATOM     88  F   UNL A   1      43.497  26.742  25.539  1.00  0.00    -0.206 F 
ATOM     89  C   UNL A   1      42.511  23.572  26.971  1.00  0.00     0.060 A 
BRANCH  89  90
ATOM     90  S   UNL A   1      41.538  22.110  26.545  1.00  0.00     0.124 S 
ATOM     91  O   UNL A   1      40.227  22.693  26.287  1.00  0.00    -0.237 OA
ATOM     92  O   UNL A   1      42.250  21.597  25.378  1.00  0.00    -0.237 OA
ATOM     93  O   UNL A   1      41.635  21.281  27.743  1.00  0.00    -0.744 OA
ENDBRANCH  89  90
ENDBRANCH  57  82
BRANCH  69  94
ATOM     94  C   UNL A   1      50.691  27.641  27.013  1.00  0.00     0.058 A 
ATOM     95  C   UNL A   1      51.474  26.781  27.797  1.00  0.00     0.135 A 
ATOM     96  C   UNL A   1      51.030  27.779  25.656  1.00  0.00     0.135 A 
ATOM     97  F   UNL A   1      51.197  26.611  29.098  1.00  0.00    -0.206 F 
ATOM     98  C   UNL A   1      52.570  26.105  27.263  1.00  0.00     0.059 A 
ATOM     99  C   UNL A   1      52.103  27.092  25.095  1.00  0.00     0.059 A 
ATOM    100  F   UNL A   1      50.306  28.578  24.855  1.00  0.00    -0.206 F 
ATOM    101  C   UNL A   1      52.877  26.269  25.911  1.00  0.00     0.060 A 
BRANCH 101 102
ATOM    102  S   UNL A   1      54.288  25.374  25.224  1.00  0.00     0.124 S 
ATOM    103  O   UNL A   1      54.394  24.245  26.142  1.00  0.00    -0.237 OA
ATOM    104  O   UNL A   1      53.831  25.054  23.876  1.00  0.00    -0.237 OA
ATOM    105  O   UNL A   1      55.376  26.346  25.296  1.00  0.00    -0.744 OA
ENDBRANCH 101 102
ENDBRANCH  69  94
ENDBRANCH  43  44
ENDBRANCH  36  38
ENDBRANCH  35  36
ENDBRANCH  34  35
ENDBRANCH  33  34
ENDBRANCH  32  33
ENDBRANCH  31  32
ENDBRANCH   1  31
TORSDOF 25
ENDMDL
