MODEL 1
REMARK VINA RESULT:     -11.1      0.000      0.000
REMARK SMILES Cc1ccc(NC(=O)C[C@@H](C(=O)OCCOCCOCCOC(=O)c2ccc(-c3c4nc(c(-c5c(F)cc(S(=O)(=O)[O-])cc5F)c5ccc([nH]5)c(-c5c(F)cc(S(=O)(=O)[O-])cc5F)c5nc(c(-c6c(F)cc(S(=O)(=O)[O-])cc6F)c6ccc3[nH]6)C=C5)C=C4)cc2)[NH+](C)C)cc1Cl
REMARK SMILES IDX 17 1 16 2 15 3 14 4 13 5 11 6 12 7 10 8 9 9 7 10 6 11 8 13
REMARK SMILES IDX 5 14 1 15 2 16 3 17 95 18 4 19 94 20 96 21 91 22 92 23 93 24
REMARK SMILES IDX 18 26 19 27 20 28 21 29 22 30 23 31 24 32 25 33 26 34 90 35
REMARK SMILES IDX 27 36 89 37 28 38 29 39 30 40 83 41 31 42 88 43 82 44 84 45
REMARK SMILES IDX 32 46 87 47 81 48 80 49 33 51 67 52 46 53 66 54 47 55 50 56
REMARK SMILES IDX 65 57 85 58 48 59 49 60 64 62 86 63 51 64 34 65 35 66 44 67
REMARK SMILES IDX 36 68 37 69 43 70 45 71 38 72 39 73 40 74 41 75 42 76 68 77
REMARK SMILES IDX 69 78 78 79 70 80 71 81 77 82 79 83 72 84 73 85 74 86 75 87
REMARK SMILES IDX 76 88 52 89 53 90 62 91 54 92 55 93 61 94 63 95 56 96 57 97
REMARK SMILES IDX 58 98 59 99 60 100
REMARK H PARENT 6 12 91 25 84 50 50 61
REMARK Flexibility Score: inf
ROOT
ATOM      1  C   UNL A   1      37.917  22.775  25.952  1.00  0.00     0.188 C 
ENDROOT
BRANCH   1   2
ATOM      2  O   UNL A   1      36.649  22.700  25.082  1.00  0.00    -0.376 OA
BRANCH   2   3
ATOM      3  C   UNL A   1      35.775  22.922  23.305  1.00  0.00     0.202 C 
BRANCH   3   4
ATOM      4  C   UNL A   1      34.165  23.256  22.841  1.00  0.00     0.261 C 
BRANCH   4   5
ATOM      5  O   UNL A   1      33.083  22.316  23.041  1.00  0.00    -0.459 OA
BRANCH   5   6
ATOM      6  C   UNL A   1      31.981  22.683  23.737  1.00  0.00     0.365 C 
ATOM      7  O   UNL A   1      31.174  23.477  23.275  1.00  0.00    -0.245 OA
BRANCH   6   8
ATOM      8  C   UNL A   1      31.892  21.915  25.133  1.00  0.00     0.304 C 
BRANCH   8   9
ATOM      9  C   UNL A   1      31.777  22.781  26.424  1.00  0.00     0.177 C 
BRANCH   9  10
ATOM     10  C   UNL A   1      30.469  23.428  26.826  1.00  0.00     0.231 C 
ATOM     11  N   UNL A   1      30.264  24.770  26.652  1.00  0.00    -0.326 N 
ATOM     12  H   UNL A   1      29.516  25.140  27.174  1.00  0.00     0.169 HD
ATOM     13  O   UNL A   1      29.596  22.769  27.396  1.00  0.00    -0.274 OA
BRANCH  11  14
ATOM     14  C   UNL A   1      30.943  25.713  25.852  1.00  0.00     0.042 A 
ATOM     15  C   UNL A   1      33.735  28.885  22.999  1.00  0.00     0.046 C 
ATOM     16  C   UNL A   1      32.891  28.101  23.952  1.00  0.00    -0.032 A 
ATOM     17  C   UNL A   1      33.651  27.173  25.290  1.00  0.00     0.007 A 
ATOM     18  C   UNL A   1      31.159  27.865  23.551  1.00  0.00     0.046 A 
ATOM     19  C   UNL A   1      32.679  25.998  26.259  1.00  0.00     0.026 A 
ATOM     20  C   UNL A   1      30.172  26.690  24.509  1.00  0.00     0.047 A 
ATOM     21  Cl  UNL A   1      30.430  28.673  22.220  1.00  0.00    -0.084 Cl
ENDBRANCH  11  14
ENDBRANCH   9  10
ENDBRANCH   8   9
BRANCH   8  22
ATOM     22  N   UNL A   1      32.923  20.804  25.329  1.00  0.00    -0.328 N 
ATOM     23  C   UNL A   1      33.705  20.864  26.564  1.00  0.00     0.333 C 
ATOM     24  C   UNL A   1      32.563  19.405  25.069  1.00  0.00     0.333 C 
ATOM     25  H   UNL A   1      33.496  21.079  24.530  1.00  0.00     0.348 HD
ENDBRANCH   8  22
ENDBRANCH   6   8
ENDBRANCH   5   6
ENDBRANCH   4   5
ENDBRANCH   3   4
ENDBRANCH   2   3
ENDBRANCH   1   2
BRANCH   1  26
ATOM     26  C   UNL A   1      38.964  21.642  25.783  1.00  0.00     0.188 C 
BRANCH  26  27
ATOM     27  O   UNL A   1      39.944  21.460  26.795  1.00  0.00    -0.376 OA
BRANCH  27  28
ATOM     28  C   UNL A   1      40.763  22.575  27.115  1.00  0.00     0.202 C 
BRANCH  28  29
ATOM     29  C   UNL A   1      41.820  23.012  26.085  1.00  0.00     0.261 C 
BRANCH  29  30
ATOM     30  O   UNL A   1      42.410  24.304  26.338  1.00  0.00    -0.460 OA
BRANCH  30  31
ATOM     31  C   UNL A   1      41.561  25.357  26.345  1.00  0.00     0.338 C 
ATOM     32  O   UNL A   1      40.764  25.658  25.464  1.00  0.00    -0.246 OA
BRANCH  31  33
ATOM     33  C   UNL A   1      41.572  26.017  27.671  1.00  0.00     0.060 A 
ATOM     34  C   UNL A   1      40.381  26.048  28.418  1.00  0.00     0.016 A 
ATOM     35  C   UNL A   1      42.705  26.683  28.138  1.00  0.00     0.016 A 
ATOM     36  C   UNL A   1      40.302  26.790  29.597  1.00  0.00     0.010 A 
ATOM     37  C   UNL A   1      42.616  27.455  29.302  1.00  0.00     0.010 A 
ATOM     38  C   UNL A   1      41.401  27.553  30.007  1.00  0.00    -0.014 A 
BRANCH  38  39
ATOM     39  C   UNL A   1      41.208  28.652  30.987  1.00  0.00     0.031 A 
ATOM     40  C   UNL A   1      42.081  28.655  32.217  1.00  0.00     0.074 A 
ATOM     41  C   UNL A   1      40.296  29.623  30.802  1.00  0.00     0.049 A 
ATOM     42  N   UNL A   1      42.033  29.424  33.273  1.00  0.00    -0.248 NA
ATOM     43  C   UNL A   1      43.154  27.646  32.256  1.00  0.00     0.031 C 
ATOM     44  C   UNL A   1      39.442  29.770  29.626  1.00  0.00     0.029 A 
ATOM     45  N   UNL A   1      39.927  30.662  31.622  1.00  0.00    -0.354 N 
ATOM     46  C   UNL A   1      43.054  28.982  34.108  1.00  0.00     0.074 A 
ATOM     47  C   UNL A   1      43.690  27.865  33.447  1.00  0.00     0.031 C 
ATOM     48  C   UNL A   1      38.626  30.823  29.813  1.00  0.00     0.029 A 
ATOM     49  C   UNL A   1      38.871  31.396  31.136  1.00  0.00     0.049 A 
ATOM     50  H   UNL A   1      40.375  30.861  32.475  1.00  0.00     0.167 HD
ATOM     51  C   UNL A   1      43.427  29.463  35.318  1.00  0.00     0.037 A 
ATOM     52  C   UNL A   1      38.163  32.390  31.712  1.00  0.00     0.037 A 
ATOM     53  C   UNL A   1      42.781  30.569  35.973  1.00  0.00     0.049 A 
ATOM     54  C   UNL A   1      38.536  32.853  33.102  1.00  0.00     0.074 A 
ATOM     55  C   UNL A   1      43.079  31.137  37.199  1.00  0.00     0.029 A 
ATOM     56  N   UNL A   1      41.697  31.270  35.461  1.00  0.00    -0.354 N 
ATOM     57  N   UNL A   1      39.502  32.430  33.883  1.00  0.00    -0.248 NA
ATOM     58  C   UNL A   1      37.721  33.927  33.688  1.00  0.00     0.031 C 
ATOM     59  C   UNL A   1      42.138  32.140  37.455  1.00  0.00     0.029 A 
ATOM     60  C   UNL A   1      41.297  32.245  36.358  1.00  0.00     0.049 A 
ATOM     61  H   UNL A   1      41.275  31.098  34.588  1.00  0.00     0.167 HD
ATOM     62  C   UNL A   1      39.433  33.209  35.036  1.00  0.00     0.074 A 
ATOM     63  C   UNL A   1      38.336  34.135  34.845  1.00  0.00     0.031 C 
ATOM     64  C   UNL A   1      40.209  33.168  36.148  1.00  0.00     0.037 A 
BRANCH  51  65
ATOM     65  C   UNL A   1      44.556  28.767  36.029  1.00  0.00     0.058 A 
ATOM     66  C   UNL A   1      45.891  29.181  35.892  1.00  0.00     0.135 A 
ATOM     67  C   UNL A   1      44.295  27.681  36.882  1.00  0.00     0.135 A 
ATOM     68  F   UNL A   1      46.203  30.199  35.073  1.00  0.00    -0.206 F 
ATOM     69  C   UNL A   1      46.927  28.529  36.551  1.00  0.00     0.059 A 
ATOM     70  C   UNL A   1      45.312  27.034  37.577  1.00  0.00     0.059 A 
ATOM     71  F   UNL A   1      43.039  27.238  37.046  1.00  0.00    -0.206 F 
ATOM     72  C   UNL A   1      46.628  27.457  37.393  1.00  0.00     0.060 A 
BRANCH  72  73
ATOM     73  S   UNL A   1      47.983  26.625  38.248  1.00  0.00     0.124 S 
ATOM     74  O   UNL A   1      48.137  27.461  39.434  1.00  0.00    -0.237 OA
ATOM     75  O   UNL A   1      47.432  25.293  38.479  1.00  0.00    -0.237 OA
ATOM     76  O   UNL A   1      49.081  26.688  37.290  1.00  0.00    -0.744 OA
ENDBRANCH  72  73
ENDBRANCH  51  65
BRANCH  52  77
ATOM     77  C   UNL A   1      37.009  33.001  30.995  1.00  0.00     0.058 A 
ATOM     78  C   UNL A   1      35.687  32.675  31.332  1.00  0.00     0.135 A 
ATOM     79  C   UNL A   1      37.207  33.916  29.947  1.00  0.00     0.135 A 
ATOM     80  F   UNL A   1      35.442  31.794  32.312  1.00  0.00    -0.206 F 
ATOM     81  C   UNL A   1      34.603  33.220  30.649  1.00  0.00     0.059 A 
ATOM     82  C   UNL A   1      36.139  34.498  29.270  1.00  0.00     0.059 A 
ATOM     83  F   UNL A   1      38.450  34.265  29.584  1.00  0.00    -0.206 F 
ATOM     84  C   UNL A   1      34.840  34.136  29.622  1.00  0.00     0.060 A 
BRANCH  84  85
ATOM     85  S   UNL A   1      33.425  34.873  28.775  1.00  0.00     0.124 S 
ATOM     86  O   UNL A   1      33.088  33.836  27.806  1.00  0.00    -0.237 OA
ATOM     87  O   UNL A   1      32.477  35.056  29.870  1.00  0.00    -0.237 OA
ATOM     88  O   UNL A   1      33.972  36.105  28.216  1.00  0.00    -0.744 OA
ENDBRANCH  84  85
ENDBRANCH  52  77
BRANCH  64  89
ATOM     89  C   UNL A   1      39.940  34.181  37.231  1.00  0.00     0.058 A 
ATOM     90  C   UNL A   1      39.057  33.922  38.292  1.00  0.00     0.135 A 
ATOM     91  C   UNL A   1      40.627  35.406  37.239  1.00  0.00     0.135 A 
ATOM     92  F   UNL A   1      38.371  32.769  38.333  1.00  0.00    -0.206 F 
ATOM     93  C   UNL A   1      38.849  34.849  39.308  1.00  0.00     0.059 A 
ATOM     94  C   UNL A   1      40.459  36.335  38.262  1.00  0.00     0.059 A 
ATOM     95  F   UNL A   1      41.493  35.703  36.257  1.00  0.00    -0.206 F 
ATOM     96  C   UNL A   1      39.558  36.052  39.286  1.00  0.00     0.060 A 
BRANCH  96  97
ATOM     97  S   UNL A   1      39.304  37.231  40.630  1.00  0.00     0.124 S 
ATOM     98  O   UNL A   1      38.225  38.056  40.098  1.00  0.00    -0.237 OA
ATOM     99  O   UNL A   1      38.945  36.360  41.745  1.00  0.00    -0.237 OA
ATOM    100  O   UNL A   1      40.599  37.894  40.752  1.00  0.00    -0.744 OA
ENDBRANCH  96  97
ENDBRANCH  64  89
ENDBRANCH  38  39
ENDBRANCH  31  33
ENDBRANCH  30  31
ENDBRANCH  29  30
ENDBRANCH  28  29
ENDBRANCH  27  28
ENDBRANCH  26  27
ENDBRANCH   1  26
TORSDOF 24
ENDMDL
MODEL 2
REMARK VINA RESULT:     -10.2      3.339      9.331
REMARK SMILES Cc1ccc(NC(=O)C[C@@H](C(=O)OCCOCCOCCOC(=O)c2ccc(-c3c4nc(c(-c5c(F)cc(S(=O)(=O)[O-])cc5F)c5ccc([nH]5)c(-c5c(F)cc(S(=O)(=O)[O-])cc5F)c5nc(c(-c6c(F)cc(S(=O)(=O)[O-])cc6F)c6ccc3[nH]6)C=C5)C=C4)cc2)[NH+](C)C)cc1Cl
REMARK SMILES IDX 17 1 16 2 15 3 14 4 13 5 11 6 12 7 10 8 9 9 7 10 6 11 8 13
REMARK SMILES IDX 5 14 1 15 2 16 3 17 95 18 4 19 94 20 96 21 91 22 92 23 93 24
REMARK SMILES IDX 18 26 19 27 20 28 21 29 22 30 23 31 24 32 25 33 26 34 90 35
REMARK SMILES IDX 27 36 89 37 28 38 29 39 30 40 83 41 31 42 88 43 82 44 84 45
REMARK SMILES IDX 32 46 87 47 81 48 80 49 33 51 67 52 46 53 66 54 47 55 50 56
REMARK SMILES IDX 65 57 85 58 48 59 49 60 64 62 86 63 51 64 34 65 35 66 44 67
REMARK SMILES IDX 36 68 37 69 43 70 45 71 38 72 39 73 40 74 41 75 42 76 68 77
REMARK SMILES IDX 69 78 78 79 70 80 71 81 77 82 79 83 72 84 73 85 74 86 75 87
REMARK SMILES IDX 76 88 52 89 53 90 62 91 54 92 55 93 61 94 63 95 56 96 57 97
REMARK SMILES IDX 58 98 59 99 60 100
REMARK H PARENT 6 12 91 25 84 50 50 61
REMARK Flexibility Score: inf
ROOT
ATOM      1  C   UNL A   1      32.082  27.906  27.571  1.00  0.00     0.188 C 
ENDROOT
BRANCH   1   2
ATOM      2  O   UNL A   1      31.708  26.578  26.887  1.00  0.00    -0.376 OA
BRANCH   2   3
ATOM      3  C   UNL A   1      31.748  24.586  26.876  1.00  0.00     0.202 C 
BRANCH   3   4
ATOM      4  C   UNL A   1      30.718  23.412  26.182  1.00  0.00     0.261 C 
BRANCH   4   5
ATOM      5  O   UNL A   1      31.211  22.164  25.639  1.00  0.00    -0.459 OA
BRANCH   5   6
ATOM      6  C   UNL A   1      32.092  22.170  24.610  1.00  0.00     0.365 C 
ATOM      7  O   UNL A   1      31.718  22.032  23.454  1.00  0.00    -0.245 OA
BRANCH   6   8
ATOM      8  C   UNL A   1      33.581  22.429  25.121  1.00  0.00     0.304 C 
BRANCH   8   9
ATOM      9  C   UNL A   1      34.275  23.750  24.671  1.00  0.00     0.177 C 
BRANCH   9  10
ATOM     10  C   UNL A   1      34.696  23.969  23.233  1.00  0.00     0.231 C 
ATOM     11  N   UNL A   1      33.990  24.806  22.412  1.00  0.00    -0.326 N 
ATOM     12  H   UNL A   1      34.167  24.682  21.452  1.00  0.00     0.169 HD
ATOM     13  O   UNL A   1      35.636  23.330  22.753  1.00  0.00    -0.274 OA
BRANCH  11  14
ATOM     14  C   UNL A   1      33.050  25.816  22.708  1.00  0.00     0.042 A 
ATOM     15  C   UNL A   1      29.846  29.702  23.501  1.00  0.00     0.046 C 
ATOM     16  C   UNL A   1      30.830  28.578  23.450  1.00  0.00    -0.032 A 
ATOM     17  C   UNL A   1      32.544  28.888  23.007  1.00  0.00     0.007 A 
ATOM     18  C   UNL A   1      30.204  26.899  23.542  1.00  0.00     0.046 A 
ATOM     19  C   UNL A   1      33.664  27.513  22.660  1.00  0.00     0.026 A 
ATOM     20  C   UNL A   1      31.311  25.512  23.195  1.00  0.00     0.047 A 
ATOM     21  Cl  UNL A   1      28.548  26.579  23.876  1.00  0.00    -0.084 Cl
ENDBRANCH  11  14
ENDBRANCH   9  10
ENDBRANCH   8   9
BRANCH   8  22
ATOM     22  N   UNL A   1      34.536  21.247  24.962  1.00  0.00    -0.328 N 
ATOM     23  C   UNL A   1      35.772  21.309  25.743  1.00  0.00     0.333 C 
ATOM     24  C   UNL A   1      34.025  19.871  25.003  1.00  0.00     0.333 C 
ATOM     25  H   UNL A   1      34.727  21.424  23.976  1.00  0.00     0.348 HD
ENDBRANCH   8  22
ENDBRANCH   6   8
ENDBRANCH   5   6
ENDBRANCH   4   5
ENDBRANCH   3   4
ENDBRANCH   2   3
ENDBRANCH   1   2
BRANCH   1  26
ATOM     26  C   UNL A   1      31.573  29.214  26.910  1.00  0.00     0.188 C 
BRANCH  26  27
ATOM     27  O   UNL A   1      32.524  30.121  26.368  1.00  0.00    -0.376 OA
BRANCH  27  28
ATOM     28  C   UNL A   1      33.577  30.546  27.219  1.00  0.00     0.202 C 
BRANCH  28  29
ATOM     29  C   UNL A   1      33.585  32.014  27.678  1.00  0.00     0.261 C 
BRANCH  29  30
ATOM     30  O   UNL A   1      34.847  32.473  28.208  1.00  0.00    -0.460 OA
BRANCH  30  31
ATOM     31  C   UNL A   1      35.118  32.129  29.488  1.00  0.00     0.338 C 
ATOM     32  O   UNL A   1      34.405  32.333  30.464  1.00  0.00    -0.246 OA
BRANCH  31  33
ATOM     33  C   UNL A   1      36.330  31.280  29.547  1.00  0.00     0.060 A 
ATOM     34  C   UNL A   1      36.311  30.135  30.363  1.00  0.00     0.016 A 
ATOM     35  C   UNL A   1      37.503  31.648  28.888  1.00  0.00     0.016 A 
ATOM     36  C   UNL A   1      37.474  29.394  30.571  1.00  0.00     0.010 A 
ATOM     37  C   UNL A   1      38.678  30.925  29.125  1.00  0.00     0.010 A 
ATOM     38  C   UNL A   1      38.679  29.827  30.007  1.00  0.00    -0.014 A 
BRANCH  38  39
ATOM     39  C   UNL A   1      39.967  29.321  30.545  1.00  0.00     0.031 A 
ATOM     40  C   UNL A   1      40.552  30.029  31.742  1.00  0.00     0.074 A 
ATOM     41  C   UNL A   1      40.604  28.267  30.005  1.00  0.00     0.049 A 
ATOM     42  N   UNL A   1      41.711  29.864  32.324  1.00  0.00    -0.248 NA
ATOM     43  C   UNL A   1      39.710  31.067  32.360  1.00  0.00     0.031 C 
ATOM     44  C   UNL A   1      40.109  27.458  28.894  1.00  0.00     0.029 A 
ATOM     45  N   UNL A   1      41.822  27.712  30.313  1.00  0.00    -0.354 N 
ATOM     46  C   UNL A   1      41.744  30.788  33.365  1.00  0.00     0.074 A 
ATOM     47  C   UNL A   1      40.501  31.523  33.320  1.00  0.00     0.031 C 
ATOM     48  C   UNL A   1      41.031  26.524  28.594  1.00  0.00     0.029 A 
ATOM     49  C   UNL A   1      42.195  26.698  29.462  1.00  0.00     0.049 A 
ATOM     50  H   UNL A   1      42.375  28.010  31.070  1.00  0.00     0.167 HD
ATOM     51  C   UNL A   1      42.724  31.004  34.275  1.00  0.00     0.037 A 
ATOM     52  C   UNL A   1      43.358  26.019  29.373  1.00  0.00     0.037 A 
ATOM     53  C   UNL A   1      43.963  30.273  34.306  1.00  0.00     0.049 A 
ATOM     54  C   UNL A   1      44.475  26.337  30.341  1.00  0.00     0.074 A 
ATOM     55  C   UNL A   1      45.022  30.412  35.184  1.00  0.00     0.029 A 
ATOM     56  N   UNL A   1      44.315  29.273  33.410  1.00  0.00    -0.354 N 
ATOM     57  N   UNL A   1      44.497  27.210  31.320  1.00  0.00    -0.248 NA
ATOM     58  C   UNL A   1      45.725  25.578  30.189  1.00  0.00     0.031 C 
ATOM     59  C   UNL A   1      46.038  29.539  34.784  1.00  0.00     0.029 A 
ATOM     60  C   UNL A   1      45.585  28.805  33.697  1.00  0.00     0.049 A 
ATOM     61  H   UNL A   1      43.744  28.944  32.678  1.00  0.00     0.167 HD
ATOM     62  C   UNL A   1      45.747  27.081  31.922  1.00  0.00     0.074 A 
ATOM     63  C   UNL A   1      46.447  26.038  31.201  1.00  0.00     0.031 C 
ATOM     64  C   UNL A   1      46.266  27.757  32.977  1.00  0.00     0.037 A 
BRANCH  51  65
ATOM     65  C   UNL A   1      42.512  32.102  35.282  1.00  0.00     0.058 A 
ATOM     66  C   UNL A   1      41.983  31.851  36.558  1.00  0.00     0.135 A 
ATOM     67  C   UNL A   1      42.867  33.426  34.973  1.00  0.00     0.135 A 
ATOM     68  F   UNL A   1      41.605  30.609  36.902  1.00  0.00    -0.206 F 
ATOM     69  C   UNL A   1      41.789  32.875  37.480  1.00  0.00     0.059 A 
ATOM     70  C   UNL A   1      42.712  34.460  35.890  1.00  0.00     0.059 A 
ATOM     71  F   UNL A   1      43.371  33.725  33.765  1.00  0.00    -0.206 F 
ATOM     72  C   UNL A   1      42.158  34.176  37.138  1.00  0.00     0.060 A 
BRANCH  72  73
ATOM     73  S   UNL A   1      41.906  35.492  38.347  1.00  0.00     0.124 S 
ATOM     74  O   UNL A   1      43.035  35.280  39.249  1.00  0.00    -0.237 OA
ATOM     75  O   UNL A   1      41.975  36.692  37.518  1.00  0.00    -0.237 OA
ATOM     76  O   UNL A   1      40.592  35.195  38.908  1.00  0.00    -0.744 OA
ENDBRANCH  72  73
ENDBRANCH  51  65
BRANCH  52  77
ATOM     77  C   UNL A   1      43.544  24.987  28.315  1.00  0.00     0.058 A 
ATOM     78  C   UNL A   1      44.085  25.318  27.064  1.00  0.00     0.135 A 
ATOM     79  C   UNL A   1      43.171  23.650  28.530  1.00  0.00     0.135 A 
ATOM     80  F   UNL A   1      44.441  26.584  26.800  1.00  0.00    -0.206 F 
ATOM     81  C   UNL A   1      44.237  24.366  26.059  1.00  0.00     0.059 A 
ATOM     82  C   UNL A   1      43.342  22.674  27.551  1.00  0.00     0.059 A 
ATOM     83  F   UNL A   1      42.650  23.277  29.708  1.00  0.00    -0.206 F 
ATOM     84  C   UNL A   1      43.867  23.044  26.315  1.00  0.00     0.060 A 
BRANCH  84  85
ATOM     85  S   UNL A   1      44.114  21.810  25.019  1.00  0.00     0.124 S 
ATOM     86  O   UNL A   1      43.787  22.572  23.820  1.00  0.00    -0.237 OA
ATOM     87  O   UNL A   1      45.521  21.464  25.193  1.00  0.00    -0.237 OA
ATOM     88  O   UNL A   1      43.168  20.757  25.375  1.00  0.00    -0.744 OA
ENDBRANCH  84  85
ENDBRANCH  52  77
BRANCH  64  89
ATOM     89  C   UNL A   1      47.640  27.364  33.457  1.00  0.00     0.058 A 
ATOM     90  C   UNL A   1      48.803  27.991  32.982  1.00  0.00     0.135 A 
ATOM     91  C   UNL A   1      47.786  26.389  34.457  1.00  0.00     0.135 A 
ATOM     92  F   UNL A   1      48.722  28.928  32.024  1.00  0.00    -0.206 F 
ATOM     93  C   UNL A   1      50.062  27.647  33.463  1.00  0.00     0.059 A 
ATOM     94  C   UNL A   1      49.032  26.053  34.977  1.00  0.00     0.059 A 
ATOM     95  F   UNL A   1      46.708  25.766  34.959  1.00  0.00    -0.206 F 
ATOM     96  C   UNL A   1      50.167  26.679  34.464  1.00  0.00     0.060 A 
BRANCH  96  97
ATOM     97  S   UNL A   1      51.805  26.269  35.104  1.00  0.00     0.124 S 
ATOM     98  O   UNL A   1      52.437  27.583  35.157  1.00  0.00    -0.237 OA
ATOM     99  O   UNL A   1      51.492  25.664  36.395  1.00  0.00    -0.237 OA
ATOM    100  O   UNL A   1      52.343  25.354  34.102  1.00  0.00    -0.744 OA
ENDBRANCH  96  97
ENDBRANCH  64  89
ENDBRANCH  38  39
ENDBRANCH  31  33
ENDBRANCH  30  31
ENDBRANCH  29  30
ENDBRANCH  28  29
ENDBRANCH  27  28
ENDBRANCH  26  27
ENDBRANCH   1  26
TORSDOF 24
ENDMDL
MODEL 3
REMARK VINA RESULT:     -10.1      6.526     11.429
REMARK SMILES Cc1ccc(NC(=O)C[C@@H](C(=O)OCCOCCOCCOC(=O)c2ccc(-c3c4nc(c(-c5c(F)cc(S(=O)(=O)[O-])cc5F)c5ccc([nH]5)c(-c5c(F)cc(S(=O)(=O)[O-])cc5F)c5nc(c(-c6c(F)cc(S(=O)(=O)[O-])cc6F)c6ccc3[nH]6)C=C5)C=C4)cc2)[NH+](C)C)cc1Cl
REMARK SMILES IDX 17 1 16 2 15 3 14 4 13 5 11 6 12 7 10 8 9 9 7 10 6 11 8 13
REMARK SMILES IDX 5 14 1 15 2 16 3 17 95 18 4 19 94 20 96 21 91 22 92 23 93 24
REMARK SMILES IDX 18 26 19 27 20 28 21 29 22 30 23 31 24 32 25 33 26 34 90 35
REMARK SMILES IDX 27 36 89 37 28 38 29 39 30 40 83 41 31 42 88 43 82 44 84 45
REMARK SMILES IDX 32 46 87 47 81 48 80 49 33 51 67 52 46 53 66 54 47 55 50 56
REMARK SMILES IDX 65 57 85 58 48 59 49 60 64 62 86 63 51 64 34 65 35 66 44 67
REMARK SMILES IDX 36 68 37 69 43 70 45 71 38 72 39 73 40 74 41 75 42 76 68 77
REMARK SMILES IDX 69 78 78 79 70 80 71 81 77 82 79 83 72 84 73 85 74 86 75 87
REMARK SMILES IDX 76 88 52 89 53 90 62 91 54 92 55 93 61 94 63 95 56 96 57 97
REMARK SMILES IDX 58 98 59 99 60 100
REMARK H PARENT 6 12 91 25 84 50 50 61
REMARK Flexibility Score: inf
ROOT
ATOM      1  C   UNL A   1      35.196  31.942  27.999  1.00  0.00     0.188 C 
ENDROOT
BRANCH   1   2
ATOM      2  O   UNL A   1      34.128  30.844  27.841  1.00  0.00    -0.376 OA
BRANCH   2   3
ATOM      3  C   UNL A   1      33.459  29.231  26.881  1.00  0.00     0.202 C 
BRANCH   3   4
ATOM      4  C   UNL A   1      32.002  28.343  26.986  1.00  0.00     0.261 C 
BRANCH   4   5
ATOM      5  O   UNL A   1      31.324  27.815  25.822  1.00  0.00    -0.459 OA
BRANCH   5   6
ATOM      6  C   UNL A   1      31.918  26.867  25.059  1.00  0.00     0.365 C 
ATOM      7  O   UNL A   1      32.705  26.064  25.541  1.00  0.00    -0.245 OA
BRANCH   6   8
ATOM      8  C   UNL A   1      31.407  26.933  23.549  1.00  0.00     0.304 C 
BRANCH   8   9
ATOM      9  C   UNL A   1      31.640  25.675  22.657  1.00  0.00     0.177 C 
BRANCH   9  10
ATOM     10  C   UNL A   1      32.966  25.431  21.969  1.00  0.00     0.231 C 
ATOM     11  N   UNL A   1      33.796  24.423  22.378  1.00  0.00    -0.326 N 
ATOM     12  H   UNL A   1      34.726  24.506  22.064  1.00  0.00     0.169 HD
ATOM     13  O   UNL A   1      33.358  26.191  21.080  1.00  0.00    -0.274 OA
BRANCH  11  14
ATOM     14  C   UNL A   1      33.547  23.285  23.174  1.00  0.00     0.042 A 
ATOM     15  C   UNL A   1      32.691  18.946  25.711  1.00  0.00     0.046 C 
ATOM     16  C   UNL A   1      32.770  20.270  25.023  1.00  0.00    -0.032 A 
ATOM     17  C   UNL A   1      32.265  20.435  23.306  1.00  0.00     0.007 A 
ATOM     18  C   UNL A   1      33.652  21.600  25.843  1.00  0.00     0.046 A 
ATOM     19  C   UNL A   1      32.627  21.947  22.385  1.00  0.00     0.026 A 
ATOM     20  C   UNL A   1      34.026  23.118  24.934  1.00  0.00     0.047 A 
ATOM     21  Cl  UNL A   1      34.225  21.433  27.455  1.00  0.00    -0.084 Cl
ENDBRANCH  11  14
ENDBRANCH   9  10
ENDBRANCH   8   9
BRANCH   8  22
ATOM     22  N   UNL A   1      31.793  28.201  22.789  1.00  0.00    -0.328 N 
ATOM     23  C   UNL A   1      30.711  29.154  22.537  1.00  0.00     0.333 C 
ATOM     24  C   UNL A   1      32.999  28.950  23.162  1.00  0.00     0.333 C 
ATOM     25  H   UNL A   1      32.045  27.712  21.930  1.00  0.00     0.348 HD
ENDBRANCH   8  22
ENDBRANCH   6   8
ENDBRANCH   5   6
ENDBRANCH   4   5
ENDBRANCH   3   4
ENDBRANCH   2   3
ENDBRANCH   1   2
BRANCH   1  26
ATOM     26  C   UNL A   1      34.700  33.411  28.066  1.00  0.00     0.188 C 
BRANCH  26  27
ATOM     27  O   UNL A   1      34.018  33.850  29.232  1.00  0.00    -0.376 OA
BRANCH  27  28
ATOM     28  C   UNL A   1      34.788  34.019  30.412  1.00  0.00     0.202 C 
BRANCH  28  29
ATOM     29  C   UNL A   1      34.484  33.102  31.609  1.00  0.00     0.261 C 
BRANCH  29  30
ATOM     30  O   UNL A   1      35.339  31.945  31.715  1.00  0.00    -0.460 OA
BRANCH  30  31
ATOM     31  C   UNL A   1      36.349  32.028  32.613  1.00  0.00     0.338 C 
ATOM     32  O   UNL A   1      36.237  32.201  33.821  1.00  0.00    -0.246 OA
BRANCH  31  33
ATOM     33  C   UNL A   1      37.638  31.682  31.971  1.00  0.00     0.060 A 
ATOM     34  C   UNL A   1      38.718  31.307  32.788  1.00  0.00     0.016 A 
ATOM     35  C   UNL A   1      37.818  31.816  30.594  1.00  0.00     0.016 A 
ATOM     36  C   UNL A   1      39.989  31.125  32.243  1.00  0.00     0.010 A 
ATOM     37  C   UNL A   1      39.100  31.667  30.053  1.00  0.00     0.010 A 
ATOM     38  C   UNL A   1      40.199  31.372  30.882  1.00  0.00    -0.014 A 
BRANCH  38  39
ATOM     39  C   UNL A   1      41.578  31.597  30.380  1.00  0.00     0.031 A 
ATOM     40  C   UNL A   1      42.178  32.967  30.573  1.00  0.00     0.074 A 
ATOM     41  C   UNL A   1      42.287  30.628  29.776  1.00  0.00     0.049 A 
ATOM     42  N   UNL A   1      43.305  33.456  30.125  1.00  0.00    -0.248 NA
ATOM     43  C   UNL A   1      41.391  33.915  31.382  1.00  0.00     0.031 C 
ATOM     44  C   UNL A   1      41.847  29.247  29.592  1.00  0.00     0.029 A 
ATOM     45  N   UNL A   1      43.528  30.670  29.187  1.00  0.00    -0.354 N 
ATOM     46  C   UNL A   1      43.355  34.770  30.582  1.00  0.00     0.074 A 
ATOM     47  C   UNL A   1      42.137  35.008  31.322  1.00  0.00     0.031 C 
ATOM     48  C   UNL A   1      42.794  28.578  28.908  1.00  0.00     0.029 A 
ATOM     49  C   UNL A   1      43.884  29.494  28.571  1.00  0.00     0.049 A 
ATOM     50  H   UNL A   1      44.106  31.466  29.205  1.00  0.00     0.167 HD
ATOM     51  C   UNL A   1      44.328  35.694  30.399  1.00  0.00     0.037 A 
ATOM     52  C   UNL A   1      44.948  29.205  27.793  1.00  0.00     0.037 A 
ATOM     53  C   UNL A   1      45.533  35.450  29.652  1.00  0.00     0.049 A 
ATOM     54  C   UNL A   1      45.979  30.277  27.525  1.00  0.00     0.074 A 
ATOM     55  C   UNL A   1      46.583  36.316  29.406  1.00  0.00     0.029 A 
ATOM     56  N   UNL A   1      45.845  34.254  29.020  1.00  0.00    -0.354 N 
ATOM     57  N   UNL A   1      46.018  31.515  27.961  1.00  0.00    -0.248 NA
ATOM     58  C   UNL A   1      47.110  29.914  26.659  1.00  0.00     0.031 C 
ATOM     59  C   UNL A   1      47.501  35.664  28.575  1.00  0.00     0.029 A 
ATOM     60  C   UNL A   1      47.056  34.368  28.361  1.00  0.00     0.049 A 
ATOM     61  H   UNL A   1      45.286  33.444  29.037  1.00  0.00     0.167 HD
ATOM     62  C   UNL A   1      47.192  32.065  27.451  1.00  0.00     0.074 A 
ATOM     63  C   UNL A   1      47.839  31.022  26.682  1.00  0.00     0.031 C 
ATOM     64  C   UNL A   1      47.694  33.316  27.608  1.00  0.00     0.037 A 
BRANCH  51  65
ATOM     65  C   UNL A   1      44.107  37.064  30.980  1.00  0.00     0.058 A 
ATOM     66  C   UNL A   1      44.349  37.348  32.334  1.00  0.00     0.135 A 
ATOM     67  C   UNL A   1      43.669  38.119  30.162  1.00  0.00     0.135 A 
ATOM     68  F   UNL A   1      44.747  36.375  33.169  1.00  0.00    -0.206 F 
ATOM     69  C   UNL A   1      44.139  38.619  32.861  1.00  0.00     0.059 A 
ATOM     70  C   UNL A   1      43.484  39.405  30.659  1.00  0.00     0.059 A 
ATOM     71  F   UNL A   1      43.417  37.905  28.861  1.00  0.00    -0.206 F 
ATOM     72  C   UNL A   1      43.708  39.641  32.015  1.00  0.00     0.060 A 
BRANCH  72  73
ATOM     73  S   UNL A   1      43.446  41.286  32.712  1.00  0.00     0.124 S 
ATOM     74  O   UNL A   1      42.258  41.069  33.532  1.00  0.00    -0.237 OA
ATOM     75  O   UNL A   1      44.688  41.513  33.444  1.00  0.00    -0.237 OA
ATOM     76  O   UNL A   1      43.250  42.128  31.536  1.00  0.00    -0.744 OA
ENDBRANCH  72  73
ENDBRANCH  51  65
BRANCH  52  77
ATOM     77  C   UNL A   1      45.087  27.852  27.185  1.00  0.00     0.058 A 
ATOM     78  C   UNL A   1      44.333  27.478  26.063  1.00  0.00     0.135 A 
ATOM     79  C   UNL A   1      45.970  26.901  27.723  1.00  0.00     0.135 A 
ATOM     80  F   UNL A   1      43.462  28.342  25.521  1.00  0.00    -0.206 F 
ATOM     81  C   UNL A   1      44.435  26.207  25.504  1.00  0.00     0.059 A 
ATOM     82  C   UNL A   1      46.113  25.634  27.163  1.00  0.00     0.059 A 
ATOM     83  F   UNL A   1      46.718  27.206  28.793  1.00  0.00    -0.206 F 
ATOM     84  C   UNL A   1      45.334  25.293  26.059  1.00  0.00     0.060 A 
BRANCH  84  85
ATOM     85  S   UNL A   1      45.492  23.664  25.296  1.00  0.00     0.124 S 
ATOM     86  O   UNL A   1      46.424  23.937  24.208  1.00  0.00    -0.237 OA
ATOM     87  O   UNL A   1      46.014  22.861  26.398  1.00  0.00    -0.237 OA
ATOM     88  O   UNL A   1      44.126  23.348  24.892  1.00  0.00    -0.744 OA
ENDBRANCH  84  85
ENDBRANCH  52  77
BRANCH  64  89
ATOM     89  C   UNL A   1      49.030  33.622  26.982  1.00  0.00     0.058 A 
ATOM     90  C   UNL A   1      49.141  34.286  25.750  1.00  0.00     0.135 A 
ATOM     91  C   UNL A   1      50.218  33.301  27.659  1.00  0.00     0.135 A 
ATOM     92  F   UNL A   1      48.039  34.614  25.057  1.00  0.00    -0.206 F 
ATOM     93  C   UNL A   1      50.381  34.599  25.202  1.00  0.00     0.059 A 
ATOM     94  C   UNL A   1      51.468  33.634  27.147  1.00  0.00     0.059 A 
ATOM     95  F   UNL A   1      50.172  32.677  28.848  1.00  0.00    -0.206 F 
ATOM     96  C   UNL A   1      51.540  34.272  25.910  1.00  0.00     0.060 A 
BRANCH  96  97
ATOM     97  S   UNL A   1      53.141  34.717  25.204  1.00  0.00     0.124 S 
ATOM     98  O   UNL A   1      54.047  33.868  25.970  1.00  0.00    -0.237 OA
ATOM     99  O   UNL A   1      52.972  34.358  23.799  1.00  0.00    -0.237 OA
ATOM    100  O   UNL A   1      53.246  36.149  25.471  1.00  0.00    -0.744 OA
ENDBRANCH  96  97
ENDBRANCH  64  89
ENDBRANCH  38  39
ENDBRANCH  31  33
ENDBRANCH  30  31
ENDBRANCH  29  30
ENDBRANCH  28  29
ENDBRANCH  27  28
ENDBRANCH  26  27
ENDBRANCH   1  26
TORSDOF 24
ENDMDL
