MODEL 1
REMARK VINA RESULT:     -10.1      0.000      0.000
REMARK SMILES CC(C)[NH2+][C@@]1(C(=O)OCCOCCOCCOC(=O)c2ccc(-c3c4nc(c(-c5c(F)cc(S(=O)(=O)[O-])cc5F)c5ccc([nH]5)c(-c5c(F)cc(S(=O)(=O)[O-])cc5F)c5nc(c(-c6c(F)cc(S(=O)(=O)[O-])cc6F)c6ccc3[nH]6)C=C5)C=C4)cc2)CCC[C@@H](Sc2nncn2C)C1
REMARK SMILES IDX 13 1 12 2 11 3 10 4 9 5 8 6 6 7 7 8 5 9 86 10 97 11 87 12
REMARK SMILES IDX 89 13 88 14 4 15 2 18 1 19 3 20 90 21 91 22 92 23 95 24
REMARK SMILES IDX 93 25 94 26 96 27 14 28 15 29 16 30 17 31 18 32 19 33 20 34
REMARK SMILES IDX 21 35 85 36 22 37 84 38 23 39 24 40 25 41 78 42 26 43 83 44
REMARK SMILES IDX 77 45 79 46 27 47 82 48 76 49 75 50 28 52 62 53 41 54 61 55
REMARK SMILES IDX 42 56 45 57 60 58 80 59 43 60 44 61 59 63 81 64 46 65 29 66
REMARK SMILES IDX 30 67 39 68 31 69 32 70 38 71 40 72 33 73 34 74 35 75 36 76
REMARK SMILES IDX 37 77 63 78 64 79 73 80 65 81 66 82 72 83 74 84 67 85 68 86
REMARK SMILES IDX 69 87 70 88 71 89 47 90 48 91 57 92 49 93 50 94 56 95 58 96
REMARK SMILES IDX 51 97 52 98 53 99 54 100 55 101
REMARK H PARENT 4 16 4 17 79 51 45 62
REMARK Flexibility Score: inf
ROOT
ATOM      1  C   UNL A   1      33.152  29.352  25.282  1.00  0.00     0.188 C 
ENDROOT
BRANCH   1   2
ATOM      2  C   UNL A   1      31.831  28.642  24.970  1.00  0.00     0.188 C 
BRANCH   2   3
ATOM      3  O   UNL A   1      31.837  27.225  25.051  1.00  0.00    -0.376 OA
BRANCH   3   4
ATOM      4  C   UNL A   1      31.314  26.647  26.245  1.00  0.00     0.202 C 
BRANCH   4   5
ATOM      5  C   UNL A   1      31.614  25.162  26.508  1.00  0.00     0.261 C 
BRANCH   5   6
ATOM      6  O   UNL A   1      32.762  24.624  25.801  1.00  0.00    -0.459 OA
BRANCH   6   7
ATOM      7  C   UNL A   1      32.900  23.269  25.856  1.00  0.00     0.368 C 
ATOM      8  O   UNL A   1      32.257  22.564  26.633  1.00  0.00    -0.245 OA
BRANCH   7   9
ATOM      9  C   UNL A   1      33.964  22.665  24.860  1.00  0.00     0.195 C 
ATOM     10  C   UNL A   1      33.915  23.631  23.650  1.00  0.00     0.081 C 
ATOM     11  C   UNL A   1      33.726  21.233  24.339  1.00  0.00     0.096 C 
ATOM     12  C   UNL A   1      32.586  23.495  22.887  1.00  0.00     0.008 C 
ATOM     13  C   UNL A   1      32.483  21.028  23.474  1.00  0.00     0.061 C 
ATOM     14  C   UNL A   1      32.375  22.075  22.361  1.00  0.00     0.015 C 
BRANCH   9  15
ATOM     15  N   UNL A   1      35.247  22.696  25.622  1.00  0.00    -0.330 N 
ATOM     16  H   UNL A   1      35.122  23.393  26.356  1.00  0.00     0.347 HD
ATOM     17  H   UNL A   1      35.362  21.712  25.870  1.00  0.00     0.347 HD
BRANCH  15  18
ATOM     18  C   UNL A   1      36.538  22.994  24.996  1.00  0.00     0.176 C 
ATOM     19  C   UNL A   1      37.393  23.677  26.076  1.00  0.00     0.075 C 
ATOM     20  C   UNL A   1      37.322  21.774  24.501  1.00  0.00     0.075 C 
ENDBRANCH  15  18
ENDBRANCH   9  15
BRANCH  13  21
ATOM     21  S   UNL A   1      32.380  19.320  22.777  1.00  0.00    -0.082 SA
BRANCH  21  22
ATOM     22  C   UNL A   1      32.619  18.300  24.156  1.00  0.00     0.191 A 
ATOM     23  N   UNL A   1      32.085  18.444  25.346  1.00  0.00    -0.124 NA
ATOM     24  N   UNL A   1      33.389  17.174  24.148  1.00  0.00    -0.312 N 
ATOM     25  N   UNL A   1      32.577  17.447  26.159  1.00  0.00    -0.138 NA
ATOM     26  C   UNL A   1      33.359  16.692  25.423  1.00  0.00     0.226 A 
ATOM     27  C   UNL A   1      34.092  16.586  23.042  1.00  0.00     0.153 C 
ENDBRANCH  21  22
ENDBRANCH  13  21
ENDBRANCH   7   9
ENDBRANCH   6   7
ENDBRANCH   5   6
ENDBRANCH   4   5
ENDBRANCH   3   4
ENDBRANCH   2   3
ENDBRANCH   1   2
BRANCH   1  28
ATOM     28  O   UNL A   1      33.457  29.499  26.659  1.00  0.00    -0.376 OA
BRANCH  28  29
ATOM     29  C   UNL A   1      33.452  30.826  27.186  1.00  0.00     0.202 C 
BRANCH  29  30
ATOM     30  C   UNL A   1      34.639  31.178  28.110  1.00  0.00     0.261 C 
BRANCH  30  31
ATOM     31  O   UNL A   1      35.697  30.201  28.190  1.00  0.00    -0.460 OA
BRANCH  31  32
ATOM     32  C   UNL A   1      36.266  29.996  29.411  1.00  0.00     0.338 C 
ATOM     33  O   UNL A   1      35.685  29.781  30.445  1.00  0.00    -0.246 OA
BRANCH  32  34
ATOM     34  C   UNL A   1      37.730  29.787  29.195  1.00  0.00     0.060 A 
ATOM     35  C   UNL A   1      38.197  29.653  27.876  1.00  0.00     0.016 A 
ATOM     36  C   UNL A   1      38.640  29.817  30.254  1.00  0.00     0.016 A 
ATOM     37  C   UNL A   1      39.565  29.490  27.623  1.00  0.00     0.010 A 
ATOM     38  C   UNL A   1      40.005  29.638  30.001  1.00  0.00     0.010 A 
ATOM     39  C   UNL A   1      40.471  29.430  28.689  1.00  0.00    -0.014 A 
BRANCH  39  40
ATOM     40  C   UNL A   1      41.842  28.885  28.494  1.00  0.00     0.031 A 
ATOM     41  C   UNL A   1      42.985  29.867  28.530  1.00  0.00     0.074 A 
ATOM     42  C   UNL A   1      42.086  27.583  28.259  1.00  0.00     0.049 A 
ATOM     43  N   UNL A   1      44.248  29.691  28.246  1.00  0.00    -0.248 NA
ATOM     44  C   UNL A   1      42.643  31.243  28.932  1.00  0.00     0.031 C 
ATOM     45  C   UNL A   1      41.089  26.517  28.247  1.00  0.00     0.029 A 
ATOM     46  N   UNL A   1      43.267  26.943  27.961  1.00  0.00    -0.354 N 
ATOM     47  C   UNL A   1      44.847  30.935  28.412  1.00  0.00     0.074 A 
ATOM     48  C   UNL A   1      43.806  31.860  28.798  1.00  0.00     0.031 C 
ATOM     49  C   UNL A   1      41.695  25.357  27.932  1.00  0.00     0.029 A 
ATOM     50  C   UNL A   1      43.116  25.604  27.681  1.00  0.00     0.049 A 
ATOM     51  H   UNL A   1      44.140  27.400  27.950  1.00  0.00     0.167 HD
ATOM     52  C   UNL A   1      46.148  31.279  28.261  1.00  0.00     0.037 A 
ATOM     53  C   UNL A   1      44.013  24.695  27.242  1.00  0.00     0.037 A 
ATOM     54  C   UNL A   1      47.184  30.359  27.875  1.00  0.00     0.049 A 
ATOM     55  C   UNL A   1      45.446  25.112  27.008  1.00  0.00     0.074 A 
ATOM     56  C   UNL A   1      48.534  30.610  27.703  1.00  0.00     0.029 A 
ATOM     57  N   UNL A   1      46.985  29.016  27.591  1.00  0.00    -0.354 N 
ATOM     58  N   UNL A   1      46.005  26.289  27.174  1.00  0.00    -0.248 NA
ATOM     59  C   UNL A   1      46.374  24.076  26.526  1.00  0.00     0.031 C 
ATOM     60  C   UNL A   1      49.143  29.430  27.264  1.00  0.00     0.029 A 
ATOM     61  C   UNL A   1      48.185  28.429  27.223  1.00  0.00     0.049 A 
ATOM     62  H   UNL A   1      46.120  28.550  27.642  1.00  0.00     0.167 HD
ATOM     63  C   UNL A   1      47.350  26.124  26.854  1.00  0.00     0.074 A 
ATOM     64  C   UNL A   1      47.524  24.736  26.483  1.00  0.00     0.031 C 
ATOM     65  C   UNL A   1      48.352  27.040  26.874  1.00  0.00     0.037 A 
BRANCH  52  66
ATOM     66  C   UNL A   1      46.509  32.723  28.477  1.00  0.00     0.058 A 
ATOM     67  C   UNL A   1      46.899  33.211  29.733  1.00  0.00     0.135 A 
ATOM     68  C   UNL A   1      46.463  33.631  27.407  1.00  0.00     0.135 A 
ATOM     69  F   UNL A   1      46.938  32.392  30.796  1.00  0.00    -0.206 F 
ATOM     70  C   UNL A   1      47.197  34.556  29.930  1.00  0.00     0.059 A 
ATOM     71  C   UNL A   1      46.787  34.974  27.572  1.00  0.00     0.059 A 
ATOM     72  F   UNL A   1      46.091  33.218  26.184  1.00  0.00    -0.206 F 
ATOM     73  C   UNL A   1      47.135  35.430  28.843  1.00  0.00     0.060 A 
BRANCH  73  74
ATOM     74  S   UNL A   1      47.512  37.173  29.115  1.00  0.00     0.124 S 
ATOM     75  O   UNL A   1      48.107  37.547  27.835  1.00  0.00    -0.237 OA
ATOM     76  O   UNL A   1      46.195  37.738  29.390  1.00  0.00    -0.237 OA
ATOM     77  O   UNL A   1      48.430  37.150  30.250  1.00  0.00    -0.744 OA
ENDBRANCH  73  74
ENDBRANCH  52  66
BRANCH  53  78
ATOM     78  C   UNL A   1      43.582  23.294  26.973  1.00  0.00     0.058 A 
ATOM     79  C   UNL A   1      43.302  22.406  28.024  1.00  0.00     0.135 A 
ATOM     80  C   UNL A   1      43.448  22.812  25.661  1.00  0.00     0.135 A 
ATOM     81  F   UNL A   1      43.437  22.809  29.297  1.00  0.00    -0.206 F 
ATOM     82  C   UNL A   1      42.910  21.093  27.785  1.00  0.00     0.059 A 
ATOM     83  C   UNL A   1      43.031  21.510  25.397  1.00  0.00     0.059 A 
ATOM     84  F   UNL A   1      43.705  23.618  24.620  1.00  0.00    -0.206 F 
ATOM     85  C   UNL A   1      42.769  20.655  26.466  1.00  0.00     0.060 A 
BRANCH  85  86
ATOM     86  S   UNL A   1      42.200  18.966  26.170  1.00  0.00     0.124 S 
ATOM     87  O   UNL A   1      43.095  18.537  25.101  1.00  0.00    -0.237 OA
ATOM     88  O   UNL A   1      42.415  18.339  27.471  1.00  0.00    -0.237 OA
ATOM     89  O   UNL A   1      40.802  19.144  25.790  1.00  0.00    -0.744 OA
ENDBRANCH  85  86
ENDBRANCH  53  78
BRANCH  65  90
ATOM     90  C   UNL A   1      49.746  26.574  26.543  1.00  0.00     0.058 A 
ATOM     91  C   UNL A   1      50.625  26.093  27.525  1.00  0.00     0.135 A 
ATOM     92  C   UNL A   1      50.175  26.531  25.205  1.00  0.00     0.135 A 
ATOM     93  F   UNL A   1      50.268  26.112  28.819  1.00  0.00    -0.206 F 
ATOM     94  C   UNL A   1      51.885  25.600  27.195  1.00  0.00     0.059 A 
ATOM     95  C   UNL A   1      51.419  26.017  24.849  1.00  0.00     0.059 A 
ATOM     96  F   UNL A   1      49.371  26.967  24.222  1.00  0.00    -0.206 F 
ATOM     97  C   UNL A   1      52.271  25.561  25.853  1.00  0.00     0.060 A 
BRANCH  97  98
ATOM     98  S   UNL A   1      53.888  24.874  25.434  1.00  0.00     0.124 S 
ATOM     99  O   UNL A   1      53.543  23.499  25.085  1.00  0.00    -0.237 OA
ATOM    100  O   UNL A   1      54.310  25.722  24.325  1.00  0.00    -0.237 OA
ATOM    101  O   UNL A   1      54.656  25.034  26.666  1.00  0.00    -0.744 OA
ENDBRANCH  97  98
ENDBRANCH  65  90
ENDBRANCH  39  40
ENDBRANCH  32  34
ENDBRANCH  31  32
ENDBRANCH  30  31
ENDBRANCH  29  30
ENDBRANCH  28  29
ENDBRANCH   1  28
TORSDOF 24
ENDMDL
MODEL 2
REMARK VINA RESULT:      -9.7      6.336     11.959
REMARK SMILES CC(C)[NH2+][C@@]1(C(=O)OCCOCCOCCOC(=O)c2ccc(-c3c4nc(c(-c5c(F)cc(S(=O)(=O)[O-])cc5F)c5ccc([nH]5)c(-c5c(F)cc(S(=O)(=O)[O-])cc5F)c5nc(c(-c6c(F)cc(S(=O)(=O)[O-])cc6F)c6ccc3[nH]6)C=C5)C=C4)cc2)CCC[C@@H](Sc2nncn2C)C1
REMARK SMILES IDX 13 1 12 2 11 3 10 4 9 5 8 6 6 7 7 8 5 9 86 10 97 11 87 12
REMARK SMILES IDX 89 13 88 14 4 15 2 18 1 19 3 20 90 21 91 22 92 23 95 24
REMARK SMILES IDX 93 25 94 26 96 27 14 28 15 29 16 30 17 31 18 32 19 33 20 34
REMARK SMILES IDX 21 35 85 36 22 37 84 38 23 39 24 40 25 41 78 42 26 43 83 44
REMARK SMILES IDX 77 45 79 46 27 47 82 48 76 49 75 50 28 52 62 53 41 54 61 55
REMARK SMILES IDX 42 56 45 57 60 58 80 59 43 60 44 61 59 63 81 64 46 65 29 66
REMARK SMILES IDX 30 67 39 68 31 69 32 70 38 71 40 72 33 73 34 74 35 75 36 76
REMARK SMILES IDX 37 77 63 78 64 79 73 80 65 81 66 82 72 83 74 84 67 85 68 86
REMARK SMILES IDX 69 87 70 88 71 89 47 90 48 91 57 92 49 93 50 94 56 95 58 96
REMARK SMILES IDX 51 97 52 98 53 99 54 100 55 101
REMARK H PARENT 4 16 4 17 79 51 45 62
REMARK Flexibility Score: inf
ROOT
ATOM      1  C   UNL A   1      41.557  20.367  26.413  1.00  0.00     0.188 C 
ENDROOT
BRANCH   1   2
ATOM      2  C   UNL A   1      40.484  21.175  27.148  1.00  0.00     0.188 C 
BRANCH   2   3
ATOM      3  O   UNL A   1      39.677  22.030  26.352  1.00  0.00    -0.376 OA
BRANCH   3   4
ATOM      4  C   UNL A   1      38.587  21.425  25.661  1.00  0.00     0.202 C 
BRANCH   4   5
ATOM      5  C   UNL A   1      37.245  22.176  25.649  1.00  0.00     0.261 C 
BRANCH   5   6
ATOM      6  O   UNL A   1      36.090  21.380  25.272  1.00  0.00    -0.459 OA
BRANCH   6   7
ATOM      7  C   UNL A   1      34.883  21.891  25.644  1.00  0.00     0.368 C 
ATOM      8  O   UNL A   1      34.589  22.122  26.816  1.00  0.00    -0.245 OA
BRANCH   7   9
ATOM      9  C   UNL A   1      33.873  22.149  24.458  1.00  0.00     0.195 C 
ATOM     10  C   UNL A   1      34.664  23.078  23.506  1.00  0.00     0.081 C 
ATOM     11  C   UNL A   1      32.534  22.837  24.795  1.00  0.00     0.096 C 
ATOM     12  C   UNL A   1      34.858  24.472  24.126  1.00  0.00     0.008 C 
ATOM     13  C   UNL A   1      32.625  24.271  25.314  1.00  0.00     0.061 C 
ATOM     14  C   UNL A   1      33.522  25.147  24.435  1.00  0.00     0.015 C 
BRANCH   9  15
ATOM     15  N   UNL A   1      33.593  20.791  23.906  1.00  0.00    -0.330 N 
ATOM     16  H   UNL A   1      33.405  20.924  22.913  1.00  0.00     0.347 HD
ATOM     17  H   UNL A   1      34.423  20.274  24.201  1.00  0.00     0.347 HD
BRANCH  15  18
ATOM     18  C   UNL A   1      32.518  19.932  24.411  1.00  0.00     0.176 C 
ATOM     19  C   UNL A   1      32.212  18.922  23.292  1.00  0.00     0.075 C 
ATOM     20  C   UNL A   1      32.860  19.127  25.669  1.00  0.00     0.075 C 
ENDBRANCH  15  18
ENDBRANCH   9  15
BRANCH  13  21
ATOM     21  S   UNL A   1      30.964  25.050  25.535  1.00  0.00    -0.082 SA
BRANCH  21  22
ATOM     22  C   UNL A   1      31.331  26.641  26.112  1.00  0.00     0.191 A 
ATOM     23  N   UNL A   1      31.723  26.971  27.320  1.00  0.00    -0.124 NA
ATOM     24  N   UNL A   1      31.284  27.763  25.338  1.00  0.00    -0.312 N 
ATOM     25  N   UNL A   1      31.855  28.341  27.366  1.00  0.00    -0.138 NA
ATOM     26  C   UNL A   1      31.588  28.802  26.166  1.00  0.00     0.226 A 
ATOM     27  C   UNL A   1      30.988  27.863  23.936  1.00  0.00     0.153 C 
ENDBRANCH  21  22
ENDBRANCH  13  21
ENDBRANCH   7   9
ENDBRANCH   6   7
ENDBRANCH   5   6
ENDBRANCH   4   5
ENDBRANCH   3   4
ENDBRANCH   2   3
ENDBRANCH   1   2
BRANCH   1  28
ATOM     28  O   UNL A   1      42.398  21.112  25.547  1.00  0.00    -0.376 OA
BRANCH  28  29
ATOM     29  C   UNL A   1      43.769  21.236  25.924  1.00  0.00     0.202 C 
BRANCH  29  30
ATOM     30  C   UNL A   1      44.193  22.630  26.439  1.00  0.00     0.261 C 
BRANCH  30  31
ATOM     31  O   UNL A   1      43.143  23.451  26.992  1.00  0.00    -0.460 OA
BRANCH  31  32
ATOM     32  C   UNL A   1      42.704  24.495  26.235  1.00  0.00     0.338 C 
ATOM     33  O   UNL A   1      42.500  24.482  25.046  1.00  0.00    -0.246 OA
BRANCH  32  34
ATOM     34  C   UNL A   1      42.234  25.562  27.170  1.00  0.00     0.060 A 
ATOM     35  C   UNL A   1      42.761  26.857  27.021  1.00  0.00     0.016 A 
ATOM     36  C   UNL A   1      41.230  25.326  28.111  1.00  0.00     0.016 A 
ATOM     37  C   UNL A   1      42.325  27.898  27.850  1.00  0.00     0.010 A 
ATOM     38  C   UNL A   1      40.807  26.362  28.950  1.00  0.00     0.010 A 
ATOM     39  C   UNL A   1      41.383  27.644  28.855  1.00  0.00    -0.014 A 
BRANCH  39  40
ATOM     40  C   UNL A   1      41.188  28.601  29.977  1.00  0.00     0.031 A 
ATOM     41  C   UNL A   1      42.070  28.432  31.188  1.00  0.00     0.074 A 
ATOM     42  C   UNL A   1      40.252  29.568  29.961  1.00  0.00     0.049 A 
ATOM     43  N   UNL A   1      42.014  29.023  32.352  1.00  0.00    -0.248 NA
ATOM     44  C   UNL A   1      43.156  27.445  31.064  1.00  0.00     0.031 C 
ATOM     45  C   UNL A   1      39.367  29.880  28.843  1.00  0.00     0.029 A 
ATOM     46  N   UNL A   1      39.880  30.458  30.943  1.00  0.00    -0.354 N 
ATOM     47  C   UNL A   1      43.042  28.466  33.105  1.00  0.00     0.074 A 
ATOM     48  C   UNL A   1      43.687  27.473  32.275  1.00  0.00     0.031 C 
ATOM     49  C   UNL A   1      38.537  30.875  29.208  1.00  0.00     0.029 A 
ATOM     50  C   UNL A   1      38.804  31.243  30.600  1.00  0.00     0.049 A 
ATOM     51  H   UNL A   1      40.342  30.526  31.810  1.00  0.00     0.167 HD
ATOM     52  C   UNL A   1      43.418  28.754  34.373  1.00  0.00     0.037 A 
ATOM     53  C   UNL A   1      38.098  32.130  31.334  1.00  0.00     0.037 A 
ATOM     54  C   UNL A   1      42.776  29.739  35.200  1.00  0.00     0.049 A 
ATOM     55  C   UNL A   1      38.486  32.387  32.771  1.00  0.00     0.074 A 
ATOM     56  C   UNL A   1      43.090  30.110  36.496  1.00  0.00     0.029 A 
ATOM     57  N   UNL A   1      41.684  30.503  34.817  1.00  0.00    -0.354 N 
ATOM     58  N   UNL A   1      39.463  31.859  33.473  1.00  0.00    -0.248 NA
ATOM     59  C   UNL A   1      37.676  33.361  33.520  1.00  0.00     0.031 C 
ATOM     60  C   UNL A   1      42.154  31.061  36.915  1.00  0.00     0.029 A 
ATOM     61  C   UNL A   1      41.297  31.329  35.859  1.00  0.00     0.049 A 
ATOM     62  H   UNL A   1      41.248  30.464  33.935  1.00  0.00     0.167 HD
ATOM     63  C   UNL A   1      39.406  32.464  34.727  1.00  0.00     0.074 A 
ATOM     64  C   UNL A   1      38.299  33.396  34.690  1.00  0.00     0.031 C 
ATOM     65  C   UNL A   1      40.204  32.269  35.807  1.00  0.00     0.037 A 
BRANCH  52  66
ATOM     66  C   UNL A   1      44.557  27.958  34.952  1.00  0.00     0.058 A 
ATOM     67  C   UNL A   1      44.350  26.740  35.616  1.00  0.00     0.135 A 
ATOM     68  C   UNL A   1      45.876  28.426  34.838  1.00  0.00     0.135 A 
ATOM     69  F   UNL A   1      43.106  26.257  35.773  1.00  0.00    -0.206 F 
ATOM     70  C   UNL A   1      45.405  26.030  36.179  1.00  0.00     0.059 A 
ATOM     71  C   UNL A   1      46.951  27.718  35.365  1.00  0.00     0.059 A 
ATOM     72  F   UNL A   1      46.131  29.589  34.217  1.00  0.00    -0.206 F 
ATOM     73  C   UNL A   1      46.703  26.529  36.050  1.00  0.00     0.060 A 
BRANCH  73  74
ATOM     74  S   UNL A   1      48.061  25.604  36.796  1.00  0.00     0.124 S 
ATOM     75  O   UNL A   1      48.542  24.825  35.658  1.00  0.00    -0.237 OA
ATOM     76  O   UNL A   1      48.948  26.668  37.255  1.00  0.00    -0.237 OA
ATOM     77  O   UNL A   1      47.409  24.835  37.851  1.00  0.00    -0.744 OA
ENDBRANCH  73  74
ENDBRANCH  52  66
BRANCH  53  78
ATOM     78  C   UNL A   1      36.932  32.834  30.731  1.00  0.00     0.058 A 
ATOM     79  C   UNL A   1      37.110  33.944  29.890  1.00  0.00     0.135 A 
ATOM     80  C   UNL A   1      35.616  32.418  30.989  1.00  0.00     0.135 A 
ATOM     81  F   UNL A   1      38.345  34.398  29.630  1.00  0.00    -0.206 F 
ATOM     82  C   UNL A   1      36.028  34.617  29.330  1.00  0.00     0.059 A 
ATOM     83  C   UNL A   1      34.519  33.058  30.418  1.00  0.00     0.059 A 
ATOM     84  F   UNL A   1      35.389  31.364  31.787  1.00  0.00    -0.206 F 
ATOM     85  C   UNL A   1      34.734  34.161  29.594  1.00  0.00     0.060 A 
BRANCH  85  86
ATOM     86  S   UNL A   1      33.342  35.006  28.812  1.00  0.00     0.124 S 
ATOM     87  O   UNL A   1      34.022  36.008  28.001  1.00  0.00    -0.237 OA
ATOM     88  O   UNL A   1      32.699  33.919  28.078  1.00  0.00    -0.237 OA
ATOM     89  O   UNL A   1      32.581  35.521  29.946  1.00  0.00    -0.744 OA
ENDBRANCH  85  86
ENDBRANCH  53  78
BRANCH  65  90
ATOM     90  C   UNL A   1      39.961  33.114  37.030  1.00  0.00     0.058 A 
ATOM     91  C   UNL A   1      40.686  34.289  37.282  1.00  0.00     0.135 A 
ATOM     92  C   UNL A   1      38.924  32.784  37.920  1.00  0.00     0.135 A 
ATOM     93  F   UNL A   1      41.689  34.652  36.466  1.00  0.00    -0.206 F 
ATOM     94  C   UNL A   1      40.403  35.098  38.380  1.00  0.00     0.059 A 
ATOM     95  C   UNL A   1      38.605  33.592  39.008  1.00  0.00     0.059 A 
ATOM     96  F   UNL A   1      38.189  31.678  37.722  1.00  0.00    -0.206 F 
ATOM     97  C   UNL A   1      39.357  34.743  39.235  1.00  0.00     0.060 A 
BRANCH  97  98
ATOM     98  S   UNL A   1      38.968  35.826  40.626  1.00  0.00     0.124 S 
ATOM     99  O   UNL A   1      37.837  35.132  41.234  1.00  0.00    -0.237 OA
ATOM    100  O   UNL A   1      40.209  35.808  41.393  1.00  0.00    -0.237 OA
ATOM    101  O   UNL A   1      38.651  37.101  39.988  1.00  0.00    -0.744 OA
ENDBRANCH  97  98
ENDBRANCH  65  90
ENDBRANCH  39  40
ENDBRANCH  32  34
ENDBRANCH  31  32
ENDBRANCH  30  31
ENDBRANCH  29  30
ENDBRANCH  28  29
ENDBRANCH   1  28
TORSDOF 24
ENDMDL
MODEL 3
REMARK VINA RESULT:      -9.7      6.665     11.584
REMARK SMILES CC(C)[NH2+][C@@]1(C(=O)OCCOCCOCCOC(=O)c2ccc(-c3c4nc(c(-c5c(F)cc(S(=O)(=O)[O-])cc5F)c5ccc([nH]5)c(-c5c(F)cc(S(=O)(=O)[O-])cc5F)c5nc(c(-c6c(F)cc(S(=O)(=O)[O-])cc6F)c6ccc3[nH]6)C=C5)C=C4)cc2)CCC[C@@H](Sc2nncn2C)C1
REMARK SMILES IDX 13 1 12 2 11 3 10 4 9 5 8 6 6 7 7 8 5 9 86 10 97 11 87 12
REMARK SMILES IDX 89 13 88 14 4 15 2 18 1 19 3 20 90 21 91 22 92 23 95 24
REMARK SMILES IDX 93 25 94 26 96 27 14 28 15 29 16 30 17 31 18 32 19 33 20 34
REMARK SMILES IDX 21 35 85 36 22 37 84 38 23 39 24 40 25 41 78 42 26 43 83 44
REMARK SMILES IDX 77 45 79 46 27 47 82 48 76 49 75 50 28 52 62 53 41 54 61 55
REMARK SMILES IDX 42 56 45 57 60 58 80 59 43 60 44 61 59 63 81 64 46 65 29 66
REMARK SMILES IDX 30 67 39 68 31 69 32 70 38 71 40 72 33 73 34 74 35 75 36 76
REMARK SMILES IDX 37 77 63 78 64 79 73 80 65 81 66 82 72 83 74 84 67 85 68 86
REMARK SMILES IDX 69 87 70 88 71 89 47 90 48 91 57 92 49 93 50 94 56 95 58 96
REMARK SMILES IDX 51 97 52 98 53 99 54 100 55 101
REMARK H PARENT 4 16 4 17 79 51 45 62
REMARK Flexibility Score: inf
ROOT
ATOM      1  C   UNL A   1      42.142  20.587  26.220  1.00  0.00     0.188 C 
ENDROOT
BRANCH   1   2
ATOM      2  C   UNL A   1      40.836  21.061  26.866  1.00  0.00     0.188 C 
BRANCH   2   3
ATOM      3  O   UNL A   1      39.643  20.826  26.134  1.00  0.00    -0.376 OA
BRANCH   3   4
ATOM      4  C   UNL A   1      38.827  21.962  25.855  1.00  0.00     0.202 C 
BRANCH   4   5
ATOM      5  C   UNL A   1      37.579  21.746  24.984  1.00  0.00     0.261 C 
BRANCH   5   6
ATOM      6  O   UNL A   1      36.613  22.830  25.001  1.00  0.00    -0.459 OA
BRANCH   6   7
ATOM      7  C   UNL A   1      35.811  22.915  23.903  1.00  0.00     0.368 C 
ATOM      8  O   UNL A   1      36.253  22.955  22.755  1.00  0.00    -0.245 OA
BRANCH   7   9
ATOM      9  C   UNL A   1      34.263  22.980  24.209  1.00  0.00     0.195 C 
ATOM     10  C   UNL A   1      34.194  23.738  25.558  1.00  0.00     0.081 C 
ATOM     11  C   UNL A   1      33.510  21.645  24.371  1.00  0.00     0.096 C 
ATOM     12  C   UNL A   1      34.755  22.881  26.705  1.00  0.00     0.008 C 
ATOM     13  C   UNL A   1      33.925  20.775  25.557  1.00  0.00     0.061 C 
ATOM     14  C   UNL A   1      33.984  21.571  26.865  1.00  0.00     0.015 C 
BRANCH   9  15
ATOM     15  N   UNL A   1      33.686  23.724  23.051  1.00  0.00    -0.330 N 
ATOM     16  H   UNL A   1      34.476  23.980  22.459  1.00  0.00     0.347 HD
ATOM     17  H   UNL A   1      32.987  23.063  22.710  1.00  0.00     0.347 HD
BRANCH  15  18
ATOM     18  C   UNL A   1      32.887  24.942  23.208  1.00  0.00     0.176 C 
ATOM     19  C   UNL A   1      33.523  25.997  22.285  1.00  0.00     0.075 C 
ATOM     20  C   UNL A   1      31.414  24.815  22.803  1.00  0.00     0.075 C 
ENDBRANCH  15  18
ENDBRANCH   9  15
BRANCH  13  21
ATOM     21  S   UNL A   1      32.856  19.280  25.748  1.00  0.00    -0.082 SA
BRANCH  21  22
ATOM     22  C   UNL A   1      33.084  18.421  24.261  1.00  0.00     0.191 A 
ATOM     23  N   UNL A   1      32.434  18.606  23.136  1.00  0.00    -0.124 NA
ATOM     24  N   UNL A   1      34.020  17.447  24.080  1.00  0.00    -0.312 N 
ATOM     25  N   UNL A   1      32.891  17.681  22.223  1.00  0.00    -0.138 NA
ATOM     26  C   UNL A   1      33.845  16.992  22.806  1.00  0.00     0.226 A 
ATOM     27  C   UNL A   1      35.007  16.978  25.012  1.00  0.00     0.153 C 
ENDBRANCH  21  22
ENDBRANCH  13  21
ENDBRANCH   7   9
ENDBRANCH   6   7
ENDBRANCH   5   6
ENDBRANCH   4   5
ENDBRANCH   3   4
ENDBRANCH   2   3
ENDBRANCH   1   2
BRANCH   1  28
ATOM     28  O   UNL A   1      42.767  21.517  25.351  1.00  0.00    -0.376 OA
BRANCH  28  29
ATOM     29  C   UNL A   1      43.515  22.570  25.959  1.00  0.00     0.202 C 
BRANCH  29  30
ATOM     30  C   UNL A   1      43.149  23.998  25.496  1.00  0.00     0.261 C 
BRANCH  30  31
ATOM     31  O   UNL A   1      41.998  24.596  26.126  1.00  0.00    -0.460 OA
BRANCH  31  32
ATOM     32  C   UNL A   1      41.849  25.945  26.003  1.00  0.00     0.338 C 
ATOM     33  O   UNL A   1      41.563  26.545  24.996  1.00  0.00    -0.246 OA
BRANCH  32  34
ATOM     34  C   UNL A   1      41.806  26.521  27.381  1.00  0.00     0.060 A 
ATOM     35  C   UNL A   1      40.771  26.115  28.241  1.00  0.00     0.016 A 
ATOM     36  C   UNL A   1      42.810  27.368  27.855  1.00  0.00     0.016 A 
ATOM     37  C   UNL A   1      40.709  26.601  29.553  1.00  0.00     0.010 A 
ATOM     38  C   UNL A   1      42.738  27.867  29.160  1.00  0.00     0.010 A 
ATOM     39  C   UNL A   1      41.665  27.521  30.003  1.00  0.00    -0.014 A 
BRANCH  39  40
ATOM     40  C   UNL A   1      41.421  28.336  31.223  1.00  0.00     0.031 A 
ATOM     41  C   UNL A   1      40.301  29.345  31.165  1.00  0.00     0.074 A 
ATOM     42  C   UNL A   1      42.168  28.231  32.337  1.00  0.00     0.049 A 
ATOM     43  N   UNL A   1      39.970  30.277  32.018  1.00  0.00    -0.248 NA
ATOM     44  C   UNL A   1      39.449  29.295  29.965  1.00  0.00     0.031 C 
ATOM     45  C   UNL A   1      43.245  27.269  32.553  1.00  0.00     0.029 A 
ATOM     46  N   UNL A   1      42.139  28.970  33.497  1.00  0.00    -0.354 N 
ATOM     47  C   UNL A   1      38.887  30.939  31.450  1.00  0.00     0.074 A 
ATOM     48  C   UNL A   1      38.633  30.317  30.170  1.00  0.00     0.031 C 
ATOM     49  C   UNL A   1      43.792  27.492  33.763  1.00  0.00     0.029 A 
ATOM     50  C   UNL A   1      43.130  28.638  34.391  1.00  0.00     0.049 A 
ATOM     51  H   UNL A   1      41.470  29.672  33.672  1.00  0.00     0.167 HD
ATOM     52  C   UNL A   1      38.165  31.970  31.948  1.00  0.00     0.037 A 
ATOM     53  C   UNL A   1      43.483  29.212  35.561  1.00  0.00     0.037 A 
ATOM     54  C   UNL A   1      38.418  32.590  33.221  1.00  0.00     0.049 A 
ATOM     55  C   UNL A   1      42.712  30.409  36.069  1.00  0.00     0.074 A 
ATOM     56  C   UNL A   1      37.736  33.636  33.817  1.00  0.00     0.029 A 
ATOM     57  N   UNL A   1      39.438  32.230  34.088  1.00  0.00    -0.354 N 
ATOM     58  N   UNL A   1      41.685  31.023  35.528  1.00  0.00    -0.248 NA
ATOM     59  C   UNL A   1      43.147  30.992  37.348  1.00  0.00     0.031 C 
ATOM     60  C   UNL A   1      38.377  33.943  35.022  1.00  0.00     0.029 A 
ATOM     61  C   UNL A   1      39.418  33.047  35.206  1.00  0.00     0.049 A 
ATOM     62  H   UNL A   1      40.082  31.501  33.932  1.00  0.00     0.167 HD
ATOM     63  C   UNL A   1      41.332  32.036  36.416  1.00  0.00     0.074 A 
ATOM     64  C   UNL A   1      42.253  31.955  37.529  1.00  0.00     0.031 C 
ATOM     65  C   UNL A   1      40.329  32.946  36.319  1.00  0.00     0.037 A 
BRANCH  52  66
ATOM     66  C   UNL A   1      37.056  32.513  31.089  1.00  0.00     0.058 A 
ATOM     67  C   UNL A   1      35.706  32.239  31.357  1.00  0.00     0.135 A 
ATOM     68  C   UNL A   1      37.352  33.322  29.980  1.00  0.00     0.135 A 
ATOM     69  F   UNL A   1      35.367  31.452  32.391  1.00  0.00    -0.206 F 
ATOM     70  C   UNL A   1      34.690  32.717  30.536  1.00  0.00     0.059 A 
ATOM     71  C   UNL A   1      36.352  33.838  29.163  1.00  0.00     0.059 A 
ATOM     72  F   UNL A   1      38.628  33.612  29.674  1.00  0.00    -0.206 F 
ATOM     73  C   UNL A   1      35.024  33.514  29.438  1.00  0.00     0.060 A 
BRANCH  73  74
ATOM     74  S   UNL A   1      33.697  34.117  28.375  1.00  0.00     0.124 S 
ATOM     75  O   UNL A   1      33.342  32.907  27.638  1.00  0.00    -0.237 OA
ATOM     76  O   UNL A   1      32.709  34.583  29.341  1.00  0.00    -0.237 OA
ATOM     77  O   UNL A   1      34.342  35.163  27.586  1.00  0.00    -0.744 OA
ENDBRANCH  73  74
ENDBRANCH  52  66
BRANCH  53  78
ATOM     78  C   UNL A   1      44.638  28.677  36.335  1.00  0.00     0.058 A 
ATOM     79  C   UNL A   1      44.456  27.707  37.334  1.00  0.00     0.135 A 
ATOM     80  C   UNL A   1      45.946  29.129  36.098  1.00  0.00     0.135 A 
ATOM     81  F   UNL A   1      43.224  27.259  37.617  1.00  0.00    -0.206 F 
ATOM     82  C   UNL A   1      45.527  27.208  38.071  1.00  0.00     0.059 A 
ATOM     83  C   UNL A   1      47.036  28.624  36.803  1.00  0.00     0.059 A 
ATOM     84  F   UNL A   1      46.176  30.057  35.156  1.00  0.00    -0.206 F 
ATOM     85  C   UNL A   1      46.815  27.668  37.793  1.00  0.00     0.060 A 
BRANCH  85  86
ATOM     86  S   UNL A   1      48.203  26.968  38.714  1.00  0.00     0.124 S 
ATOM     87  O   UNL A   1      48.370  25.676  38.058  1.00  0.00    -0.237 OA
ATOM     88  O   UNL A   1      49.257  27.948  38.471  1.00  0.00    -0.237 OA
ATOM     89  O   UNL A   1      47.705  26.920  40.086  1.00  0.00    -0.744 OA
ENDBRANCH  85  86
ENDBRANCH  53  78
BRANCH  65  90
ATOM     90  C   UNL A   1      40.123  33.898  37.469  1.00  0.00     0.058 A 
ATOM     91  C   UNL A   1      40.640  35.202  37.460  1.00  0.00     0.135 A 
ATOM     92  C   UNL A   1      39.320  33.521  38.560  1.00  0.00     0.135 A 
ATOM     93  F   UNL A   1      41.415  35.615  36.444  1.00  0.00    -0.206 F 
ATOM     94  C   UNL A   1      40.382  36.094  38.498  1.00  0.00     0.059 A 
ATOM     95  C   UNL A   1      39.026  34.405  39.594  1.00  0.00     0.059 A 
ATOM     96  F   UNL A   1      38.788  32.290  38.615  1.00  0.00    -0.206 F 
ATOM     97  C   UNL A   1      39.569  35.688  39.559  1.00  0.00     0.060 A 
BRANCH  97  98
ATOM     98  S   UNL A   1      39.203  36.870  40.874  1.00  0.00     0.124 S 
ATOM     99  O   UNL A   1      40.542  37.222  41.336  1.00  0.00    -0.237 OA
ATOM    100  O   UNL A   1      38.482  37.918  40.160  1.00  0.00    -0.237 OA
ATOM    101  O   UNL A   1      38.399  36.094  41.815  1.00  0.00    -0.744 OA
ENDBRANCH  97  98
ENDBRANCH  65  90
ENDBRANCH  39  40
ENDBRANCH  32  34
ENDBRANCH  31  32
ENDBRANCH  30  31
ENDBRANCH  29  30
ENDBRANCH  28  29
ENDBRANCH   1  28
TORSDOF 24
ENDMDL
