MODEL 1
REMARK VINA RESULT:     -10.3      0.000      0.000
REMARK SMILES Cc1ccc(CNC(=O)c2csc(/C=C/C(=O)OCCOCCOCCOC(=O)c3ccc(-c4c5nc(c(-c6c(F)cc(S(=O)(=O)[O-])cc6F)c6ccc([nH]6)c(-c6c(F)cc(S(=O)(=O)[O-])cc6F)c6nc(c(-c7c(F)cc(S(=O)(=O)[O-])cc7F)c7ccc4[nH]7)C=C6)C=C5)cc3)c2)s1
REMARK SMILES IDX 22 1 21 2 20 3 19 4 18 5 16 6 17 7 15 8 14 9 13 10 10 11
REMARK SMILES IDX 11 12 96 13 12 14 8 15 7 16 9 18 6 19 5 20 1 21 2 22 3 23
REMARK SMILES IDX 97 24 4 25 23 26 24 27 25 28 26 29 27 30 28 31 29 32 30 33
REMARK SMILES IDX 31 34 95 35 32 36 94 37 33 38 34 39 35 40 88 41 36 42 93 43
REMARK SMILES IDX 87 44 89 45 37 46 92 47 86 48 85 49 38 51 72 52 51 53 71 54
REMARK SMILES IDX 52 55 55 56 70 57 90 58 53 59 54 60 69 62 91 63 56 64 39 65
REMARK SMILES IDX 40 66 49 67 41 68 42 69 48 70 50 71 43 72 44 73 45 74 46 75
REMARK SMILES IDX 47 76 73 77 74 78 83 79 75 80 76 81 82 82 84 83 77 84 78 85
REMARK SMILES IDX 79 86 80 87 81 88 57 89 58 90 67 91 59 92 60 93 66 94 68 95
REMARK SMILES IDX 61 96 62 97 63 98 64 99 65 100
REMARK H PARENT 7 17 89 50 55 61
REMARK Flexibility Score: inf
ROOT
ATOM      1  C   UNL A   1      37.065  21.270  24.730  1.00  0.00     0.188 C 
ENDROOT
BRANCH   1   2
ATOM      2  O   UNL A   1      35.973  20.741  25.462  1.00  0.00    -0.376 OA
BRANCH   2   3
ATOM      3  C   UNL A   1      34.835  20.226  24.789  1.00  0.00     0.202 C 
BRANCH   3   4
ATOM      4  C   UNL A   1      33.549  21.041  24.571  1.00  0.00     0.261 C 
BRANCH   4   5
ATOM      5  O   UNL A   1      32.669  21.145  25.697  1.00  0.00    -0.460 OA
BRANCH   5   6
ATOM      6  C   UNL A   1      31.597  21.955  25.519  1.00  0.00     0.330 C 
ATOM      7  O   UNL A   1      30.457  21.740  25.899  1.00  0.00    -0.247 OA
BRANCH   6   8
ATOM      8  C   UNL A   1      31.966  23.242  24.896  1.00  0.00     0.095 C 
ATOM      9  C   UNL A   1      31.105  24.232  24.611  1.00  0.00     0.026 C 
BRANCH   9  10
ATOM     10  C   UNL A   1      31.529  25.475  24.050  1.00  0.00     0.028 A 
ATOM     11  C   UNL A   1      32.045  27.775  23.922  1.00  0.00     0.051 A 
ATOM     12  C   UNL A   1      32.671  27.283  22.793  1.00  0.00     0.079 A 
ATOM     13  C   UNL A   1      31.251  26.743  24.531  1.00  0.00     0.033 A 
ATOM     14  S   UNL A   1      32.464  25.600  22.609  1.00  0.00    -0.144 S 
BRANCH  11  15
ATOM     15  C   UNL A   1      32.204  29.159  24.353  1.00  0.00     0.252 C 
ATOM     16  N   UNL A   1      31.134  30.013  24.251  1.00  0.00    -0.347 N 
ATOM     17  H   UNL A   1      31.319  30.955  24.464  1.00  0.00     0.164 HD
ATOM     18  O   UNL A   1      33.250  29.575  24.847  1.00  0.00    -0.269 OA
BRANCH  16  19
ATOM     19  C   UNL A   1      29.769  29.716  23.871  1.00  0.00     0.163 C 
BRANCH  19  20
ATOM     20  C   UNL A   1      29.149  30.869  23.151  1.00  0.00     0.024 A 
ATOM     21  C   UNL A   1      27.663  32.866  20.122  1.00  0.00     0.056 C 
ATOM     22  C   UNL A   1      28.216  32.342  21.402  1.00  0.00     0.002 A 
ATOM     23  C   UNL A   1      28.539  33.035  22.549  1.00  0.00     0.015 A 
ATOM     24  S   UNL A   1      28.545  30.673  21.560  1.00  0.00    -0.144 S 
ATOM     25  C   UNL A   1      29.071  32.184  23.561  1.00  0.00     0.017 A 
ENDBRANCH  19  20
ENDBRANCH  16  19
ENDBRANCH  11  15
ENDBRANCH   9  10
ENDBRANCH   6   8
ENDBRANCH   5   6
ENDBRANCH   4   5
ENDBRANCH   3   4
ENDBRANCH   2   3
ENDBRANCH   1   2
BRANCH   1  26
ATOM     26  C   UNL A   1      38.188  22.020  25.473  1.00  0.00     0.188 C 
BRANCH  26  27
ATOM     27  O   UNL A   1      38.964  21.259  26.367  1.00  0.00    -0.376 OA
BRANCH  27  28
ATOM     28  C   UNL A   1      40.367  21.157  26.180  1.00  0.00     0.202 C 
BRANCH  28  29
ATOM     29  C   UNL A   1      41.403  22.293  26.323  1.00  0.00     0.261 C 
BRANCH  29  30
ATOM     30  O   UNL A   1      40.944  23.643  26.393  1.00  0.00    -0.460 OA
BRANCH  30  31
ATOM     31  C   UNL A   1      41.902  24.599  26.364  1.00  0.00     0.338 C 
ATOM     32  O   UNL A   1      42.848  24.671  25.588  1.00  0.00    -0.246 OA
BRANCH  31  33
ATOM     33  C   UNL A   1      41.537  25.659  27.317  1.00  0.00     0.060 A 
ATOM     34  C   UNL A   1      42.299  26.836  27.345  1.00  0.00     0.016 A 
ATOM     35  C   UNL A   1      40.465  25.484  28.194  1.00  0.00     0.016 A 
ATOM     36  C   UNL A   1      41.997  27.839  28.267  1.00  0.00     0.010 A 
ATOM     37  C   UNL A   1      40.178  26.482  29.129  1.00  0.00     0.010 A 
ATOM     38  C   UNL A   1      40.957  27.652  29.187  1.00  0.00    -0.014 A 
BRANCH  38  39
ATOM     39  C   UNL A   1      40.787  28.600  30.315  1.00  0.00     0.031 A 
ATOM     40  C   UNL A   1      41.663  28.442  31.527  1.00  0.00     0.074 A 
ATOM     41  C   UNL A   1      39.877  29.589  30.262  1.00  0.00     0.049 A 
ATOM     42  N   UNL A   1      41.653  29.106  32.653  1.00  0.00    -0.248 NA
ATOM     43  C   UNL A   1      42.687  27.387  31.459  1.00  0.00     0.031 C 
ATOM     44  C   UNL A   1      39.001  29.872  29.127  1.00  0.00     0.029 A 
ATOM     45  N   UNL A   1      39.533  30.535  31.196  1.00  0.00    -0.354 N 
ATOM     46  C   UNL A   1      42.662  28.547  33.430  1.00  0.00     0.074 A 
ATOM     47  C   UNL A   1      43.239  27.467  32.660  1.00  0.00     0.031 C 
ATOM     48  C   UNL A   1      38.211  30.916  29.435  1.00  0.00     0.029 A 
ATOM     49  C   UNL A   1      38.500  31.350  30.801  1.00  0.00     0.049 A 
ATOM     50  H   UNL A   1      39.985  30.621  32.067  1.00  0.00     0.167 HD
ATOM     51  C   UNL A   1      43.074  28.907  34.669  1.00  0.00     0.037 A 
ATOM     52  C   UNL A   1      37.847  32.318  31.475  1.00  0.00     0.037 A 
ATOM     53  C   UNL A   1      42.486  29.978  35.433  1.00  0.00     0.049 A 
ATOM     54  C   UNL A   1      38.265  32.647  32.887  1.00  0.00     0.074 A 
ATOM     55  C   UNL A   1      42.838  30.428  36.693  1.00  0.00     0.029 A 
ATOM     56  N   UNL A   1      41.417  30.757  35.015  1.00  0.00    -0.354 N 
ATOM     57  N   UNL A   1      39.233  32.125  33.606  1.00  0.00    -0.248 NA
ATOM     58  C   UNL A   1      37.505  33.696  33.580  1.00  0.00     0.031 C 
ATOM     59  C   UNL A   1      41.944  31.441  37.060  1.00  0.00     0.029 A 
ATOM     60  C   UNL A   1      41.076  31.667  36.003  1.00  0.00     0.049 A 
ATOM     61  H   UNL A   1      40.967  30.676  34.143  1.00  0.00     0.167 HD
ATOM     62  C   UNL A   1      39.215  32.804  34.821  1.00  0.00     0.074 A 
ATOM     63  C   UNL A   1      38.148  33.780  34.736  1.00  0.00     0.031 C 
ATOM     64  C   UNL A   1      40.014  32.637  35.906  1.00  0.00     0.037 A 
BRANCH  51  65
ATOM     65  C   UNL A   1      44.193  28.113  35.285  1.00  0.00     0.058 A 
ATOM     66  C   UNL A   1      45.541  28.460  35.097  1.00  0.00     0.135 A 
ATOM     67  C   UNL A   1      43.914  26.992  36.084  1.00  0.00     0.135 A 
ATOM     68  F   UNL A   1      45.868  29.511  34.328  1.00  0.00    -0.206 F 
ATOM     69  C   UNL A   1      46.571  27.706  35.650  1.00  0.00     0.059 A 
ATOM     70  C   UNL A   1      44.927  26.241  36.672  1.00  0.00     0.059 A 
ATOM     71  F   UNL A   1      42.644  26.612  36.296  1.00  0.00    -0.206 F 
ATOM     72  C   UNL A   1      46.254  26.595  36.434  1.00  0.00     0.060 A 
BRANCH  72  73
ATOM     73  S   UNL A   1      47.602  25.619  37.132  1.00  0.00     0.124 S 
ATOM     74  O   UNL A   1      48.144  24.976  35.940  1.00  0.00    -0.237 OA
ATOM     75  O   UNL A   1      48.446  26.644  37.740  1.00  0.00    -0.237 OA
ATOM     76  O   UNL A   1      46.927  24.729  38.072  1.00  0.00    -0.744 OA
ENDBRANCH  72  73
ENDBRANCH  51  65
BRANCH  52  77
ATOM     77  C   UNL A   1      36.723  33.047  30.828  1.00  0.00     0.058 A 
ATOM     78  C   UNL A   1      36.960  34.002  29.827  1.00  0.00     0.135 A 
ATOM     79  C   UNL A   1      35.389  32.805  31.193  1.00  0.00     0.135 A 
ATOM     80  F   UNL A   1      38.218  34.283  29.453  1.00  0.00    -0.206 F 
ATOM     81  C   UNL A   1      35.919  34.695  29.218  1.00  0.00     0.059 A 
ATOM     82  C   UNL A   1      34.329  33.464  30.579  1.00  0.00     0.059 A 
ATOM     83  F   UNL A   1      35.106  31.897  32.142  1.00  0.00    -0.206 F 
ATOM     84  C   UNL A   1      34.605  34.414  29.597  1.00  0.00     0.060 A 
BRANCH  84  85
ATOM     85  S   UNL A   1      33.259  35.280  28.760  1.00  0.00     0.124 S 
ATOM     86  O   UNL A   1      33.986  36.286  27.995  1.00  0.00    -0.237 OA
ATOM     87  O   UNL A   1      32.644  34.209  27.982  1.00  0.00    -0.237 OA
ATOM     88  O   UNL A   1      32.449  35.790  29.861  1.00  0.00    -0.744 OA
ENDBRANCH  84  85
ENDBRANCH  52  77
BRANCH  64  89
ATOM     89  C   UNL A   1      39.794  33.554  37.081  1.00  0.00     0.058 A 
ATOM     90  C   UNL A   1      40.452  34.788  37.194  1.00  0.00     0.135 A 
ATOM     91  C   UNL A   1      38.867  33.215  38.082  1.00  0.00     0.135 A 
ATOM     92  F   UNL A   1      41.353  35.161  36.271  1.00  0.00    -0.206 F 
ATOM     93  C   UNL A   1      40.218  35.643  38.268  1.00  0.00     0.059 A 
ATOM     94  C   UNL A   1      38.594  34.067  39.147  1.00  0.00     0.059 A 
ATOM     95  F   UNL A   1      38.198  32.053  38.019  1.00  0.00    -0.206 F 
ATOM     96  C   UNL A   1      39.284  35.276  39.239  1.00  0.00     0.060 A 
BRANCH  96  97
ATOM     97  S   UNL A   1      38.964  36.409  40.607  1.00  0.00     0.124 S 
ATOM     98  O   UNL A   1      38.542  37.613  39.900  1.00  0.00    -0.237 OA
ATOM     99  O   UNL A   1      37.920  35.712  41.352  1.00  0.00    -0.237 OA
ATOM    100  O   UNL A   1      40.255  36.499  41.284  1.00  0.00    -0.744 OA
ENDBRANCH  96  97
ENDBRANCH  64  89
ENDBRANCH  38  39
ENDBRANCH  31  33
ENDBRANCH  30  31
ENDBRANCH  29  30
ENDBRANCH  28  29
ENDBRANCH  27  28
ENDBRANCH  26  27
ENDBRANCH   1  26
TORSDOF 24
ENDMDL
MODEL 2
REMARK VINA RESULT:     -10.1      1.458      2.372
REMARK SMILES Cc1ccc(CNC(=O)c2csc(/C=C/C(=O)OCCOCCOCCOC(=O)c3ccc(-c4c5nc(c(-c6c(F)cc(S(=O)(=O)[O-])cc6F)c6ccc([nH]6)c(-c6c(F)cc(S(=O)(=O)[O-])cc6F)c6nc(c(-c7c(F)cc(S(=O)(=O)[O-])cc7F)c7ccc4[nH]7)C=C6)C=C5)cc3)c2)s1
REMARK SMILES IDX 22 1 21 2 20 3 19 4 18 5 16 6 17 7 15 8 14 9 13 10 10 11
REMARK SMILES IDX 11 12 96 13 12 14 8 15 7 16 9 18 6 19 5 20 1 21 2 22 3 23
REMARK SMILES IDX 97 24 4 25 23 26 24 27 25 28 26 29 27 30 28 31 29 32 30 33
REMARK SMILES IDX 31 34 95 35 32 36 94 37 33 38 34 39 35 40 88 41 36 42 93 43
REMARK SMILES IDX 87 44 89 45 37 46 92 47 86 48 85 49 38 51 72 52 51 53 71 54
REMARK SMILES IDX 52 55 55 56 70 57 90 58 53 59 54 60 69 62 91 63 56 64 39 65
REMARK SMILES IDX 40 66 49 67 41 68 42 69 48 70 50 71 43 72 44 73 45 74 46 75
REMARK SMILES IDX 47 76 73 77 74 78 83 79 75 80 76 81 82 82 84 83 77 84 78 85
REMARK SMILES IDX 79 86 80 87 81 88 57 89 58 90 67 91 59 92 60 93 66 94 68 95
REMARK SMILES IDX 61 96 62 97 63 98 64 99 65 100
REMARK H PARENT 7 17 89 50 55 61
REMARK Flexibility Score: inf
ROOT
ATOM      1  C   UNL A   1      37.604  21.691  25.232  1.00  0.00     0.188 C 
ENDROOT
BRANCH   1   2
ATOM      2  O   UNL A   1      36.466  21.229  25.939  1.00  0.00    -0.376 OA
BRANCH   2   3
ATOM      3  C   UNL A   1      35.251  20.964  25.257  1.00  0.00     0.202 C 
BRANCH   3   4
ATOM      4  C   UNL A   1      34.048  21.924  25.281  1.00  0.00     0.261 C 
BRANCH   4   5
ATOM      5  O   UNL A   1      33.129  21.756  26.366  1.00  0.00    -0.460 OA
BRANCH   5   6
ATOM      6  C   UNL A   1      32.195  22.731  26.488  1.00  0.00     0.330 C 
ATOM      7  O   UNL A   1      31.538  22.984  27.485  1.00  0.00    -0.247 OA
BRANCH   6   8
ATOM      8  C   UNL A   1      32.114  23.582  25.283  1.00  0.00     0.095 C 
ATOM      9  C   UNL A   1      31.070  24.362  24.962  1.00  0.00     0.026 C 
BRANCH   9  10
ATOM     10  C   UNL A   1      31.069  25.200  23.805  1.00  0.00     0.028 A 
ATOM     11  C   UNL A   1      30.873  27.155  22.500  1.00  0.00     0.051 A 
ATOM     12  C   UNL A   1      31.540  26.308  21.637  1.00  0.00     0.079 A 
ATOM     13  C   UNL A   1      30.462  26.436  23.674  1.00  0.00     0.033 A 
ATOM     14  S   UNL A   1      31.827  24.771  22.319  1.00  0.00    -0.144 S 
BRANCH  11  15
ATOM     15  C   UNL A   1      30.644  28.561  22.181  1.00  0.00     0.252 C 
ATOM     16  N   UNL A   1      31.645  29.467  22.424  1.00  0.00    -0.347 N 
ATOM     17  H   UNL A   1      31.408  30.412  22.282  1.00  0.00     0.164 HD
ATOM     18  O   UNL A   1      29.601  28.952  21.660  1.00  0.00    -0.269 OA
BRANCH  16  19
ATOM     19  C   UNL A   1      33.004  29.225  22.861  1.00  0.00     0.163 C 
BRANCH  19  20
ATOM     20  C   UNL A   1      33.027  28.569  24.202  1.00  0.00     0.024 A 
ATOM     21  C   UNL A   1      32.274  28.120  28.024  1.00  0.00     0.056 C 
ATOM     22  C   UNL A   1      32.726  28.082  26.605  1.00  0.00     0.002 A 
ATOM     23  C   UNL A   1      33.693  27.287  26.029  1.00  0.00     0.015 A 
ATOM     24  S   UNL A   1      32.023  29.145  25.467  1.00  0.00    -0.144 S 
ATOM     25  C   UNL A   1      33.863  27.563  24.642  1.00  0.00     0.017 A 
ENDBRANCH  19  20
ENDBRANCH  16  19
ENDBRANCH  11  15
ENDBRANCH   9  10
ENDBRANCH   6   8
ENDBRANCH   5   6
ENDBRANCH   4   5
ENDBRANCH   3   4
ENDBRANCH   2   3
ENDBRANCH   1   2
BRANCH   1  26
ATOM     26  C   UNL A   1      38.818  22.231  26.011  1.00  0.00     0.188 C 
BRANCH  26  27
ATOM     27  O   UNL A   1      39.663  21.270  26.598  1.00  0.00    -0.376 OA
BRANCH  27  28
ATOM     28  C   UNL A   1      41.019  21.174  26.193  1.00  0.00     0.202 C 
BRANCH  28  29
ATOM     29  C   UNL A   1      42.043  22.327  26.111  1.00  0.00     0.261 C 
BRANCH  29  30
ATOM     30  O   UNL A   1      41.566  23.671  26.039  1.00  0.00    -0.460 OA
BRANCH  30  31
ATOM     31  C   UNL A   1      42.510  24.639  26.093  1.00  0.00     0.338 C 
ATOM     32  O   UNL A   1      43.488  24.758  25.364  1.00  0.00    -0.246 OA
BRANCH  31  33
ATOM     33  C   UNL A   1      42.088  25.653  27.073  1.00  0.00     0.060 A 
ATOM     34  C   UNL A   1      42.726  26.901  27.074  1.00  0.00     0.016 A 
ATOM     35  C   UNL A   1      41.086  25.365  28.001  1.00  0.00     0.016 A 
ATOM     36  C   UNL A   1      42.370  27.864  28.020  1.00  0.00     0.010 A 
ATOM     37  C   UNL A   1      40.746  26.324  28.959  1.00  0.00     0.010 A 
ATOM     38  C   UNL A   1      41.403  27.568  28.989  1.00  0.00    -0.014 A 
BRANCH  38  39
ATOM     39  C   UNL A   1      41.195  28.488  30.133  1.00  0.00     0.031 A 
ATOM     40  C   UNL A   1      42.083  28.352  31.339  1.00  0.00     0.074 A 
ATOM     41  C   UNL A   1      40.239  29.434  30.101  1.00  0.00     0.049 A 
ATOM     42  N   UNL A   1      42.048  28.996  32.476  1.00  0.00    -0.248 NA
ATOM     43  C   UNL A   1      43.155  27.346  31.249  1.00  0.00     0.031 C 
ATOM     44  C   UNL A   1      39.346  29.694  28.973  1.00  0.00     0.029 A 
ATOM     45  N   UNL A   1      39.857  30.348  31.051  1.00  0.00    -0.354 N 
ATOM     46  C   UNL A   1      43.085  28.472  33.239  1.00  0.00     0.074 A 
ATOM     47  C   UNL A   1      43.708  27.433  32.448  1.00  0.00     0.031 C 
ATOM     48  C   UNL A   1      38.509  30.695  29.302  1.00  0.00     0.029 A 
ATOM     49  C   UNL A   1      38.785  31.120  30.674  1.00  0.00     0.049 A 
ATOM     50  H   UNL A   1      40.308  30.440  31.922  1.00  0.00     0.167 HD
ATOM     51  C   UNL A   1      43.487  28.831  34.482  1.00  0.00     0.037 A 
ATOM     52  C   UNL A   1      38.091  32.046  31.367  1.00  0.00     0.037 A 
ATOM     53  C   UNL A   1      42.854  29.860  35.266  1.00  0.00     0.049 A 
ATOM     54  C   UNL A   1      38.500  32.371  32.782  1.00  0.00     0.074 A 
ATOM     55  C   UNL A   1      43.190  30.307  36.531  1.00  0.00     0.029 A 
ATOM     56  N   UNL A   1      41.747  30.596  34.865  1.00  0.00    -0.354 N 
ATOM     57  N   UNL A   1      39.494  31.883  33.488  1.00  0.00    -0.248 NA
ATOM     58  C   UNL A   1      37.695  33.372  33.496  1.00  0.00     0.031 C 
ATOM     59  C   UNL A   1      42.252  31.271  36.919  1.00  0.00     0.029 A 
ATOM     60  C   UNL A   1      41.369  31.472  35.870  1.00  0.00     0.049 A 
ATOM     61  H   UNL A   1      41.297  30.508  33.994  1.00  0.00     0.167 HD
ATOM     62  C   UNL A   1      39.451  32.540  34.714  1.00  0.00     0.074 A 
ATOM     63  C   UNL A   1      38.340  33.467  34.650  1.00  0.00     0.031 C 
ATOM     64  C   UNL A   1      40.262  32.394  35.793  1.00  0.00     0.037 A 
BRANCH  51  65
ATOM     65  C   UNL A   1      44.645  28.080  35.080  1.00  0.00     0.058 A 
ATOM     66  C   UNL A   1      45.974  28.493  34.892  1.00  0.00     0.135 A 
ATOM     67  C   UNL A   1      44.422  26.935  35.862  1.00  0.00     0.135 A 
ATOM     68  F   UNL A   1      46.248  29.571  34.139  1.00  0.00    -0.206 F 
ATOM     69  C   UNL A   1      47.041  27.779  35.428  1.00  0.00     0.059 A 
ATOM     70  C   UNL A   1      45.472  26.222  36.433  1.00  0.00     0.059 A 
ATOM     71  F   UNL A   1      43.172  26.492  36.073  1.00  0.00    -0.206 F 
ATOM     72  C   UNL A   1      46.780  26.642  36.195  1.00  0.00     0.060 A 
BRANCH  72  73
ATOM     73  S   UNL A   1      48.175  25.719  36.871  1.00  0.00     0.124 S 
ATOM     74  O   UNL A   1      49.251  26.700  36.771  1.00  0.00    -0.237 OA
ATOM     75  O   UNL A   1      47.720  25.413  38.225  1.00  0.00    -0.237 OA
ATOM     76  O   UNL A   1      48.290  24.570  35.977  1.00  0.00    -0.744 OA
ENDBRANCH  72  73
ENDBRANCH  51  65
BRANCH  52  77
ATOM     77  C   UNL A   1      36.931  32.732  30.736  1.00  0.00     0.058 A 
ATOM     78  C   UNL A   1      35.614  32.339  31.020  1.00  0.00     0.135 A 
ATOM     79  C   UNL A   1      37.113  33.797  29.839  1.00  0.00     0.135 A 
ATOM     80  F   UNL A   1      35.387  31.315  31.858  1.00  0.00    -0.206 F 
ATOM     81  C   UNL A   1      34.521  32.968  30.432  1.00  0.00     0.059 A 
ATOM     82  C   UNL A   1      36.036  34.461  29.261  1.00  0.00     0.059 A 
ATOM     83  F   UNL A   1      38.352  34.218  29.536  1.00  0.00    -0.206 F 
ATOM     84  C   UNL A   1      34.743  34.034  29.558  1.00  0.00     0.060 A 
BRANCH  84  85
ATOM     85  S   UNL A   1      33.314  34.878  28.846  1.00  0.00     0.124 S 
ATOM     86  O   UNL A   1      32.493  35.117  30.026  1.00  0.00    -0.237 OA
ATOM     87  O   UNL A   1      33.926  36.059  28.245  1.00  0.00    -0.237 OA
ATOM     88  O   UNL A   1      32.785  33.904  27.896  1.00  0.00    -0.744 OA
ENDBRANCH  84  85
ENDBRANCH  52  77
BRANCH  64  89
ATOM     89  C   UNL A   1      40.006  33.280  36.984  1.00  0.00     0.058 A 
ATOM     90  C   UNL A   1      40.733  34.461  37.202  1.00  0.00     0.135 A 
ATOM     91  C   UNL A   1      38.977  32.970  37.891  1.00  0.00     0.135 A 
ATOM     92  F   UNL A   1      41.730  34.804  36.371  1.00  0.00    -0.206 F 
ATOM     93  C   UNL A   1      40.466  35.290  38.288  1.00  0.00     0.059 A 
ATOM     94  C   UNL A   1      38.674  33.800  38.966  1.00  0.00     0.059 A 
ATOM     95  F   UNL A   1      38.242  31.860  37.726  1.00  0.00    -0.206 F 
ATOM     96  C   UNL A   1      39.432  34.953  39.163  1.00  0.00     0.060 A 
BRANCH  96  97
ATOM     97  S   UNL A   1      39.075  36.055  40.548  1.00  0.00     0.124 S 
ATOM     98  O   UNL A   1      38.035  35.314  41.254  1.00  0.00    -0.237 OA
ATOM     99  O   UNL A   1      40.366  36.136  41.224  1.00  0.00    -0.237 OA
ATOM    100  O   UNL A   1      38.636  37.287  39.899  1.00  0.00    -0.744 OA
ENDBRANCH  96  97
ENDBRANCH  64  89
ENDBRANCH  38  39
ENDBRANCH  31  33
ENDBRANCH  30  31
ENDBRANCH  29  30
ENDBRANCH  28  29
ENDBRANCH  27  28
ENDBRANCH  26  27
ENDBRANCH   1  26
TORSDOF 24
ENDMDL
MODEL 3
REMARK VINA RESULT:      -9.2      1.452      2.140
REMARK SMILES Cc1ccc(CNC(=O)c2csc(/C=C/C(=O)OCCOCCOCCOC(=O)c3ccc(-c4c5nc(c(-c6c(F)cc(S(=O)(=O)[O-])cc6F)c6ccc([nH]6)c(-c6c(F)cc(S(=O)(=O)[O-])cc6F)c6nc(c(-c7c(F)cc(S(=O)(=O)[O-])cc7F)c7ccc4[nH]7)C=C6)C=C5)cc3)c2)s1
REMARK SMILES IDX 22 1 21 2 20 3 19 4 18 5 16 6 17 7 15 8 14 9 13 10 10 11
REMARK SMILES IDX 11 12 96 13 12 14 8 15 7 16 9 18 6 19 5 20 1 21 2 22 3 23
REMARK SMILES IDX 97 24 4 25 23 26 24 27 25 28 26 29 27 30 28 31 29 32 30 33
REMARK SMILES IDX 31 34 95 35 32 36 94 37 33 38 34 39 35 40 88 41 36 42 93 43
REMARK SMILES IDX 87 44 89 45 37 46 92 47 86 48 85 49 38 51 72 52 51 53 71 54
REMARK SMILES IDX 52 55 55 56 70 57 90 58 53 59 54 60 69 62 91 63 56 64 39 65
REMARK SMILES IDX 40 66 49 67 41 68 42 69 48 70 50 71 43 72 44 73 45 74 46 75
REMARK SMILES IDX 47 76 73 77 74 78 83 79 75 80 76 81 82 82 84 83 77 84 78 85
REMARK SMILES IDX 79 86 80 87 81 88 57 89 58 90 67 91 59 92 60 93 66 94 68 95
REMARK SMILES IDX 61 96 62 97 63 98 64 99 65 100
REMARK H PARENT 7 17 89 50 55 61
REMARK Flexibility Score: inf
ROOT
ATOM      1  C   UNL A   1      37.607  21.978  24.998  1.00  0.00     0.188 C 
ENDROOT
BRANCH   1   2
ATOM      2  O   UNL A   1      36.638  21.008  25.358  1.00  0.00    -0.376 OA
BRANCH   2   3
ATOM      3  C   UNL A   1      35.365  20.995  24.733  1.00  0.00     0.202 C 
BRANCH   3   4
ATOM      4  C   UNL A   1      34.050  20.808  25.510  1.00  0.00     0.261 C 
BRANCH   4   5
ATOM      5  O   UNL A   1      34.098  21.104  26.911  1.00  0.00    -0.460 OA
BRANCH   5   6
ATOM      6  C   UNL A   1      33.258  22.086  27.323  1.00  0.00     0.330 C 
ATOM      7  O   UNL A   1      32.808  22.228  28.448  1.00  0.00    -0.247 OA
BRANCH   6   8
ATOM      8  C   UNL A   1      33.011  23.090  26.268  1.00  0.00     0.095 C 
ATOM      9  C   UNL A   1      33.577  24.306  26.218  1.00  0.00     0.026 C 
BRANCH   9  10
ATOM     10  C   UNL A   1      33.335  25.218  25.146  1.00  0.00     0.028 A 
ATOM     11  C   UNL A   1      33.460  27.193  23.860  1.00  0.00     0.051 A 
ATOM     12  C   UNL A   1      32.941  26.295  22.947  1.00  0.00     0.079 A 
ATOM     13  C   UNL A   1      33.513  26.590  25.164  1.00  0.00     0.033 A 
ATOM     14  S   UNL A   1      32.728  24.738  23.607  1.00  0.00    -0.144 S 
BRANCH  11  15
ATOM     15  C   UNL A   1      33.853  28.545  23.478  1.00  0.00     0.252 C 
ATOM     16  N   UNL A   1      33.150  29.609  23.986  1.00  0.00    -0.347 N 
ATOM     17  H   UNL A   1      33.393  30.491  23.625  1.00  0.00     0.164 HD
ATOM     18  O   UNL A   1      34.821  28.765  22.753  1.00  0.00    -0.269 OA
BRANCH  16  19
ATOM     19  C   UNL A   1      32.098  29.611  24.981  1.00  0.00     0.163 C 
BRANCH  19  20
ATOM     20  C   UNL A   1      30.798  30.042  24.387  1.00  0.00     0.024 A 
ATOM     21  C   UNL A   1      27.825  30.084  21.831  1.00  0.00     0.056 C 
ATOM     22  C   UNL A   1      28.841  30.291  22.900  1.00  0.00     0.002 A 
ATOM     23  C   UNL A   1      28.961  31.341  23.785  1.00  0.00     0.015 A 
ATOM     24  S   UNL A   1      30.077  29.133  23.125  1.00  0.00    -0.144 S 
ATOM     25  C   UNL A   1      30.085  31.195  24.647  1.00  0.00     0.017 A 
ENDBRANCH  19  20
ENDBRANCH  16  19
ENDBRANCH  11  15
ENDBRANCH   9  10
ENDBRANCH   6   8
ENDBRANCH   5   6
ENDBRANCH   4   5
ENDBRANCH   3   4
ENDBRANCH   2   3
ENDBRANCH   1   2
BRANCH   1  26
ATOM     26  C   UNL A   1      38.539  22.562  26.079  1.00  0.00     0.188 C 
BRANCH  26  27
ATOM     27  O   UNL A   1      39.468  21.672  26.650  1.00  0.00    -0.376 OA
BRANCH  27  28
ATOM     28  C   UNL A   1      40.572  21.212  25.887  1.00  0.00     0.202 C 
BRANCH  28  29
ATOM     29  C   UNL A   1      41.993  21.817  25.860  1.00  0.00     0.261 C 
BRANCH  29  30
ATOM     30  O   UNL A   1      42.146  23.211  25.592  1.00  0.00    -0.460 OA
BRANCH  30  31
ATOM     31  C   UNL A   1      43.245  23.799  26.119  1.00  0.00     0.338 C 
ATOM     32  O   UNL A   1      44.411  23.604  25.799  1.00  0.00    -0.246 OA
BRANCH  31  33
ATOM     33  C   UNL A   1      42.812  24.863  27.040  1.00  0.00     0.060 A 
ATOM     34  C   UNL A   1      43.261  26.172  26.821  1.00  0.00     0.016 A 
ATOM     35  C   UNL A   1      41.989  24.565  28.127  1.00  0.00     0.016 A 
ATOM     36  C   UNL A   1      42.897  27.190  27.703  1.00  0.00     0.010 A 
ATOM     37  C   UNL A   1      41.643  25.582  29.020  1.00  0.00     0.010 A 
ATOM     38  C   UNL A   1      42.115  26.894  28.827  1.00  0.00    -0.014 A 
BRANCH  38  39
ATOM     39  C   UNL A   1      41.927  27.913  29.888  1.00  0.00     0.031 A 
ATOM     40  C   UNL A   1      42.821  27.868  31.097  1.00  0.00     0.074 A 
ATOM     41  C   UNL A   1      40.985  28.866  29.779  1.00  0.00     0.049 A 
ATOM     42  N   UNL A   1      42.802  28.609  32.174  1.00  0.00    -0.248 NA
ATOM     43  C   UNL A   1      43.878  26.843  31.088  1.00  0.00     0.031 C 
ATOM     44  C   UNL A   1      40.088  29.041  28.638  1.00  0.00     0.029 A 
ATOM     45  N   UNL A   1      40.622  29.864  30.649  1.00  0.00    -0.354 N 
ATOM     46  C   UNL A   1      43.837  28.138  32.974  1.00  0.00     0.074 A 
ATOM     47  C   UNL A   1      44.440  27.024  32.273  1.00  0.00     0.031 C 
ATOM     48  C   UNL A   1      39.268  30.079  28.883  1.00  0.00     0.029 A 
ATOM     49  C   UNL A   1      39.558  30.617  30.212  1.00  0.00     0.049 A 
ATOM     50  H   UNL A   1      41.080  30.025  31.505  1.00  0.00     0.167 HD
ATOM     51  C   UNL A   1      44.251  28.597  34.179  1.00  0.00     0.037 A 
ATOM     52  C   UNL A   1      38.882  31.609  30.825  1.00  0.00     0.037 A 
ATOM     53  C   UNL A   1      43.638  29.699  34.874  1.00  0.00     0.049 A 
ATOM     54  C   UNL A   1      39.305  32.049  32.204  1.00  0.00     0.074 A 
ATOM     55  C   UNL A   1      43.989  30.248  36.095  1.00  0.00     0.029 A 
ATOM     56  N   UNL A   1      42.539  30.413  34.417  1.00  0.00    -0.354 N 
ATOM     57  N   UNL A   1      40.296  31.609  32.945  1.00  0.00    -0.248 NA
ATOM     58  C   UNL A   1      38.519  33.120  32.833  1.00  0.00     0.031 C 
ATOM     59  C   UNL A   1      43.067  31.256  36.402  1.00  0.00     0.029 A 
ATOM     60  C   UNL A   1      42.180  31.379  35.344  1.00  0.00     0.049 A 
ATOM     61  H   UNL A   1      42.082  30.258  33.559  1.00  0.00     0.167 HD
ATOM     62  C   UNL A   1      40.271  32.371  34.110  1.00  0.00     0.074 A 
ATOM     63  C   UNL A   1      39.172  33.305  33.971  1.00  0.00     0.031 C 
ATOM     64  C   UNL A   1      41.086  32.307  35.193  1.00  0.00     0.037 A 
BRANCH  51  65
ATOM     65  C   UNL A   1      45.402  27.883  34.834  1.00  0.00     0.058 A 
ATOM     66  C   UNL A   1      45.204  26.809  35.716  1.00  0.00     0.135 A 
ATOM     67  C   UNL A   1      46.725  28.272  34.567  1.00  0.00     0.135 A 
ATOM     68  F   UNL A   1      43.960  26.405  36.023  1.00  0.00    -0.206 F 
ATOM     69  C   UNL A   1      46.272  26.169  36.337  1.00  0.00     0.059 A 
ATOM     70  C   UNL A   1      47.811  27.627  35.152  1.00  0.00     0.059 A 
ATOM     71  F   UNL A   1      46.975  29.294  33.733  1.00  0.00    -0.206 F 
ATOM     72  C   UNL A   1      47.573  26.587  36.050  1.00  0.00     0.060 A 
BRANCH  72  73
ATOM     73  S   UNL A   1      48.948  25.757  36.874  1.00  0.00     0.124 S 
ATOM     74  O   UNL A   1      48.441  25.636  38.237  1.00  0.00    -0.237 OA
ATOM     75  O   UNL A   1      49.052  24.509  36.123  1.00  0.00    -0.237 OA
ATOM     76  O   UNL A   1      50.061  26.685  36.700  1.00  0.00    -0.744 OA
ENDBRANCH  72  73
ENDBRANCH  51  65
BRANCH  52  77
ATOM     77  C   UNL A   1      37.728  32.255  30.143  1.00  0.00     0.058 A 
ATOM     78  C   UNL A   1      36.495  31.596  30.024  1.00  0.00     0.135 A 
ATOM     79  C   UNL A   1      37.831  33.546  29.599  1.00  0.00     0.135 A 
ATOM     80  F   UNL A   1      36.349  30.355  30.512  1.00  0.00    -0.206 F 
ATOM     81  C   UNL A   1      35.410  32.187  29.383  1.00  0.00     0.059 A 
ATOM     82  C   UNL A   1      36.753  34.169  28.980  1.00  0.00     0.059 A 
ATOM     83  F   UNL A   1      38.987  34.224  29.690  1.00  0.00    -0.206 F 
ATOM     84  C   UNL A   1      35.548  33.478  28.870  1.00  0.00     0.060 A 
BRANCH  84  85
ATOM     85  S   UNL A   1      34.116  34.255  28.090  1.00  0.00     0.124 S 
ATOM     86  O   UNL A   1      33.173  33.144  28.031  1.00  0.00    -0.237 OA
ATOM     87  O   UNL A   1      33.792  35.317  29.038  1.00  0.00    -0.237 OA
ATOM     88  O   UNL A   1      34.636  34.709  26.805  1.00  0.00    -0.744 OA
ENDBRANCH  84  85
ENDBRANCH  52  77
BRANCH  64  89
ATOM     89  C   UNL A   1      40.850  33.296  36.305  1.00  0.00     0.058 A 
ATOM     90  C   UNL A   1      41.494  34.543  36.339  1.00  0.00     0.135 A 
ATOM     91  C   UNL A   1      39.922  33.013  37.321  1.00  0.00     0.135 A 
ATOM     92  F   UNL A   1      42.394  34.864  35.397  1.00  0.00    -0.206 F 
ATOM     93  C   UNL A   1      41.244  35.463  37.352  1.00  0.00     0.059 A 
ATOM     94  C   UNL A   1      39.634  33.931  38.327  1.00  0.00     0.059 A 
ATOM     95  F   UNL A   1      39.267  31.841  37.333  1.00  0.00    -0.206 F 
ATOM     96  C   UNL A   1      40.310  35.150  38.341  1.00  0.00     0.060 A 
BRANCH  96  97
ATOM     97  S   UNL A   1      39.970  36.368  39.630  1.00  0.00     0.124 S 
ATOM     98  O   UNL A   1      41.312  36.846  39.945  1.00  0.00    -0.237 OA
ATOM     99  O   UNL A   1      39.104  37.319  38.941  1.00  0.00    -0.237 OA
ATOM    100  O   UNL A   1      39.322  35.584  40.678  1.00  0.00    -0.744 OA
ENDBRANCH  96  97
ENDBRANCH  64  89
ENDBRANCH  38  39
ENDBRANCH  31  33
ENDBRANCH  30  31
ENDBRANCH  29  30
ENDBRANCH  28  29
ENDBRANCH  27  28
ENDBRANCH  26  27
ENDBRANCH   1  26
TORSDOF 24
ENDMDL
