MODEL 1
REMARK VINA RESULT:     -11.8      0.000      0.000
REMARK SMILES Cc1cc(C(=O)OCCOCCOCCOC(=O)c2ccc(-c3c4nc(c(-c5c(F)cc(S(=O)(=O)[O-])cc5F)c5ccc([nH]5)c(-c5c(F)cc(S(=O)(=O)[O-])cc5F)c5nc(c(-c6c(F)cc(S(=O)(=O)[O-])cc6F)c6ccc3[nH]6)C=C5)C=C4)cc2)ccc1NS(=O)(=O)c1ccc(C#N)cc1C
REMARK SMILES IDX 11 1 10 2 9 3 8 4 7 5 5 6 6 7 4 8 1 9 2 10 3 11 87 12 86 13
REMARK SMILES IDX 85 14 88 15 89 17 90 18 91 19 92 20 93 21 99 22 94 23 98 24
REMARK SMILES IDX 100 25 95 26 96 27 97 28 12 29 13 30 14 31 15 32 16 33 17 34
REMARK SMILES IDX 18 35 19 36 20 37 84 38 21 39 83 40 22 41 23 42 24 43 77 44
REMARK SMILES IDX 25 45 82 46 76 47 78 48 26 49 81 50 75 51 74 52 27 54 61 55
REMARK SMILES IDX 40 56 60 57 41 58 44 59 59 60 79 61 42 62 43 63 58 65 80 66
REMARK SMILES IDX 45 67 28 68 29 69 38 70 30 71 31 72 37 73 39 74 32 75 33 76
REMARK SMILES IDX 34 77 35 78 36 79 62 80 63 81 72 82 64 83 65 84 71 85 73 86
REMARK SMILES IDX 66 87 67 88 68 89 69 90 70 91 46 92 47 93 56 94 48 95 49 96
REMARK SMILES IDX 55 97 57 98 50 99 51 100 52 101 53 102 54 103
REMARK H PARENT 88 16 78 53 44 64
REMARK Flexibility Score: inf
ROOT
ATOM      1  C   UNL A   1      32.890  35.643  29.592  1.00  0.00     0.188 C 
ENDROOT
BRANCH   1   2
ATOM      2  O   UNL A   1      32.753  34.732  28.494  1.00  0.00    -0.376 OA
BRANCH   2   3
ATOM      3  C   UNL A   1      33.720  33.774  28.022  1.00  0.00     0.202 C 
BRANCH   3   4
ATOM      4  C   UNL A   1      33.929  32.057  27.985  1.00  0.00     0.261 C 
BRANCH   4   5
ATOM      5  O   UNL A   1      33.433  30.654  26.872  1.00  0.00    -0.460 OA
BRANCH   5   6
ATOM      6  C   UNL A   1      32.677  29.346  26.804  1.00  0.00     0.338 C 
ATOM      7  O   UNL A   1      31.926  28.824  27.629  1.00  0.00    -0.246 OA
BRANCH   6   8
ATOM      8  C   UNL A   1      32.546  28.532  25.581  1.00  0.00     0.060 A 
ATOM      9  C   UNL A   1      30.096  26.009  24.032  1.00  0.00     0.046 C 
ATOM     10  C   UNL A   1      31.394  26.658  24.455  1.00  0.00    -0.026 A 
ATOM     11  C   UNL A   1      31.390  27.694  25.391  1.00  0.00     0.021 A 
ATOM     12  C   UNL A   1      32.624  26.427  23.835  1.00  0.00     0.052 A 
ATOM     13  C   UNL A   1      33.602  27.429  23.789  1.00  0.00     0.028 A 
ATOM     14  C   UNL A   1      33.574  28.488  24.681  1.00  0.00     0.018 A 
BRANCH  12  15
ATOM     15  N   UNL A   1      33.006  25.137  23.363  1.00  0.00    -0.279 N 
ATOM     16  H   UNL A   1      32.567  24.759  22.567  1.00  0.00     0.180 HD
BRANCH  15  17
ATOM     17  S   UNL A   1      34.234  24.229  24.172  1.00  0.00     0.262 S 
ATOM     18  O   UNL A   1      35.334  24.098  23.242  1.00  0.00    -0.201 OA
ATOM     19  O   UNL A   1      34.408  24.999  25.391  1.00  0.00    -0.201 OA
BRANCH  17  20
ATOM     20  C   UNL A   1      33.777  22.544  24.659  1.00  0.00     0.090 A 
ATOM     21  C   UNL A   1      34.701  21.499  24.559  1.00  0.00     0.024 A 
ATOM     22  C   UNL A   1      32.523  22.238  25.229  1.00  0.00    -0.029 A 
ATOM     23  C   UNL A   1      34.304  20.153  24.687  1.00  0.00     0.021 A 
ATOM     24  C   UNL A   1      32.137  20.883  25.380  1.00  0.00     0.024 A 
ATOM     25  C   UNL A   1      31.619  23.240  25.897  1.00  0.00     0.046 C 
ATOM     26  C   UNL A   1      33.001  19.838  25.053  1.00  0.00     0.052 A 
BRANCH  26  27
ATOM     27  C   UNL A   1      32.562  18.484  25.139  1.00  0.00     0.099 C 
ATOM     28  N   UNL A   1      32.152  17.382  25.207  1.00  0.00    -0.192 NA
ENDBRANCH  26  27
ENDBRANCH  17  20
ENDBRANCH  15  17
ENDBRANCH  12  15
ENDBRANCH   6   8
ENDBRANCH   5   6
ENDBRANCH   4   5
ENDBRANCH   3   4
ENDBRANCH   2   3
ENDBRANCH   1   2
BRANCH   1  29
ATOM     29  C   UNL A   1      33.865  35.334  30.692  1.00  0.00     0.188 C 
BRANCH  29  30
ATOM     30  O   UNL A   1      33.139  34.775  31.761  1.00  0.00    -0.376 OA
BRANCH  30  31
ATOM     31  C   UNL A   1      33.872  34.100  32.743  1.00  0.00     0.202 C 
BRANCH  31  32
ATOM     32  C   UNL A   1      35.351  33.921  32.386  1.00  0.00     0.261 C 
BRANCH  32  33
ATOM     33  O   UNL A   1      35.701  32.711  31.645  1.00  0.00    -0.460 OA
BRANCH  33  34
ATOM     34  C   UNL A   1      36.620  32.685  30.596  1.00  0.00     0.338 C 
ATOM     35  O   UNL A   1      36.848  33.678  29.926  1.00  0.00    -0.246 OA
BRANCH  34  36
ATOM     36  C   UNL A   1      37.547  31.515  30.681  1.00  0.00     0.060 A 
ATOM     37  C   UNL A   1      37.834  30.548  31.662  1.00  0.00     0.016 A 
ATOM     38  C   UNL A   1      38.262  31.381  29.566  1.00  0.00     0.016 A 
ATOM     39  C   UNL A   1      39.085  29.752  31.693  1.00  0.00     0.010 A 
ATOM     40  C   UNL A   1      39.499  30.802  29.734  1.00  0.00     0.010 A 
ATOM     41  C   UNL A   1      40.111  29.956  30.778  1.00  0.00    -0.014 A 
BRANCH  41  42
ATOM     42  C   UNL A   1      41.757  29.177  30.754  1.00  0.00     0.031 A 
ATOM     43  C   UNL A   1      42.368  27.699  29.842  1.00  0.00     0.074 A 
ATOM     44  C   UNL A   1      42.745  29.772  31.455  1.00  0.00     0.049 A 
ATOM     45  N   UNL A   1      43.026  26.705  30.398  1.00  0.00    -0.248 NA
ATOM     46  C   UNL A   1      41.903  27.086  28.438  1.00  0.00     0.031 C 
ATOM     47  C   UNL A   1      44.189  29.540  31.398  1.00  0.00     0.029 A 
ATOM     48  N   UNL A   1      42.632  30.828  32.362  1.00  0.00    -0.354 N 
ATOM     49  C   UNL A   1      42.987  25.615  29.487  1.00  0.00     0.074 A 
ATOM     50  C   UNL A   1      41.869  25.797  28.681  1.00  0.00     0.031 C 
ATOM     51  C   UNL A   1      44.764  30.164  32.447  1.00  0.00     0.029 A 
ATOM     52  C   UNL A   1      43.686  30.703  33.267  1.00  0.00     0.049 A 
ATOM     53  H   UNL A   1      41.940  31.527  32.361  1.00  0.00     0.167 HD
ATOM     54  C   UNL A   1      44.081  24.889  29.123  1.00  0.00     0.037 A 
ATOM     55  C   UNL A   1      43.359  30.351  34.541  1.00  0.00     0.037 A 
ATOM     56  C   UNL A   1      45.107  25.284  30.056  1.00  0.00     0.049 A 
ATOM     57  C   UNL A   1      43.874  28.943  34.778  1.00  0.00     0.074 A 
ATOM     58  C   UNL A   1      46.027  26.319  30.024  1.00  0.00     0.029 A 
ATOM     59  N   UNL A   1      44.827  25.040  31.391  1.00  0.00    -0.354 N 
ATOM     60  N   UNL A   1      44.051  28.041  33.840  1.00  0.00    -0.248 NA
ATOM     61  C   UNL A   1      44.422  28.529  36.062  1.00  0.00     0.031 C 
ATOM     62  C   UNL A   1      46.186  26.777  31.372  1.00  0.00     0.029 A 
ATOM     63  C   UNL A   1      45.397  25.999  32.208  1.00  0.00     0.049 A 
ATOM     64  H   UNL A   1      44.291  24.281  31.716  1.00  0.00     0.167 HD
ATOM     65  C   UNL A   1      44.754  26.982  34.348  1.00  0.00     0.074 A 
ATOM     66  C   UNL A   1      44.958  27.339  35.742  1.00  0.00     0.031 C 
ATOM     67  C   UNL A   1      45.174  25.887  33.643  1.00  0.00     0.037 A 
BRANCH  54  68
ATOM     68  C   UNL A   1      44.271  24.134  27.779  1.00  0.00     0.058 A 
ATOM     69  C   UNL A   1      43.648  22.881  27.618  1.00  0.00     0.135 A 
ATOM     70  C   UNL A   1      45.056  24.503  26.643  1.00  0.00     0.135 A 
ATOM     71  F   UNL A   1      42.831  22.399  28.565  1.00  0.00    -0.206 F 
ATOM     72  C   UNL A   1      43.821  22.062  26.486  1.00  0.00     0.059 A 
ATOM     73  C   UNL A   1      45.282  23.685  25.526  1.00  0.00     0.059 A 
ATOM     74  F   UNL A   1      45.628  25.698  26.491  1.00  0.00    -0.206 F 
ATOM     75  C   UNL A   1      44.656  22.462  25.449  1.00  0.00     0.060 A 
BRANCH  75  76
ATOM     76  S   UNL A   1      44.869  21.409  24.000  1.00  0.00     0.124 S 
ATOM     77  O   UNL A   1      44.245  22.206  22.949  1.00  0.00    -0.237 OA
ATOM     78  O   UNL A   1      46.320  21.281  23.927  1.00  0.00    -0.237 OA
ATOM     79  O   UNL A   1      44.154  20.183  24.353  1.00  0.00    -0.744 OA
ENDBRANCH  75  76
ENDBRANCH  54  68
BRANCH  55  80
ATOM     80  C   UNL A   1      42.100  31.053  35.015  1.00  0.00     0.058 A 
ATOM     81  C   UNL A   1      42.230  32.425  35.368  1.00  0.00     0.135 A 
ATOM     82  C   UNL A   1      40.788  30.618  34.784  1.00  0.00     0.135 A 
ATOM     83  F   UNL A   1      43.446  32.930  35.643  1.00  0.00    -0.206 F 
ATOM     84  C   UNL A   1      41.172  33.336  35.314  1.00  0.00     0.059 A 
ATOM     85  C   UNL A   1      39.690  31.515  34.773  1.00  0.00     0.059 A 
ATOM     86  F   UNL A   1      40.553  29.347  34.422  1.00  0.00    -0.206 F 
ATOM     87  C   UNL A   1      39.907  32.882  34.968  1.00  0.00     0.060 A 
BRANCH  87  88
ATOM     88  S   UNL A   1      38.637  34.141  34.626  1.00  0.00     0.124 S 
ATOM     89  O   UNL A   1      37.478  33.615  35.336  1.00  0.00    -0.237 OA
ATOM     90  O   UNL A   1      39.243  35.339  35.210  1.00  0.00    -0.237 OA
ATOM     91  O   UNL A   1      38.530  34.133  33.173  1.00  0.00    -0.744 OA
ENDBRANCH  87  88
ENDBRANCH  55  80
BRANCH  67  92
ATOM     92  C   UNL A   1      45.429  24.539  34.292  1.00  0.00     0.058 A 
ATOM     93  C   UNL A   1      46.713  24.082  34.628  1.00  0.00     0.135 A 
ATOM     94  C   UNL A   1      44.358  23.737  34.767  1.00  0.00     0.135 A 
ATOM     95  F   UNL A   1      47.812  24.814  34.396  1.00  0.00    -0.206 F 
ATOM     96  C   UNL A   1      46.926  22.856  35.246  1.00  0.00     0.059 A 
ATOM     97  C   UNL A   1      44.547  22.577  35.501  1.00  0.00     0.059 A 
ATOM     98  F   UNL A   1      43.072  24.047  34.544  1.00  0.00    -0.206 F 
ATOM     99  C   UNL A   1      45.836  22.105  35.666  1.00  0.00     0.060 A 
BRANCH  99 100
ATOM    100  S   UNL A   1      46.097  20.484  36.383  1.00  0.00     0.124 S 
ATOM    101  O   UNL A   1      45.231  19.666  35.540  1.00  0.00    -0.237 OA
ATOM    102  O   UNL A   1      47.531  20.279  36.203  1.00  0.00    -0.237 OA
ATOM    103  O   UNL A   1      45.661  20.653  37.764  1.00  0.00    -0.744 OA
ENDBRANCH  99 100
ENDBRANCH  67  92
ENDBRANCH  41  42
ENDBRANCH  34  36
ENDBRANCH  33  34
ENDBRANCH  32  33
ENDBRANCH  31  32
ENDBRANCH  30  31
ENDBRANCH  29  30
ENDBRANCH   1  29
TORSDOF 24
ENDMDL
MODEL 2
REMARK VINA RESULT:     -10.6      1.873      2.456
REMARK SMILES Cc1cc(C(=O)OCCOCCOCCOC(=O)c2ccc(-c3c4nc(c(-c5c(F)cc(S(=O)(=O)[O-])cc5F)c5ccc([nH]5)c(-c5c(F)cc(S(=O)(=O)[O-])cc5F)c5nc(c(-c6c(F)cc(S(=O)(=O)[O-])cc6F)c6ccc3[nH]6)C=C5)C=C4)cc2)ccc1NS(=O)(=O)c1ccc(C#N)cc1C
REMARK SMILES IDX 11 1 10 2 9 3 8 4 7 5 5 6 6 7 4 8 1 9 2 10 3 11 87 12 86 13
REMARK SMILES IDX 85 14 88 15 89 17 90 18 91 19 92 20 93 21 99 22 94 23 98 24
REMARK SMILES IDX 100 25 95 26 96 27 97 28 12 29 13 30 14 31 15 32 16 33 17 34
REMARK SMILES IDX 18 35 19 36 20 37 84 38 21 39 83 40 22 41 23 42 24 43 77 44
REMARK SMILES IDX 25 45 82 46 76 47 78 48 26 49 81 50 75 51 74 52 27 54 61 55
REMARK SMILES IDX 40 56 60 57 41 58 44 59 59 60 79 61 42 62 43 63 58 65 80 66
REMARK SMILES IDX 45 67 28 68 29 69 38 70 30 71 31 72 37 73 39 74 32 75 33 76
REMARK SMILES IDX 34 77 35 78 36 79 62 80 63 81 72 82 64 83 65 84 71 85 73 86
REMARK SMILES IDX 66 87 67 88 68 89 69 90 70 91 46 92 47 93 56 94 48 95 49 96
REMARK SMILES IDX 55 97 57 98 50 99 51 100 52 101 53 102 54 103
REMARK H PARENT 88 16 78 53 44 64
REMARK Flexibility Score: inf
ROOT
ATOM      1  C   UNL A   1      33.778  35.045  29.413  1.00  0.00     0.188 C 
ENDROOT
BRANCH   1   2
ATOM      2  O   UNL A   1      32.651  34.744  28.581  1.00  0.00    -0.376 OA
BRANCH   2   3
ATOM      3  C   UNL A   1      32.523  33.670  27.629  1.00  0.00     0.202 C 
BRANCH   3   4
ATOM      4  C   UNL A   1      32.781  31.961  27.566  1.00  0.00     0.261 C 
BRANCH   4   5
ATOM      5  O   UNL A   1      31.884  30.477  26.898  1.00  0.00    -0.460 OA
BRANCH   5   6
ATOM      6  C   UNL A   1      32.002  29.001  26.595  1.00  0.00     0.338 C 
ATOM      7  O   UNL A   1      32.453  28.087  27.288  1.00  0.00    -0.246 OA
BRANCH   6   8
ATOM      8  C   UNL A   1      31.373  28.343  25.435  1.00  0.00     0.060 A 
ATOM      9  C   UNL A   1      30.401  24.807  24.287  1.00  0.00     0.046 C 
ATOM     10  C   UNL A   1      30.930  26.223  24.246  1.00  0.00    -0.026 A 
ATOM     11  C   UNL A   1      31.173  26.916  25.433  1.00  0.00     0.021 A 
ATOM     12  C   UNL A   1      31.025  26.989  23.083  1.00  0.00     0.052 A 
ATOM     13  C   UNL A   1      30.892  28.382  23.131  1.00  0.00     0.028 A 
ATOM     14  C   UNL A   1      31.082  29.073  24.316  1.00  0.00     0.018 A 
BRANCH  12  15
ATOM     15  N   UNL A   1      31.415  26.426  21.832  1.00  0.00    -0.279 N 
ATOM     16  H   UNL A   1      30.747  26.319  21.117  1.00  0.00     0.180 HD
BRANCH  15  17
ATOM     17  S   UNL A   1      33.047  25.930  21.557  1.00  0.00     0.262 S 
ATOM     18  O   UNL A   1      33.060  25.229  20.291  1.00  0.00    -0.201 OA
ATOM     19  O   UNL A   1      33.759  27.188  21.691  1.00  0.00    -0.201 OA
BRANCH  17  20
ATOM     20  C   UNL A   1      33.740  24.784  22.778  1.00  0.00     0.090 A 
ATOM     21  C   UNL A   1      34.390  25.266  23.919  1.00  0.00     0.024 A 
ATOM     22  C   UNL A   1      33.583  23.386  22.674  1.00  0.00    -0.029 A 
ATOM     23  C   UNL A   1      35.151  24.417  24.745  1.00  0.00     0.021 A 
ATOM     24  C   UNL A   1      34.330  22.534  23.524  1.00  0.00     0.024 A 
ATOM     25  C   UNL A   1      32.514  22.702  21.863  1.00  0.00     0.046 C 
ATOM     26  C   UNL A   1      35.163  23.045  24.520  1.00  0.00     0.052 A 
BRANCH  26  27
ATOM     27  C   UNL A   1      35.965  22.171  25.312  1.00  0.00     0.099 C 
ATOM     28  N   UNL A   1      36.669  21.471  25.945  1.00  0.00    -0.192 NA
ENDBRANCH  26  27
ENDBRANCH  17  20
ENDBRANCH  15  17
ENDBRANCH  12  15
ENDBRANCH   6   8
ENDBRANCH   5   6
ENDBRANCH   4   5
ENDBRANCH   3   4
ENDBRANCH   2   3
ENDBRANCH   1   2
BRANCH   1  29
ATOM     29  C   UNL A   1      34.831  33.999  29.637  1.00  0.00     0.188 C 
BRANCH  29  30
ATOM     30  O   UNL A   1      34.340  33.098  30.601  1.00  0.00    -0.376 OA
BRANCH  30  31
ATOM     31  C   UNL A   1      35.112  32.915  31.752  1.00  0.00     0.202 C 
BRANCH  31  32
ATOM     32  C   UNL A   1      35.795  34.196  32.241  1.00  0.00     0.261 C 
BRANCH  32  33
ATOM     33  O   UNL A   1      37.231  34.306  31.991  1.00  0.00    -0.460 OA
BRANCH  33  34
ATOM     34  C   UNL A   1      38.204  34.067  32.962  1.00  0.00     0.338 C 
ATOM     35  O   UNL A   1      38.180  34.637  34.040  1.00  0.00    -0.246 OA
BRANCH  34  36
ATOM     36  C   UNL A   1      38.955  32.798  32.714  1.00  0.00     0.060 A 
ATOM     37  C   UNL A   1      38.987  31.531  33.324  1.00  0.00     0.016 A 
ATOM     38  C   UNL A   1      39.784  32.921  31.679  1.00  0.00     0.016 A 
ATOM     39  C   UNL A   1      40.111  30.575  33.178  1.00  0.00     0.010 A 
ATOM     40  C   UNL A   1      40.905  32.124  31.735  1.00  0.00     0.010 A 
ATOM     41  C   UNL A   1      41.264  30.896  32.471  1.00  0.00    -0.014 A 
BRANCH  41  42
ATOM     42  C   UNL A   1      42.786  29.909  32.310  1.00  0.00     0.031 A 
ATOM     43  C   UNL A   1      43.180  28.488  31.209  1.00  0.00     0.074 A 
ATOM     44  C   UNL A   1      43.853  30.270  33.056  1.00  0.00     0.049 A 
ATOM     45  N   UNL A   1      43.698  27.351  31.621  1.00  0.00    -0.248 NA
ATOM     46  C   UNL A   1      42.624  28.125  29.751  1.00  0.00     0.031 C 
ATOM     47  C   UNL A   1      45.250  29.852  32.934  1.00  0.00     0.029 A 
ATOM     48  N   UNL A   1      43.893  31.209  34.087  1.00  0.00    -0.354 N 
ATOM     49  C   UNL A   1      43.501  26.400  30.584  1.00  0.00     0.074 A 
ATOM     50  C   UNL A   1      42.414  26.832  29.835  1.00  0.00     0.031 C 
ATOM     51  C   UNL A   1      45.914  30.256  34.038  1.00  0.00     0.029 A 
ATOM     52  C   UNL A   1      44.927  30.830  34.944  1.00  0.00     0.049 A 
ATOM     53  H   UNL A   1      43.305  31.991  34.190  1.00  0.00     0.167 HD
ATOM     54  C   UNL A   1      44.481  25.583  30.107  1.00  0.00     0.037 A 
ATOM     55  C   UNL A   1      44.563  30.368  36.173  1.00  0.00     0.037 A 
ATOM     56  C   UNL A   1      45.560  25.714  31.056  1.00  0.00     0.049 A 
ATOM     57  C   UNL A   1      44.880  28.885  36.222  1.00  0.00     0.074 A 
ATOM     58  C   UNL A   1      46.614  26.609  31.128  1.00  0.00     0.029 A 
ATOM     59  N   UNL A   1      45.258  25.344  32.357  1.00  0.00    -0.354 N 
ATOM     60  N   UNL A   1      44.924  28.092  35.176  1.00  0.00    -0.248 NA
ATOM     61  C   UNL A   1      45.375  28.242  37.431  1.00  0.00     0.031 C 
ATOM     62  C   UNL A   1      46.845  26.868  32.519  1.00  0.00     0.029 A 
ATOM     63  C   UNL A   1      45.962  26.106  33.271  1.00  0.00     0.049 A 
ATOM     64  H   UNL A   1      44.624  24.631  32.599  1.00  0.00     0.167 HD
ATOM     65  C   UNL A   1      45.477  26.892  35.532  1.00  0.00     0.074 A 
ATOM     66  C   UNL A   1      45.739  27.040  36.954  1.00  0.00     0.031 C 
ATOM     67  C   UNL A   1      45.736  25.847  34.687  1.00  0.00     0.037 A 
BRANCH  54  68
ATOM     68  C   UNL A   1      44.555  24.983  28.676  1.00  0.00     0.058 A 
ATOM     69  C   UNL A   1      44.165  23.642  28.487  1.00  0.00     0.135 A 
ATOM     70  C   UNL A   1      45.025  25.589  27.470  1.00  0.00     0.135 A 
ATOM     71  F   UNL A   1      43.651  22.933  29.502  1.00  0.00    -0.206 F 
ATOM     72  C   UNL A   1      44.276  22.962  27.260  1.00  0.00     0.059 A 
ATOM     73  C   UNL A   1      45.188  24.919  26.248  1.00  0.00     0.059 A 
ATOM     74  F   UNL A   1      45.317  26.886  27.354  1.00  0.00    -0.206 F 
ATOM     75  C   UNL A   1      44.806  23.602  26.146  1.00  0.00     0.060 A 
BRANCH  75  76
ATOM     76  S   UNL A   1      44.939  22.724  24.575  1.00  0.00     0.124 S 
ATOM     77  O   UNL A   1      45.936  23.518  23.865  1.00  0.00    -0.237 OA
ATOM     78  O   UNL A   1      45.366  21.397  25.003  1.00  0.00    -0.237 OA
ATOM     79  O   UNL A   1      43.587  22.793  24.024  1.00  0.00    -0.744 OA
ENDBRANCH  75  76
ENDBRANCH  54  68
BRANCH  55  80
ATOM     80  C   UNL A   1      43.417  31.171  36.760  1.00  0.00     0.058 A 
ATOM     81  C   UNL A   1      43.758  32.399  37.393  1.00  0.00     0.135 A 
ATOM     82  C   UNL A   1      42.065  31.029  36.421  1.00  0.00     0.135 A 
ATOM     83  F   UNL A   1      45.025  32.616  37.789  1.00  0.00    -0.206 F 
ATOM     84  C   UNL A   1      42.873  33.473  37.512  1.00  0.00     0.059 A 
ATOM     85  C   UNL A   1      41.136  32.089  36.578  1.00  0.00     0.059 A 
ATOM     86  F   UNL A   1      41.638  29.919  35.799  1.00  0.00    -0.206 F 
ATOM     87  C   UNL A   1      41.570  33.329  37.057  1.00  0.00     0.060 A 
BRANCH  87  88
ATOM     88  S   UNL A   1      40.551  34.834  36.963  1.00  0.00     0.124 S 
ATOM     89  O   UNL A   1      39.207  34.315  37.184  1.00  0.00    -0.237 OA
ATOM     90  O   UNL A   1      41.104  35.636  38.055  1.00  0.00    -0.237 OA
ATOM     91  O   UNL A   1      40.807  35.336  35.619  1.00  0.00    -0.744 OA
ENDBRANCH  87  88
ENDBRANCH  55  80
BRANCH  67  92
ATOM     92  C   UNL A   1      45.807  24.406  35.159  1.00  0.00     0.058 A 
ATOM     93  C   UNL A   1      44.726  23.516  35.067  1.00  0.00     0.135 A 
ATOM     94  C   UNL A   1      47.040  23.822  35.553  1.00  0.00     0.135 A 
ATOM     95  F   UNL A   1      43.544  23.883  34.551  1.00  0.00    -0.206 F 
ATOM     96  C   UNL A   1      44.817  22.192  35.480  1.00  0.00     0.059 A 
ATOM     97  C   UNL A   1      47.182  22.474  35.842  1.00  0.00     0.059 A 
ATOM     98  F   UNL A   1      48.169  24.536  35.671  1.00  0.00    -0.206 F 
ATOM     99  C   UNL A   1      46.048  21.686  35.878  1.00  0.00     0.060 A 
BRANCH  99 100
ATOM    100  S   UNL A   1      46.159  20.008  36.497  1.00  0.00     0.124 S 
ATOM    101  O   UNL A   1      45.662  20.181  37.858  1.00  0.00    -0.237 OA
ATOM    102  O   UNL A   1      45.281  19.272  35.593  1.00  0.00    -0.237 OA
ATOM    103  O   UNL A   1      47.579  19.697  36.375  1.00  0.00    -0.744 OA
ENDBRANCH  99 100
ENDBRANCH  67  92
ENDBRANCH  41  42
ENDBRANCH  34  36
ENDBRANCH  33  34
ENDBRANCH  32  33
ENDBRANCH  31  32
ENDBRANCH  30  31
ENDBRANCH  29  30
ENDBRANCH   1  29
TORSDOF 24
ENDMDL
MODEL 3
REMARK VINA RESULT:     -10.4      5.365     12.827
REMARK SMILES Cc1cc(C(=O)OCCOCCOCCOC(=O)c2ccc(-c3c4nc(c(-c5c(F)cc(S(=O)(=O)[O-])cc5F)c5ccc([nH]5)c(-c5c(F)cc(S(=O)(=O)[O-])cc5F)c5nc(c(-c6c(F)cc(S(=O)(=O)[O-])cc6F)c6ccc3[nH]6)C=C5)C=C4)cc2)ccc1NS(=O)(=O)c1ccc(C#N)cc1C
REMARK SMILES IDX 11 1 10 2 9 3 8 4 7 5 5 6 6 7 4 8 1 9 2 10 3 11 87 12 86 13
REMARK SMILES IDX 85 14 88 15 89 17 90 18 91 19 92 20 93 21 99 22 94 23 98 24
REMARK SMILES IDX 100 25 95 26 96 27 97 28 12 29 13 30 14 31 15 32 16 33 17 34
REMARK SMILES IDX 18 35 19 36 20 37 84 38 21 39 83 40 22 41 23 42 24 43 77 44
REMARK SMILES IDX 25 45 82 46 76 47 78 48 26 49 81 50 75 51 74 52 27 54 61 55
REMARK SMILES IDX 40 56 60 57 41 58 44 59 59 60 79 61 42 62 43 63 58 65 80 66
REMARK SMILES IDX 45 67 28 68 29 69 38 70 30 71 31 72 37 73 39 74 32 75 33 76
REMARK SMILES IDX 34 77 35 78 36 79 62 80 63 81 72 82 64 83 65 84 71 85 73 86
REMARK SMILES IDX 66 87 67 88 68 89 69 90 70 91 46 92 47 93 56 94 48 95 49 96
REMARK SMILES IDX 55 97 57 98 50 99 51 100 52 101 53 102 54 103
REMARK H PARENT 88 16 78 53 44 64
REMARK Flexibility Score: inf
ROOT
ATOM      1  C   UNL A   1      44.519  20.118  24.666  1.00  0.00     0.188 C 
ENDROOT
BRANCH   1   2
ATOM      2  O   UNL A   1      43.560  19.091  24.950  1.00  0.00    -0.376 OA
BRANCH   2   3
ATOM      3  C   UNL A   1      42.360  19.205  25.739  1.00  0.00     0.202 C 
BRANCH   3   4
ATOM      4  C   UNL A   1      41.485  20.428  26.594  1.00  0.00     0.261 C 
BRANCH   4   5
ATOM      5  O   UNL A   1      39.970  21.464  26.308  1.00  0.00    -0.460 OA
BRANCH   5   6
ATOM      6  C   UNL A   1      39.388  22.854  26.431  1.00  0.00     0.338 C 
ATOM      7  O   UNL A   1      38.217  23.229  26.354  1.00  0.00    -0.246 OA
BRANCH   6   8
ATOM      8  C   UNL A   1      40.150  24.029  26.893  1.00  0.00     0.060 A 
ATOM      9  C   UNL A   1      42.774  24.913  29.557  1.00  0.00     0.046 C 
ATOM     10  C   UNL A   1      41.555  25.018  28.669  1.00  0.00    -0.026 A 
ATOM     11  C   UNL A   1      41.097  23.899  27.971  1.00  0.00     0.021 A 
ATOM     12  C   UNL A   1      40.935  26.221  28.329  1.00  0.00     0.052 A 
ATOM     13  C   UNL A   1      40.288  26.371  27.096  1.00  0.00     0.028 A 
ATOM     14  C   UNL A   1      39.875  25.264  26.373  1.00  0.00     0.018 A 
BRANCH  12  15
ATOM     15  N   UNL A   1      40.790  27.290  29.262  1.00  0.00    -0.279 N 
ATOM     16  H   UNL A   1      41.524  27.936  29.381  1.00  0.00     0.180 HD
BRANCH  15  17
ATOM     17  S   UNL A   1      39.340  27.467  30.184  1.00  0.00     0.262 S 
ATOM     18  O   UNL A   1      38.624  26.215  30.077  1.00  0.00    -0.201 OA
ATOM     19  O   UNL A   1      39.864  27.890  31.471  1.00  0.00    -0.201 OA
BRANCH  17  20
ATOM     20  C   UNL A   1      38.197  28.756  29.619  1.00  0.00     0.090 A 
ATOM     21  C   UNL A   1      37.858  28.864  28.266  1.00  0.00     0.024 A 
ATOM     22  C   UNL A   1      37.548  29.633  30.514  1.00  0.00    -0.029 A 
ATOM     23  C   UNL A   1      37.183  29.995  27.766  1.00  0.00     0.021 A 
ATOM     24  C   UNL A   1      36.848  30.755  30.006  1.00  0.00     0.024 A 
ATOM     25  C   UNL A   1      37.352  29.367  31.982  1.00  0.00     0.046 C 
ATOM     26  C   UNL A   1      36.715  30.974  28.635  1.00  0.00     0.052 A 
BRANCH  26  27
ATOM     27  C   UNL A   1      36.074  32.151  28.149  1.00  0.00     0.099 C 
ATOM     28  N   UNL A   1      35.511  33.094  27.723  1.00  0.00    -0.192 NA
ENDBRANCH  26  27
ENDBRANCH  17  20
ENDBRANCH  15  17
ENDBRANCH  12  15
ENDBRANCH   6   8
ENDBRANCH   5   6
ENDBRANCH   4   5
ENDBRANCH   3   4
ENDBRANCH   2   3
ENDBRANCH   1   2
BRANCH   1  29
ATOM     29  C   UNL A   1      44.891  21.100  25.739  1.00  0.00     0.188 C 
BRANCH  29  30
ATOM     30  O   UNL A   1      46.111  21.698  25.366  1.00  0.00    -0.376 OA
BRANCH  30  31
ATOM     31  C   UNL A   1      46.384  22.964  25.891  1.00  0.00     0.202 C 
BRANCH  31  32
ATOM     32  C   UNL A   1      46.454  24.065  24.827  1.00  0.00     0.261 C 
BRANCH  32  33
ATOM     33  O   UNL A   1      45.223  24.815  24.584  1.00  0.00    -0.460 OA
BRANCH  33  34
ATOM     34  C   UNL A   1      44.291  25.114  25.578  1.00  0.00     0.338 C 
ATOM     35  O   UNL A   1      43.375  24.353  25.840  1.00  0.00    -0.246 OA
BRANCH  34  36
ATOM     36  C   UNL A   1      44.778  26.174  26.514  1.00  0.00     0.060 A 
ATOM     37  C   UNL A   1      45.344  26.174  27.802  1.00  0.00     0.016 A 
ATOM     38  C   UNL A   1      44.623  27.389  25.992  1.00  0.00     0.016 A 
ATOM     39  C   UNL A   1      45.350  27.355  28.699  1.00  0.00     0.010 A 
ATOM     40  C   UNL A   1      44.440  28.397  26.911  1.00  0.00     0.010 A 
ATOM     41  C   UNL A   1      44.726  28.547  28.351  1.00  0.00    -0.014 A 
BRANCH  41  42
ATOM     42  C   UNL A   1      44.512  30.037  29.377  1.00  0.00     0.031 A 
ATOM     43  C   UNL A   1      42.987  30.941  29.869  1.00  0.00     0.074 A 
ATOM     44  C   UNL A   1      45.614  30.574  29.943  1.00  0.00     0.049 A 
ATOM     45  N   UNL A   1      42.824  32.241  29.746  1.00  0.00    -0.248 NA
ATOM     46  C   UNL A   1      41.493  30.407  30.086  1.00  0.00     0.031 C 
ATOM     47  C   UNL A   1      45.712  31.572  31.010  1.00  0.00     0.029 A 
ATOM     48  N   UNL A   1      46.947  30.242  29.700  1.00  0.00    -0.354 N 
ATOM     49  C   UNL A   1      41.432  32.501  29.864  1.00  0.00     0.074 A 
ATOM     50  C   UNL A   1      40.766  31.334  29.508  1.00  0.00     0.031 C 
ATOM     51  C   UNL A   1      46.990  32.001  31.077  1.00  0.00     0.029 A 
ATOM     52  C   UNL A   1      47.708  31.379  29.971  1.00  0.00     0.049 A 
ATOM     53  H   UNL A   1      47.286  29.370  29.396  1.00  0.00     0.167 HD
ATOM     54  C   UNL A   1      40.904  33.465  30.670  1.00  0.00     0.037 A 
ATOM     55  C   UNL A   1      48.282  31.999  28.903  1.00  0.00     0.037 A 
ATOM     56  C   UNL A   1      42.037  34.263  31.073  1.00  0.00     0.049 A 
ATOM     57  C   UNL A   1      47.583  33.332  28.711  1.00  0.00     0.074 A 
ATOM     58  C   UNL A   1      42.917  34.134  32.134  1.00  0.00     0.029 A 
ATOM     59  N   UNL A   1      42.737  34.870  30.043  1.00  0.00    -0.354 N 
ATOM     60  N   UNL A   1      46.347  33.589  29.072  1.00  0.00    -0.248 NA
ATOM     61  C   UNL A   1      48.302  34.527  28.291  1.00  0.00     0.031 C 
ATOM     62  C   UNL A   1      44.202  34.558  31.663  1.00  0.00     0.029 A 
ATOM     63  C   UNL A   1      44.083  34.971  30.343  1.00  0.00     0.049 A 
ATOM     64  H   UNL A   1      42.329  35.187  29.205  1.00  0.00     0.167 HD
ATOM     65  C   UNL A   1      46.115  34.936  28.988  1.00  0.00     0.074 A 
ATOM     66  C   UNL A   1      47.371  35.474  28.494  1.00  0.00     0.031 C 
ATOM     67  C   UNL A   1      44.957  35.573  29.344  1.00  0.00     0.037 A 
BRANCH  54  68
ATOM     68  C   UNL A   1      39.490  33.448  31.311  1.00  0.00     0.058 A 
ATOM     69  C   UNL A   1      38.407  33.955  30.566  1.00  0.00     0.135 A 
ATOM     70  C   UNL A   1      39.100  33.023  32.619  1.00  0.00     0.135 A 
ATOM     71  F   UNL A   1      38.579  34.353  29.298  1.00  0.00    -0.206 F 
ATOM     72  C   UNL A   1      37.099  34.078  31.073  1.00  0.00     0.059 A 
ATOM     73  C   UNL A   1      37.816  33.179  33.162  1.00  0.00     0.059 A 
ATOM     74  F   UNL A   1      39.908  32.379  33.463  1.00  0.00    -0.206 F 
ATOM     75  C   UNL A   1      36.813  33.704  32.380  1.00  0.00     0.060 A 
BRANCH  75  76
ATOM     76  S   UNL A   1      35.134  33.859  33.020  1.00  0.00     0.124 S 
ATOM     77  O   UNL A   1      34.914  35.300  32.957  1.00  0.00    -0.237 OA
ATOM     78  O   UNL A   1      34.371  33.055  32.072  1.00  0.00    -0.237 OA
ATOM     79  O   UNL A   1      35.224  33.306  34.370  1.00  0.00    -0.744 OA
ENDBRANCH  75  76
ENDBRANCH  54  68
BRANCH  55  80
ATOM     80  C   UNL A   1      48.835  31.002  27.902  1.00  0.00     0.058 A 
ATOM     81  C   UNL A   1      50.126  30.471  28.178  1.00  0.00     0.135 A 
ATOM     82  C   UNL A   1      48.079  30.279  26.970  1.00  0.00     0.135 A 
ATOM     83  F   UNL A   1      50.942  31.113  29.034  1.00  0.00    -0.206 F 
ATOM     84  C   UNL A   1      50.561  29.228  27.713  1.00  0.00     0.059 A 
ATOM     85  C   UNL A   1      48.521  29.038  26.445  1.00  0.00     0.059 A 
ATOM     86  F   UNL A   1      46.838  30.678  26.653  1.00  0.00    -0.206 F 
ATOM     87  C   UNL A   1      49.732  28.489  26.882  1.00  0.00     0.060 A 
BRANCH  87  88
ATOM     88  S   UNL A   1      50.212  26.766  26.546  1.00  0.00     0.124 S 
ATOM     89  O   UNL A   1      48.973  26.191  26.036  1.00  0.00    -0.237 OA
ATOM     90  O   UNL A   1      51.278  26.942  25.559  1.00  0.00    -0.237 OA
ATOM     91  O   UNL A   1      50.634  26.269  27.849  1.00  0.00    -0.744 OA
ENDBRANCH  87  88
ENDBRANCH  55  80
BRANCH  67  92
ATOM     92  C   UNL A   1      44.531  36.901  28.746  1.00  0.00     0.058 A 
ATOM     93  C   UNL A   1      45.055  38.133  29.166  1.00  0.00     0.135 A 
ATOM     94  C   UNL A   1      43.707  36.956  27.590  1.00  0.00     0.135 A 
ATOM     95  F   UNL A   1      45.977  38.221  30.136  1.00  0.00    -0.206 F 
ATOM     96  C   UNL A   1      44.672  39.338  28.589  1.00  0.00     0.059 A 
ATOM     97  C   UNL A   1      43.421  38.135  26.919  1.00  0.00     0.059 A 
ATOM     98  F   UNL A   1      43.145  35.863  27.054  1.00  0.00    -0.206 F 
ATOM     99  C   UNL A   1      43.844  39.327  27.474  1.00  0.00     0.060 A 
BRANCH  99 100
ATOM    100  S   UNL A   1      43.274  40.877  26.777  1.00  0.00     0.124 S 
ATOM    101  O   UNL A   1      43.884  41.834  27.695  1.00  0.00    -0.237 OA
ATOM    102  O   UNL A   1      43.833  40.850  25.429  1.00  0.00    -0.237 OA
ATOM    103  O   UNL A   1      41.822  40.764  26.851  1.00  0.00    -0.744 OA
ENDBRANCH  99 100
ENDBRANCH  67  92
ENDBRANCH  41  42
ENDBRANCH  34  36
ENDBRANCH  33  34
ENDBRANCH  32  33
ENDBRANCH  31  32
ENDBRANCH  30  31
ENDBRANCH  29  30
ENDBRANCH   1  29
TORSDOF 24
ENDMDL
