MODEL 1
REMARK VINA RESULT:      -9.1      0.000      0.000
REMARK SMILES N#CCS(=O)(=O)NC[C@H]1CC[C@H](C(=O)OCCOCCOCCOC(=O)c2ccc(-c3c4nc(c(-c5c(F)cc(S(=O)(=O)[O-])cc5F)c5ccc([nH]5)c(-c5c(F)cc(S(=O)(=O)[O-])cc5F)c5nc(c(-c6c(F)cc(S(=O)(=O)[O-])cc6F)c6ccc3[nH]6)C=C5)C=C4)cc2)O1
REMARK SMILES IDX 19 1 18 2 17 3 16 4 15 5 13 6 14 7 12 8 9 9 10 10 93 11
REMARK SMILES IDX 11 12 8 13 7 14 4 16 5 17 6 18 3 19 2 20 1 21 20 22 21 23
REMARK SMILES IDX 22 24 23 25 24 26 25 27 26 28 27 29 28 30 92 31 29 32 91 33
REMARK SMILES IDX 30 34 31 35 32 36 85 37 33 38 90 39 84 40 86 41 34 42 89 43
REMARK SMILES IDX 83 44 82 45 35 47 69 48 48 49 68 50 49 51 52 52 67 53 87 54
REMARK SMILES IDX 50 55 51 56 66 58 88 59 53 60 36 61 37 62 46 63 38 64 39 65
REMARK SMILES IDX 45 66 47 67 40 68 41 69 42 70 43 71 44 72 70 73 71 74 80 75
REMARK SMILES IDX 72 76 73 77 79 78 81 79 74 80 75 81 76 82 77 83 78 84 54 85
REMARK SMILES IDX 55 86 64 87 56 88 57 89 63 90 65 91 58 92 59 93 60 94 61 95
REMARK SMILES IDX 62 96
REMARK H PARENT 7 15 86 46 52 57
REMARK Flexibility Score: inf
ROOT
ATOM      1  C   UNL A   1      40.183  21.529  26.716  1.00  0.00     0.188 C 
ENDROOT
BRANCH   1   2
ATOM      2  O   UNL A   1      38.888  22.034  26.444  1.00  0.00    -0.376 OA
BRANCH   2   3
ATOM      3  C   UNL A   1      38.154  21.422  25.387  1.00  0.00     0.202 C 
BRANCH   3   4
ATOM      4  C   UNL A   1      36.654  21.740  25.231  1.00  0.00     0.261 C 
BRANCH   4   5
ATOM      5  O   UNL A   1      35.846  20.608  24.836  1.00  0.00    -0.461 OA
BRANCH   5   6
ATOM      6  C   UNL A   1      34.503  20.795  24.915  1.00  0.00     0.335 C 
ATOM      7  O   UNL A   1      33.728  19.937  25.331  1.00  0.00    -0.249 OA
BRANCH   6   8
ATOM      8  C   UNL A   1      34.025  22.203  24.533  1.00  0.00     0.228 C 
ATOM      9  C   UNL A   1      31.733  22.376  24.918  1.00  0.00     0.134 C 
ATOM     10  C   UNL A   1      31.925  22.207  23.421  1.00  0.00     0.037 C 
ATOM     11  O   UNL A   1      33.030  22.528  25.507  1.00  0.00    -0.362 OA
ATOM     12  C   UNL A   1      33.366  22.573  23.218  1.00  0.00     0.047 C 
BRANCH   9  13
ATOM     13  C   UNL A   1      30.940  23.605  25.357  1.00  0.00     0.130 C 
BRANCH  13  14
ATOM     14  N   UNL A   1      30.348  24.366  24.241  1.00  0.00    -0.212 NA
ATOM     15  H   UNL A   1      30.326  23.724  23.450  1.00  0.00     0.141 HD
BRANCH  14  16
ATOM     16  S   UNL A   1      30.974  25.799  23.644  1.00  0.00     0.225 S 
ATOM     17  O   UNL A   1      31.479  25.601  22.307  1.00  0.00    -0.211 OA
ATOM     18  O   UNL A   1      31.911  26.196  24.680  1.00  0.00    -0.211 OA
BRANCH  16  19
ATOM     19  C   UNL A   1      29.671  27.009  23.653  1.00  0.00     0.273 C 
BRANCH  19  20
ATOM     20  C   UNL A   1      29.893  28.023  22.645  1.00  0.00     0.080 C 
ATOM     21  N   UNL A   1      29.962  28.919  21.904  1.00  0.00    -0.197 NA
ENDBRANCH  19  20
ENDBRANCH  16  19
ENDBRANCH  14  16
ENDBRANCH  13  14
ENDBRANCH   9  13
ENDBRANCH   6   8
ENDBRANCH   5   6
ENDBRANCH   4   5
ENDBRANCH   3   4
ENDBRANCH   2   3
ENDBRANCH   1   2
BRANCH   1  22
ATOM     22  C   UNL A   1      41.347  22.487  26.475  1.00  0.00     0.188 C 
BRANCH  22  23
ATOM     23  O   UNL A   1      42.238  22.179  25.428  1.00  0.00    -0.376 OA
BRANCH  23  24
ATOM     24  C   UNL A   1      43.326  23.025  25.077  1.00  0.00     0.202 C 
BRANCH  24  25
ATOM     25  C   UNL A   1      43.819  24.259  25.876  1.00  0.00     0.261 C 
BRANCH  25  26
ATOM     26  O   UNL A   1      43.460  25.580  25.449  1.00  0.00    -0.460 OA
BRANCH  26  27
ATOM     27  C   UNL A   1      42.177  25.975  25.656  1.00  0.00     0.338 C 
ATOM     28  O   UNL A   1      41.208  25.618  25.010  1.00  0.00    -0.246 OA
BRANCH  27  29
ATOM     29  C   UNL A   1      42.110  26.657  26.987  1.00  0.00     0.060 A 
ATOM     30  C   UNL A   1      41.239  26.126  27.953  1.00  0.00     0.016 A 
ATOM     31  C   UNL A   1      42.948  27.722  27.329  1.00  0.00     0.016 A 
ATOM     32  C   UNL A   1      41.166  26.683  29.235  1.00  0.00     0.010 A 
ATOM     33  C   UNL A   1      42.852  28.299  28.606  1.00  0.00     0.010 A 
ATOM     34  C   UNL A   1      41.935  27.808  29.557  1.00  0.00    -0.014 A 
BRANCH  34  35
ATOM     35  C   UNL A   1      41.640  28.593  30.790  1.00  0.00     0.031 A 
ATOM     36  C   UNL A   1      40.474  29.551  30.760  1.00  0.00     0.074 A 
ATOM     37  C   UNL A   1      42.363  28.464  31.920  1.00  0.00     0.049 A 
ATOM     38  N   UNL A   1      40.069  30.402  31.667  1.00  0.00    -0.248 NA
ATOM     39  C   UNL A   1      39.658  29.547  29.534  1.00  0.00     0.031 C 
ATOM     40  C   UNL A   1      43.480  27.542  32.111  1.00  0.00     0.029 A 
ATOM     41  N   UNL A   1      42.269  29.128  33.122  1.00  0.00    -0.354 N 
ATOM     42  C   UNL A   1      38.965  31.046  31.116  1.00  0.00     0.074 A 
ATOM     43  C   UNL A   1      38.781  30.507  29.786  1.00  0.00     0.031 C 
ATOM     44  C   UNL A   1      43.981  27.712  33.349  1.00  0.00     0.029 A 
ATOM     45  C   UNL A   1      43.250  28.783  34.025  1.00  0.00     0.049 A 
ATOM     46  H   UNL A   1      41.567  29.789  33.318  1.00  0.00     0.167 HD
ATOM     47  C   UNL A   1      38.172  31.996  31.668  1.00  0.00     0.037 A 
ATOM     48  C   UNL A   1      43.544  29.293  35.242  1.00  0.00     0.037 A 
ATOM     49  C   UNL A   1      38.356  32.531  32.992  1.00  0.00     0.049 A 
ATOM     50  C   UNL A   1      42.697  30.411  35.804  1.00  0.00     0.074 A 
ATOM     51  C   UNL A   1      37.591  33.482  33.646  1.00  0.00     0.029 A 
ATOM     52  N   UNL A   1      39.376  32.175  33.861  1.00  0.00    -0.354 N 
ATOM     53  N   UNL A   1      41.644  30.995  35.281  1.00  0.00    -0.248 NA
ATOM     54  C   UNL A   1      43.075  30.939  37.124  1.00  0.00     0.031 C 
ATOM     55  C   UNL A   1      38.191  33.753  34.879  1.00  0.00     0.029 A 
ATOM     56  C   UNL A   1      39.280  32.912  35.031  1.00  0.00     0.049 A 
ATOM     57  H   UNL A   1      40.066  31.497  33.675  1.00  0.00     0.167 HD
ATOM     58  C   UNL A   1      41.216  31.929  36.224  1.00  0.00     0.074 A 
ATOM     59  C   UNL A   1      42.115  31.823  37.352  1.00  0.00     0.031 C 
ATOM     60  C   UNL A   1      40.171  32.793  36.159  1.00  0.00     0.037 A 
BRANCH  47  61
ATOM     61  C   UNL A   1      37.048  32.550  30.832  1.00  0.00     0.058 A 
ATOM     62  C   UNL A   1      35.736  32.062  30.929  1.00  0.00     0.135 A 
ATOM     63  C   UNL A   1      37.279  33.628  29.960  1.00  0.00     0.135 A 
ATOM     64  F   UNL A   1      35.458  31.021  31.730  1.00  0.00    -0.206 F 
ATOM     65  C   UNL A   1      34.698  32.609  30.181  1.00  0.00     0.059 A 
ATOM     66  C   UNL A   1      36.251  34.213  29.228  1.00  0.00     0.059 A 
ATOM     67  F   UNL A   1      38.516  34.132  29.823  1.00  0.00    -0.206 F 
ATOM     68  C   UNL A   1      34.965  33.689  29.338  1.00  0.00     0.060 A 
BRANCH  68  69
ATOM     69  S   UNL A   1      33.600  34.402  28.395  1.00  0.00     0.124 S 
ATOM     70  O   UNL A   1      34.315  35.219  27.420  1.00  0.00    -0.237 OA
ATOM     71  O   UNL A   1      32.939  33.214  27.863  1.00  0.00    -0.237 OA
ATOM     72  O   UNL A   1      32.842  35.143  29.398  1.00  0.00    -0.744 OA
ENDBRANCH  68  69
ENDBRANCH  47  61
BRANCH  48  73
ATOM     73  C   UNL A   1      44.714  28.778  36.012  1.00  0.00     0.058 A 
ATOM     74  C   UNL A   1      45.993  29.339  35.862  1.00  0.00     0.135 A 
ATOM     75  C   UNL A   1      44.586  27.688  36.888  1.00  0.00     0.135 A 
ATOM     76  F   UNL A   1      46.178  30.369  35.022  1.00  0.00    -0.206 F 
ATOM     77  C   UNL A   1      47.100  28.828  36.532  1.00  0.00     0.059 A 
ATOM     78  C   UNL A   1      45.670  27.181  37.597  1.00  0.00     0.059 A 
ATOM     79  F   UNL A   1      43.388  27.110  37.070  1.00  0.00    -0.206 F 
ATOM     80  C   UNL A   1      46.928  27.749  37.402  1.00  0.00     0.060 A 
BRANCH  80  81
ATOM     81  S   UNL A   1      48.367  27.115  38.291  1.00  0.00     0.124 S 
ATOM     82  O   UNL A   1      48.450  28.039  39.416  1.00  0.00    -0.237 OA
ATOM     83  O   UNL A   1      47.950  25.753  38.613  1.00  0.00    -0.237 OA
ATOM     84  O   UNL A   1      49.442  27.220  37.309  1.00  0.00    -0.744 OA
ENDBRANCH  80  81
ENDBRANCH  48  73
BRANCH  60  85
ATOM     85  C   UNL A   1      39.899  33.662  37.362  1.00  0.00     0.058 A 
ATOM     86  C   UNL A   1      40.533  34.900  37.549  1.00  0.00     0.135 A 
ATOM     87  C   UNL A   1      38.939  33.272  38.312  1.00  0.00     0.135 A 
ATOM     88  F   UNL A   1      41.461  35.324  36.676  1.00  0.00    -0.206 F 
ATOM     89  C   UNL A   1      40.249  35.705  38.649  1.00  0.00     0.059 A 
ATOM     90  C   UNL A   1      38.612  34.079  39.399  1.00  0.00     0.059 A 
ATOM     91  F   UNL A   1      38.289  32.105  38.179  1.00  0.00    -0.206 F 
ATOM     92  C   UNL A   1      39.282  35.289  39.566  1.00  0.00     0.060 A 
BRANCH  92  93
ATOM     93  S   UNL A   1      38.898  36.361  40.967  1.00  0.00     0.124 S 
ATOM     94  O   UNL A   1      37.809  35.629  41.608  1.00  0.00    -0.237 OA
ATOM     95  O   UNL A   1      40.162  36.383  41.696  1.00  0.00    -0.237 OA
ATOM     96  O   UNL A   1      38.520  37.623  40.339  1.00  0.00    -0.744 OA
ENDBRANCH  92  93
ENDBRANCH  60  85
ENDBRANCH  34  35
ENDBRANCH  27  29
ENDBRANCH  26  27
ENDBRANCH  25  26
ENDBRANCH  24  25
ENDBRANCH  23  24
ENDBRANCH  22  23
ENDBRANCH   1  22
TORSDOF 25
ENDMDL
MODEL 2
REMARK VINA RESULT:      -8.9      6.086     12.446
REMARK SMILES N#CCS(=O)(=O)NC[C@H]1CC[C@H](C(=O)OCCOCCOCCOC(=O)c2ccc(-c3c4nc(c(-c5c(F)cc(S(=O)(=O)[O-])cc5F)c5ccc([nH]5)c(-c5c(F)cc(S(=O)(=O)[O-])cc5F)c5nc(c(-c6c(F)cc(S(=O)(=O)[O-])cc6F)c6ccc3[nH]6)C=C5)C=C4)cc2)O1
REMARK SMILES IDX 19 1 18 2 17 3 16 4 15 5 13 6 14 7 12 8 9 9 10 10 93 11
REMARK SMILES IDX 11 12 8 13 7 14 4 16 5 17 6 18 3 19 2 20 1 21 20 22 21 23
REMARK SMILES IDX 22 24 23 25 24 26 25 27 26 28 27 29 28 30 92 31 29 32 91 33
REMARK SMILES IDX 30 34 31 35 32 36 85 37 33 38 90 39 84 40 86 41 34 42 89 43
REMARK SMILES IDX 83 44 82 45 35 47 69 48 48 49 68 50 49 51 52 52 67 53 87 54
REMARK SMILES IDX 50 55 51 56 66 58 88 59 53 60 36 61 37 62 46 63 38 64 39 65
REMARK SMILES IDX 45 66 47 67 40 68 41 69 42 70 43 71 44 72 70 73 71 74 80 75
REMARK SMILES IDX 72 76 73 77 79 78 81 79 74 80 75 81 76 82 77 83 78 84 54 85
REMARK SMILES IDX 55 86 64 87 56 88 57 89 63 90 65 91 58 92 59 93 60 94 61 95
REMARK SMILES IDX 62 96
REMARK H PARENT 7 15 86 46 52 57
REMARK Flexibility Score: inf
ROOT
ATOM      1  C   UNL A   1      32.902  35.711  30.786  1.00  0.00     0.188 C 
ENDROOT
BRANCH   1   2
ATOM      2  O   UNL A   1      32.711  35.040  29.553  1.00  0.00    -0.376 OA
BRANCH   2   3
ATOM      3  C   UNL A   1      33.710  35.211  28.552  1.00  0.00     0.202 C 
BRANCH   3   4
ATOM      4  C   UNL A   1      34.398  33.967  27.957  1.00  0.00     0.261 C 
BRANCH   4   5
ATOM      5  O   UNL A   1      33.495  32.878  27.654  1.00  0.00    -0.461 OA
BRANCH   5   6
ATOM      6  C   UNL A   1      34.056  31.643  27.636  1.00  0.00     0.335 C 
ATOM      7  O   UNL A   1      35.266  31.452  27.735  1.00  0.00    -0.249 OA
BRANCH   6   8
ATOM      8  C   UNL A   1      33.054  30.480  27.579  1.00  0.00     0.228 C 
ATOM      9  C   UNL A   1      33.731  28.949  25.957  1.00  0.00     0.134 C 
ATOM     10  C   UNL A   1      32.589  29.755  25.364  1.00  0.00     0.037 C 
ATOM     11  O   UNL A   1      33.853  29.319  27.335  1.00  0.00    -0.362 OA
ATOM     12  C   UNL A   1      31.927  30.350  26.572  1.00  0.00     0.047 C 
BRANCH   9  13
ATOM     13  C   UNL A   1      33.552  27.433  25.958  1.00  0.00     0.130 C 
BRANCH  13  14
ATOM     14  N   UNL A   1      32.388  26.967  25.179  1.00  0.00    -0.212 NA
ATOM     15  H   UNL A   1      31.996  26.189  25.709  1.00  0.00     0.141 HD
BRANCH  14  16
ATOM     16  S   UNL A   1      32.468  26.442  23.592  1.00  0.00     0.225 S 
ATOM     17  O   UNL A   1      33.844  26.245  23.204  1.00  0.00    -0.211 OA
ATOM     18  O   UNL A   1      31.691  27.444  22.883  1.00  0.00    -0.211 OA
BRANCH  16  19
ATOM     19  C   UNL A   1      31.556  24.921  23.474  1.00  0.00     0.273 C 
BRANCH  19  20
ATOM     20  C   UNL A   1      31.175  24.437  24.783  1.00  0.00     0.080 C 
ATOM     21  N   UNL A   1      30.723  24.067  25.790  1.00  0.00    -0.197 NA
ENDBRANCH  19  20
ENDBRANCH  16  19
ENDBRANCH  14  16
ENDBRANCH  13  14
ENDBRANCH   9  13
ENDBRANCH   6   8
ENDBRANCH   5   6
ENDBRANCH   4   5
ENDBRANCH   3   4
ENDBRANCH   2   3
ENDBRANCH   1   2
BRANCH   1  22
ATOM     22  C   UNL A   1      33.944  35.114  31.728  1.00  0.00     0.188 C 
BRANCH  22  23
ATOM     23  O   UNL A   1      33.837  33.743  32.033  1.00  0.00    -0.376 OA
BRANCH  23  24
ATOM     24  C   UNL A   1      34.434  32.733  31.230  1.00  0.00     0.202 C 
BRANCH  24  25
ATOM     25  C   UNL A   1      35.494  31.702  31.696  1.00  0.00     0.261 C 
BRANCH  25  26
ATOM     26  O   UNL A   1      36.889  32.029  31.633  1.00  0.00    -0.460 OA
BRANCH  26  27
ATOM     27  C   UNL A   1      37.726  31.355  32.463  1.00  0.00     0.338 C 
ATOM     28  O   UNL A   1      37.466  30.991  33.597  1.00  0.00    -0.246 OA
BRANCH  27  29
ATOM     29  C   UNL A   1      38.883  30.860  31.654  1.00  0.00     0.060 A 
ATOM     30  C   UNL A   1      39.859  30.088  32.306  1.00  0.00     0.016 A 
ATOM     31  C   UNL A   1      38.969  31.047  30.271  1.00  0.00     0.016 A 
ATOM     32  C   UNL A   1      40.939  29.550  31.598  1.00  0.00     0.010 A 
ATOM     33  C   UNL A   1      40.070  30.533  29.567  1.00  0.00     0.010 A 
ATOM     34  C   UNL A   1      41.082  29.812  30.230  1.00  0.00    -0.014 A 
BRANCH  34  35
ATOM     35  C   UNL A   1      42.371  29.518  29.538  1.00  0.00     0.031 A 
ATOM     36  C   UNL A   1      42.558  28.145  28.940  1.00  0.00     0.074 A 
ATOM     37  C   UNL A   1      43.353  30.433  29.420  1.00  0.00     0.049 A 
ATOM     38  N   UNL A   1      43.611  27.621  28.368  1.00  0.00    -0.248 NA
ATOM     39  C   UNL A   1      41.397  27.243  29.001  1.00  0.00     0.031 C 
ATOM     40  C   UNL A   1      43.291  31.811  29.901  1.00  0.00     0.029 A 
ATOM     41  N   UNL A   1      44.609  30.330  28.867  1.00  0.00    -0.354 N 
ATOM     42  C   UNL A   1      43.246  26.324  28.018  1.00  0.00     0.074 A 
ATOM     43  C   UNL A   1      41.884  26.133  28.466  1.00  0.00     0.031 C 
ATOM     44  C   UNL A   1      44.462  32.420  29.640  1.00  0.00     0.029 A 
ATOM     45  C   UNL A   1      45.375  31.464  29.011  1.00  0.00     0.049 A 
ATOM     46  H   UNL A   1      44.930  29.519  28.410  1.00  0.00     0.167 HD
ATOM     47  C   UNL A   1      43.975  25.379  27.376  1.00  0.00     0.037 A 
ATOM     48  C   UNL A   1      46.670  31.697  28.703  1.00  0.00     0.037 A 
ATOM     49  C   UNL A   1      45.330  25.572  26.929  1.00  0.00     0.049 A 
ATOM     50  C   UNL A   1      47.491  30.601  28.063  1.00  0.00     0.074 A 
ATOM     51  C   UNL A   1      46.144  24.679  26.252  1.00  0.00     0.029 A 
ATOM     52  N   UNL A   1      46.077  26.725  27.120  1.00  0.00    -0.354 N 
ATOM     53  N   UNL A   1      47.125  29.388  27.719  1.00  0.00    -0.248 NA
ATOM     54  C   UNL A   1      48.899  30.904  27.767  1.00  0.00     0.031 C 
ATOM     55  C   UNL A   1      47.403  25.266  26.099  1.00  0.00     0.029 A 
ATOM     56  C   UNL A   1      47.352  26.554  26.605  1.00  0.00     0.049 A 
ATOM     57  H   UNL A   1      45.749  27.545  27.556  1.00  0.00     0.167 HD
ATOM     58  C   UNL A   1      48.247  28.801  27.133  1.00  0.00     0.074 A 
ATOM     59  C   UNL A   1      49.297  29.796  27.158  1.00  0.00     0.031 C 
ATOM     60  C   UNL A   1      48.391  27.554  26.620  1.00  0.00     0.037 A 
BRANCH  47  61
ATOM     61  C   UNL A   1      43.339  24.034  27.145  1.00  0.00     0.058 A 
ATOM     62  C   UNL A   1      42.788  23.673  25.905  1.00  0.00     0.135 A 
ATOM     63  C   UNL A   1      43.333  23.069  28.166  1.00  0.00     0.135 A 
ATOM     64  F   UNL A   1      42.748  24.559  24.897  1.00  0.00    -0.206 F 
ATOM     65  C   UNL A   1      42.240  22.412  25.692  1.00  0.00     0.059 A 
ATOM     66  C   UNL A   1      42.820  21.791  27.966  1.00  0.00     0.059 A 
ATOM     67  F   UNL A   1      43.841  23.361  29.375  1.00  0.00    -0.206 F 
ATOM     68  C   UNL A   1      42.267  21.476  26.727  1.00  0.00     0.060 A 
BRANCH  68  69
ATOM     69  S   UNL A   1      41.573  19.837  26.423  1.00  0.00     0.124 S 
ATOM     70  O   UNL A   1      41.825  19.172  27.697  1.00  0.00    -0.237 OA
ATOM     71  O   UNL A   1      40.176  20.142  26.133  1.00  0.00    -0.237 OA
ATOM     72  O   UNL A   1      42.352  19.340  25.293  1.00  0.00    -0.744 OA
ENDBRANCH  68  69
ENDBRANCH  47  61
BRANCH  48  73
ATOM     73  C   UNL A   1      47.296  33.015  29.019  1.00  0.00     0.058 A 
ATOM     74  C   UNL A   1      47.274  34.075  28.097  1.00  0.00     0.135 A 
ATOM     75  C   UNL A   1      47.962  33.231  30.236  1.00  0.00     0.135 A 
ATOM     76  F   UNL A   1      46.669  33.917  26.910  1.00  0.00    -0.206 F 
ATOM     77  C   UNL A   1      47.905  35.287  28.360  1.00  0.00     0.059 A 
ATOM     78  C   UNL A   1      48.570  34.445  30.537  1.00  0.00     0.059 A 
ATOM     79  F   UNL A   1      48.016  32.254  31.155  1.00  0.00    -0.206 F 
ATOM     80  C   UNL A   1      48.549  35.464  29.587  1.00  0.00     0.060 A 
BRANCH  80  81
ATOM     81  S   UNL A   1      49.337  37.053  29.929  1.00  0.00     0.124 S 
ATOM     82  O   UNL A   1      48.235  37.808  30.517  1.00  0.00    -0.237 OA
ATOM     83  O   UNL A   1      50.408  36.671  30.844  1.00  0.00    -0.237 OA
ATOM     84  O   UNL A   1      49.776  37.502  28.611  1.00  0.00    -0.744 OA
ENDBRANCH  80  81
ENDBRANCH  48  73
BRANCH  60  85
ATOM     85  C   UNL A   1      49.715  27.198  25.989  1.00  0.00     0.058 A 
ATOM     86  C   UNL A   1      50.780  26.666  26.732  1.00  0.00     0.135 A 
ATOM     87  C   UNL A   1      49.896  27.339  24.602  1.00  0.00     0.135 A 
ATOM     88  F   UNL A   1      50.665  26.511  28.061  1.00  0.00    -0.206 F 
ATOM     89  C   UNL A   1      51.985  26.314  26.130  1.00  0.00     0.059 A 
ATOM     90  C   UNL A   1      51.079  26.959  23.973  1.00  0.00     0.059 A 
ATOM     91  F   UNL A   1      48.909  27.830  23.836  1.00  0.00    -0.206 F 
ATOM     92  C   UNL A   1      52.123  26.459  24.749  1.00  0.00     0.060 A 
BRANCH  92  93
ATOM     93  S   UNL A   1      53.679  25.965  23.978  1.00  0.00     0.124 S 
ATOM     94  O   UNL A   1      53.314  25.946  22.564  1.00  0.00    -0.237 OA
ATOM     95  O   UNL A   1      54.582  27.037  24.385  1.00  0.00    -0.237 OA
ATOM     96  O   UNL A   1      53.955  24.660  24.570  1.00  0.00    -0.744 OA
ENDBRANCH  92  93
ENDBRANCH  60  85
ENDBRANCH  34  35
ENDBRANCH  27  29
ENDBRANCH  26  27
ENDBRANCH  25  26
ENDBRANCH  24  25
ENDBRANCH  23  24
ENDBRANCH  22  23
ENDBRANCH   1  22
TORSDOF 25
ENDMDL
MODEL 3
REMARK VINA RESULT:      -8.4      5.106     12.572
REMARK SMILES N#CCS(=O)(=O)NC[C@H]1CC[C@H](C(=O)OCCOCCOCCOC(=O)c2ccc(-c3c4nc(c(-c5c(F)cc(S(=O)(=O)[O-])cc5F)c5ccc([nH]5)c(-c5c(F)cc(S(=O)(=O)[O-])cc5F)c5nc(c(-c6c(F)cc(S(=O)(=O)[O-])cc6F)c6ccc3[nH]6)C=C5)C=C4)cc2)O1
REMARK SMILES IDX 19 1 18 2 17 3 16 4 15 5 13 6 14 7 12 8 9 9 10 10 93 11
REMARK SMILES IDX 11 12 8 13 7 14 4 16 5 17 6 18 3 19 2 20 1 21 20 22 21 23
REMARK SMILES IDX 22 24 23 25 24 26 25 27 26 28 27 29 28 30 92 31 29 32 91 33
REMARK SMILES IDX 30 34 31 35 32 36 85 37 33 38 90 39 84 40 86 41 34 42 89 43
REMARK SMILES IDX 83 44 82 45 35 47 69 48 48 49 68 50 49 51 52 52 67 53 87 54
REMARK SMILES IDX 50 55 51 56 66 58 88 59 53 60 36 61 37 62 46 63 38 64 39 65
REMARK SMILES IDX 45 66 47 67 40 68 41 69 42 70 43 71 44 72 70 73 71 74 80 75
REMARK SMILES IDX 72 76 73 77 79 78 81 79 74 80 75 81 76 82 77 83 78 84 54 85
REMARK SMILES IDX 55 86 64 87 56 88 57 89 63 90 65 91 58 92 59 93 60 94 61 95
REMARK SMILES IDX 62 96
REMARK H PARENT 7 15 86 46 52 57
REMARK Flexibility Score: inf
ROOT
ATOM      1  C   UNL A   1      32.913  35.540  31.756  1.00  0.00     0.188 C 
ENDROOT
BRANCH   1   2
ATOM      2  O   UNL A   1      33.630  34.393  32.178  1.00  0.00    -0.376 OA
BRANCH   2   3
ATOM      3  C   UNL A   1      35.006  34.312  31.819  1.00  0.00     0.202 C 
BRANCH   3   4
ATOM      4  C   UNL A   1      36.072  34.806  32.817  1.00  0.00     0.261 C 
BRANCH   4   5
ATOM      5  O   UNL A   1      36.901  33.755  33.366  1.00  0.00    -0.461 OA
BRANCH   5   6
ATOM      6  C   UNL A   1      36.763  33.540  34.699  1.00  0.00     0.335 C 
ATOM      7  O   UNL A   1      35.687  33.623  35.286  1.00  0.00    -0.249 OA
BRANCH   6   8
ATOM      8  C   UNL A   1      38.043  33.085  35.415  1.00  0.00     0.228 C 
ATOM      9  C   UNL A   1      37.771  33.318  37.718  1.00  0.00     0.134 C 
ATOM     10  C   UNL A   1      38.633  34.476  37.249  1.00  0.00     0.037 C 
ATOM     11  O   UNL A   1      37.587  32.435  36.605  1.00  0.00    -0.362 OA
ATOM     12  C   UNL A   1      39.137  34.009  35.915  1.00  0.00     0.047 C 
BRANCH   9  13
ATOM     13  C   UNL A   1      38.359  32.452  38.830  1.00  0.00     0.130 C 
BRANCH  13  14
ATOM     14  N   UNL A   1      38.041  32.926  40.190  1.00  0.00    -0.212 NA
ATOM     15  H   UNL A   1      38.784  33.579  40.435  1.00  0.00     0.141 HD
BRANCH  14  16
ATOM     16  S   UNL A   1      37.863  31.923  41.517  1.00  0.00     0.225 S 
ATOM     17  O   UNL A   1      39.015  32.033  42.380  1.00  0.00    -0.211 OA
ATOM     18  O   UNL A   1      37.581  30.633  40.910  1.00  0.00    -0.211 OA
BRANCH  16  19
ATOM     19  C   UNL A   1      36.384  32.408  42.375  1.00  0.00     0.273 C 
BRANCH  19  20
ATOM     20  C   UNL A   1      35.260  32.500  41.468  1.00  0.00     0.080 C 
ATOM     21  N   UNL A   1      34.445  32.664  40.654  1.00  0.00    -0.197 NA
ENDBRANCH  19  20
ENDBRANCH  16  19
ENDBRANCH  14  16
ENDBRANCH  13  14
ENDBRANCH   9  13
ENDBRANCH   6   8
ENDBRANCH   5   6
ENDBRANCH   4   5
ENDBRANCH   3   4
ENDBRANCH   2   3
ENDBRANCH   1   2
BRANCH   1  22
ATOM     22  C   UNL A   1      32.842  35.778  30.250  1.00  0.00     0.188 C 
BRANCH  22  23
ATOM     23  O   UNL A   1      32.851  34.647  29.410  1.00  0.00    -0.376 OA
BRANCH  23  24
ATOM     24  C   UNL A   1      33.767  34.502  28.333  1.00  0.00     0.202 C 
BRANCH  24  25
ATOM     25  C   UNL A   1      34.505  33.200  27.930  1.00  0.00     0.261 C 
BRANCH  25  26
ATOM     26  O   UNL A   1      34.588  32.107  28.855  1.00  0.00    -0.460 OA
BRANCH  26  27
ATOM     27  C   UNL A   1      34.987  30.904  28.367  1.00  0.00     0.338 C 
ATOM     28  O   UNL A   1      34.543  30.354  27.375  1.00  0.00    -0.246 OA
BRANCH  27  29
ATOM     29  C   UNL A   1      36.264  30.525  29.051  1.00  0.00     0.060 A 
ATOM     30  C   UNL A   1      37.450  31.138  28.614  1.00  0.00     0.016 A 
ATOM     31  C   UNL A   1      36.299  29.677  30.161  1.00  0.00     0.016 A 
ATOM     32  C   UNL A   1      38.670  30.868  29.244  1.00  0.00     0.010 A 
ATOM     33  C   UNL A   1      37.528  29.384  30.774  1.00  0.00     0.010 A 
ATOM     34  C   UNL A   1      38.728  29.948  30.298  1.00  0.00    -0.014 A 
BRANCH  34  35
ATOM     35  C   UNL A   1      40.043  29.419  30.763  1.00  0.00     0.031 A 
ATOM     36  C   UNL A   1      40.692  30.080  31.954  1.00  0.00     0.074 A 
ATOM     37  C   UNL A   1      40.653  28.374  30.170  1.00  0.00     0.049 A 
ATOM     38  N   UNL A   1      41.864  29.863  32.493  1.00  0.00    -0.248 NA
ATOM     39  C   UNL A   1      39.910  31.133  32.623  1.00  0.00     0.031 C 
ATOM     40  C   UNL A   1      40.120  27.606  29.047  1.00  0.00     0.029 A 
ATOM     41  N   UNL A   1      41.871  27.787  30.427  1.00  0.00    -0.354 N 
ATOM     42  C   UNL A   1      41.967  30.762  33.551  1.00  0.00     0.074 A 
ATOM     43  C   UNL A   1      40.750  31.545  33.560  1.00  0.00     0.031 C 
ATOM     44  C   UNL A   1      41.014  26.663  28.698  1.00  0.00     0.029 A 
ATOM     45  C   UNL A   1      42.202  26.784  29.544  1.00  0.00     0.049 A 
ATOM     46  H   UNL A   1      42.453  28.060  31.172  1.00  0.00     0.167 HD
ATOM     47  C   UNL A   1      42.978  30.919  34.439  1.00  0.00     0.037 A 
ATOM     48  C   UNL A   1      43.340  26.068  29.411  1.00  0.00     0.037 A 
ATOM     49  C   UNL A   1      44.189  30.138  34.429  1.00  0.00     0.049 A 
ATOM     50  C   UNL A   1      44.490  26.317  30.360  1.00  0.00     0.074 A 
ATOM     51  C   UNL A   1      45.262  30.210  35.300  1.00  0.00     0.029 A 
ATOM     52  N   UNL A   1      44.494  29.153  33.502  1.00  0.00    -0.354 N 
ATOM     53  N   UNL A   1      44.564  27.155  31.368  1.00  0.00    -0.248 NA
ATOM     54  C   UNL A   1      45.711  25.522  30.156  1.00  0.00     0.031 C 
ATOM     55  C   UNL A   1      46.245  29.321  34.857  1.00  0.00     0.029 A 
ATOM     56  C   UNL A   1      45.753  28.634  33.760  1.00  0.00     0.049 A 
ATOM     57  H   UNL A   1      43.903  28.863  32.769  1.00  0.00     0.167 HD
ATOM     58  C   UNL A   1      45.822  26.959  31.938  1.00  0.00     0.074 A 
ATOM     59  C   UNL A   1      46.468  25.915  31.171  1.00  0.00     0.031 C 
ATOM     60  C   UNL A   1      46.387  27.585  33.000  1.00  0.00     0.037 A 
BRANCH  47  61
ATOM     61  C   UNL A   1      42.843  31.999  35.480  1.00  0.00     0.058 A 
ATOM     62  C   UNL A   1      43.209  33.330  35.226  1.00  0.00     0.135 A 
ATOM     63  C   UNL A   1      42.281  31.705  36.734  1.00  0.00     0.135 A 
ATOM     64  F   UNL A   1      43.768  33.667  34.053  1.00  0.00    -0.206 F 
ATOM     65  C   UNL A   1      43.040  34.326  36.183  1.00  0.00     0.059 A 
ATOM     66  C   UNL A   1      42.073  32.691  37.694  1.00  0.00     0.059 A 
ATOM     67  F   UNL A   1      41.918  30.447  37.034  1.00  0.00    -0.206 F 
ATOM     68  C   UNL A   1      42.465  33.997  37.411  1.00  0.00     0.060 A 
BRANCH  68  69
ATOM     69  S   UNL A   1      42.231  35.308  38.630  1.00  0.00     0.124 S 
ATOM     70  O   UNL A   1      41.326  34.668  39.579  1.00  0.00    -0.237 OA
ATOM     71  O   UNL A   1      43.592  35.534  39.106  1.00  0.00    -0.237 OA
ATOM     72  O   UNL A   1      41.653  36.400  37.852  1.00  0.00    -0.744 OA
ENDBRANCH  68  69
ENDBRANCH  47  61
BRANCH  48  73
ATOM     73  C   UNL A   1      43.475  25.061  28.318  1.00  0.00     0.058 A 
ATOM     74  C   UNL A   1      43.108  23.719  28.510  1.00  0.00     0.135 A 
ATOM     75  C   UNL A   1      44.010  25.412  27.068  1.00  0.00     0.135 A 
ATOM     76  F   UNL A   1      42.610  23.323  29.691  1.00  0.00    -0.206 F 
ATOM     77  C   UNL A   1      43.284  22.762  27.515  1.00  0.00     0.059 A 
ATOM     78  C   UNL A   1      44.164  24.481  26.044  1.00  0.00     0.059 A 
ATOM     79  F   UNL A   1      44.380  26.680  26.827  1.00  0.00    -0.206 F 
ATOM     80  C   UNL A   1      43.811  23.154  26.282  1.00  0.00     0.060 A 
BRANCH  80  81
ATOM     81  S   UNL A   1      44.006  21.909  24.988  1.00  0.00     0.124 S 
ATOM     82  O   UNL A   1      43.579  22.645  23.803  1.00  0.00    -0.237 OA
ATOM     83  O   UNL A   1      45.430  21.604  25.071  1.00  0.00    -0.237 OA
ATOM     84  O   UNL A   1      43.114  20.836  25.417  1.00  0.00    -0.744 OA
ENDBRANCH  80  81
ENDBRANCH  48  73
BRANCH  60  85
ATOM     85  C   UNL A   1      47.755  27.128  33.443  1.00  0.00     0.058 A 
ATOM     86  C   UNL A   1      48.931  27.772  33.024  1.00  0.00     0.135 A 
ATOM     87  C   UNL A   1      47.886  26.063  34.351  1.00  0.00     0.135 A 
ATOM     88  F   UNL A   1      48.868  28.794  32.155  1.00  0.00    -0.206 F 
ATOM     89  C   UNL A   1      50.185  27.358  33.465  1.00  0.00     0.059 A 
ATOM     90  C   UNL A   1      49.126  25.657  34.835  1.00  0.00     0.059 A 
ATOM     91  F   UNL A   1      46.796  25.418  34.799  1.00  0.00    -0.206 F 
ATOM     92  C   UNL A   1      50.272  26.303  34.375  1.00  0.00     0.060 A 
BRANCH  92  93
ATOM     93  S   UNL A   1      51.903  25.802  34.965  1.00  0.00     0.124 S 
ATOM     94  O   UNL A   1      52.782  26.510  34.040  1.00  0.00    -0.237 OA
ATOM     95  O   UNL A   1      51.900  26.294  36.339  1.00  0.00    -0.237 OA
ATOM     96  O   UNL A   1      51.886  24.349  34.825  1.00  0.00    -0.744 OA
ENDBRANCH  92  93
ENDBRANCH  60  85
ENDBRANCH  34  35
ENDBRANCH  27  29
ENDBRANCH  26  27
ENDBRANCH  25  26
ENDBRANCH  24  25
ENDBRANCH  23  24
ENDBRANCH  22  23
ENDBRANCH   1  22
TORSDOF 25
ENDMDL
