MODEL 1
REMARK VINA RESULT:     -11.1      0.000      0.000
REMARK SMILES Cc1ccnc(C(=O)c2[nH]c3cc(F)ccc3c2CC(=O)OCCOCCOCCOC(=O)c2ccc(-c3c4nc(c(-c5c(F)cc(S(=O)(=O)[O-])cc5F)c5ccc([nH]5)c(-c5c(F)cc(S(=O)(=O)[O-])cc5F)c5nc(c(-c6c(F)cc(S(=O)(=O)[O-])cc6F)c6ccc3[nH]6)C=C5)C=C4)cc2)c1
REMARK SMILES IDX 26 1 25 2 24 3 23 4 22 5 20 6 21 7 19 8 18 9 9 10 10 11
REMARK SMILES IDX 11 12 17 14 12 15 16 16 13 17 15 18 14 19 7 20 8 21 6 22
REMARK SMILES IDX 1 23 2 24 3 25 100 26 4 27 5 28 27 29 28 30 29 31 30 32
REMARK SMILES IDX 31 33 32 34 33 35 34 36 35 37 99 38 36 39 98 40 37 41 38 42
REMARK SMILES IDX 39 43 92 44 40 45 97 46 91 47 93 48 41 49 96 50 90 51 89 52
REMARK SMILES IDX 42 54 76 55 55 56 75 57 56 58 59 59 74 60 94 61 57 62 58 63
REMARK SMILES IDX 73 65 95 66 60 67 43 68 44 69 53 70 45 71 46 72 52 73 54 74
REMARK SMILES IDX 47 75 48 76 49 77 50 78 51 79 77 80 78 81 87 82 79 83 80 84
REMARK SMILES IDX 86 85 88 86 81 87 82 88 83 89 84 90 85 91 61 92 62 93 71 94
REMARK SMILES IDX 63 95 64 96 70 97 72 98 65 99 66 100 67 101 68 102 69 103
REMARK H PARENT 10 13 93 53 59 64
REMARK Flexibility Score: inf
ROOT
ATOM      1  C   UNL A   1      40.346  20.312  26.449  1.00  0.00     0.188 C 
ENDROOT
BRANCH   1   2
ATOM      2  O   UNL A   1      39.563  19.550  25.538  1.00  0.00    -0.376 OA
BRANCH   2   3
ATOM      3  C   UNL A   1      38.377  20.144  25.028  1.00  0.00     0.202 C 
BRANCH   3   4
ATOM      4  C   UNL A   1      38.071  21.559  25.525  1.00  0.00     0.261 C 
BRANCH   4   5
ATOM      5  O   UNL A   1      37.342  22.343  24.550  1.00  0.00    -0.463 OA
BRANCH   5   6
ATOM      6  C   UNL A   1      36.510  23.280  25.070  1.00  0.00     0.310 C 
ATOM      7  O   UNL A   1      36.547  23.624  26.251  1.00  0.00    -0.252 OA
BRANCH   6   8
ATOM      8  C   UNL A   1      35.556  23.953  24.102  1.00  0.00     0.161 C 
BRANCH   8   9
ATOM      9  C   UNL A   1      34.410  23.190  23.470  1.00  0.00     0.000 A 
ATOM     10  C   UNL A   1      33.362  23.708  22.696  1.00  0.00     0.093 A 
ATOM     11  N   UNL A   1      32.555  22.651  22.342  1.00  0.00    -0.351 N 
ATOM     12  C   UNL A   1      32.848  21.555  23.113  1.00  0.00     0.049 A 
ATOM     13  H   UNL A   1      31.868  22.677  21.638  1.00  0.00     0.167 HD
ATOM     14  C   UNL A   1      34.024  21.846  23.805  1.00  0.00     0.004 A 
ATOM     15  C   UNL A   1      32.146  20.355  23.269  1.00  0.00     0.066 A 
ATOM     16  C   UNL A   1      34.526  20.883  24.707  1.00  0.00     0.013 A 
ATOM     17  C   UNL A   1      32.643  19.451  24.204  1.00  0.00     0.125 A 
ATOM     18  C   UNL A   1      33.810  19.698  24.914  1.00  0.00     0.040 A 
ATOM     19  F   UNL A   1      31.962  18.321  24.441  1.00  0.00    -0.207 F 
BRANCH  10  20
ATOM     20  C   UNL A   1      33.116  25.085  22.304  1.00  0.00     0.227 C 
ATOM     21  O   UNL A   1      33.556  25.563  21.260  1.00  0.00    -0.285 OA
BRANCH  20  22
ATOM     22  C   UNL A   1      32.326  25.982  23.197  1.00  0.00     0.113 A 
ATOM     23  C   UNL A   1      28.845  27.436  23.472  1.00  0.00     0.044 C 
ATOM     24  C   UNL A   1      30.250  27.016  23.787  1.00  0.00    -0.047 A 
ATOM     25  C   UNL A   1      30.741  27.140  25.091  1.00  0.00     0.023 A 
ATOM     26  C   UNL A   1      31.055  26.401  22.822  1.00  0.00     0.036 A 
ATOM     27  C   UNL A   1      32.041  26.742  25.351  1.00  0.00     0.112 A 
ATOM     28  N   UNL A   1      32.860  26.202  24.422  1.00  0.00    -0.253 NA
ENDBRANCH  20  22
ENDBRANCH  10  20
ENDBRANCH   8   9
ENDBRANCH   6   8
ENDBRANCH   5   6
ENDBRANCH   4   5
ENDBRANCH   3   4
ENDBRANCH   2   3
ENDBRANCH   1   2
BRANCH   1  29
ATOM     29  C   UNL A   1      41.612  19.669  27.058  1.00  0.00     0.188 C 
BRANCH  29  30
ATOM     30  O   UNL A   1      42.833  19.704  26.328  1.00  0.00    -0.376 OA
BRANCH  30  31
ATOM     31  C   UNL A   1      43.092  20.875  25.565  1.00  0.00     0.202 C 
BRANCH  31  32
ATOM     32  C   UNL A   1      43.164  22.163  26.381  1.00  0.00     0.261 C 
BRANCH  32  33
ATOM     33  O   UNL A   1      42.078  23.049  26.050  1.00  0.00    -0.460 OA
BRANCH  33  34
ATOM     34  C   UNL A   1      42.476  24.302  25.730  1.00  0.00     0.338 C 
ATOM     35  O   UNL A   1      43.291  24.601  24.872  1.00  0.00    -0.246 OA
BRANCH  34  36
ATOM     36  C   UNL A   1      41.795  25.329  26.548  1.00  0.00     0.060 A 
ATOM     37  C   UNL A   1      42.058  26.680  26.356  1.00  0.00     0.016 A 
ATOM     38  C   UNL A   1      41.112  24.925  27.694  1.00  0.00     0.016 A 
ATOM     39  C   UNL A   1      41.809  27.597  27.380  1.00  0.00     0.010 A 
ATOM     40  C   UNL A   1      40.765  25.865  28.674  1.00  0.00     0.010 A 
ATOM     41  C   UNL A   1      41.185  27.203  28.570  1.00  0.00    -0.014 A 
BRANCH  41  42
ATOM     42  C   UNL A   1      41.073  28.145  29.729  1.00  0.00     0.031 A 
ATOM     43  C   UNL A   1      42.037  28.040  30.896  1.00  0.00     0.074 A 
ATOM     44  C   UNL A   1      40.156  29.136  29.734  1.00  0.00     0.049 A 
ATOM     45  N   UNL A   1      42.012  28.655  32.053  1.00  0.00    -0.248 NA
ATOM     46  C   UNL A   1      43.185  27.129  30.739  1.00  0.00     0.031 C 
ATOM     47  C   UNL A   1      39.212  29.425  28.654  1.00  0.00     0.029 A 
ATOM     48  N   UNL A   1      39.871  30.092  30.682  1.00  0.00    -0.354 N 
ATOM     49  C   UNL A   1      43.110  28.184  32.769  1.00  0.00     0.074 A 
ATOM     50  C   UNL A   1      43.779  27.222  31.922  1.00  0.00     0.031 C 
ATOM     51  C   UNL A   1      38.479  30.500  28.980  1.00  0.00     0.029 A 
ATOM     52  C   UNL A   1      38.821  30.913  30.336  1.00  0.00     0.049 A 
ATOM     53  H   UNL A   1      40.369  30.180  31.526  1.00  0.00     0.167 HD
ATOM     54  C   UNL A   1      43.522  28.518  34.017  1.00  0.00     0.037 A 
ATOM     55  C   UNL A   1      38.160  31.852  31.043  1.00  0.00     0.037 A 
ATOM     56  C   UNL A   1      42.861  29.482  34.862  1.00  0.00     0.049 A 
ATOM     57  C   UNL A   1      38.567  32.122  32.465  1.00  0.00     0.074 A 
ATOM     58  C   UNL A   1      43.178  29.852  36.159  1.00  0.00     0.029 A 
ATOM     59  N   UNL A   1      41.756  30.234  34.496  1.00  0.00    -0.354 N 
ATOM     60  N   UNL A   1      39.557  31.606  33.155  1.00  0.00    -0.248 NA
ATOM     61  C   UNL A   1      37.751  33.087  33.215  1.00  0.00     0.031 C 
ATOM     62  C   UNL A   1      42.238  30.792  36.592  1.00  0.00     0.029 A 
ATOM     63  C   UNL A   1      41.368  31.050  35.547  1.00  0.00     0.049 A 
ATOM     64  H   UNL A   1      41.314  30.196  33.617  1.00  0.00     0.167 HD
ATOM     65  C   UNL A   1      39.486  32.192  34.415  1.00  0.00     0.074 A 
ATOM     66  C   UNL A   1      38.380  33.125  34.380  1.00  0.00     0.031 C 
ATOM     67  C   UNL A   1      40.260  31.970  35.506  1.00  0.00     0.037 A 
BRANCH  54  68
ATOM     68  C   UNL A   1      44.730  27.813  34.577  1.00  0.00     0.058 A 
ATOM     69  C   UNL A   1      46.005  28.397  34.560  1.00  0.00     0.135 A 
ATOM     70  C   UNL A   1      44.590  26.568  35.215  1.00  0.00     0.135 A 
ATOM     71  F   UNL A   1      46.202  29.573  33.944  1.00  0.00    -0.206 F 
ATOM     72  C   UNL A   1      47.099  27.772  35.155  1.00  0.00     0.059 A 
ATOM     73  C   UNL A   1      45.664  25.936  35.835  1.00  0.00     0.059 A 
ATOM     74  F   UNL A   1      43.392  25.963  35.258  1.00  0.00    -0.206 F 
ATOM     75  C   UNL A   1      46.918  26.545  35.796  1.00  0.00     0.060 A 
BRANCH  75  76
ATOM     76  S   UNL A   1      48.340  25.766  36.590  1.00  0.00     0.124 S 
ATOM     77  O   UNL A   1      49.429  26.634  36.151  1.00  0.00    -0.237 OA
ATOM     78  O   UNL A   1      47.991  25.854  38.005  1.00  0.00    -0.237 OA
ATOM     79  O   UNL A   1      48.348  24.418  36.031  1.00  0.00    -0.744 OA
ENDBRANCH  75  76
ENDBRANCH  54  68
BRANCH  55  80
ATOM     80  C   UNL A   1      36.981  32.546  30.451  1.00  0.00     0.058 A 
ATOM     81  C   UNL A   1      37.133  33.616  29.557  1.00  0.00     0.135 A 
ATOM     82  C   UNL A   1      35.672  32.168  30.798  1.00  0.00     0.135 A 
ATOM     83  F   UNL A   1      38.361  34.028  29.207  1.00  0.00    -0.206 F 
ATOM     84  C   UNL A   1      36.034  34.302  29.048  1.00  0.00     0.059 A 
ATOM     85  C   UNL A   1      34.559  32.813  30.272  1.00  0.00     0.059 A 
ATOM     86  F   UNL A   1      35.467  31.149  31.647  1.00  0.00    -0.206 F 
ATOM     87  C   UNL A   1      34.750  33.892  29.414  1.00  0.00     0.060 A 
BRANCH  87  88
ATOM     88  S   UNL A   1      33.326  34.772  28.737  1.00  0.00     0.124 S 
ATOM     89  O   UNL A   1      32.518  34.982  29.932  1.00  0.00    -0.237 OA
ATOM     90  O   UNL A   1      33.942  35.965  28.164  1.00  0.00    -0.237 OA
ATOM     91  O   UNL A   1      32.782  33.829  27.764  1.00  0.00    -0.744 OA
ENDBRANCH  87  88
ENDBRANCH  55  80
BRANCH  67  92
ATOM     92  C   UNL A   1      39.948  32.777  36.736  1.00  0.00     0.058 A 
ATOM     93  C   UNL A   1      40.736  33.874  37.118  1.00  0.00     0.135 A 
ATOM     94  C   UNL A   1      38.858  32.437  37.555  1.00  0.00     0.135 A 
ATOM     95  F   UNL A   1      41.791  34.240  36.372  1.00  0.00    -0.206 F 
ATOM     96  C   UNL A   1      40.492  34.569  38.298  1.00  0.00     0.059 A 
ATOM     97  C   UNL A   1      38.576  33.138  38.722  1.00  0.00     0.059 A 
ATOM     98  F   UNL A   1      38.061  31.407  37.228  1.00  0.00    -0.206 F 
ATOM     99  C   UNL A   1      39.415  34.186  39.100  1.00  0.00     0.060 A 
BRANCH  99 100
ATOM    100  S   UNL A   1      39.124  35.073  40.645  1.00  0.00     0.124 S 
ATOM    101  O   UNL A   1      40.408  34.917  41.318  1.00  0.00    -0.237 OA
ATOM    102  O   UNL A   1      38.812  36.421  40.180  1.00  0.00    -0.237 OA
ATOM    103  O   UNL A   1      38.006  34.350  41.244  1.00  0.00    -0.744 OA
ENDBRANCH  99 100
ENDBRANCH  67  92
ENDBRANCH  41  42
ENDBRANCH  34  36
ENDBRANCH  33  34
ENDBRANCH  32  33
ENDBRANCH  31  32
ENDBRANCH  30  31
ENDBRANCH  29  30
ENDBRANCH   1  29
TORSDOF 23
ENDMDL
MODEL 2
REMARK VINA RESULT:     -10.9      6.171     13.916
REMARK SMILES Cc1ccnc(C(=O)c2[nH]c3cc(F)ccc3c2CC(=O)OCCOCCOCCOC(=O)c2ccc(-c3c4nc(c(-c5c(F)cc(S(=O)(=O)[O-])cc5F)c5ccc([nH]5)c(-c5c(F)cc(S(=O)(=O)[O-])cc5F)c5nc(c(-c6c(F)cc(S(=O)(=O)[O-])cc6F)c6ccc3[nH]6)C=C5)C=C4)cc2)c1
REMARK SMILES IDX 26 1 25 2 24 3 23 4 22 5 20 6 21 7 19 8 18 9 9 10 10 11
REMARK SMILES IDX 11 12 17 14 12 15 16 16 13 17 15 18 14 19 7 20 8 21 6 22
REMARK SMILES IDX 1 23 2 24 3 25 100 26 4 27 5 28 27 29 28 30 29 31 30 32
REMARK SMILES IDX 31 33 32 34 33 35 34 36 35 37 99 38 36 39 98 40 37 41 38 42
REMARK SMILES IDX 39 43 92 44 40 45 97 46 91 47 93 48 41 49 96 50 90 51 89 52
REMARK SMILES IDX 42 54 76 55 55 56 75 57 56 58 59 59 74 60 94 61 57 62 58 63
REMARK SMILES IDX 73 65 95 66 60 67 43 68 44 69 53 70 45 71 46 72 52 73 54 74
REMARK SMILES IDX 47 75 48 76 49 77 50 78 51 79 77 80 78 81 87 82 79 83 80 84
REMARK SMILES IDX 86 85 88 86 81 87 82 88 83 89 84 90 85 91 61 92 62 93 71 94
REMARK SMILES IDX 63 95 64 96 70 97 72 98 65 99 66 100 67 101 68 102 69 103
REMARK H PARENT 10 13 93 53 59 64
REMARK Flexibility Score: inf
ROOT
ATOM      1  C   UNL A   1      33.084  35.681  30.877  1.00  0.00     0.188 C 
ENDROOT
BRANCH   1   2
ATOM      2  O   UNL A   1      33.599  36.589  31.845  1.00  0.00    -0.376 OA
BRANCH   2   3
ATOM      3  C   UNL A   1      34.215  36.042  33.002  1.00  0.00     0.202 C 
BRANCH   3   4
ATOM      4  C   UNL A   1      35.481  35.219  32.760  1.00  0.00     0.261 C 
BRANCH   4   5
ATOM      5  O   UNL A   1      35.237  33.794  32.826  1.00  0.00    -0.463 OA
BRANCH   5   6
ATOM      6  C   UNL A   1      35.830  33.154  33.865  1.00  0.00     0.310 C 
ATOM      7  O   UNL A   1      35.567  33.406  35.041  1.00  0.00    -0.252 OA
BRANCH   6   8
ATOM      8  C   UNL A   1      36.803  32.044  33.515  1.00  0.00     0.161 C 
BRANCH   8   9
ATOM      9  C   UNL A   1      38.286  32.185  33.787  1.00  0.00     0.000 A 
ATOM     10  C   UNL A   1      38.963  31.921  34.987  1.00  0.00     0.093 A 
ATOM     11  N   UNL A   1      40.294  32.195  34.773  1.00  0.00    -0.351 N 
ATOM     12  C   UNL A   1      40.447  32.921  33.619  1.00  0.00     0.049 A 
ATOM     13  H   UNL A   1      41.030  31.910  35.360  1.00  0.00     0.167 HD
ATOM     14  C   UNL A   1      39.217  32.904  32.961  1.00  0.00     0.004 A 
ATOM     15  C   UNL A   1      41.565  33.609  33.134  1.00  0.00     0.066 A 
ATOM     16  C   UNL A   1      39.096  33.619  31.750  1.00  0.00     0.013 A 
ATOM     17  C   UNL A   1      41.394  34.344  31.964  1.00  0.00     0.125 A 
ATOM     18  C   UNL A   1      40.188  34.355  31.275  1.00  0.00     0.040 A 
ATOM     19  F   UNL A   1      42.415  35.079  31.503  1.00  0.00    -0.207 F 
BRANCH  10  20
ATOM     20  C   UNL A   1      38.424  31.447  36.250  1.00  0.00     0.227 C 
ATOM     21  O   UNL A   1      37.809  30.388  36.350  1.00  0.00    -0.285 OA
BRANCH  20  22
ATOM     22  C   UNL A   1      38.586  32.273  37.483  1.00  0.00     0.113 A 
ATOM     23  C   UNL A   1      36.734  33.060  40.685  1.00  0.00     0.044 C 
ATOM     24  C   UNL A   1      37.804  32.953  39.640  1.00  0.00    -0.047 A 
ATOM     25  C   UNL A   1      39.120  33.314  39.947  1.00  0.00     0.023 A 
ATOM     26  C   UNL A   1      37.535  32.397  38.384  1.00  0.00     0.036 A 
ATOM     27  C   UNL A   1      40.086  33.203  38.961  1.00  0.00     0.112 A 
ATOM     28  N   UNL A   1      39.839  32.727  37.720  1.00  0.00    -0.253 NA
ENDBRANCH  20  22
ENDBRANCH  10  20
ENDBRANCH   8   9
ENDBRANCH   6   8
ENDBRANCH   5   6
ENDBRANCH   4   5
ENDBRANCH   3   4
ENDBRANCH   2   3
ENDBRANCH   1   2
BRANCH   1  29
ATOM     29  C   UNL A   1      33.458  35.886  29.393  1.00  0.00     0.188 C 
BRANCH  29  30
ATOM     30  O   UNL A   1      33.333  34.798  28.485  1.00  0.00    -0.376 OA
BRANCH  30  31
ATOM     31  C   UNL A   1      34.537  34.184  28.046  1.00  0.00     0.202 C 
BRANCH  31  32
ATOM     32  C   UNL A   1      35.591  34.000  29.135  1.00  0.00     0.261 C 
BRANCH  32  33
ATOM     33  O   UNL A   1      36.453  32.884  28.839  1.00  0.00    -0.460 OA
BRANCH  33  34
ATOM     34  C   UNL A   1      36.194  31.784  29.585  1.00  0.00     0.338 C 
ATOM     35  O   UNL A   1      35.204  31.600  30.275  1.00  0.00    -0.246 OA
BRANCH  34  36
ATOM     36  C   UNL A   1      37.267  30.772  29.475  1.00  0.00     0.060 A 
ATOM     37  C   UNL A   1      37.994  30.384  30.594  1.00  0.00     0.016 A 
ATOM     38  C   UNL A   1      37.731  30.425  28.208  1.00  0.00     0.016 A 
ATOM     39  C   UNL A   1      39.264  29.820  30.447  1.00  0.00     0.010 A 
ATOM     40  C   UNL A   1      38.957  29.761  28.066  1.00  0.00     0.010 A 
ATOM     41  C   UNL A   1      39.782  29.524  29.179  1.00  0.00    -0.014 A 
BRANCH  41  42
ATOM     42  C   UNL A   1      41.203  29.080  29.013  1.00  0.00     0.031 A 
ATOM     43  C   UNL A   1      42.342  30.054  29.253  1.00  0.00     0.074 A 
ATOM     44  C   UNL A   1      41.500  27.799  28.707  1.00  0.00     0.049 A 
ATOM     45  N   UNL A   1      43.623  29.909  29.016  1.00  0.00    -0.248 NA
ATOM     46  C   UNL A   1      41.996  31.360  29.843  1.00  0.00     0.031 C 
ATOM     47  C   UNL A   1      40.527  26.721  28.528  1.00  0.00     0.029 A 
ATOM     48  N   UNL A   1      42.713  27.183  28.497  1.00  0.00    -0.354 N 
ATOM     49  C   UNL A   1      44.226  31.108  29.392  1.00  0.00     0.074 A 
ATOM     50  C   UNL A   1      43.171  31.976  29.864  1.00  0.00     0.031 C 
ATOM     51  C   UNL A   1      41.176  25.576  28.270  1.00  0.00     0.029 A 
ATOM     52  C   UNL A   1      42.602  25.853  28.157  1.00  0.00     0.049 A 
ATOM     53  H   UNL A   1      43.576  27.648  28.581  1.00  0.00     0.167 HD
ATOM     54  C   UNL A   1      45.536  31.454  29.345  1.00  0.00     0.037 A 
ATOM     55  C   UNL A   1      43.528  24.966  27.739  1.00  0.00     0.037 A 
ATOM     56  C   UNL A   1      46.592  30.589  28.881  1.00  0.00     0.049 A 
ATOM     57  C   UNL A   1      44.957  25.410  27.589  1.00  0.00     0.074 A 
ATOM     58  C   UNL A   1      47.943  30.868  28.753  1.00  0.00     0.029 A 
ATOM     59  N   UNL A   1      46.421  29.274  28.476  1.00  0.00    -0.354 N 
ATOM     60  N   UNL A   1      45.495  26.574  27.870  1.00  0.00    -0.248 NA
ATOM     61  C   UNL A   1      45.901  24.427  27.041  1.00  0.00     0.031 C 
ATOM     62  C   UNL A   1      48.579  29.739  28.227  1.00  0.00     0.029 A 
ATOM     63  C   UNL A   1      47.636  28.738  28.079  1.00  0.00     0.049 A 
ATOM     64  H   UNL A   1      45.562  28.792  28.472  1.00  0.00     0.167 HD
ATOM     65  C   UNL A   1      46.842  26.456  27.541  1.00  0.00     0.074 A 
ATOM     66  C   UNL A   1      47.041  25.100  27.074  1.00  0.00     0.031 C 
ATOM     67  C   UNL A   1      47.823  27.389  27.608  1.00  0.00     0.037 A 
BRANCH  54  68
ATOM     68  C   UNL A   1      45.916  32.848  29.772  1.00  0.00     0.058 A 
ATOM     69  C   UNL A   1      46.262  33.150  31.098  1.00  0.00     0.135 A 
ATOM     70  C   UNL A   1      46.014  33.878  28.820  1.00  0.00     0.135 A 
ATOM     71  F   UNL A   1      46.165  32.213  32.053  1.00  0.00    -0.206 F 
ATOM     72  C   UNL A   1      46.692  34.424  31.465  1.00  0.00     0.059 A 
ATOM     73  C   UNL A   1      46.462  35.151  29.161  1.00  0.00     0.059 A 
ATOM     74  F   UNL A   1      45.691  33.645  27.538  1.00  0.00    -0.206 F 
ATOM     75  C   UNL A   1      46.795  35.416  30.488  1.00  0.00     0.060 A 
BRANCH  75  76
ATOM     76  S   UNL A   1      47.386  37.051  30.976  1.00  0.00     0.124 S 
ATOM     77  O   UNL A   1      47.119  37.040  32.412  1.00  0.00    -0.237 OA
ATOM     78  O   UNL A   1      48.793  36.999  30.593  1.00  0.00    -0.237 OA
ATOM     79  O   UNL A   1      46.557  37.963  30.192  1.00  0.00    -0.744 OA
ENDBRANCH  75  76
ENDBRANCH  54  68
BRANCH  55  80
ATOM     80  C   UNL A   1      43.121  23.588  27.343  1.00  0.00     0.058 A 
ATOM     81  C   UNL A   1      42.979  22.565  28.292  1.00  0.00     0.135 A 
ATOM     82  C   UNL A   1      42.898  23.260  25.995  1.00  0.00     0.135 A 
ATOM     83  F   UNL A   1      43.197  22.820  29.592  1.00  0.00    -0.206 F 
ATOM     84  C   UNL A   1      42.655  21.264  27.918  1.00  0.00     0.059 A 
ATOM     85  C   UNL A   1      42.536  21.978  25.601  1.00  0.00     0.059 A 
ATOM     86  F   UNL A   1      43.018  24.200  25.044  1.00  0.00    -0.206 F 
ATOM     87  C   UNL A   1      42.436  20.981  26.568  1.00  0.00     0.060 A 
BRANCH  87  88
ATOM     88  S   UNL A   1      41.998  19.296  26.088  1.00  0.00     0.124 S 
ATOM     89  O   UNL A   1      42.793  19.122  24.879  1.00  0.00    -0.237 OA
ATOM     90  O   UNL A   1      42.423  18.522  27.250  1.00  0.00    -0.237 OA
ATOM     91  O   UNL A   1      40.553  19.371  25.889  1.00  0.00    -0.744 OA
ENDBRANCH  87  88
ENDBRANCH  55  80
BRANCH  67  92
ATOM     92  C   UNL A   1      49.203  26.956  27.195  1.00  0.00     0.058 A 
ATOM     93  C   UNL A   1      49.579  26.882  25.843  1.00  0.00     0.135 A 
ATOM     94  C   UNL A   1      50.155  26.590  28.160  1.00  0.00     0.135 A 
ATOM     95  F   UNL A   1      48.706  27.217  24.880  1.00  0.00    -0.206 F 
ATOM     96  C   UNL A   1      50.829  26.405  25.462  1.00  0.00     0.059 A 
ATOM     97  C   UNL A   1      51.422  26.141  27.802  1.00  0.00     0.059 A 
ATOM     98  F   UNL A   1      49.855  26.658  29.467  1.00  0.00    -0.206 F 
ATOM     99  C   UNL A   1      51.740  26.027  26.450  1.00  0.00     0.060 A 
BRANCH  99 100
ATOM    100  S   UNL A   1      53.348  25.380  25.945  1.00  0.00     0.124 S 
ATOM    101  O   UNL A   1      52.981  24.081  25.393  1.00  0.00    -0.237 OA
ATOM    102  O   UNL A   1      53.799  26.376  24.977  1.00  0.00    -0.237 OA
ATOM    103  O   UNL A   1      54.105  25.343  27.193  1.00  0.00    -0.744 OA
ENDBRANCH  99 100
ENDBRANCH  67  92
ENDBRANCH  41  42
ENDBRANCH  34  36
ENDBRANCH  33  34
ENDBRANCH  32  33
ENDBRANCH  31  32
ENDBRANCH  30  31
ENDBRANCH  29  30
ENDBRANCH   1  29
TORSDOF 23
ENDMDL
MODEL 3
REMARK VINA RESULT:     -10.8      1.929      8.370
REMARK SMILES Cc1ccnc(C(=O)c2[nH]c3cc(F)ccc3c2CC(=O)OCCOCCOCCOC(=O)c2ccc(-c3c4nc(c(-c5c(F)cc(S(=O)(=O)[O-])cc5F)c5ccc([nH]5)c(-c5c(F)cc(S(=O)(=O)[O-])cc5F)c5nc(c(-c6c(F)cc(S(=O)(=O)[O-])cc6F)c6ccc3[nH]6)C=C5)C=C4)cc2)c1
REMARK SMILES IDX 26 1 25 2 24 3 23 4 22 5 20 6 21 7 19 8 18 9 9 10 10 11
REMARK SMILES IDX 11 12 17 14 12 15 16 16 13 17 15 18 14 19 7 20 8 21 6 22
REMARK SMILES IDX 1 23 2 24 3 25 100 26 4 27 5 28 27 29 28 30 29 31 30 32
REMARK SMILES IDX 31 33 32 34 33 35 34 36 35 37 99 38 36 39 98 40 37 41 38 42
REMARK SMILES IDX 39 43 92 44 40 45 97 46 91 47 93 48 41 49 96 50 90 51 89 52
REMARK SMILES IDX 42 54 76 55 55 56 75 57 56 58 59 59 74 60 94 61 57 62 58 63
REMARK SMILES IDX 73 65 95 66 60 67 43 68 44 69 53 70 45 71 46 72 52 73 54 74
REMARK SMILES IDX 47 75 48 76 49 77 50 78 51 79 77 80 78 81 87 82 79 83 80 84
REMARK SMILES IDX 86 85 88 86 81 87 82 88 83 89 84 90 85 91 61 92 62 93 71 94
REMARK SMILES IDX 63 95 64 96 70 97 72 98 65 99 66 100 67 101 68 102 69 103
REMARK H PARENT 10 13 93 53 59 64
REMARK Flexibility Score: inf
ROOT
ATOM      1  C   UNL A   1      40.636  23.112  27.210  1.00  0.00     0.188 C 
ENDROOT
BRANCH   1   2
ATOM      2  O   UNL A   1      39.404  22.656  26.662  1.00  0.00    -0.376 OA
BRANCH   2   3
ATOM      3  C   UNL A   1      38.436  23.634  26.309  1.00  0.00     0.202 C 
BRANCH   3   4
ATOM      4  C   UNL A   1      37.158  23.105  25.655  1.00  0.00     0.261 C 
BRANCH   4   5
ATOM      5  O   UNL A   1      36.014  23.954  25.905  1.00  0.00    -0.463 OA
BRANCH   5   6
ATOM      6  C   UNL A   1      34.813  23.321  25.899  1.00  0.00     0.310 C 
ATOM      7  O   UNL A   1      34.705  22.097  25.831  1.00  0.00    -0.252 OA
BRANCH   6   8
ATOM      8  C   UNL A   1      33.583  24.196  26.053  1.00  0.00     0.161 C 
BRANCH   8   9
ATOM      9  C   UNL A   1      33.242  25.257  25.027  1.00  0.00     0.000 A 
ATOM     10  C   UNL A   1      32.591  26.479  25.247  1.00  0.00     0.093 A 
ATOM     11  N   UNL A   1      32.490  27.112  24.029  1.00  0.00    -0.351 N 
ATOM     12  C   UNL A   1      32.743  26.226  23.014  1.00  0.00     0.049 A 
ATOM     13  H   UNL A   1      32.270  28.063  23.904  1.00  0.00     0.167 HD
ATOM     14  C   UNL A   1      33.248  25.065  23.602  1.00  0.00     0.004 A 
ATOM     15  C   UNL A   1      32.532  26.355  21.637  1.00  0.00     0.066 A 
ATOM     16  C   UNL A   1      33.558  23.971  22.766  1.00  0.00     0.013 A 
ATOM     17  C   UNL A   1      32.801  25.238  20.850  1.00  0.00     0.125 A 
ATOM     18  C   UNL A   1      33.305  24.063  21.392  1.00  0.00     0.040 A 
ATOM     19  F   UNL A   1      32.542  25.292  19.536  1.00  0.00    -0.207 F 
BRANCH  10  20
ATOM     20  C   UNL A   1      32.094  27.034  26.494  1.00  0.00     0.227 C 
ATOM     21  O   UNL A   1      31.245  26.465  27.177  1.00  0.00    -0.285 OA
BRANCH  20  22
ATOM     22  C   UNL A   1      32.595  28.356  26.972  1.00  0.00     0.113 A 
ATOM     23  C   UNL A   1      35.868  30.097  27.715  1.00  0.00     0.044 C 
ATOM     24  C   UNL A   1      34.415  29.831  27.457  1.00  0.00    -0.047 A 
ATOM     25  C   UNL A   1      33.526  30.899  27.294  1.00  0.00     0.023 A 
ATOM     26  C   UNL A   1      33.942  28.528  27.268  1.00  0.00     0.036 A 
ATOM     27  C   UNL A   1      32.192  30.621  27.054  1.00  0.00     0.112 A 
ATOM     28  N   UNL A   1      31.698  29.369  26.929  1.00  0.00    -0.253 NA
ENDBRANCH  20  22
ENDBRANCH  10  20
ENDBRANCH   8   9
ENDBRANCH   6   8
ENDBRANCH   5   6
ENDBRANCH   4   5
ENDBRANCH   3   4
ENDBRANCH   2   3
ENDBRANCH   1   2
BRANCH   1  29
ATOM     29  C   UNL A   1      41.935  22.361  26.842  1.00  0.00     0.188 C 
BRANCH  29  30
ATOM     30  O   UNL A   1      42.219  22.086  25.475  1.00  0.00    -0.376 OA
BRANCH  30  31
ATOM     31  C   UNL A   1      43.229  22.872  24.857  1.00  0.00     0.202 C 
BRANCH  31  32
ATOM     32  C   UNL A   1      43.812  23.970  25.742  1.00  0.00     0.261 C 
BRANCH  32  33
ATOM     33  O   UNL A   1      43.255  25.256  25.409  1.00  0.00    -0.460 OA
BRANCH  33  34
ATOM     34  C   UNL A   1      43.948  26.299  25.924  1.00  0.00     0.338 C 
ATOM     35  O   UNL A   1      45.125  26.552  25.719  1.00  0.00    -0.246 OA
BRANCH  34  36
ATOM     36  C   UNL A   1      43.109  27.151  26.794  1.00  0.00     0.060 A 
ATOM     37  C   UNL A   1      43.450  28.477  27.032  1.00  0.00     0.016 A 
ATOM     38  C   UNL A   1      42.143  26.542  27.593  1.00  0.00     0.016 A 
ATOM     39  C   UNL A   1      42.971  29.133  28.169  1.00  0.00     0.010 A 
ATOM     40  C   UNL A   1      41.583  27.240  28.672  1.00  0.00     0.010 A 
ATOM     41  C   UNL A   1      42.051  28.517  29.027  1.00  0.00    -0.014 A 
BRANCH  41  42
ATOM     42  C   UNL A   1      41.671  29.150  30.331  1.00  0.00     0.031 A 
ATOM     43  C   UNL A   1      40.453  30.050  30.417  1.00  0.00     0.074 A 
ATOM     44  C   UNL A   1      42.365  28.889  31.459  1.00  0.00     0.049 A 
ATOM     45  N   UNL A   1      40.048  30.807  31.407  1.00  0.00    -0.248 NA
ATOM     46  C   UNL A   1      39.569  30.100  29.239  1.00  0.00     0.031 C 
ATOM     47  C   UNL A   1      43.508  27.981  31.562  1.00  0.00     0.029 A 
ATOM     48  N   UNL A   1      42.206  29.361  32.741  1.00  0.00    -0.354 N 
ATOM     49  C   UNL A   1      38.892  31.445  30.962  1.00  0.00     0.074 A 
ATOM     50  C   UNL A   1      38.662  30.995  29.607  1.00  0.00     0.031 C 
ATOM     51  C   UNL A   1      43.924  27.934  32.836  1.00  0.00     0.029 A 
ATOM     52  C   UNL A   1      43.152  28.888  33.623  1.00  0.00     0.049 A 
ATOM     53  H   UNL A   1      41.484  29.977  33.004  1.00  0.00     0.167 HD
ATOM     54  C   UNL A   1      38.098  32.326  31.619  1.00  0.00     0.037 A 
ATOM     55  C   UNL A   1      43.418  29.224  34.902  1.00  0.00     0.037 A 
ATOM     56  C   UNL A   1      38.320  32.772  32.972  1.00  0.00     0.049 A 
ATOM     57  C   UNL A   1      42.590  30.287  35.570  1.00  0.00     0.074 A 
ATOM     58  C   UNL A   1      37.595  33.698  33.705  1.00  0.00     0.029 A 
ATOM     59  N   UNL A   1      39.336  32.322  33.800  1.00  0.00    -0.354 N 
ATOM     60  N   UNL A   1      41.551  30.940  35.105  1.00  0.00    -0.248 NA
ATOM     61  C   UNL A   1      42.986  30.676  36.930  1.00  0.00     0.031 C 
ATOM     62  C   UNL A   1      38.201  33.841  34.957  1.00  0.00     0.029 A 
ATOM     63  C   UNL A   1      39.270  32.965  35.026  1.00  0.00     0.049 A 
ATOM     64  H   UNL A   1      40.006  31.644  33.553  1.00  0.00     0.167 HD
ATOM     65  C   UNL A   1      41.166  31.810  36.120  1.00  0.00     0.074 A 
ATOM     66  C   UNL A   1      42.060  31.574  37.234  1.00  0.00     0.031 C 
ATOM     67  C   UNL A   1      40.169  32.729  36.126  1.00  0.00     0.037 A 
BRANCH  54  68
ATOM     68  C   UNL A   1      36.922  32.909  30.878  1.00  0.00     0.058 A 
ATOM     69  C   UNL A   1      35.612  32.450  31.085  1.00  0.00     0.135 A 
ATOM     70  C   UNL A   1      37.102  33.999  30.009  1.00  0.00     0.135 A 
ATOM     71  F   UNL A   1      35.383  31.397  31.885  1.00  0.00    -0.206 F 
ATOM     72  C   UNL A   1      34.523  33.051  30.457  1.00  0.00     0.059 A 
ATOM     73  C   UNL A   1      36.027  34.628  29.388  1.00  0.00     0.059 A 
ATOM     74  F   UNL A   1      38.335  34.476  29.772  1.00  0.00    -0.206 F 
ATOM     75  C   UNL A   1      34.740  34.144  29.616  1.00  0.00     0.060 A 
BRANCH  75  76
ATOM     76  S   UNL A   1      33.313  34.930  28.837  1.00  0.00     0.124 S 
ATOM     77  O   UNL A   1      32.513  35.298  30.001  1.00  0.00    -0.237 OA
ATOM     78  O   UNL A   1      33.927  36.039  28.114  1.00  0.00    -0.237 OA
ATOM     79  O   UNL A   1      32.754  33.873  28.001  1.00  0.00    -0.744 OA
ENDBRANCH  75  76
ENDBRANCH  54  68
BRANCH  55  80
ATOM     80  C   UNL A   1      44.577  28.613  35.613  1.00  0.00     0.058 A 
ATOM     81  C   UNL A   1      45.866  29.157  35.513  1.00  0.00     0.135 A 
ATOM     82  C   UNL A   1      44.420  27.449  36.383  1.00  0.00     0.135 A 
ATOM     83  F   UNL A   1      46.074  30.259  34.776  1.00  0.00    -0.206 F 
ATOM     84  C   UNL A   1      46.960  28.556  36.129  1.00  0.00     0.059 A 
ATOM     85  C   UNL A   1      45.490  26.852  37.039  1.00  0.00     0.059 A 
ATOM     86  F   UNL A   1      43.208  26.886  36.515  1.00  0.00    -0.206 F 
ATOM     87  C   UNL A   1      46.760  27.402  36.890  1.00  0.00     0.060 A 
BRANCH  87  88
ATOM     88  S   UNL A   1      48.178  26.635  37.703  1.00  0.00     0.124 S 
ATOM     89  O   UNL A   1      49.020  27.793  37.976  1.00  0.00    -0.237 OA
ATOM     90  O   UNL A   1      47.564  26.003  38.867  1.00  0.00    -0.237 OA
ATOM     91  O   UNL A   1      48.683  25.710  36.693  1.00  0.00    -0.744 OA
ENDBRANCH  87  88
ENDBRANCH  55  80
BRANCH  67  92
ATOM     92  C   UNL A   1      39.982  33.520  37.392  1.00  0.00     0.058 A 
ATOM     93  C   UNL A   1      39.087  33.109  38.393  1.00  0.00     0.135 A 
ATOM     94  C   UNL A   1      40.691  34.714  37.598  1.00  0.00     0.135 A 
ATOM     95  F   UNL A   1      38.381  31.976  38.244  1.00  0.00    -0.206 F 
ATOM     96  C   UNL A   1      38.857  33.883  39.526  1.00  0.00     0.059 A 
ATOM     97  C   UNL A   1      40.501  35.488  38.739  1.00  0.00     0.059 A 
ATOM     98  F   UNL A   1      41.572  35.146  36.682  1.00  0.00    -0.206 F 
ATOM     99  C   UNL A   1      39.563  35.078  39.684  1.00  0.00     0.060 A 
BRANCH  99 100
ATOM    100  S   UNL A   1      39.236  36.092  41.141  1.00  0.00     0.124 S 
ATOM    101  O   UNL A   1      40.249  35.603  42.071  1.00  0.00    -0.237 OA
ATOM    102  O   UNL A   1      39.441  37.445  40.636  1.00  0.00    -0.237 OA
ATOM    103  O   UNL A   1      37.856  35.759  41.482  1.00  0.00    -0.744 OA
ENDBRANCH  99 100
ENDBRANCH  67  92
ENDBRANCH  41  42
ENDBRANCH  34  36
ENDBRANCH  33  34
ENDBRANCH  32  33
ENDBRANCH  31  32
ENDBRANCH  30  31
ENDBRANCH  29  30
ENDBRANCH   1  29
TORSDOF 23
ENDMDL
