MODEL 1
REMARK VINA RESULT:      -9.6      0.000      0.000
REMARK SMILES O=C(OCCOCCOCCOC(=O)c1cccnc1-c1ccccn1)c1ccc(-c2c3nc(c(-c4c(F)cc(S(=O)(=O)[O-])cc4F)c4ccc([nH]4)c(-c4c(F)cc(S(=O)(=O)[O-])cc4F)c4nc(c(-c5c(F)cc(S(=O)(=O)[O-])cc5F)c5ccc2[nH]5)C=C4)C=C3)cc1
REMARK SMILES IDX 7 1 6 2 5 3 4 4 3 5 2 6 1 7 27 8 28 9 92 10 29 11 91 12
REMARK SMILES IDX 30 13 31 14 32 15 85 16 33 17 90 18 84 19 86 20 34 21 89 22
REMARK SMILES IDX 83 23 82 24 35 26 69 27 48 28 68 29 49 30 52 31 67 32 87 33
REMARK SMILES IDX 50 34 51 35 66 37 88 38 53 39 36 40 37 41 46 42 38 43 39 44
REMARK SMILES IDX 45 45 47 46 40 47 41 48 42 49 43 50 44 51 70 52 71 53 80 54
REMARK SMILES IDX 72 55 73 56 79 57 81 58 74 59 75 60 76 61 77 62 78 63 54 64
REMARK SMILES IDX 55 65 64 66 56 67 57 68 63 69 65 70 58 71 59 72 60 73 61 74
REMARK SMILES IDX 62 75 8 76 9 77 10 78 11 79 12 80 13 81 14 82 15 83 16 84
REMARK SMILES IDX 20 85 17 86 19 87 18 88 21 89 22 90 26 91 23 92 25 93 24 94
REMARK H PARENT 86 25 52 36
REMARK Flexibility Score: inf
ROOT
ATOM      1  C   UNL A   1      35.014  21.057  25.209  1.00  0.00     0.188 C 
ENDROOT
BRANCH   1   2
ATOM      2  O   UNL A   1      36.099  21.571  24.443  1.00  0.00    -0.376 OA
BRANCH   2   3
ATOM      3  C   UNL A   1      36.162  22.981  24.288  1.00  0.00     0.202 C 
BRANCH   3   4
ATOM      4  C   UNL A   1      37.094  23.663  25.291  1.00  0.00     0.261 C 
BRANCH   4   5
ATOM      5  O   UNL A   1      38.145  22.774  25.708  1.00  0.00    -0.460 OA
BRANCH   5   6
ATOM      6  C   UNL A   1      39.339  23.092  26.262  1.00  0.00     0.338 C 
ATOM      7  O   UNL A   1      40.169  22.192  26.389  1.00  0.00    -0.246 OA
BRANCH   6   8
ATOM      8  C   UNL A   1      39.649  24.424  26.892  1.00  0.00     0.060 A 
ATOM      9  C   UNL A   1      40.421  25.448  26.342  1.00  0.00     0.016 A 
ATOM     10  C   UNL A   1      39.079  24.658  28.162  1.00  0.00     0.016 A 
ATOM     11  C   UNL A   1      40.655  26.638  27.033  1.00  0.00     0.010 A 
ATOM     12  C   UNL A   1      39.287  25.859  28.853  1.00  0.00     0.010 A 
ATOM     13  C   UNL A   1      40.119  26.836  28.304  1.00  0.00    -0.014 A 
BRANCH  13  14
ATOM     14  C   UNL A   1      40.651  27.954  29.113  1.00  0.00     0.031 A 
ATOM     15  C   UNL A   1      39.769  29.155  29.303  1.00  0.00     0.074 A 
ATOM     16  C   UNL A   1      41.805  27.832  29.792  1.00  0.00     0.049 A 
ATOM     17  N   UNL A   1      39.947  30.201  30.065  1.00  0.00    -0.248 NA
ATOM     18  C   UNL A   1      38.498  29.163  28.557  1.00  0.00     0.031 C 
ATOM     19  C   UNL A   1      42.685  26.663  29.758  1.00  0.00     0.029 A 
ATOM     20  N   UNL A   1      42.417  28.687  30.673  1.00  0.00    -0.354 N 
ATOM     21  C   UNL A   1      38.807  30.977  29.904  1.00  0.00     0.074 A 
ATOM     22  C   UNL A   1      37.963  30.310  28.940  1.00  0.00     0.031 C 
ATOM     23  C   UNL A   1      43.717  26.872  30.592  1.00  0.00     0.029 A 
ATOM     24  C   UNL A   1      43.595  28.200  31.185  1.00  0.00     0.049 A 
ATOM     25  H   UNL A   1      42.047  29.566  30.915  1.00  0.00     0.167 HD
ATOM     26  C   UNL A   1      38.480  32.134  30.521  1.00  0.00     0.037 A 
ATOM     27  C   UNL A   1      44.480  28.768  32.028  1.00  0.00     0.037 A 
ATOM     28  C   UNL A   1      39.333  32.803  31.461  1.00  0.00     0.049 A 
ATOM     29  C   UNL A   1      44.159  30.122  32.602  1.00  0.00     0.074 A 
ATOM     30  C   UNL A   1      39.128  34.007  32.108  1.00  0.00     0.029 A 
ATOM     31  N   UNL A   1      40.567  32.323  31.879  1.00  0.00    -0.354 N 
ATOM     32  N   UNL A   1      43.078  30.848  32.438  1.00  0.00    -0.248 NA
ATOM     33  C   UNL A   1      45.165  30.732  33.481  1.00  0.00     0.031 C 
ATOM     34  C   UNL A   1      40.259  34.276  32.886  1.00  0.00     0.029 A 
ATOM     35  C   UNL A   1      41.148  33.218  32.757  1.00  0.00     0.049 A 
ATOM     36  H   UNL A   1      40.968  31.471  31.592  1.00  0.00     0.167 HD
ATOM     37  C   UNL A   1      43.260  31.986  33.214  1.00  0.00     0.074 A 
ATOM     38  C   UNL A   1      44.553  31.849  33.853  1.00  0.00     0.031 C 
ATOM     39  C   UNL A   1      42.434  33.047  33.386  1.00  0.00     0.037 A 
BRANCH  26  40
ATOM     40  C   UNL A   1      37.165  32.751  30.145  1.00  0.00     0.058 A 
ATOM     41  C   UNL A   1      37.013  33.501  28.967  1.00  0.00     0.135 A 
ATOM     42  C   UNL A   1      36.059  32.638  31.001  1.00  0.00     0.135 A 
ATOM     43  F   UNL A   1      38.053  33.667  28.132  1.00  0.00    -0.206 F 
ATOM     44  C   UNL A   1      35.820  34.151  28.670  1.00  0.00     0.059 A 
ATOM     45  C   UNL A   1      34.849  33.262  30.712  1.00  0.00     0.059 A 
ATOM     46  F   UNL A   1      36.158  31.944  32.145  1.00  0.00    -0.206 F 
ATOM     47  C   UNL A   1      34.747  34.033  29.555  1.00  0.00     0.060 A 
BRANCH  47  48
ATOM     48  S   UNL A   1      33.217  34.916  29.181  1.00  0.00     0.124 S 
ATOM     49  O   UNL A   1      32.523  34.849  30.463  1.00  0.00    -0.237 OA
ATOM     50  O   UNL A   1      33.705  36.236  28.792  1.00  0.00    -0.237 OA
ATOM     51  O   UNL A   1      32.626  34.128  28.104  1.00  0.00    -0.744 OA
ENDBRANCH  47  48
ENDBRANCH  26  40
BRANCH  27  52
ATOM     52  C   UNL A   1      45.758  28.076  32.354  1.00  0.00     0.058 A 
ATOM     53  C   UNL A   1      46.901  28.225  31.555  1.00  0.00     0.135 A 
ATOM     54  C   UNL A   1      45.852  27.233  33.474  1.00  0.00     0.135 A 
ATOM     55  F   UNL A   1      46.865  29.015  30.472  1.00  0.00    -0.206 F 
ATOM     56  C   UNL A   1      48.085  27.550  31.843  1.00  0.00     0.059 A 
ATOM     57  C   UNL A   1      47.028  26.564  33.794  1.00  0.00     0.059 A 
ATOM     58  F   UNL A   1      44.796  27.070  34.286  1.00  0.00    -0.206 F 
ATOM     59  C   UNL A   1      48.138  26.721  32.964  1.00  0.00     0.060 A 
BRANCH  59  60
ATOM     60  S   UNL A   1      49.688  25.880  33.355  1.00  0.00     0.124 S 
ATOM     61  O   UNL A   1      49.295  24.480  33.259  1.00  0.00    -0.237 OA
ATOM     62  O   UNL A   1      50.573  26.372  32.304  1.00  0.00    -0.237 OA
ATOM     63  O   UNL A   1      49.996  26.362  34.698  1.00  0.00    -0.744 OA
ENDBRANCH  59  60
ENDBRANCH  27  52
BRANCH  39  64
ATOM     64  C   UNL A   1      42.887  34.128  34.324  1.00  0.00     0.058 A 
ATOM     65  C   UNL A   1      43.529  35.283  33.855  1.00  0.00     0.135 A 
ATOM     66  C   UNL A   1      42.602  34.040  35.696  1.00  0.00     0.135 A 
ATOM     67  F   UNL A   1      43.829  35.409  32.553  1.00  0.00    -0.206 F 
ATOM     68  C   UNL A   1      43.886  36.312  34.718  1.00  0.00     0.059 A 
ATOM     69  C   UNL A   1      42.928  35.067  36.573  1.00  0.00     0.059 A 
ATOM     70  F   UNL A   1      41.978  32.958  36.188  1.00  0.00    -0.206 F 
ATOM     71  C   UNL A   1      43.578  36.196  36.075  1.00  0.00     0.060 A 
BRANCH  71  72
ATOM     72  S   UNL A   1      43.995  37.563  37.179  1.00  0.00     0.124 S 
ATOM     73  O   UNL A   1      44.240  38.641  36.227  1.00  0.00    -0.237 OA
ATOM     74  O   UNL A   1      42.788  37.692  37.989  1.00  0.00    -0.237 OA
ATOM     75  O   UNL A   1      45.172  37.074  37.892  1.00  0.00    -0.744 OA
ENDBRANCH  71  72
ENDBRANCH  39  64
ENDBRANCH  13  14
ENDBRANCH   6   8
ENDBRANCH   5   6
ENDBRANCH   4   5
ENDBRANCH   3   4
ENDBRANCH   2   3
ENDBRANCH   1   2
BRANCH   1  76
ATOM     76  C   UNL A   1      33.597  21.516  24.836  1.00  0.00     0.188 C 
BRANCH  76  77
ATOM     77  O   UNL A   1      32.967  22.566  25.557  1.00  0.00    -0.376 OA
BRANCH  77  78
ATOM     78  C   UNL A   1      31.671  22.368  26.097  1.00  0.00     0.202 C 
BRANCH  78  79
ATOM     79  C   UNL A   1      30.703  23.549  26.076  1.00  0.00     0.261 C 
BRANCH  79  80
ATOM     80  O   UNL A   1      31.262  24.798  26.510  1.00  0.00    -0.460 OA
BRANCH  80  81
ATOM     81  C   UNL A   1      30.589  25.912  26.115  1.00  0.00     0.340 C 
ATOM     82  O   UNL A   1      29.480  25.960  25.620  1.00  0.00    -0.246 OA
BRANCH  81  83
ATOM     83  C   UNL A   1      31.514  27.051  26.195  1.00  0.00     0.088 A 
ATOM     84  C   UNL A   1      31.479  27.827  27.363  1.00  0.00     0.019 A 
ATOM     85  C   UNL A   1      32.422  27.381  25.193  1.00  0.00     0.103 A 
ATOM     86  C   UNL A   1      32.365  28.887  27.511  1.00  0.00     0.021 A 
ATOM     87  N   UNL A   1      33.262  28.456  25.320  1.00  0.00    -0.254 NA
ATOM     88  C   UNL A   1      33.231  29.163  26.471  1.00  0.00     0.112 A 
BRANCH  85  89
ATOM     89  C   UNL A   1      32.559  26.684  23.906  1.00  0.00     0.089 A 
ATOM     90  C   UNL A   1      33.471  25.637  23.761  1.00  0.00     0.031 A 
ATOM     91  N   UNL A   1      31.704  27.026  22.912  1.00  0.00    -0.255 NA
ATOM     92  C   UNL A   1      33.508  24.917  22.570  1.00  0.00     0.004 A 
ATOM     93  C   UNL A   1      31.735  26.285  21.780  1.00  0.00     0.112 A 
ATOM     94  C   UNL A   1      32.612  25.237  21.562  1.00  0.00     0.020 A 
ENDBRANCH  85  89
ENDBRANCH  81  83
ENDBRANCH  80  81
ENDBRANCH  79  80
ENDBRANCH  78  79
ENDBRANCH  77  78
ENDBRANCH  76  77
ENDBRANCH   1  76
TORSDOF 21
ENDMDL
MODEL 2
REMARK VINA RESULT:      -9.3      2.840      3.928
REMARK SMILES O=C(OCCOCCOCCOC(=O)c1cccnc1-c1ccccn1)c1ccc(-c2c3nc(c(-c4c(F)cc(S(=O)(=O)[O-])cc4F)c4ccc([nH]4)c(-c4c(F)cc(S(=O)(=O)[O-])cc4F)c4nc(c(-c5c(F)cc(S(=O)(=O)[O-])cc5F)c5ccc2[nH]5)C=C4)C=C3)cc1
REMARK SMILES IDX 7 1 6 2 5 3 4 4 3 5 2 6 1 7 27 8 28 9 92 10 29 11 91 12
REMARK SMILES IDX 30 13 31 14 32 15 85 16 33 17 90 18 84 19 86 20 34 21 89 22
REMARK SMILES IDX 83 23 82 24 35 26 69 27 48 28 68 29 49 30 52 31 67 32 87 33
REMARK SMILES IDX 50 34 51 35 66 37 88 38 53 39 36 40 37 41 46 42 38 43 39 44
REMARK SMILES IDX 45 45 47 46 40 47 41 48 42 49 43 50 44 51 70 52 71 53 80 54
REMARK SMILES IDX 72 55 73 56 79 57 81 58 74 59 75 60 76 61 77 62 78 63 54 64
REMARK SMILES IDX 55 65 64 66 56 67 57 68 63 69 65 70 58 71 59 72 60 73 61 74
REMARK SMILES IDX 62 75 8 76 9 77 10 78 11 79 12 80 13 81 14 82 15 83 16 84
REMARK SMILES IDX 20 85 17 86 19 87 18 88 21 89 22 90 26 91 23 92 25 93 24 94
REMARK H PARENT 86 25 52 36
REMARK Flexibility Score: inf
ROOT
ATOM      1  C   UNL A   1      39.731  21.764  26.437  1.00  0.00     0.188 C 
ENDROOT
BRANCH   1   2
ATOM      2  O   UNL A   1      40.756  20.777  26.491  1.00  0.00    -0.376 OA
BRANCH   2   3
ATOM      3  C   UNL A   1      42.096  21.247  26.535  1.00  0.00     0.202 C 
BRANCH   3   4
ATOM      4  C   UNL A   1      42.324  22.336  27.583  1.00  0.00     0.261 C 
BRANCH   4   5
ATOM      5  O   UNL A   1      42.893  23.516  26.989  1.00  0.00    -0.460 OA
BRANCH   5   6
ATOM      6  C   UNL A   1      42.264  24.665  26.644  1.00  0.00     0.338 C 
ATOM      7  O   UNL A   1      41.998  24.837  25.455  1.00  0.00    -0.246 OA
BRANCH   6   8
ATOM      8  C   UNL A   1      42.032  25.816  27.587  1.00  0.00     0.060 A 
ATOM      9  C   UNL A   1      42.785  26.989  27.673  1.00  0.00     0.016 A 
ATOM     10  C   UNL A   1      40.925  25.695  28.453  1.00  0.00     0.016 A 
ATOM     11  C   UNL A   1      42.482  27.982  28.606  1.00  0.00     0.010 A 
ATOM     12  C   UNL A   1      40.598  26.699  29.375  1.00  0.00     0.010 A 
ATOM     13  C   UNL A   1      41.410  27.829  29.482  1.00  0.00    -0.014 A 
BRANCH  13  14
ATOM     14  C   UNL A   1      41.328  28.742  30.643  1.00  0.00     0.031 A 
ATOM     15  C   UNL A   1      40.240  29.776  30.637  1.00  0.00     0.074 A 
ATOM     16  C   UNL A   1      42.087  28.545  31.735  1.00  0.00     0.049 A 
ATOM     17  N   UNL A   1      39.879  30.603  31.582  1.00  0.00    -0.248 NA
ATOM     18  C   UNL A   1      39.427  29.870  29.412  1.00  0.00     0.031 C 
ATOM     19  C   UNL A   1      43.103  27.501  31.881  1.00  0.00     0.029 A 
ATOM     20  N   UNL A   1      42.097  29.193  32.944  1.00  0.00    -0.354 N 
ATOM     21  C   UNL A   1      38.789  31.297  31.072  1.00  0.00     0.074 A 
ATOM     22  C   UNL A   1      38.574  30.832  29.722  1.00  0.00     0.031 C 
ATOM     23  C   UNL A   1      43.626  27.574  33.117  1.00  0.00     0.029 A 
ATOM     24  C   UNL A   1      43.016  28.690  33.832  1.00  0.00     0.049 A 
ATOM     25  H   UNL A   1      41.500  29.947  33.156  1.00  0.00     0.167 HD
ATOM     26  C   UNL A   1      38.020  32.226  31.683  1.00  0.00     0.037 A 
ATOM     27  C   UNL A   1      43.338  29.095  35.078  1.00  0.00     0.037 A 
ATOM     28  C   UNL A   1      38.253  32.700  33.017  1.00  0.00     0.049 A 
ATOM     29  C   UNL A   1      42.554  30.225  35.690  1.00  0.00     0.074 A 
ATOM     30  C   UNL A   1      37.570  33.676  33.718  1.00  0.00     0.029 A 
ATOM     31  N   UNL A   1      39.260  32.233  33.850  1.00  0.00    -0.354 N 
ATOM     32  N   UNL A   1      41.528  30.876  35.195  1.00  0.00    -0.248 NA
ATOM     33  C   UNL A   1      42.960  30.671  37.030  1.00  0.00     0.031 C 
ATOM     34  C   UNL A   1      38.193  33.829  34.961  1.00  0.00     0.029 A 
ATOM     35  C   UNL A   1      39.235  32.917  35.050  1.00  0.00     0.049 A 
ATOM     36  H   UNL A   1      39.898  31.519  33.619  1.00  0.00     0.167 HD
ATOM     37  C   UNL A   1      41.147  31.789  36.172  1.00  0.00     0.074 A 
ATOM     38  C   UNL A   1      42.049  31.600  37.290  1.00  0.00     0.031 C 
ATOM     39  C   UNL A   1      40.142  32.698  36.150  1.00  0.00     0.037 A 
BRANCH  26  40
ATOM     40  C   UNL A   1      36.897  32.807  30.875  1.00  0.00     0.058 A 
ATOM     41  C   UNL A   1      37.100  33.889  30.003  1.00  0.00     0.135 A 
ATOM     42  C   UNL A   1      35.591  32.314  31.020  1.00  0.00     0.135 A 
ATOM     43  F   UNL A   1      38.326  34.419  29.856  1.00  0.00    -0.206 F 
ATOM     44  C   UNL A   1      36.040  34.487  29.330  1.00  0.00     0.059 A 
ATOM     45  C   UNL A   1      34.520  32.883  30.339  1.00  0.00     0.059 A 
ATOM     46  F   UNL A   1      35.344  31.291  31.853  1.00  0.00    -0.206 F 
ATOM     47  C   UNL A   1      34.751  33.981  29.512  1.00  0.00     0.060 A 
BRANCH  47  48
ATOM     48  S   UNL A   1      33.377  34.792  28.668  1.00  0.00     0.124 S 
ATOM     49  O   UNL A   1      32.469  35.056  29.779  1.00  0.00    -0.237 OA
ATOM     50  O   UNL A   1      34.018  35.965  28.082  1.00  0.00    -0.237 OA
ATOM     51  O   UNL A   1      32.926  33.786  27.712  1.00  0.00    -0.744 OA
ENDBRANCH  47  48
ENDBRANCH  26  40
BRANCH  27  52
ATOM     52  C   UNL A   1      44.463  28.451  35.809  1.00  0.00     0.058 A 
ATOM     53  C   UNL A   1      45.789  28.874  35.642  1.00  0.00     0.135 A 
ATOM     54  C   UNL A   1      44.228  27.379  36.686  1.00  0.00     0.135 A 
ATOM     55  F   UNL A   1      46.069  29.892  34.814  1.00  0.00    -0.206 F 
ATOM     56  C   UNL A   1      46.844  28.249  36.302  1.00  0.00     0.059 A 
ATOM     57  C   UNL A   1      45.262  26.750  37.372  1.00  0.00     0.059 A 
ATOM     58  F   UNL A   1      42.977  26.945  36.901  1.00  0.00    -0.206 F 
ATOM     59  C   UNL A   1      46.570  27.186  37.164  1.00  0.00     0.060 A 
BRANCH  59  60
ATOM     60  S   UNL A   1      47.938  26.404  38.048  1.00  0.00     0.124 S 
ATOM     61  O   UNL A   1      47.660  24.991  37.826  1.00  0.00    -0.237 OA
ATOM     62  O   UNL A   1      49.099  26.948  37.350  1.00  0.00    -0.237 OA
ATOM     63  O   UNL A   1      47.761  26.879  39.416  1.00  0.00    -0.744 OA
ENDBRANCH  59  60
ENDBRANCH  27  52
BRANCH  39  64
ATOM     64  C   UNL A   1      39.943  33.536  37.379  1.00  0.00     0.058 A 
ATOM     65  C   UNL A   1      40.660  34.724  37.580  1.00  0.00     0.135 A 
ATOM     66  C   UNL A   1      38.966  33.184  38.324  1.00  0.00     0.135 A 
ATOM     67  F   UNL A   1      41.609  35.097  36.707  1.00  0.00    -0.206 F 
ATOM     68  C   UNL A   1      40.425  35.531  38.686  1.00  0.00     0.059 A 
ATOM     69  C   UNL A   1      38.698  33.990  39.425  1.00  0.00     0.059 A 
ATOM     70  F   UNL A   1      38.247  32.061  38.168  1.00  0.00    -0.206 F 
ATOM     71  C   UNL A   1      39.438  35.158  39.601  1.00  0.00     0.060 A 
BRANCH  71  72
ATOM     72  S   UNL A   1      39.101  36.242  41.003  1.00  0.00     0.124 S 
ATOM     73  O   UNL A   1      40.298  36.050  41.815  1.00  0.00    -0.237 OA
ATOM     74  O   UNL A   1      38.968  37.548  40.366  1.00  0.00    -0.237 OA
ATOM     75  O   UNL A   1      37.868  35.697  41.564  1.00  0.00    -0.744 OA
ENDBRANCH  71  72
ENDBRANCH  39  64
ENDBRANCH  13  14
ENDBRANCH   6   8
ENDBRANCH   5   6
ENDBRANCH   4   5
ENDBRANCH   3   4
ENDBRANCH   2   3
ENDBRANCH   1   2
BRANCH   1  76
ATOM     76  C   UNL A   1      38.543  21.509  25.500  1.00  0.00     0.188 C 
BRANCH  76  77
ATOM     77  O   UNL A   1      37.307  22.180  25.705  1.00  0.00    -0.376 OA
BRANCH  77  78
ATOM     78  C   UNL A   1      36.965  23.287  24.885  1.00  0.00     0.202 C 
BRANCH  78  79
ATOM     79  C   UNL A   1      35.534  23.366  24.358  1.00  0.00     0.261 C 
BRANCH  79  80
ATOM     80  O   UNL A   1      34.981  24.690  24.308  1.00  0.00    -0.460 OA
BRANCH  80  81
ATOM     81  C   UNL A   1      33.924  24.853  23.467  1.00  0.00     0.340 C 
ATOM     82  O   UNL A   1      33.965  25.023  22.264  1.00  0.00    -0.246 OA
BRANCH  81  83
ATOM     83  C   UNL A   1      32.712  24.995  24.285  1.00  0.00     0.088 A 
ATOM     84  C   UNL A   1      32.368  26.288  24.707  1.00  0.00     0.019 A 
ATOM     85  C   UNL A   1      31.889  23.929  24.639  1.00  0.00     0.103 A 
ATOM     86  C   UNL A   1      31.205  26.485  25.442  1.00  0.00     0.021 A 
ATOM     87  N   UNL A   1      30.769  24.119  25.405  1.00  0.00    -0.254 NA
ATOM     88  C   UNL A   1      30.444  25.380  25.766  1.00  0.00     0.112 A 
BRANCH  85  89
ATOM     89  C   UNL A   1      32.129  22.520  24.298  1.00  0.00     0.089 A 
ATOM     90  C   UNL A   1      32.328  21.571  25.302  1.00  0.00     0.031 A 
ATOM     91  N   UNL A   1      32.048  22.167  22.992  1.00  0.00    -0.255 NA
ATOM     92  C   UNL A   1      32.443  20.225  24.964  1.00  0.00     0.004 A 
ATOM     93  C   UNL A   1      32.124  20.849  22.695  1.00  0.00     0.112 A 
ATOM     94  C   UNL A   1      32.324  19.853  23.633  1.00  0.00     0.020 A 
ENDBRANCH  85  89
ENDBRANCH  81  83
ENDBRANCH  80  81
ENDBRANCH  79  80
ENDBRANCH  78  79
ENDBRANCH  77  78
ENDBRANCH  76  77
ENDBRANCH   1  76
TORSDOF 21
ENDMDL
MODEL 3
REMARK VINA RESULT:      -9.2      3.492      4.994
REMARK SMILES O=C(OCCOCCOCCOC(=O)c1cccnc1-c1ccccn1)c1ccc(-c2c3nc(c(-c4c(F)cc(S(=O)(=O)[O-])cc4F)c4ccc([nH]4)c(-c4c(F)cc(S(=O)(=O)[O-])cc4F)c4nc(c(-c5c(F)cc(S(=O)(=O)[O-])cc5F)c5ccc2[nH]5)C=C4)C=C3)cc1
REMARK SMILES IDX 7 1 6 2 5 3 4 4 3 5 2 6 1 7 27 8 28 9 92 10 29 11 91 12
REMARK SMILES IDX 30 13 31 14 32 15 85 16 33 17 90 18 84 19 86 20 34 21 89 22
REMARK SMILES IDX 83 23 82 24 35 26 69 27 48 28 68 29 49 30 52 31 67 32 87 33
REMARK SMILES IDX 50 34 51 35 66 37 88 38 53 39 36 40 37 41 46 42 38 43 39 44
REMARK SMILES IDX 45 45 47 46 40 47 41 48 42 49 43 50 44 51 70 52 71 53 80 54
REMARK SMILES IDX 72 55 73 56 79 57 81 58 74 59 75 60 76 61 77 62 78 63 54 64
REMARK SMILES IDX 55 65 64 66 56 67 57 68 63 69 65 70 58 71 59 72 60 73 61 74
REMARK SMILES IDX 62 75 8 76 9 77 10 78 11 79 12 80 13 81 14 82 15 83 16 84
REMARK SMILES IDX 20 85 17 86 19 87 18 88 21 89 22 90 26 91 23 92 25 93 24 94
REMARK H PARENT 86 25 52 36
REMARK Flexibility Score: inf
ROOT
ATOM      1  C   UNL A   1      39.647  21.604  26.350  1.00  0.00     0.188 C 
ENDROOT
BRANCH   1   2
ATOM      2  O   UNL A   1      40.757  20.717  26.250  1.00  0.00    -0.376 OA
BRANCH   2   3
ATOM      3  C   UNL A   1      42.048  21.285  26.413  1.00  0.00     0.202 C 
BRANCH   3   4
ATOM      4  C   UNL A   1      42.139  22.263  27.586  1.00  0.00     0.261 C 
BRANCH   4   5
ATOM      5  O   UNL A   1      42.970  23.389  27.259  1.00  0.00    -0.460 OA
BRANCH   5   6
ATOM      6  C   UNL A   1      42.586  24.618  26.839  1.00  0.00     0.338 C 
ATOM      7  O   UNL A   1      42.585  24.835  25.627  1.00  0.00    -0.246 OA
BRANCH   6   8
ATOM      8  C   UNL A   1      42.332  25.784  27.758  1.00  0.00     0.060 A 
ATOM      9  C   UNL A   1      43.120  26.928  27.892  1.00  0.00     0.016 A 
ATOM     10  C   UNL A   1      41.164  25.710  28.546  1.00  0.00     0.016 A 
ATOM     11  C   UNL A   1      42.792  27.938  28.797  1.00  0.00     0.010 A 
ATOM     12  C   UNL A   1      40.812  26.731  29.439  1.00  0.00     0.010 A 
ATOM     13  C   UNL A   1      41.657  27.831  29.597  1.00  0.00    -0.014 A 
BRANCH  13  14
ATOM     14  C   UNL A   1      41.530  28.754  30.746  1.00  0.00     0.031 A 
ATOM     15  C   UNL A   1      40.416  29.761  30.707  1.00  0.00     0.074 A 
ATOM     16  C   UNL A   1      42.271  28.588  31.855  1.00  0.00     0.049 A 
ATOM     17  N   UNL A   1      40.016  30.589  31.636  1.00  0.00    -0.248 NA
ATOM     18  C   UNL A   1      39.625  29.822  29.466  1.00  0.00     0.031 C 
ATOM     19  C   UNL A   1      43.309  27.572  32.033  1.00  0.00     0.029 A 
ATOM     20  N   UNL A   1      42.241  29.249  33.056  1.00  0.00    -0.354 N 
ATOM     21  C   UNL A   1      38.920  31.250  31.097  1.00  0.00     0.074 A 
ATOM     22  C   UNL A   1      38.743  30.765  29.748  1.00  0.00     0.031 C 
ATOM     23  C   UNL A   1      43.805  27.671  33.278  1.00  0.00     0.029 A 
ATOM     24  C   UNL A   1      43.155  28.779  33.968  1.00  0.00     0.049 A 
ATOM     25  H   UNL A   1      41.621  29.991  33.248  1.00  0.00     0.167 HD
ATOM     26  C   UNL A   1      38.116  32.166  31.681  1.00  0.00     0.037 A 
ATOM     27  C   UNL A   1      43.441  29.205  35.215  1.00  0.00     0.037 A 
ATOM     28  C   UNL A   1      38.311  32.660  33.014  1.00  0.00     0.049 A 
ATOM     29  C   UNL A   1      42.618  30.322  35.799  1.00  0.00     0.074 A 
ATOM     30  C   UNL A   1      37.590  33.626  33.691  1.00  0.00     0.029 A 
ATOM     31  N   UNL A   1      39.313  32.227  33.872  1.00  0.00    -0.354 N 
ATOM     32  N   UNL A   1      41.586  30.942  35.277  1.00  0.00    -0.248 NA
ATOM     33  C   UNL A   1      42.986  30.792  37.142  1.00  0.00     0.031 C 
ATOM     34  C   UNL A   1      38.185  33.808  34.944  1.00  0.00     0.029 A 
ATOM     35  C   UNL A   1      39.247  32.924  35.064  1.00  0.00     0.049 A 
ATOM     36  H   UNL A   1      39.973  31.527  33.662  1.00  0.00     0.167 HD
ATOM     37  C   UNL A   1      41.164  31.856  36.236  1.00  0.00     0.074 A 
ATOM     38  C   UNL A   1      42.048  31.701  37.373  1.00  0.00     0.031 C 
ATOM     39  C   UNL A   1      40.136  32.739  36.183  1.00  0.00     0.037 A 
BRANCH  26  40
ATOM     40  C   UNL A   1      36.995  32.710  30.845  1.00  0.00     0.058 A 
ATOM     41  C   UNL A   1      37.135  33.898  30.110  1.00  0.00     0.135 A 
ATOM     42  C   UNL A   1      35.748  32.067  30.827  1.00  0.00     0.135 A 
ATOM     43  F   UNL A   1      38.299  34.570  30.123  1.00  0.00    -0.206 F 
ATOM     44  C   UNL A   1      36.065  34.451  29.414  1.00  0.00     0.059 A 
ATOM     45  C   UNL A   1      34.671  32.591  30.120  1.00  0.00     0.059 A 
ATOM     46  F   UNL A   1      35.561  30.937  31.526  1.00  0.00    -0.206 F 
ATOM     47  C   UNL A   1      34.834  33.793  29.433  1.00  0.00     0.060 A 
BRANCH  47  48
ATOM     48  S   UNL A   1      33.440  34.541  28.563  1.00  0.00     0.124 S 
ATOM     49  O   UNL A   1      32.598  34.968  29.676  1.00  0.00    -0.237 OA
ATOM     50  O   UNL A   1      34.082  35.613  27.808  1.00  0.00    -0.237 OA
ATOM     51  O   UNL A   1      32.913  33.443  27.760  1.00  0.00    -0.744 OA
ENDBRANCH  47  48
ENDBRANCH  26  40
BRANCH  27  52
ATOM     52  C   UNL A   1      44.567  28.597  35.976  1.00  0.00     0.058 A 
ATOM     53  C   UNL A   1      44.362  27.546  36.881  1.00  0.00     0.135 A 
ATOM     54  C   UNL A   1      45.879  29.075  35.820  1.00  0.00     0.135 A 
ATOM     55  F   UNL A   1      43.129  27.054  37.070  1.00  0.00    -0.206 F 
ATOM     56  C   UNL A   1      45.413  27.001  37.616  1.00  0.00     0.059 A 
ATOM     57  C   UNL A   1      46.947  28.535  36.527  1.00  0.00     0.059 A 
ATOM     58  F   UNL A   1      46.138  30.065  34.951  1.00  0.00    -0.206 F 
ATOM     59  C   UNL A   1      46.701  27.504  37.433  1.00  0.00     0.060 A 
BRANCH  59  60
ATOM     60  S   UNL A   1      48.065  26.767  38.361  1.00  0.00     0.124 S 
ATOM     61  O   UNL A   1      47.998  27.504  39.617  1.00  0.00    -0.237 OA
ATOM     62  O   UNL A   1      47.669  25.363  38.418  1.00  0.00    -0.237 OA
ATOM     63  O   UNL A   1      49.225  27.048  37.521  1.00  0.00    -0.744 OA
ENDBRANCH  59  60
ENDBRANCH  27  52
BRANCH  39  64
ATOM     64  C   UNL A   1      39.892  33.585  37.399  1.00  0.00     0.058 A 
ATOM     65  C   UNL A   1      40.566  34.800  37.593  1.00  0.00     0.135 A 
ATOM     66  C   UNL A   1      38.917  33.211  38.336  1.00  0.00     0.135 A 
ATOM     67  F   UNL A   1      41.512  35.195  36.727  1.00  0.00    -0.206 F 
ATOM     68  C   UNL A   1      40.288  35.612  38.685  1.00  0.00     0.059 A 
ATOM     69  C   UNL A   1      38.606  34.021  39.423  1.00  0.00     0.059 A 
ATOM     70  F   UNL A   1      38.239  32.062  38.186  1.00  0.00    -0.206 F 
ATOM     71  C   UNL A   1      39.303  35.216  39.593  1.00  0.00     0.060 A 
BRANCH  71  72
ATOM     72  S   UNL A   1      38.910  36.306  40.977  1.00  0.00     0.124 S 
ATOM     73  O   UNL A   1      38.562  37.542  40.285  1.00  0.00    -0.237 OA
ATOM     74  O   UNL A   1      37.805  35.607  41.623  1.00  0.00    -0.237 OA
ATOM     75  O   UNL A   1      40.154  36.343  41.742  1.00  0.00    -0.744 OA
ENDBRANCH  71  72
ENDBRANCH  39  64
ENDBRANCH  13  14
ENDBRANCH   6   8
ENDBRANCH   5   6
ENDBRANCH   4   5
ENDBRANCH   3   4
ENDBRANCH   2   3
ENDBRANCH   1   2
BRANCH   1  76
ATOM     76  C   UNL A   1      38.517  21.453  25.323  1.00  0.00     0.188 C 
BRANCH  76  77
ATOM     77  O   UNL A   1      37.167  21.329  25.750  1.00  0.00    -0.376 OA
BRANCH  77  78
ATOM     78  C   UNL A   1      36.377  22.494  25.928  1.00  0.00     0.202 C 
BRANCH  78  79
ATOM     79  C   UNL A   1      34.913  22.433  25.497  1.00  0.00     0.261 C 
BRANCH  79  80
ATOM     80  O   UNL A   1      34.430  21.119  25.178  1.00  0.00    -0.460 OA
BRANCH  80  81
ATOM     81  C   UNL A   1      33.079  20.963  25.222  1.00  0.00     0.340 C 
ATOM     82  O   UNL A   1      32.378  20.933  26.215  1.00  0.00    -0.246 OA
BRANCH  81  83
ATOM     83  C   UNL A   1      32.617  20.629  23.868  1.00  0.00     0.088 A 
ATOM     84  C   UNL A   1      32.176  21.687  23.060  1.00  0.00     0.019 A 
ATOM     85  C   UNL A   1      32.614  19.338  23.350  1.00  0.00     0.103 A 
ATOM     86  C   UNL A   1      31.774  21.433  21.754  1.00  0.00     0.021 A 
ATOM     87  N   UNL A   1      32.172  19.082  22.078  1.00  0.00    -0.254 NA
ATOM     88  C   UNL A   1      31.788  20.126  21.311  1.00  0.00     0.112 A 
BRANCH  85  89
ATOM     89  C   UNL A   1      33.019  18.127  24.079  1.00  0.00     0.089 A 
ATOM     90  C   UNL A   1      34.295  17.588  23.905  1.00  0.00     0.031 A 
ATOM     91  N   UNL A   1      32.154  17.625  24.992  1.00  0.00    -0.255 NA
ATOM     92  C   UNL A   1      34.698  16.508  24.685  1.00  0.00     0.004 A 
ATOM     93  C   UNL A   1      32.585  16.601  25.765  1.00  0.00     0.112 A 
ATOM     94  C   UNL A   1      33.831  16.012  25.647  1.00  0.00     0.020 A 
ENDBRANCH  85  89
ENDBRANCH  81  83
ENDBRANCH  80  81
ENDBRANCH  79  80
ENDBRANCH  78  79
ENDBRANCH  77  78
ENDBRANCH  76  77
ENDBRANCH   1  76
TORSDOF 21
ENDMDL
