MODEL 1
REMARK VINA RESULT:      -9.0      0.000      0.000
REMARK SMILES Nc1ccc(O)c(C(=O)OCCOCCOCCOC(=O)c2ccc(-c3c4nc(c(-c5c(F)cc(S(=O)(=O)[O-])cc5F)c5ccc([nH]5)c(-c5c(F)cc(S(=O)(=O)[O-])cc5F)c5nc(c(-c6c(F)cc(S(=O)(=O)[O-])cc6F)c6ccc3[nH]6)C=C5)C=C4)cc2)c1
REMARK SMILES IDX 15 1 14 2 13 3 12 4 11 5 10 6 8 7 9 8 7 9 2 10 3 11 88 12
REMARK SMILES IDX 4 13 5 14 1 15 6 18 16 20 17 21 18 22 19 23 20 24 21 25
REMARK SMILES IDX 22 26 23 27 87 28 24 29 86 30 25 31 26 32 27 33 80 34 28 35
REMARK SMILES IDX 85 36 79 37 81 38 29 39 84 40 78 41 77 42 30 44 64 45 43 46
REMARK SMILES IDX 63 47 44 48 47 49 62 50 82 51 45 52 46 53 61 55 83 56 48 57
REMARK SMILES IDX 31 58 32 59 41 60 33 61 34 62 40 63 42 64 35 65 36 66 37 67
REMARK SMILES IDX 38 68 39 69 65 70 66 71 75 72 67 73 68 74 74 75 76 76 69 77
REMARK SMILES IDX 70 78 71 79 72 80 73 81 49 82 50 83 59 84 51 85 52 86 58 87
REMARK SMILES IDX 60 88 53 89 54 90 55 91 56 92 57 93
REMARK H PARENT 1 16 1 17 6 19 81 43 47 54
REMARK Flexibility Score: inf
ROOT
ATOM      1  C   UNL A   1      32.977  35.528  30.909  1.00  0.00     0.188 C 
ENDROOT
BRANCH   1   2
ATOM      2  C   UNL A   1      33.258  36.910  31.533  1.00  0.00     0.188 C 
BRANCH   2   3
ATOM      3  O   UNL A   1      34.241  37.050  32.535  1.00  0.00    -0.376 OA
BRANCH   3   4
ATOM      4  C   UNL A   1      34.375  36.101  33.575  1.00  0.00     0.202 C 
BRANCH   4   5
ATOM      5  C   UNL A   1      35.253  34.843  33.497  1.00  0.00     0.261 C 
BRANCH   5   6
ATOM      6  O   UNL A   1      36.544  34.988  32.899  1.00  0.00    -0.460 OA
BRANCH   6   7
ATOM      7  C   UNL A   1      36.893  33.988  32.050  1.00  0.00     0.342 C 
ATOM      8  O   UNL A   1      36.763  33.982  30.835  1.00  0.00    -0.246 OA
BRANCH   7   9
ATOM      9  C   UNL A   1      37.691  32.963  32.746  1.00  0.00     0.103 A 
ATOM     10  C   UNL A   1      37.989  30.707  33.586  1.00  0.00     0.032 A 
ATOM     11  C   UNL A   1      39.224  31.092  34.120  1.00  0.00     0.029 A 
ATOM     12  C   UNL A   1      37.230  31.647  32.882  1.00  0.00     0.045 A 
ATOM     13  C   UNL A   1      39.677  32.408  34.005  1.00  0.00     0.049 A 
ATOM     14  C   UNL A   1      38.915  33.338  33.311  1.00  0.00     0.130 A 
BRANCH  10  15
ATOM     15  N   UNL A   1      37.586  29.381  33.650  1.00  0.00    -0.399 N 
ATOM     16  H   UNL A   1      36.646  29.144  33.480  1.00  0.00     0.156 HD
ATOM     17  H   UNL A   1      38.241  28.679  33.865  1.00  0.00     0.156 HD
ENDBRANCH  10  15
BRANCH  14  18
ATOM     18  O   UNL A   1      39.415  34.611  33.249  1.00  0.00    -0.507 OA
ATOM     19  H   UNL A   1      39.751  35.021  34.021  1.00  0.00     0.293 HD
ENDBRANCH  14  18
ENDBRANCH   7   9
ENDBRANCH   6   7
ENDBRANCH   5   6
ENDBRANCH   4   5
ENDBRANCH   3   4
ENDBRANCH   2   3
ENDBRANCH   1   2
BRANCH   1  20
ATOM     20  O   UNL A   1      33.878  34.964  29.980  1.00  0.00    -0.376 OA
BRANCH  20  21
ATOM     21  C   UNL A   1      33.441  34.612  28.680  1.00  0.00     0.202 C 
BRANCH  21  22
ATOM     22  C   UNL A   1      33.537  33.200  28.080  1.00  0.00     0.261 C 
BRANCH  22  23
ATOM     23  O   UNL A   1      34.495  32.308  28.656  1.00  0.00    -0.460 OA
BRANCH  23  24
ATOM     24  C   UNL A   1      34.429  31.030  28.219  1.00  0.00     0.338 C 
ATOM     25  O   UNL A   1      33.490  30.495  27.635  1.00  0.00    -0.246 OA
BRANCH  24  26
ATOM     26  C   UNL A   1      35.736  30.381  28.400  1.00  0.00     0.060 A 
ATOM     27  C   UNL A   1      36.103  29.949  29.682  1.00  0.00     0.016 A 
ATOM     28  C   UNL A   1      36.615  30.241  27.324  1.00  0.00     0.016 A 
ATOM     29  C   UNL A   1      37.363  29.391  29.895  1.00  0.00     0.010 A 
ATOM     30  C   UNL A   1      37.884  29.701  27.546  1.00  0.00     0.010 A 
ATOM     31  C   UNL A   1      38.275  29.299  28.837  1.00  0.00    -0.014 A 
BRANCH  31  32
ATOM     32  C   UNL A   1      39.689  28.940  29.106  1.00  0.00     0.031 A 
ATOM     33  C   UNL A   1      40.594  29.982  29.707  1.00  0.00     0.074 A 
ATOM     34  C   UNL A   1      40.161  27.712  28.828  1.00  0.00     0.049 A 
ATOM     35  N   UNL A   1      41.876  29.924  29.957  1.00  0.00    -0.248 NA
ATOM     36  C   UNL A   1      39.967  31.263  30.072  1.00  0.00     0.031 C 
ATOM     37  C   UNL A   1      39.374  26.604  28.288  1.00  0.00     0.029 A 
ATOM     38  N   UNL A   1      41.427  27.194  28.954  1.00  0.00    -0.354 N 
ATOM     39  C   UNL A   1      42.211  31.157  30.503  1.00  0.00     0.074 A 
ATOM     40  C   UNL A   1      41.005  31.955  30.520  1.00  0.00     0.031 C 
ATOM     41  C   UNL A   1      40.182  25.544  28.107  1.00  0.00     0.029 A 
ATOM     42  C   UNL A   1      41.546  25.907  28.488  1.00  0.00     0.049 A 
ATOM     43  H   UNL A   1      42.179  27.698  29.341  1.00  0.00     0.167 HD
ATOM     44  C   UNL A   1      43.414  31.583  30.956  1.00  0.00     0.037 A 
ATOM     45  C   UNL A   1      42.636  25.123  28.358  1.00  0.00     0.037 A 
ATOM     46  C   UNL A   1      44.612  30.785  30.936  1.00  0.00     0.049 A 
ATOM     47  C   UNL A   1      43.980  25.647  28.800  1.00  0.00     0.074 A 
ATOM     48  C   UNL A   1      45.878  31.123  31.383  1.00  0.00     0.029 A 
ATOM     49  N   UNL A   1      44.697  29.494  30.436  1.00  0.00    -0.354 N 
ATOM     50  N   UNL A   1      44.281  26.809  29.333  1.00  0.00    -0.248 NA
ATOM     51  C   UNL A   1      45.135  24.753  28.625  1.00  0.00     0.031 C 
ATOM     52  C   UNL A   1      46.738  30.056  31.107  1.00  0.00     0.029 A 
ATOM     53  C   UNL A   1      45.998  29.031  30.543  1.00  0.00     0.049 A 
ATOM     54  H   UNL A   1      43.945  28.982  30.062  1.00  0.00     0.167 HD
ATOM     55  C   UNL A   1      45.650  26.770  29.587  1.00  0.00     0.074 A 
ATOM     56  C   UNL A   1      46.116  25.468  29.158  1.00  0.00     0.031 C 
ATOM     57  C   UNL A   1      46.448  27.725  30.126  1.00  0.00     0.037 A 
BRANCH  44  58
ATOM     58  C   UNL A   1      43.502  32.983  31.496  1.00  0.00     0.058 A 
ATOM     59  C   UNL A   1      43.226  33.277  32.841  1.00  0.00     0.135 A 
ATOM     60  C   UNL A   1      43.918  34.040  30.669  1.00  0.00     0.135 A 
ATOM     61  F   UNL A   1      42.805  32.308  33.671  1.00  0.00    -0.206 F 
ATOM     62  C   UNL A   1      43.342  34.569  33.343  1.00  0.00     0.059 A 
ATOM     63  C   UNL A   1      44.068  35.334  31.155  1.00  0.00     0.059 A 
ATOM     64  F   UNL A   1      44.191  33.817  29.373  1.00  0.00    -0.206 F 
ATOM     65  C   UNL A   1      43.769  35.591  32.492  1.00  0.00     0.060 A 
BRANCH  65  66
ATOM     66  S   UNL A   1      43.937  37.257  33.166  1.00  0.00     0.124 S 
ATOM     67  O   UNL A   1      45.251  37.186  33.798  1.00  0.00    -0.237 OA
ATOM     68  O   UNL A   1      43.855  38.087  31.968  1.00  0.00    -0.237 OA
ATOM     69  O   UNL A   1      42.806  37.370  34.082  1.00  0.00    -0.744 OA
ENDBRANCH  65  66
ENDBRANCH  44  58
BRANCH  45  70
ATOM     70  C   UNL A   1      42.515  23.762  27.764  1.00  0.00     0.058 A 
ATOM     71  C   UNL A   1      42.371  22.625  28.573  1.00  0.00     0.135 A 
ATOM     72  C   UNL A   1      42.572  23.571  26.374  1.00  0.00     0.135 A 
ATOM     73  F   UNL A   1      42.328  22.754  29.908  1.00  0.00    -0.206 F 
ATOM     74  C   UNL A   1      42.313  21.345  28.029  1.00  0.00     0.059 A 
ATOM     75  C   UNL A   1      42.485  22.304  25.805  1.00  0.00     0.059 A 
ATOM     76  F   UNL A   1      42.702  24.625  25.554  1.00  0.00    -0.206 F 
ATOM     77  C   UNL A   1      42.371  21.195  26.643  1.00  0.00     0.060 A 
BRANCH  77  78
ATOM     78  S   UNL A   1      42.268  19.532  25.947  1.00  0.00     0.124 S 
ATOM     79  O   UNL A   1      43.155  19.641  24.795  1.00  0.00    -0.237 OA
ATOM     80  O   UNL A   1      42.752  18.706  27.049  1.00  0.00    -0.237 OA
ATOM     81  O   UNL A   1      40.849  19.384  25.638  1.00  0.00    -0.744 OA
ENDBRANCH  77  78
ENDBRANCH  45  70
BRANCH  57  82
ATOM     82  C   UNL A   1      47.901  27.389  30.332  1.00  0.00     0.058 A 
ATOM     83  C   UNL A   1      48.862  27.606  29.333  1.00  0.00     0.135 A 
ATOM     84  C   UNL A   1      48.347  26.897  31.571  1.00  0.00     0.135 A 
ATOM     85  F   UNL A   1      48.492  28.071  28.128  1.00  0.00    -0.206 F 
ATOM     86  C   UNL A   1      50.209  27.325  29.545  1.00  0.00     0.059 A 
ATOM     87  C   UNL A   1      49.692  26.638  31.815  1.00  0.00     0.059 A 
ATOM     88  F   UNL A   1      47.473  26.683  32.567  1.00  0.00    -0.206 F 
ATOM     89  C   UNL A   1      50.615  26.845  30.792  1.00  0.00     0.060 A 
BRANCH  89  90
ATOM     90  S   UNL A   1      52.370  26.518  31.065  1.00  0.00     0.124 S 
ATOM     91  O   UNL A   1      52.900  26.597  29.707  1.00  0.00    -0.237 OA
ATOM     92  O   UNL A   1      52.755  27.604  31.960  1.00  0.00    -0.237 OA
ATOM     93  O   UNL A   1      52.379  25.186  31.665  1.00  0.00    -0.744 OA
ENDBRANCH  89  90
ENDBRANCH  57  82
ENDBRANCH  31  32
ENDBRANCH  24  26
ENDBRANCH  23  24
ENDBRANCH  22  23
ENDBRANCH  21  22
ENDBRANCH  20  21
ENDBRANCH   1  20
TORSDOF 22
ENDMDL
MODEL 2
REMARK VINA RESULT:      -8.7      1.342      2.723
REMARK SMILES Nc1ccc(O)c(C(=O)OCCOCCOCCOC(=O)c2ccc(-c3c4nc(c(-c5c(F)cc(S(=O)(=O)[O-])cc5F)c5ccc([nH]5)c(-c5c(F)cc(S(=O)(=O)[O-])cc5F)c5nc(c(-c6c(F)cc(S(=O)(=O)[O-])cc6F)c6ccc3[nH]6)C=C5)C=C4)cc2)c1
REMARK SMILES IDX 15 1 14 2 13 3 12 4 11 5 10 6 8 7 9 8 7 9 2 10 3 11 88 12
REMARK SMILES IDX 4 13 5 14 1 15 6 18 16 20 17 21 18 22 19 23 20 24 21 25
REMARK SMILES IDX 22 26 23 27 87 28 24 29 86 30 25 31 26 32 27 33 80 34 28 35
REMARK SMILES IDX 85 36 79 37 81 38 29 39 84 40 78 41 77 42 30 44 64 45 43 46
REMARK SMILES IDX 63 47 44 48 47 49 62 50 82 51 45 52 46 53 61 55 83 56 48 57
REMARK SMILES IDX 31 58 32 59 41 60 33 61 34 62 40 63 42 64 35 65 36 66 37 67
REMARK SMILES IDX 38 68 39 69 65 70 66 71 75 72 67 73 68 74 74 75 76 76 69 77
REMARK SMILES IDX 70 78 71 79 72 80 73 81 49 82 50 83 59 84 51 85 52 86 58 87
REMARK SMILES IDX 60 88 53 89 54 90 55 91 56 92 57 93
REMARK H PARENT 1 16 1 17 6 19 81 43 47 54
REMARK Flexibility Score: inf
ROOT
ATOM      1  C   UNL A   1      37.465  33.553  29.871  1.00  0.00     0.188 C 
ENDROOT
BRANCH   1   2
ATOM      2  C   UNL A   1      37.124  32.988  31.265  1.00  0.00     0.188 C 
BRANCH   2   3
ATOM      3  O   UNL A   1      38.153  32.560  32.129  1.00  0.00    -0.376 OA
BRANCH   3   4
ATOM      4  C   UNL A   1      37.987  32.567  33.533  1.00  0.00     0.202 C 
BRANCH   4   5
ATOM      5  C   UNL A   1      37.764  33.831  34.377  1.00  0.00     0.261 C 
BRANCH   5   6
ATOM      6  O   UNL A   1      36.824  34.787  33.879  1.00  0.00    -0.460 OA
BRANCH   6   7
ATOM      7  C   UNL A   1      35.522  34.432  34.023  1.00  0.00     0.342 C 
ATOM      8  O   UNL A   1      35.050  33.724  34.901  1.00  0.00    -0.246 OA
BRANCH   7   9
ATOM      9  C   UNL A   1      34.662  35.208  33.112  1.00  0.00     0.103 A 
ATOM     10  C   UNL A   1      33.742  37.314  32.336  1.00  0.00     0.032 A 
ATOM     11  C   UNL A   1      32.977  36.609  31.400  1.00  0.00     0.029 A 
ATOM     12  C   UNL A   1      34.601  36.606  33.182  1.00  0.00     0.045 A 
ATOM     13  C   UNL A   1      33.020  35.214  31.341  1.00  0.00     0.049 A 
ATOM     14  C   UNL A   1      33.868  34.518  32.190  1.00  0.00     0.130 A 
BRANCH  10  15
ATOM     15  N   UNL A   1      33.739  38.701  32.334  1.00  0.00    -0.399 N 
ATOM     16  H   UNL A   1      33.800  39.191  31.483  1.00  0.00     0.156 HD
ATOM     17  H   UNL A   1      33.675  39.194  33.183  1.00  0.00     0.156 HD
ENDBRANCH  10  15
BRANCH  14  18
ATOM     18  O   UNL A   1      33.850  33.153  32.085  1.00  0.00    -0.507 OA
ATOM     19  H   UNL A   1      34.594  32.652  32.355  1.00  0.00     0.293 HD
ENDBRANCH  14  18
ENDBRANCH   7   9
ENDBRANCH   6   7
ENDBRANCH   5   6
ENDBRANCH   4   5
ENDBRANCH   3   4
ENDBRANCH   2   3
ENDBRANCH   1   2
BRANCH   1  20
ATOM     20  O   UNL A   1      36.568  34.419  29.209  1.00  0.00    -0.376 OA
BRANCH  20  21
ATOM     21  C   UNL A   1      35.587  33.900  28.329  1.00  0.00     0.202 C 
BRANCH  21  22
ATOM     22  C   UNL A   1      34.306  33.178  28.778  1.00  0.00     0.261 C 
BRANCH  22  23
ATOM     23  O   UNL A   1      34.446  31.841  29.267  1.00  0.00    -0.460 OA
BRANCH  23  24
ATOM     24  C   UNL A   1      34.578  30.890  28.314  1.00  0.00     0.338 C 
ATOM     25  O   UNL A   1      33.808  30.661  27.385  1.00  0.00    -0.246 OA
BRANCH  24  26
ATOM     26  C   UNL A   1      35.891  30.241  28.448  1.00  0.00     0.060 A 
ATOM     27  C   UNL A   1      36.266  29.730  29.698  1.00  0.00     0.016 A 
ATOM     28  C   UNL A   1      36.764  30.176  27.362  1.00  0.00     0.016 A 
ATOM     29  C   UNL A   1      37.531  29.169  29.870  1.00  0.00     0.010 A 
ATOM     30  C   UNL A   1      38.039  29.631  27.542  1.00  0.00     0.010 A 
ATOM     31  C   UNL A   1      38.439  29.151  28.804  1.00  0.00    -0.014 A 
BRANCH  31  32
ATOM     32  C   UNL A   1      39.857  28.786  29.042  1.00  0.00     0.031 A 
ATOM     33  C   UNL A   1      40.781  29.826  29.617  1.00  0.00     0.074 A 
ATOM     34  C   UNL A   1      40.315  27.553  28.762  1.00  0.00     0.049 A 
ATOM     35  N   UNL A   1      42.067  29.762  29.838  1.00  0.00    -0.248 NA
ATOM     36  C   UNL A   1      40.169  31.113  29.989  1.00  0.00     0.031 C 
ATOM     37  C   UNL A   1      39.511  26.447  28.246  1.00  0.00     0.029 A 
ATOM     38  N   UNL A   1      41.582  27.030  28.862  1.00  0.00    -0.354 N 
ATOM     39  C   UNL A   1      42.422  30.997  30.369  1.00  0.00     0.074 A 
ATOM     40  C   UNL A   1      41.220  31.802  30.409  1.00  0.00     0.031 C 
ATOM     41  C   UNL A   1      40.309  25.381  28.054  1.00  0.00     0.029 A 
ATOM     42  C   UNL A   1      41.683  25.739  28.402  1.00  0.00     0.049 A 
ATOM     43  H   UNL A   1      42.345  27.532  29.229  1.00  0.00     0.167 HD
ATOM     44  C   UNL A   1      43.637  31.419  30.793  1.00  0.00     0.037 A 
ATOM     45  C   UNL A   1      42.765  24.948  28.252  1.00  0.00     0.037 A 
ATOM     46  C   UNL A   1      44.830  30.614  30.750  1.00  0.00     0.049 A 
ATOM     47  C   UNL A   1      44.122  25.468  28.660  1.00  0.00     0.074 A 
ATOM     48  C   UNL A   1      46.107  30.948  31.166  1.00  0.00     0.029 A 
ATOM     49  N   UNL A   1      44.896  29.320  30.257  1.00  0.00    -0.354 N 
ATOM     50  N   UNL A   1      44.441  26.631  29.179  1.00  0.00    -0.248 NA
ATOM     51  C   UNL A   1      45.267  24.566  28.465  1.00  0.00     0.031 C 
ATOM     52  C   UNL A   1      46.955  29.875  30.878  1.00  0.00     0.029 A 
ATOM     53  C   UNL A   1      46.197  28.850  30.336  1.00  0.00     0.049 A 
ATOM     54  H   UNL A   1      44.133  28.810  29.903  1.00  0.00     0.167 HD
ATOM     55  C   UNL A   1      45.815  26.585  29.402  1.00  0.00     0.074 A 
ATOM     56  C   UNL A   1      46.265  25.279  28.971  1.00  0.00     0.031 C 
ATOM     57  C   UNL A   1      46.631  27.539  29.917  1.00  0.00     0.037 A 
BRANCH  44  58
ATOM     58  C   UNL A   1      43.744  32.822  31.321  1.00  0.00     0.058 A 
ATOM     59  C   UNL A   1      44.007  33.913  30.477  1.00  0.00     0.135 A 
ATOM     60  C   UNL A   1      43.532  33.087  32.684  1.00  0.00     0.135 A 
ATOM     61  F   UNL A   1      44.238  33.714  29.169  1.00  0.00    -0.206 F 
ATOM     62  C   UNL A   1      44.072  35.213  30.966  1.00  0.00     0.059 A 
ATOM     63  C   UNL A   1      43.565  34.382  33.191  1.00  0.00     0.059 A 
ATOM     64  F   UNL A   1      43.282  32.082  33.537  1.00  0.00    -0.206 F 
ATOM     65  C   UNL A   1      43.844  35.439  32.325  1.00  0.00     0.060 A 
BRANCH  65  66
ATOM     66  S   UNL A   1      43.909  37.135  32.939  1.00  0.00     0.124 S 
ATOM     67  O   UNL A   1      45.195  37.147  33.629  1.00  0.00    -0.237 OA
ATOM     68  O   UNL A   1      43.844  37.914  31.707  1.00  0.00    -0.237 OA
ATOM     69  O   UNL A   1      42.734  37.231  33.800  1.00  0.00    -0.744 OA
ENDBRANCH  65  66
ENDBRANCH  44  58
BRANCH  45  70
ATOM     70  C   UNL A   1      42.624  23.585  27.669  1.00  0.00     0.058 A 
ATOM     71  C   UNL A   1      42.457  22.457  28.486  1.00  0.00     0.135 A 
ATOM     72  C   UNL A   1      42.683  23.380  26.281  1.00  0.00     0.135 A 
ATOM     73  F   UNL A   1      42.409  22.598  29.820  1.00  0.00    -0.206 F 
ATOM     74  C   UNL A   1      42.378  21.174  27.953  1.00  0.00     0.059 A 
ATOM     75  C   UNL A   1      42.578  22.110  25.722  1.00  0.00     0.059 A 
ATOM     76  F   UNL A   1      42.836  24.424  25.452  1.00  0.00    -0.206 F 
ATOM     77  C   UNL A   1      42.441  21.011  26.569  1.00  0.00     0.060 A 
BRANCH  77  78
ATOM     78  S   UNL A   1      42.313  19.344  25.886  1.00  0.00     0.124 S 
ATOM     79  O   UNL A   1      43.126  19.457  24.682  1.00  0.00    -0.237 OA
ATOM     80  O   UNL A   1      42.871  18.528  26.960  1.00  0.00    -0.237 OA
ATOM     81  O   UNL A   1      40.879  19.180  25.666  1.00  0.00    -0.744 OA
ENDBRANCH  77  78
ENDBRANCH  45  70
BRANCH  57  82
ATOM     82  C   UNL A   1      48.086  27.197  30.093  1.00  0.00     0.058 A 
ATOM     83  C   UNL A   1      49.034  27.448  29.089  1.00  0.00     0.135 A 
ATOM     84  C   UNL A   1      48.548  26.663  31.308  1.00  0.00     0.135 A 
ATOM     85  F   UNL A   1      48.648  27.953  27.906  1.00  0.00    -0.206 F 
ATOM     86  C   UNL A   1      50.383  27.160  29.273  1.00  0.00     0.059 A 
ATOM     87  C   UNL A   1      49.896  26.396  31.526  1.00  0.00     0.059 A 
ATOM     88  F   UNL A   1      47.687  26.415  32.308  1.00  0.00    -0.206 F 
ATOM     89  C   UNL A   1      50.805  26.637  30.498  1.00  0.00     0.060 A 
BRANCH  89  90
ATOM     90  S   UNL A   1      52.564  26.301  30.736  1.00  0.00     0.124 S 
ATOM     91  O   UNL A   1      53.028  26.166  29.359  1.00  0.00    -0.237 OA
ATOM     92  O   UNL A   1      53.017  27.495  31.443  1.00  0.00    -0.237 OA
ATOM     93  O   UNL A   1      52.572  25.072  31.525  1.00  0.00    -0.744 OA
ENDBRANCH  89  90
ENDBRANCH  57  82
ENDBRANCH  31  32
ENDBRANCH  24  26
ENDBRANCH  23  24
ENDBRANCH  22  23
ENDBRANCH  21  22
ENDBRANCH  20  21
ENDBRANCH   1  20
TORSDOF 22
ENDMDL
MODEL 3
REMARK VINA RESULT:      -8.5      4.220     10.405
REMARK SMILES Nc1ccc(O)c(C(=O)OCCOCCOCCOC(=O)c2ccc(-c3c4nc(c(-c5c(F)cc(S(=O)(=O)[O-])cc5F)c5ccc([nH]5)c(-c5c(F)cc(S(=O)(=O)[O-])cc5F)c5nc(c(-c6c(F)cc(S(=O)(=O)[O-])cc6F)c6ccc3[nH]6)C=C5)C=C4)cc2)c1
REMARK SMILES IDX 15 1 14 2 13 3 12 4 11 5 10 6 8 7 9 8 7 9 2 10 3 11 88 12
REMARK SMILES IDX 4 13 5 14 1 15 6 18 16 20 17 21 18 22 19 23 20 24 21 25
REMARK SMILES IDX 22 26 23 27 87 28 24 29 86 30 25 31 26 32 27 33 80 34 28 35
REMARK SMILES IDX 85 36 79 37 81 38 29 39 84 40 78 41 77 42 30 44 64 45 43 46
REMARK SMILES IDX 63 47 44 48 47 49 62 50 82 51 45 52 46 53 61 55 83 56 48 57
REMARK SMILES IDX 31 58 32 59 41 60 33 61 34 62 40 63 42 64 35 65 36 66 37 67
REMARK SMILES IDX 38 68 39 69 65 70 66 71 75 72 67 73 68 74 74 75 76 76 69 77
REMARK SMILES IDX 70 78 71 79 72 80 73 81 49 82 50 83 59 84 51 85 52 86 58 87
REMARK SMILES IDX 60 88 53 89 54 90 55 91 56 92 57 93
REMARK H PARENT 1 16 1 17 6 19 81 43 47 54
REMARK Flexibility Score: inf
ROOT
ATOM      1  C   UNL A   1      35.207  31.204  27.717  1.00  0.00     0.188 C 
ENDROOT
BRANCH   1   2
ATOM      2  C   UNL A   1      33.788  30.693  27.400  1.00  0.00     0.188 C 
BRANCH   2   3
ATOM      3  O   UNL A   1      33.574  29.817  26.315  1.00  0.00    -0.376 OA
BRANCH   3   4
ATOM      4  C   UNL A   1      33.039  28.522  26.508  1.00  0.00     0.202 C 
BRANCH   4   5
ATOM      5  C   UNL A   1      32.554  27.603  25.376  1.00  0.00     0.261 C 
BRANCH   5   6
ATOM      6  O   UNL A   1      32.141  28.233  24.160  1.00  0.00    -0.460 OA
BRANCH   6   7
ATOM      7  C   UNL A   1      31.305  27.491  23.392  1.00  0.00     0.342 C 
ATOM      8  O   UNL A   1      31.379  26.288  23.181  1.00  0.00    -0.246 OA
BRANCH   7   9
ATOM      9  C   UNL A   1      30.113  28.269  23.010  1.00  0.00     0.103 A 
ATOM     10  C   UNL A   1      27.708  28.569  22.920  1.00  0.00     0.032 A 
ATOM     11  C   UNL A   1      27.905  29.759  22.210  1.00  0.00     0.029 A 
ATOM     12  C   UNL A   1      28.822  27.833  23.335  1.00  0.00     0.045 A 
ATOM     13  C   UNL A   1      29.189  30.186  21.866  1.00  0.00     0.049 A 
ATOM     14  C   UNL A   1      30.290  29.446  22.274  1.00  0.00     0.130 A 
BRANCH  10  15
ATOM     15  N   UNL A   1      26.431  28.196  23.312  1.00  0.00    -0.399 N 
ATOM     16  H   UNL A   1      26.047  27.348  22.992  1.00  0.00     0.156 HD
ATOM     17  H   UNL A   1      25.910  28.778  23.910  1.00  0.00     0.156 HD
ENDBRANCH  10  15
BRANCH  14  18
ATOM     18  O   UNL A   1      31.517  29.918  21.891  1.00  0.00    -0.507 OA
ATOM     19  H   UNL A   1      31.578  30.614  21.268  1.00  0.00     0.293 HD
ENDBRANCH  14  18
ENDBRANCH   7   9
ENDBRANCH   6   7
ENDBRANCH   5   6
ENDBRANCH   4   5
ENDBRANCH   3   4
ENDBRANCH   2   3
ENDBRANCH   1   2
BRANCH   1  20
ATOM     20  O   UNL A   1      35.394  32.437  28.380  1.00  0.00    -0.376 OA
BRANCH  20  21
ATOM     21  C   UNL A   1      34.784  32.676  29.635  1.00  0.00     0.202 C 
BRANCH  21  22
ATOM     22  C   UNL A   1      35.215  32.016  30.955  1.00  0.00     0.261 C 
BRANCH  22  23
ATOM     23  O   UNL A   1      36.603  31.710  31.110  1.00  0.00    -0.460 OA
BRANCH  23  24
ATOM     24  C   UNL A   1      36.929  30.409  30.932  1.00  0.00     0.338 C 
ATOM     25  O   UNL A   1      36.195  29.435  31.075  1.00  0.00    -0.246 OA
BRANCH  24  26
ATOM     26  C   UNL A   1      38.285  30.316  30.371  1.00  0.00     0.060 A 
ATOM     27  C   UNL A   1      38.435  29.966  29.022  1.00  0.00     0.016 A 
ATOM     28  C   UNL A   1      39.404  30.528  31.179  1.00  0.00     0.016 A 
ATOM     29  C   UNL A   1      39.711  29.806  28.481  1.00  0.00     0.010 A 
ATOM     30  C   UNL A   1      40.680  30.347  30.639  1.00  0.00     0.010 A 
ATOM     31  C   UNL A   1      40.839  29.958  29.295  1.00  0.00    -0.014 A 
BRANCH  31  32
ATOM     32  C   UNL A   1      42.176  29.552  28.794  1.00  0.00     0.031 A 
ATOM     33  C   UNL A   1      42.383  28.120  28.379  1.00  0.00     0.074 A 
ATOM     34  C   UNL A   1      43.184  30.437  28.702  1.00  0.00     0.049 A 
ATOM     35  N   UNL A   1      43.475  27.519  27.987  1.00  0.00    -0.248 NA
ATOM     36  C   UNL A   1      41.197  27.247  28.417  1.00  0.00     0.031 C 
ATOM     37  C   UNL A   1      43.095  31.859  29.029  1.00  0.00     0.029 A 
ATOM     38  N   UNL A   1      44.490  30.261  28.315  1.00  0.00    -0.354 N 
ATOM     39  C   UNL A   1      43.113  26.201  27.735  1.00  0.00     0.074 A 
ATOM     40  C   UNL A   1      41.706  26.081  28.048  1.00  0.00     0.031 C 
ATOM     41  C   UNL A   1      44.304  32.422  28.850  1.00  0.00     0.029 A 
ATOM     42  C   UNL A   1      45.256  31.397  28.427  1.00  0.00     0.049 A 
ATOM     43  H   UNL A   1      44.845  29.403  27.988  1.00  0.00     0.167 HD
ATOM     44  C   UNL A   1      43.881  25.185  27.275  1.00  0.00     0.037 A 
ATOM     45  C   UNL A   1      46.579  31.579  28.238  1.00  0.00     0.037 A 
ATOM     46  C   UNL A   1      45.282  25.310  26.965  1.00  0.00     0.049 A 
ATOM     47  C   UNL A   1      47.431  30.413  27.800  1.00  0.00     0.074 A 
ATOM     48  C   UNL A   1      46.145  24.341  26.484  1.00  0.00     0.029 A 
ATOM     49  N   UNL A   1      46.027  26.470  27.113  1.00  0.00    -0.354 N 
ATOM     50  N   UNL A   1      47.073  29.175  27.546  1.00  0.00    -0.248 NA
ATOM     51  C   UNL A   1      48.868  30.668  27.619  1.00  0.00     0.031 C 
ATOM     52  C   UNL A   1      47.422  24.901  26.389  1.00  0.00     0.029 A 
ATOM     53  C   UNL A   1      47.344  26.235  26.754  1.00  0.00     0.049 A 
ATOM     54  H   UNL A   1      45.673  27.333  27.426  1.00  0.00     0.167 HD
ATOM     55  C   UNL A   1      48.232  28.517  27.145  1.00  0.00     0.074 A 
ATOM     56  C   UNL A   1      49.300  29.494  27.180  1.00  0.00     0.031 C 
ATOM     57  C   UNL A   1      48.397  27.221  26.780  1.00  0.00     0.037 A 
BRANCH  44  58
ATOM     58  C   UNL A   1      43.231  23.841  27.098  1.00  0.00     0.058 A 
ATOM     59  C   UNL A   1      43.104  22.935  28.163  1.00  0.00     0.135 A 
ATOM     60  C   UNL A   1      42.682  23.474  25.858  1.00  0.00     0.135 A 
ATOM     61  F   UNL A   1      43.629  23.226  29.364  1.00  0.00    -0.206 F 
ATOM     62  C   UNL A   1      42.471  21.707  28.002  1.00  0.00     0.059 A 
ATOM     63  C   UNL A   1      42.021  22.263  25.681  1.00  0.00     0.059 A 
ATOM     64  F   UNL A   1      42.779  24.301  24.805  1.00  0.00    -0.206 F 
ATOM     65  C   UNL A   1      41.928  21.382  26.757  1.00  0.00     0.060 A 
BRANCH  65  66
ATOM     66  S   UNL A   1      41.089  19.794  26.572  1.00  0.00     0.124 S 
ATOM     67  O   UNL A   1      42.039  19.057  25.744  1.00  0.00    -0.237 OA
ATOM     68  O   UNL A   1      40.970  19.343  27.955  1.00  0.00    -0.237 OA
ATOM     69  O   UNL A   1      39.831  20.147  25.921  1.00  0.00    -0.744 OA
ENDBRANCH  65  66
ENDBRANCH  44  58
BRANCH  45  70
ATOM     70  C   UNL A   1      47.195  32.913  28.482  1.00  0.00     0.058 A 
ATOM     71  C   UNL A   1      47.654  33.282  29.755  1.00  0.00     0.135 A 
ATOM     72  C   UNL A   1      47.309  33.858  27.449  1.00  0.00     0.135 A 
ATOM     73  F   UNL A   1      47.553  32.420  30.779  1.00  0.00    -0.206 F 
ATOM     74  C   UNL A   1      48.181  34.546  30.003  1.00  0.00     0.059 A 
ATOM     75  C   UNL A   1      47.859  35.118  27.666  1.00  0.00     0.059 A 
ATOM     76  F   UNL A   1      46.891  33.556  26.210  1.00  0.00    -0.206 F 
ATOM     77  C   UNL A   1      48.279  35.458  28.952  1.00  0.00     0.060 A 
BRANCH  77  78
ATOM     78  S   UNL A   1      48.987  37.086  29.280  1.00  0.00     0.124 S 
ATOM     79  O   UNL A   1      48.863  37.174  30.730  1.00  0.00    -0.237 OA
ATOM     80  O   UNL A   1      50.344  36.941  28.763  1.00  0.00    -0.237 OA
ATOM     81  O   UNL A   1      48.127  37.986  28.517  1.00  0.00    -0.744 OA
ENDBRANCH  77  78
ENDBRANCH  45  70
BRANCH  57  82
ATOM     82  C   UNL A   1      49.770  26.786  26.340  1.00  0.00     0.058 A 
ATOM     83  C   UNL A   1      50.645  26.109  27.203  1.00  0.00     0.135 A 
ATOM     84  C   UNL A   1      50.192  27.000  25.017  1.00  0.00     0.135 A 
ATOM     85  F   UNL A   1      50.296  25.881  28.479  1.00  0.00    -0.206 F 
ATOM     86  C   UNL A   1      51.900  25.680  26.777  1.00  0.00     0.059 A 
ATOM     87  C   UNL A   1      51.429  26.554  24.561  1.00  0.00     0.059 A 
ATOM     88  F   UNL A   1      49.390  27.632  24.145  1.00  0.00    -0.206 F 
ATOM     89  C   UNL A   1      52.281  25.904  25.452  1.00  0.00     0.060 A 
BRANCH  89  90
ATOM     90  S   UNL A   1      53.896  25.312  24.904  1.00  0.00     0.124 S 
ATOM     91  O   UNL A   1      53.665  23.874  24.805  1.00  0.00    -0.237 OA
ATOM     92  O   UNL A   1      54.074  26.014  23.637  1.00  0.00    -0.237 OA
ATOM     93  O   UNL A   1      54.795  25.730  25.977  1.00  0.00    -0.744 OA
ENDBRANCH  89  90
ENDBRANCH  57  82
ENDBRANCH  31  32
ENDBRANCH  24  26
ENDBRANCH  23  24
ENDBRANCH  22  23
ENDBRANCH  21  22
ENDBRANCH  20  21
ENDBRANCH   1  20
TORSDOF 22
ENDMDL
