MODEL 1
REMARK VINA RESULT:     -10.0      0.000      0.000
REMARK SMILES CC(C)C[C@H](CNC(=O)NC[C@H]1CCC(=O)N1)C(=O)OCCOCCOCCOC(=O)c1ccc(-c2c3nc(c(-c4c(F)cc(S(=O)(=O)[O-])cc4F)c4ccc([nH]4)c(-c4c(F)cc(S(=O)(=O)[O-])cc4F)c4nc(c(-c5c(F)cc(S(=O)(=O)[O-])cc5F)c5ccc2[nH]5)C=C4)C=C3)cc1
REMARK SMILES IDX 24 1 23 2 22 3 21 4 20 5 18 6 19 7 5 8 4 9 2 10 1 11 3 12
REMARK SMILES IDX 6 13 7 14 8 15 9 17 10 18 11 20 12 21 13 22 17 23 14 24
REMARK SMILES IDX 15 25 16 27 25 28 26 29 27 30 28 31 29 32 30 33 31 34 32 35
REMARK SMILES IDX 33 36 97 37 34 38 96 39 35 40 36 41 37 42 90 43 38 44 95 45
REMARK SMILES IDX 89 46 91 47 39 48 94 49 88 50 87 51 40 53 74 54 53 55 73 56
REMARK SMILES IDX 54 57 57 58 72 59 92 60 55 61 56 62 71 64 93 65 58 66 41 67
REMARK SMILES IDX 42 68 51 69 43 70 44 71 50 72 52 73 45 74 46 75 47 76 48 77
REMARK SMILES IDX 49 78 75 79 76 80 85 81 77 82 78 83 84 84 86 85 79 86 80 87
REMARK SMILES IDX 81 88 82 89 83 90 59 91 60 92 69 93 61 94 62 95 68 96 70 97
REMARK SMILES IDX 63 98 64 99 65 100 66 101 67 102
REMARK H PARENT 7 16 10 19 17 26 91 52 57 63
REMARK Flexibility Score: inf
ROOT
ATOM      1  C   UNL A   1      32.509  29.448  27.168  1.00  0.00     0.188 C 
ENDROOT
BRANCH   1   2
ATOM      2  O   UNL A   1      32.872  28.178  26.646  1.00  0.00    -0.376 OA
BRANCH   2   3
ATOM      3  C   UNL A   1      33.855  28.160  25.619  1.00  0.00     0.202 C 
BRANCH   3   4
ATOM      4  C   UNL A   1      33.578  27.263  24.404  1.00  0.00     0.261 C 
BRANCH   4   5
ATOM      5  O   UNL A   1      34.066  25.908  24.498  1.00  0.00    -0.463 OA
BRANCH   5   6
ATOM      6  C   UNL A   1      33.508  25.032  23.620  1.00  0.00     0.310 C 
ATOM      7  O   UNL A   1      33.299  25.273  22.435  1.00  0.00    -0.252 OA
BRANCH   6   8
ATOM      8  C   UNL A   1      33.086  23.714  24.239  1.00  0.00     0.119 C 
BRANCH   8   9
ATOM      9  C   UNL A   1      33.012  23.859  25.769  1.00  0.00     0.020 C 
BRANCH   9  10
ATOM     10  C   UNL A   1      31.618  23.972  26.424  1.00  0.00    -0.017 C 
ATOM     11  C   UNL A   1      30.869  25.253  26.043  1.00  0.00     0.007 C 
ATOM     12  C   UNL A   1      30.771  22.768  26.001  1.00  0.00     0.007 C 
ENDBRANCH   9  10
ENDBRANCH   8   9
BRANCH   8  13
ATOM     13  C   UNL A   1      33.724  22.429  23.683  1.00  0.00     0.133 C 
BRANCH  13  14
ATOM     14  N   UNL A   1      34.809  21.857  24.453  1.00  0.00    -0.337 N 
ATOM     15  C   UNL A   1      35.115  20.640  24.917  1.00  0.00     0.314 C 
ATOM     16  H   UNL A   1      35.488  22.529  24.693  1.00  0.00     0.165 HD
ATOM     17  O   UNL A   1      36.249  20.465  25.369  1.00  0.00    -0.249 OA
ATOM     18  N   UNL A   1      34.276  19.599  24.944  1.00  0.00    -0.336 N 
ATOM     19  H   UNL A   1      34.721  18.765  25.221  1.00  0.00     0.165 HD
BRANCH  18  20
ATOM     20  C   UNL A   1      32.867  19.410  24.663  1.00  0.00     0.142 C 
BRANCH  20  21
ATOM     21  C   UNL A   1      32.499  18.147  23.846  1.00  0.00     0.101 C 
ATOM     22  C   UNL A   1      33.630  17.472  23.072  1.00  0.00     0.036 C 
ATOM     23  N   UNL A   1      32.054  17.080  24.713  1.00  0.00    -0.352 N 
ATOM     24  C   UNL A   1      34.201  16.448  24.053  1.00  0.00     0.102 C 
ATOM     25  C   UNL A   1      33.002  16.098  24.893  1.00  0.00     0.220 C 
ATOM     26  H   UNL A   1      31.163  17.056  25.131  1.00  0.00     0.163 HD
ATOM     27  O   UNL A   1      32.891  15.147  25.646  1.00  0.00    -0.275 OA
ENDBRANCH  20  21
ENDBRANCH  18  20
ENDBRANCH  13  14
ENDBRANCH   8  13
ENDBRANCH   6   8
ENDBRANCH   5   6
ENDBRANCH   4   5
ENDBRANCH   3   4
ENDBRANCH   2   3
ENDBRANCH   1   2
BRANCH   1  28
ATOM     28  C   UNL A   1      33.505  30.588  26.955  1.00  0.00     0.188 C 
BRANCH  28  29
ATOM     29  O   UNL A   1      33.170  31.837  27.550  1.00  0.00    -0.376 OA
BRANCH  29  30
ATOM     30  C   UNL A   1      34.190  32.421  28.376  1.00  0.00     0.202 C 
BRANCH  30  31
ATOM     31  C   UNL A   1      35.616  31.850  28.222  1.00  0.00     0.261 C 
BRANCH  31  32
ATOM     32  O   UNL A   1      36.001  30.890  29.229  1.00  0.00    -0.460 OA
BRANCH  32  33
ATOM     33  C   UNL A   1      36.959  31.244  30.117  1.00  0.00     0.338 C 
ATOM     34  O   UNL A   1      36.778  31.748  31.214  1.00  0.00    -0.246 OA
BRANCH  33  35
ATOM     35  C   UNL A   1      38.250  30.646  29.671  1.00  0.00     0.060 A 
ATOM     36  C   UNL A   1      39.262  30.458  30.628  1.00  0.00     0.016 A 
ATOM     37  C   UNL A   1      38.434  30.175  28.367  1.00  0.00     0.016 A 
ATOM     38  C   UNL A   1      40.471  29.851  30.270  1.00  0.00     0.010 A 
ATOM     39  C   UNL A   1      39.645  29.578  28.008  1.00  0.00     0.010 A 
ATOM     40  C   UNL A   1      40.685  29.451  28.945  1.00  0.00    -0.014 A 
BRANCH  40  41
ATOM     41  C   UNL A   1      42.059  29.173  28.455  1.00  0.00     0.031 A 
ATOM     42  C   UNL A   1      42.366  27.758  28.041  1.00  0.00     0.074 A 
ATOM     43  C   UNL A   1      43.021  30.111  28.400  1.00  0.00     0.049 A 
ATOM     44  N   UNL A   1      43.507  27.213  27.713  1.00  0.00    -0.248 NA
ATOM     45  C   UNL A   1      41.220  26.832  28.003  1.00  0.00     0.031 C 
ATOM     46  C   UNL A   1      42.852  31.524  28.722  1.00  0.00     0.029 A 
ATOM     47  N   UNL A   1      44.351  29.996  28.070  1.00  0.00    -0.354 N 
ATOM     48  C   UNL A   1      43.222  25.877  27.456  1.00  0.00     0.074 A 
ATOM     49  C   UNL A   1      41.806  25.691  27.681  1.00  0.00     0.031 C 
ATOM     50  C   UNL A   1      44.040  32.143  28.598  1.00  0.00     0.029 A 
ATOM     51  C   UNL A   1      45.061  31.161  28.228  1.00  0.00     0.049 A 
ATOM     52  H   UNL A   1      44.756  29.157  27.750  1.00  0.00     0.167 HD
ATOM     53  C   UNL A   1      44.063  24.890  27.067  1.00  0.00     0.037 A 
ATOM     54  C   UNL A   1      46.387  31.399  28.121  1.00  0.00     0.037 A 
ATOM     55  C   UNL A   1      45.471  25.069  26.852  1.00  0.00     0.049 A 
ATOM     56  C   UNL A   1      47.322  30.273  27.753  1.00  0.00     0.074 A 
ATOM     57  C   UNL A   1      46.406  24.131  26.453  1.00  0.00     0.029 A 
ATOM     58  N   UNL A   1      46.152  26.264  27.029  1.00  0.00    -0.354 N 
ATOM     59  N   UNL A   1      47.043  29.015  27.504  1.00  0.00    -0.248 NA
ATOM     60  C   UNL A   1      48.754  30.596  27.655  1.00  0.00     0.031 C 
ATOM     61  C   UNL A   1      47.661  24.748  26.435  1.00  0.00     0.029 A 
ATOM     62  C   UNL A   1      47.499  26.084  26.767  1.00  0.00     0.049 A 
ATOM     63  H   UNL A   1      45.738  27.116  27.300  1.00  0.00     0.167 HD
ATOM     64  C   UNL A   1      48.256  28.407  27.188  1.00  0.00     0.074 A 
ATOM     65  C   UNL A   1      49.273  29.433  27.280  1.00  0.00     0.031 C 
ATOM     66  C   UNL A   1      48.501  27.118  26.842  1.00  0.00     0.037 A 
BRANCH  53  67
ATOM     67  C   UNL A   1      43.473  23.518  26.905  1.00  0.00     0.058 A 
ATOM     68  C   UNL A   1      43.214  22.687  28.007  1.00  0.00     0.135 A 
ATOM     69  C   UNL A   1      43.188  23.019  25.624  1.00  0.00     0.135 A 
ATOM     70  F   UNL A   1      43.493  23.106  29.251  1.00  0.00    -0.206 F 
ATOM     71  C   UNL A   1      42.736  21.391  27.841  1.00  0.00     0.059 A 
ATOM     72  C   UNL A   1      42.681  21.738  25.437  1.00  0.00     0.059 A 
ATOM     73  F   UNL A   1      43.423  23.772  24.537  1.00  0.00    -0.206 F 
ATOM     74  C   UNL A   1      42.481  20.924  26.551  1.00  0.00     0.060 A 
BRANCH  74  75
ATOM     75  S   UNL A   1      41.898  19.229  26.347  1.00  0.00     0.124 S 
ATOM     76  O   UNL A   1      40.523  19.448  25.904  1.00  0.00    -0.237 OA
ATOM     77  O   UNL A   1      42.810  18.702  25.337  1.00  0.00    -0.237 OA
ATOM     78  O   UNL A   1      42.043  18.656  27.681  1.00  0.00    -0.744 OA
ENDBRANCH  74  75
ENDBRANCH  53  67
BRANCH  54  79
ATOM     79  C   UNL A   1      46.914  32.765  28.388  1.00  0.00     0.058 A 
ATOM     80  C   UNL A   1      47.078  33.696  27.351  1.00  0.00     0.135 A 
ATOM     81  C   UNL A   1      47.249  33.173  29.689  1.00  0.00     0.135 A 
ATOM     82  F   UNL A   1      46.792  33.348  26.087  1.00  0.00    -0.206 F 
ATOM     83  C   UNL A   1      47.547  34.983  27.594  1.00  0.00     0.059 A 
ATOM     84  C   UNL A   1      47.697  34.462  29.961  1.00  0.00     0.059 A 
ATOM     85  F   UNL A   1      47.111  32.320  30.716  1.00  0.00    -0.206 F 
ATOM     86  C   UNL A   1      47.845  35.360  28.905  1.00  0.00     0.060 A 
BRANCH  86  87
ATOM     87  S   UNL A   1      48.373  37.059  29.218  1.00  0.00     0.124 S 
ATOM     88  O   UNL A   1      49.455  37.215  28.254  1.00  0.00    -0.237 OA
ATOM     89  O   UNL A   1      47.154  37.812  28.937  1.00  0.00    -0.237 OA
ATOM     90  O   UNL A   1      48.774  37.032  30.621  1.00  0.00    -0.744 OA
ENDBRANCH  86  87
ENDBRANCH  54  79
BRANCH  66  91
ATOM     91  C   UNL A   1      49.910  26.734  26.478  1.00  0.00     0.058 A 
ATOM     92  C   UNL A   1      50.799  26.189  27.418  1.00  0.00     0.135 A 
ATOM     93  C   UNL A   1      50.337  26.813  25.142  1.00  0.00     0.135 A 
ATOM     94  F   UNL A   1      50.442  26.093  28.709  1.00  0.00    -0.206 F 
ATOM     95  C   UNL A   1      52.064  25.742  27.046  1.00  0.00     0.059 A 
ATOM     96  C   UNL A   1      51.587  26.350  24.744  1.00  0.00     0.059 A 
ATOM     97  F   UNL A   1      49.521  27.314  24.201  1.00  0.00    -0.206 F 
ATOM     98  C   UNL A   1      52.446  25.819  25.705  1.00  0.00     0.060 A 
BRANCH  98  99
ATOM     99  S   UNL A   1      54.062  25.172  25.223  1.00  0.00     0.124 S 
ATOM    100  O   UNL A   1      54.411  26.050  24.111  1.00  0.00    -0.237 OA
ATOM    101  O   UNL A   1      54.846  25.349  26.441  1.00  0.00    -0.237 OA
ATOM    102  O   UNL A   1      53.780  23.785  24.862  1.00  0.00    -0.744 OA
ENDBRANCH  98  99
ENDBRANCH  66  91
ENDBRANCH  40  41
ENDBRANCH  33  35
ENDBRANCH  32  33
ENDBRANCH  31  32
ENDBRANCH  30  31
ENDBRANCH  29  30
ENDBRANCH  28  29
ENDBRANCH   1  28
TORSDOF 26
ENDMDL
MODEL 2
REMARK VINA RESULT:      -9.9      1.718      8.251
REMARK SMILES CC(C)C[C@H](CNC(=O)NC[C@H]1CCC(=O)N1)C(=O)OCCOCCOCCOC(=O)c1ccc(-c2c3nc(c(-c4c(F)cc(S(=O)(=O)[O-])cc4F)c4ccc([nH]4)c(-c4c(F)cc(S(=O)(=O)[O-])cc4F)c4nc(c(-c5c(F)cc(S(=O)(=O)[O-])cc5F)c5ccc2[nH]5)C=C4)C=C3)cc1
REMARK SMILES IDX 24 1 23 2 22 3 21 4 20 5 18 6 19 7 5 8 4 9 2 10 1 11 3 12
REMARK SMILES IDX 6 13 7 14 8 15 9 17 10 18 11 20 12 21 13 22 17 23 14 24
REMARK SMILES IDX 15 25 16 27 25 28 26 29 27 30 28 31 29 32 30 33 31 34 32 35
REMARK SMILES IDX 33 36 97 37 34 38 96 39 35 40 36 41 37 42 90 43 38 44 95 45
REMARK SMILES IDX 89 46 91 47 39 48 94 49 88 50 87 51 40 53 74 54 53 55 73 56
REMARK SMILES IDX 54 57 57 58 72 59 92 60 55 61 56 62 71 64 93 65 58 66 41 67
REMARK SMILES IDX 42 68 51 69 43 70 44 71 50 72 52 73 45 74 46 75 47 76 48 77
REMARK SMILES IDX 49 78 75 79 76 80 85 81 77 82 78 83 84 84 86 85 79 86 80 87
REMARK SMILES IDX 81 88 82 89 83 90 59 91 60 92 69 93 61 94 62 95 68 96 70 97
REMARK SMILES IDX 63 98 64 99 65 100 66 101 67 102
REMARK H PARENT 7 16 10 19 17 26 91 52 57 63
REMARK Flexibility Score: inf
ROOT
ATOM      1  C   UNL A   1      31.632  28.817  26.758  1.00  0.00     0.188 C 
ENDROOT
BRANCH   1   2
ATOM      2  O   UNL A   1      31.628  27.670  25.920  1.00  0.00    -0.376 OA
BRANCH   2   3
ATOM      3  C   UNL A   1      30.473  27.462  25.117  1.00  0.00     0.202 C 
BRANCH   3   4
ATOM      4  C   UNL A   1      30.153  26.015  24.717  1.00  0.00     0.261 C 
BRANCH   4   5
ATOM      5  O   UNL A   1      30.531  25.634  23.378  1.00  0.00    -0.463 OA
BRANCH   5   6
ATOM      6  C   UNL A   1      31.268  24.495  23.288  1.00  0.00     0.310 C 
ATOM      7  O   UNL A   1      30.832  23.366  23.499  1.00  0.00    -0.252 OA
BRANCH   6   8
ATOM      8  C   UNL A   1      32.731  24.723  22.964  1.00  0.00     0.119 C 
BRANCH   8   9
ATOM      9  C   UNL A   1      32.879  25.983  22.093  1.00  0.00     0.020 C 
BRANCH   9  10
ATOM     10  C   UNL A   1      33.667  27.180  22.669  1.00  0.00    -0.017 C 
ATOM     11  C   UNL A   1      32.896  28.502  22.605  1.00  0.00     0.007 C 
ATOM     12  C   UNL A   1      34.014  26.889  24.132  1.00  0.00     0.007 C 
ENDBRANCH   9  10
ENDBRANCH   8   9
BRANCH   8  13
ATOM     13  C   UNL A   1      33.576  23.496  22.578  1.00  0.00     0.133 C 
BRANCH  13  14
ATOM     14  N   UNL A   1      34.918  23.436  23.119  1.00  0.00    -0.337 N 
ATOM     15  C   UNL A   1      35.615  22.562  23.852  1.00  0.00     0.314 C 
ATOM     16  H   UNL A   1      35.446  24.235  22.890  1.00  0.00     0.165 HD
ATOM     17  O   UNL A   1      36.830  22.740  23.961  1.00  0.00    -0.249 OA
ATOM     18  N   UNL A   1      35.090  21.512  24.494  1.00  0.00    -0.336 N 
ATOM     19  H   UNL A   1      35.779  20.929  24.888  1.00  0.00     0.165 HD
BRANCH  18  20
ATOM     20  C   UNL A   1      33.746  21.033  24.748  1.00  0.00     0.142 C 
BRANCH  20  21
ATOM     21  C   UNL A   1      33.319  20.958  26.235  1.00  0.00     0.101 C 
ATOM     22  C   UNL A   1      34.266  21.586  27.257  1.00  0.00     0.036 C 
ATOM     23  N   UNL A   1      32.101  21.702  26.463  1.00  0.00    -0.352 N 
ATOM     24  C   UNL A   1      33.785  23.032  27.380  1.00  0.00     0.102 C 
ATOM     25  C   UNL A   1      32.313  22.912  27.085  1.00  0.00     0.220 C 
ATOM     26  H   UNL A   1      31.210  21.375  26.202  1.00  0.00     0.163 HD
ATOM     27  O   UNL A   1      31.455  23.748  27.302  1.00  0.00    -0.275 OA
ENDBRANCH  20  21
ENDBRANCH  18  20
ENDBRANCH  13  14
ENDBRANCH   8  13
ENDBRANCH   6   8
ENDBRANCH   5   6
ENDBRANCH   4   5
ENDBRANCH   3   4
ENDBRANCH   2   3
ENDBRANCH   1   2
BRANCH   1  28
ATOM     28  C   UNL A   1      32.499  29.992  26.309  1.00  0.00     0.188 C 
BRANCH  28  29
ATOM     29  O   UNL A   1      32.498  31.137  27.155  1.00  0.00    -0.376 OA
BRANCH  29  30
ATOM     30  C   UNL A   1      33.793  31.617  27.548  1.00  0.00     0.202 C 
BRANCH  30  31
ATOM     31  C   UNL A   1      34.871  30.549  27.832  1.00  0.00     0.261 C 
BRANCH  31  32
ATOM     32  O   UNL A   1      35.490  30.638  29.133  1.00  0.00    -0.460 OA
BRANCH  32  33
ATOM     33  C   UNL A   1      36.546  31.473  29.282  1.00  0.00     0.338 C 
ATOM     34  O   UNL A   1      36.512  32.609  29.726  1.00  0.00    -0.246 OA
BRANCH  33  35
ATOM     35  C   UNL A   1      37.794  30.679  29.102  1.00  0.00     0.060 A 
ATOM     36  C   UNL A   1      38.590  30.422  30.231  1.00  0.00     0.016 A 
ATOM     37  C   UNL A   1      38.131  30.101  27.873  1.00  0.00     0.016 A 
ATOM     38  C   UNL A   1      39.742  29.637  30.123  1.00  0.00     0.010 A 
ATOM     39  C   UNL A   1      39.288  29.325  27.763  1.00  0.00     0.010 A 
ATOM     40  C   UNL A   1      40.122  29.124  28.877  1.00  0.00    -0.014 A 
BRANCH  40  41
ATOM     41  C   UNL A   1      41.506  28.632  28.654  1.00  0.00     0.031 A 
ATOM     42  C   UNL A   1      42.612  29.653  28.695  1.00  0.00     0.074 A 
ATOM     43  C   UNL A   1      41.792  27.344  28.393  1.00  0.00     0.049 A 
ATOM     44  N   UNL A   1      43.877  29.525  28.398  1.00  0.00    -0.248 NA
ATOM     45  C   UNL A   1      42.224  31.009  29.123  1.00  0.00     0.031 C 
ATOM     46  C   UNL A   1      40.831  26.246  28.371  1.00  0.00     0.029 A 
ATOM     47  N   UNL A   1      42.990  26.752  28.070  1.00  0.00    -0.354 N 
ATOM     48  C   UNL A   1      44.432  30.787  28.578  1.00  0.00     0.074 A 
ATOM     49  C   UNL A   1      43.364  31.668  28.992  1.00  0.00     0.031 C 
ATOM     50  C   UNL A   1      41.473  25.114  28.027  1.00  0.00     0.029 A 
ATOM     51  C   UNL A   1      42.881  25.417  27.764  1.00  0.00     0.049 A 
ATOM     52  H   UNL A   1      43.846  27.239  28.060  1.00  0.00     0.167 HD
ATOM     53  C   UNL A   1      45.716  31.180  28.412  1.00  0.00     0.037 A 
ATOM     54  C   UNL A   1      43.802  24.549  27.293  1.00  0.00     0.037 A 
ATOM     55  C   UNL A   1      46.778  30.309  27.992  1.00  0.00     0.049 A 
ATOM     56  C   UNL A   1      45.216  25.019  27.047  1.00  0.00     0.074 A 
ATOM     57  C   UNL A   1      48.113  30.613  27.798  1.00  0.00     0.029 A 
ATOM     58  N   UNL A   1      46.624  28.966  27.686  1.00  0.00    -0.354 N 
ATOM     59  N   UNL A   1      45.734  26.212  27.227  1.00  0.00    -0.248 NA
ATOM     60  C   UNL A   1      46.172  24.026  26.532  1.00  0.00     0.031 C 
ATOM     61  C   UNL A   1      48.758  29.464  27.330  1.00  0.00     0.029 A 
ATOM     62  C   UNL A   1      47.836  28.430  27.286  1.00  0.00     0.049 A 
ATOM     63  H   UNL A   1      45.777  28.466  27.745  1.00  0.00     0.167 HD
ATOM     64  C   UNL A   1      47.079  26.104  26.880  1.00  0.00     0.074 A 
ATOM     65  C   UNL A   1      47.296  24.731  26.476  1.00  0.00     0.031 C 
ATOM     66  C   UNL A   1      48.046  27.055  26.905  1.00  0.00     0.037 A 
BRANCH  53  67
ATOM     67  C   UNL A   1      46.017  32.634  28.640  1.00  0.00     0.058 A 
ATOM     68  C   UNL A   1      46.368  33.129  29.905  1.00  0.00     0.135 A 
ATOM     69  C   UNL A   1      45.925  33.549  27.578  1.00  0.00     0.135 A 
ATOM     70  F   UNL A   1      46.446  32.301  30.959  1.00  0.00    -0.206 F 
ATOM     71  C   UNL A   1      46.574  34.488  30.121  1.00  0.00     0.059 A 
ATOM     72  C   UNL A   1      46.155  34.907  27.764  1.00  0.00     0.059 A 
ATOM     73  F   UNL A   1      45.586  33.127  26.349  1.00  0.00    -0.206 F 
ATOM     74  C   UNL A   1      46.456  35.369  29.045  1.00  0.00     0.060 A 
BRANCH  74  75
ATOM     75  S   UNL A   1      46.687  37.134  29.345  1.00  0.00     0.124 S 
ATOM     76  O   UNL A   1      47.413  37.538  28.144  1.00  0.00    -0.237 OA
ATOM     77  O   UNL A   1      45.313  37.617  29.445  1.00  0.00    -0.237 OA
ATOM     78  O   UNL A   1      47.455  37.170  30.585  1.00  0.00    -0.744 OA
ENDBRANCH  74  75
ENDBRANCH  53  67
BRANCH  54  79
ATOM     79  C   UNL A   1      43.410  23.144  26.999  1.00  0.00     0.058 A 
ATOM     80  C   UNL A   1      43.302  22.682  25.679  1.00  0.00     0.135 A 
ATOM     81  C   UNL A   1      43.152  22.231  28.033  1.00  0.00     0.135 A 
ATOM     82  F   UNL A   1      43.518  23.522  24.654  1.00  0.00    -0.206 F 
ATOM     83  C   UNL A   1      42.959  21.364  25.393  1.00  0.00     0.059 A 
ATOM     84  C   UNL A   1      42.831  20.902  27.773  1.00  0.00     0.059 A 
ATOM     85  F   UNL A   1      43.241  22.624  29.313  1.00  0.00    -0.206 F 
ATOM     86  C   UNL A   1      42.735  20.478  26.449  1.00  0.00     0.060 A 
BRANCH  86  87
ATOM     87  S   UNL A   1      42.375  18.749  26.067  1.00  0.00     0.124 S 
ATOM     88  O   UNL A   1      42.647  18.101  27.344  1.00  0.00    -0.237 OA
ATOM     89  O   UNL A   1      40.971  18.812  25.670  1.00  0.00    -0.237 OA
ATOM     90  O   UNL A   1      43.309  18.442  24.989  1.00  0.00    -0.744 OA
ENDBRANCH  86  87
ENDBRANCH  54  79
BRANCH  66  91
ATOM     91  C   UNL A   1      49.450  26.653  26.540  1.00  0.00     0.058 A 
ATOM     92  C   UNL A   1      50.307  26.028  27.458  1.00  0.00     0.135 A 
ATOM     93  C   UNL A   1      49.901  26.801  25.218  1.00  0.00     0.135 A 
ATOM     94  F   UNL A   1      49.927  25.865  28.736  1.00  0.00    -0.206 F 
ATOM     95  C   UNL A   1      51.566  25.568  27.080  1.00  0.00     0.059 A 
ATOM     96  C   UNL A   1      51.145  26.328  24.812  1.00  0.00     0.059 A 
ATOM     97  F   UNL A   1      49.115  27.380  24.297  1.00  0.00    -0.206 F 
ATOM     98  C   UNL A   1      51.972  25.715  25.751  1.00  0.00     0.060 A 
BRANCH  98  99
ATOM     99  S   UNL A   1      53.579  25.053  25.256  1.00  0.00     0.124 S 
ATOM    100  O   UNL A   1      53.322  23.617  25.273  1.00  0.00    -0.237 OA
ATOM    101  O   UNL A   1      53.769  25.647  23.937  1.00  0.00    -0.237 OA
ATOM    102  O   UNL A   1      54.482  25.541  26.294  1.00  0.00    -0.744 OA
ENDBRANCH  98  99
ENDBRANCH  66  91
ENDBRANCH  40  41
ENDBRANCH  33  35
ENDBRANCH  32  33
ENDBRANCH  31  32
ENDBRANCH  30  31
ENDBRANCH  29  30
ENDBRANCH  28  29
ENDBRANCH   1  28
TORSDOF 26
ENDMDL
MODEL 3
REMARK VINA RESULT:      -9.8      1.451      2.865
REMARK SMILES CC(C)C[C@H](CNC(=O)NC[C@H]1CCC(=O)N1)C(=O)OCCOCCOCCOC(=O)c1ccc(-c2c3nc(c(-c4c(F)cc(S(=O)(=O)[O-])cc4F)c4ccc([nH]4)c(-c4c(F)cc(S(=O)(=O)[O-])cc4F)c4nc(c(-c5c(F)cc(S(=O)(=O)[O-])cc5F)c5ccc2[nH]5)C=C4)C=C3)cc1
REMARK SMILES IDX 24 1 23 2 22 3 21 4 20 5 18 6 19 7 5 8 4 9 2 10 1 11 3 12
REMARK SMILES IDX 6 13 7 14 8 15 9 17 10 18 11 20 12 21 13 22 17 23 14 24
REMARK SMILES IDX 15 25 16 27 25 28 26 29 27 30 28 31 29 32 30 33 31 34 32 35
REMARK SMILES IDX 33 36 97 37 34 38 96 39 35 40 36 41 37 42 90 43 38 44 95 45
REMARK SMILES IDX 89 46 91 47 39 48 94 49 88 50 87 51 40 53 74 54 53 55 73 56
REMARK SMILES IDX 54 57 57 58 72 59 92 60 55 61 56 62 71 64 93 65 58 66 41 67
REMARK SMILES IDX 42 68 51 69 43 70 44 71 50 72 52 73 45 74 46 75 47 76 48 77
REMARK SMILES IDX 49 78 75 79 76 80 85 81 77 82 78 83 84 84 86 85 79 86 80 87
REMARK SMILES IDX 81 88 82 89 83 90 59 91 60 92 69 93 61 94 62 95 68 96 70 97
REMARK SMILES IDX 63 98 64 99 65 100 66 101 67 102
REMARK H PARENT 7 16 10 19 17 26 91 52 57 63
REMARK Flexibility Score: inf
ROOT
ATOM      1  C   UNL A   1      32.484  28.753  25.850  1.00  0.00     0.188 C 
ENDROOT
BRANCH   1   2
ATOM      2  O   UNL A   1      32.625  27.882  24.736  1.00  0.00    -0.376 OA
BRANCH   2   3
ATOM      3  C   UNL A   1      31.492  27.729  23.891  1.00  0.00     0.202 C 
BRANCH   3   4
ATOM      4  C   UNL A   1      30.227  27.130  24.522  1.00  0.00     0.261 C 
BRANCH   4   5
ATOM      5  O   UNL A   1      30.103  25.695  24.442  1.00  0.00    -0.463 OA
BRANCH   5   6
ATOM      6  C   UNL A   1      30.547  25.016  25.533  1.00  0.00     0.310 C 
ATOM      7  O   UNL A   1      30.203  25.253  26.687  1.00  0.00    -0.252 OA
BRANCH   6   8
ATOM      8  C   UNL A   1      31.581  23.951  25.225  1.00  0.00     0.119 C 
BRANCH   8   9
ATOM      9  C   UNL A   1      31.554  23.619  23.723  1.00  0.00     0.020 C 
BRANCH   9  10
ATOM     10  C   UNL A   1      32.801  23.958  22.878  1.00  0.00    -0.017 C 
ATOM     11  C   UNL A   1      33.827  24.815  23.627  1.00  0.00     0.007 C 
ATOM     12  C   UNL A   1      33.478  22.655  22.445  1.00  0.00     0.007 C 
ENDBRANCH   9  10
ENDBRANCH   8   9
BRANCH   8  13
ATOM     13  C   UNL A   1      31.703  22.771  26.206  1.00  0.00     0.133 C 
BRANCH  13  14
ATOM     14  N   UNL A   1      31.685  21.443  25.629  1.00  0.00    -0.337 N 
ATOM     15  C   UNL A   1      32.573  20.454  25.478  1.00  0.00     0.314 C 
ATOM     16  H   UNL A   1      30.803  21.211  25.257  1.00  0.00     0.165 HD
ATOM     17  O   UNL A   1      32.153  19.353  25.117  1.00  0.00    -0.249 OA
ATOM     18  N   UNL A   1      33.891  20.573  25.674  1.00  0.00    -0.336 N 
ATOM     19  H   UNL A   1      34.359  19.708  25.617  1.00  0.00     0.165 HD
BRANCH  18  20
ATOM     20  C   UNL A   1      34.792  21.675  25.947  1.00  0.00     0.142 C 
BRANCH  20  21
ATOM     21  C   UNL A   1      36.268  21.469  25.527  1.00  0.00     0.101 C 
ATOM     22  C   UNL A   1      36.653  21.917  24.118  1.00  0.00     0.036 C 
ATOM     23  N   UNL A   1      37.156  22.263  26.345  1.00  0.00    -0.352 N 
ATOM     24  C   UNL A   1      37.096  23.370  24.292  1.00  0.00     0.102 C 
ATOM     25  C   UNL A   1      37.632  23.382  25.698  1.00  0.00     0.220 C 
ATOM     26  H   UNL A   1      37.397  22.028  27.270  1.00  0.00     0.163 HD
ATOM     27  O   UNL A   1      38.323  24.245  26.209  1.00  0.00    -0.275 OA
ENDBRANCH  20  21
ENDBRANCH  18  20
ENDBRANCH  13  14
ENDBRANCH   8  13
ENDBRANCH   6   8
ENDBRANCH   5   6
ENDBRANCH   4   5
ENDBRANCH   3   4
ENDBRANCH   2   3
ENDBRANCH   1   2
BRANCH   1  28
ATOM     28  C   UNL A   1      33.709  29.583  26.232  1.00  0.00     0.188 C 
BRANCH  28  29
ATOM     29  O   UNL A   1      33.631  30.293  27.464  1.00  0.00    -0.376 OA
BRANCH  29  30
ATOM     30  C   UNL A   1      34.823  30.995  27.849  1.00  0.00     0.202 C 
BRANCH  30  31
ATOM     31  C   UNL A   1      35.041  31.211  29.362  1.00  0.00     0.261 C 
BRANCH  31  32
ATOM     32  O   UNL A   1      36.423  31.280  29.776  1.00  0.00    -0.460 OA
BRANCH  32  33
ATOM     33  C   UNL A   1      36.979  30.177  30.330  1.00  0.00     0.338 C 
ATOM     34  O   UNL A   1      36.385  29.272  30.892  1.00  0.00    -0.246 OA
BRANCH  33  35
ATOM     35  C   UNL A   1      38.398  30.097  29.881  1.00  0.00     0.060 A 
ATOM     36  C   UNL A   1      38.661  30.103  28.500  1.00  0.00     0.016 A 
ATOM     37  C   UNL A   1      39.463  30.127  30.788  1.00  0.00     0.016 A 
ATOM     38  C   UNL A   1      39.978  30.084  28.029  1.00  0.00     0.010 A 
ATOM     39  C   UNL A   1      40.779  30.098  30.317  1.00  0.00     0.010 A 
ATOM     40  C   UNL A   1      41.042  30.033  28.937  1.00  0.00    -0.014 A 
BRANCH  40  41
ATOM     41  C   UNL A   1      42.398  29.626  28.487  1.00  0.00     0.031 A 
ATOM     42  C   UNL A   1      42.586  28.185  28.092  1.00  0.00     0.074 A 
ATOM     43  C   UNL A   1      43.443  30.472  28.452  1.00  0.00     0.049 A 
ATOM     44  N   UNL A   1      43.681  27.536  27.801  1.00  0.00    -0.248 NA
ATOM     45  C   UNL A   1      41.362  27.367  28.030  1.00  0.00     0.031 C 
ATOM     46  C   UNL A   1      43.394  31.898  28.759  1.00  0.00     0.029 A 
ATOM     47  N   UNL A   1      44.765  30.234  28.160  1.00  0.00    -0.354 N 
ATOM     48  C   UNL A   1      43.283  26.229  27.545  1.00  0.00     0.074 A 
ATOM     49  C   UNL A   1      41.850  26.174  27.733  1.00  0.00     0.031 C 
ATOM     50  C   UNL A   1      44.637  32.406  28.663  1.00  0.00     0.029 A 
ATOM     51  C   UNL A   1      45.574  31.332  28.329  1.00  0.00     0.049 A 
ATOM     52  H   UNL A   1      45.100  29.359  27.858  1.00  0.00     0.167 HD
ATOM     53  C   UNL A   1      44.040  25.166  27.188  1.00  0.00     0.037 A 
ATOM     54  C   UNL A   1      46.918  31.447  28.258  1.00  0.00     0.037 A 
ATOM     55  C   UNL A   1      45.464  25.214  27.010  1.00  0.00     0.049 A 
ATOM     56  C   UNL A   1      47.757  30.237  27.924  1.00  0.00     0.074 A 
ATOM     57  C   UNL A   1      46.320  24.191  26.645  1.00  0.00     0.029 A 
ATOM     58  N   UNL A   1      46.246  26.344  27.197  1.00  0.00    -0.354 N 
ATOM     59  N   UNL A   1      47.371  29.007  27.677  1.00  0.00    -0.248 NA
ATOM     60  C   UNL A   1      49.214  30.428  27.863  1.00  0.00     0.031 C 
ATOM     61  C   UNL A   1      47.626  24.691  26.657  1.00  0.00     0.029 A 
ATOM     62  C   UNL A   1      47.578  26.039  26.975  1.00  0.00     0.049 A 
ATOM     63  H   UNL A   1      45.904  27.232  27.451  1.00  0.00     0.167 HD
ATOM     64  C   UNL A   1      48.532  28.288  27.399  1.00  0.00     0.074 A 
ATOM     65  C   UNL A   1      49.635  29.219  27.512  1.00  0.00     0.031 C 
ATOM     66  C   UNL A   1      48.667  26.979  27.069  1.00  0.00     0.037 A 
BRANCH  53  67
ATOM     67  C   UNL A   1      43.332  23.851  27.020  1.00  0.00     0.058 A 
ATOM     68  C   UNL A   1      42.877  23.409  25.768  1.00  0.00     0.135 A 
ATOM     69  C   UNL A   1      43.082  23.037  28.136  1.00  0.00     0.135 A 
ATOM     70  F   UNL A   1      43.069  24.161  24.673  1.00  0.00    -0.206 F 
ATOM     71  C   UNL A   1      42.159  22.225  25.635  1.00  0.00     0.059 A 
ATOM     72  C   UNL A   1      42.392  21.836  28.022  1.00  0.00     0.059 A 
ATOM     73  F   UNL A   1      43.490  23.418  29.357  1.00  0.00    -0.206 F 
ATOM     74  C   UNL A   1      41.914  21.450  26.770  1.00  0.00     0.060 A 
BRANCH  74  75
ATOM     75  S   UNL A   1      40.947  19.937  26.590  1.00  0.00     0.124 S 
ATOM     76  O   UNL A   1      39.698  20.457  26.041  1.00  0.00    -0.237 OA
ATOM     77  O   UNL A   1      41.763  19.151  25.671  1.00  0.00    -0.237 OA
ATOM     78  O   UNL A   1      40.867  19.422  27.953  1.00  0.00    -0.744 OA
ENDBRANCH  74  75
ENDBRANCH  53  67
BRANCH  54  79
ATOM     79  C   UNL A   1      47.560  32.761  28.530  1.00  0.00     0.058 A 
ATOM     80  C   UNL A   1      47.910  33.628  27.483  1.00  0.00     0.135 A 
ATOM     81  C   UNL A   1      47.820  33.186  29.842  1.00  0.00     0.135 A 
ATOM     82  F   UNL A   1      47.702  33.260  26.209  1.00  0.00    -0.206 F 
ATOM     83  C   UNL A   1      48.489  34.870  27.728  1.00  0.00     0.059 A 
ATOM     84  C   UNL A   1      48.376  34.432  30.113  1.00  0.00     0.059 A 
ATOM     85  F   UNL A   1      47.505  32.393  30.878  1.00  0.00    -0.206 F 
ATOM     86  C   UNL A   1      48.709  35.267  29.048  1.00  0.00     0.060 A 
BRANCH  86  87
ATOM     87  S   UNL A   1      49.382  36.916  29.355  1.00  0.00     0.124 S 
ATOM     88  O   UNL A   1      48.218  37.760  29.115  1.00  0.00    -0.237 OA
ATOM     89  O   UNL A   1      49.819  36.811  30.744  1.00  0.00    -0.237 OA
ATOM     90  O   UNL A   1      50.458  37.027  28.375  1.00  0.00    -0.744 OA
ENDBRANCH  86  87
ENDBRANCH  54  79
BRANCH  66  91
ATOM     91  C   UNL A   1      50.045  26.464  26.748  1.00  0.00     0.058 A 
ATOM     92  C   UNL A   1      50.553  26.463  25.440  1.00  0.00     0.135 A 
ATOM     93  C   UNL A   1      50.905  26.068  27.785  1.00  0.00     0.135 A 
ATOM     94  F   UNL A   1      49.772  26.830  24.411  1.00  0.00    -0.206 F 
ATOM     95  C   UNL A   1      51.864  26.081  25.171  1.00  0.00     0.059 A 
ATOM     96  C   UNL A   1      52.227  25.705  27.542  1.00  0.00     0.059 A 
ATOM     97  F   UNL A   1      50.474  26.063  29.057  1.00  0.00    -0.206 F 
ATOM     98  C   UNL A   1      52.697  25.712  26.231  1.00  0.00     0.060 A 
BRANCH  98  99
ATOM     99  S   UNL A   1      54.416  25.285  25.877  1.00  0.00     0.124 S 
ATOM    100  O   UNL A   1      54.260  24.068  25.086  1.00  0.00    -0.237 OA
ATOM    101  O   UNL A   1      54.887  26.458  25.148  1.00  0.00    -0.237 OA
ATOM    102  O   UNL A   1      55.000  25.101  27.202  1.00  0.00    -0.744 OA
ENDBRANCH  98  99
ENDBRANCH  66  91
ENDBRANCH  40  41
ENDBRANCH  33  35
ENDBRANCH  32  33
ENDBRANCH  31  32
ENDBRANCH  30  31
ENDBRANCH  29  30
ENDBRANCH  28  29
ENDBRANCH   1  28
TORSDOF 26
ENDMDL
