MODEL 1
REMARK VINA RESULT:      -9.8      0.000      0.000
REMARK SMILES [NH3+][C@](CCC[P@TB4](=O)([O-])[O-])(Cc1ccccc1)C(=O)OCCOCCOCCOC(=O)c1ccc(-c2c3nc(c(-c4c(F)cc(S(=O)(=O)[O-])cc4F)c4ccc([nH]4)c(-c4c(F)cc(S(=O)(=O)[O-])cc4F)c4nc(c(-c5c(F)cc(S(=O)(=O)[O-])cc5F)c5ccc2[nH]5)C=C4)C=C3)cc1
REMARK SMILES IDX 23 1 22 2 21 3 20 4 19 5 17 6 18 7 2 8 1 9 10 13 11 14 12 15
REMARK SMILES IDX 16 16 13 17 15 18 14 19 3 20 4 21 5 22 6 23 7 24 8 25 9 26
REMARK SMILES IDX 24 27 25 28 26 29 27 30 28 31 29 32 30 33 31 34 32 35 96 36
REMARK SMILES IDX 33 37 95 38 34 39 35 40 36 41 89 42 37 43 94 44 88 45 90 46
REMARK SMILES IDX 38 47 93 48 87 49 86 50 39 52 73 53 52 54 72 55 53 56 56 57
REMARK SMILES IDX 71 58 91 59 54 60 55 61 70 63 92 64 57 65 40 66 41 67 50 68
REMARK SMILES IDX 42 69 43 70 49 71 51 72 44 73 45 74 46 75 47 76 48 77 74 78
REMARK SMILES IDX 75 79 84 80 76 81 77 82 83 83 85 84 78 85 79 86 80 87 81 88
REMARK SMILES IDX 82 89 58 90 59 91 68 92 60 93 61 94 67 95 69 96 62 97 63 98
REMARK SMILES IDX 64 99 65 100 66 101
REMARK H PARENT 1 10 1 11 1 12 90 51 56 62
REMARK Flexibility Score: inf
ROOT
ATOM      1  C   UNL A   1      33.933  29.229  27.274  1.00  0.00       nan C 
ENDROOT
BRANCH   1   2
ATOM      2  O   UNL A   1      34.326  28.586  26.063  1.00  0.00       nan OA
BRANCH   2   3
ATOM      3  C   UNL A   1      33.526  27.554  25.509  1.00  0.00       nan C 
BRANCH   3   4
ATOM      4  C   UNL A   1      32.371  27.100  26.418  1.00  0.00       nan C 
BRANCH   4   5
ATOM      5  O   UNL A   1      31.027  27.377  25.954  1.00  0.00       nan OA
BRANCH   5   6
ATOM      6  C   UNL A   1      30.318  26.271  25.599  1.00  0.00       nan C 
ATOM      7  O   UNL A   1      30.167  25.321  26.362  1.00  0.00       nan OA
BRANCH   6   8
ATOM      8  C   UNL A   1      29.794  26.233  24.125  1.00  0.00       nan C 
BRANCH   8   9
ATOM      9  N   UNL A   1      28.299  26.193  24.198  1.00  0.00       nan N 
ATOM     10  H   UNL A   1      27.925  27.130  24.044  1.00  0.00       nan HD
ATOM     11  H   UNL A   1      28.013  25.860  25.119  1.00  0.00       nan HD
ATOM     12  H   UNL A   1      27.939  25.561  23.482  1.00  0.00       nan HD
ENDBRANCH   8   9
BRANCH   8  13
ATOM     13  C   UNL A   1      30.200  24.940  23.312  1.00  0.00       nan C 
BRANCH  13  14
ATOM     14  C   UNL A   1      31.582  24.292  23.378  1.00  0.00       nan A 
ATOM     15  C   UNL A   1      31.695  22.916  23.628  1.00  0.00       nan A 
ATOM     16  C   UNL A   1      32.761  24.974  23.031  1.00  0.00       nan A 
ATOM     17  C   UNL A   1      32.940  22.273  23.615  1.00  0.00       nan A 
ATOM     18  C   UNL A   1      34.009  24.343  23.046  1.00  0.00       nan A 
ATOM     19  C   UNL A   1      34.100  22.991  23.344  1.00  0.00       nan A 
ENDBRANCH  13  14
ENDBRANCH   8  13
BRANCH   8  20
ATOM     20  C   UNL A   1      30.268  27.545  23.426  1.00  0.00       nan C 
BRANCH  20  21
ATOM     21  C   UNL A   1      29.249  28.585  22.947  1.00  0.00       nan C 
BRANCH  21  22
ATOM     22  C   UNL A   1      29.412  30.028  23.378  1.00  0.00       nan C 
BRANCH  22  23
ATOM     23  P   UNL A   1      28.519  31.350  22.482  1.00  0.00       nan P 
ATOM     24  O   UNL A   1      28.119  30.378  21.372  1.00  0.00       nan OA
ATOM     25  O   UNL A   1      27.275  31.277  23.548  1.00  0.00       nan OA
ATOM     26  O   UNL A   1      27.675  32.600  21.636  1.00  0.00       nan OA
ENDBRANCH  22  23
ENDBRANCH  21  22
ENDBRANCH  20  21
ENDBRANCH   8  20
ENDBRANCH   6   8
ENDBRANCH   5   6
ENDBRANCH   4   5
ENDBRANCH   3   4
ENDBRANCH   2   3
ENDBRANCH   1   2
BRANCH   1  27
ATOM     27  C   UNL A   1      33.553  30.711  27.262  1.00  0.00       nan C 
BRANCH  27  28
ATOM     28  O   UNL A   1      34.655  31.584  27.481  1.00  0.00       inf OA
BRANCH  28  29
ATOM     29  C   UNL A   1      34.326  32.858  28.021  1.00  0.00     0.202 C 
BRANCH  29  30
ATOM     30  C   UNL A   1      34.596  32.952  29.525  1.00  0.00     0.261 C 
BRANCH  30  31
ATOM     31  O   UNL A   1      35.974  32.692  29.860  1.00  0.00    -0.460 OA
BRANCH  31  32
ATOM     32  C   UNL A   1      36.171  31.671  30.728  1.00  0.00     0.338 C 
ATOM     33  O   UNL A   1      35.465  31.357  31.666  1.00  0.00    -0.246 OA
BRANCH  32  34
ATOM     34  C   UNL A   1      37.354  30.911  30.293  1.00  0.00     0.060 A 
ATOM     35  C   UNL A   1      38.201  30.350  31.252  1.00  0.00     0.016 A 
ATOM     36  C   UNL A   1      37.675  30.847  28.939  1.00  0.00     0.016 A 
ATOM     37  C   UNL A   1      39.410  29.774  30.869  1.00  0.00     0.010 A 
ATOM     38  C   UNL A   1      38.878  30.251  28.553  1.00  0.00     0.010 A 
ATOM     39  C   UNL A   1      39.771  29.750  29.517  1.00  0.00    -0.014 A 
BRANCH  39  40
ATOM     40  C   UNL A   1      41.144  29.346  29.125  1.00  0.00     0.031 A 
ATOM     41  C   UNL A   1      42.243  30.373  29.161  1.00  0.00     0.074 A 
ATOM     42  C   UNL A   1      41.423  28.075  28.777  1.00  0.00     0.049 A 
ATOM     43  N   UNL A   1      43.475  30.287  28.733  1.00  0.00    -0.248 NA
ATOM     44  C   UNL A   1      41.904  31.675  29.759  1.00  0.00     0.031 C 
ATOM     45  C   UNL A   1      40.468  26.967  28.775  1.00  0.00     0.029 A 
ATOM     46  N   UNL A   1      42.599  27.507  28.359  1.00  0.00    -0.354 N 
ATOM     47  C   UNL A   1      44.045  31.532  28.968  1.00  0.00     0.074 A 
ATOM     48  C   UNL A   1      43.023  32.358  29.575  1.00  0.00     0.031 C 
ATOM     49  C   UNL A   1      41.098  25.850  28.374  1.00  0.00     0.029 A 
ATOM     50  C   UNL A   1      42.484  26.174  28.042  1.00  0.00     0.049 A 
ATOM     51  H   UNL A   1      43.445  28.006  28.291  1.00  0.00     0.167 HD
ATOM     52  C   UNL A   1      45.306  31.950  28.702  1.00  0.00     0.037 A 
ATOM     53  C   UNL A   1      43.384  25.322  27.514  1.00  0.00     0.037 A 
ATOM     54  C   UNL A   1      46.330  31.115  28.133  1.00  0.00     0.049 A 
ATOM     55  C   UNL A   1      44.770  25.816  27.197  1.00  0.00     0.074 A 
ATOM     56  C   UNL A   1      47.636  31.447  27.815  1.00  0.00     0.029 A 
ATOM     57  N   UNL A   1      46.169  29.775  27.809  1.00  0.00    -0.354 N 
ATOM     58  N   UNL A   1      45.280  27.014  27.364  1.00  0.00    -0.248 NA
ATOM     59  C   UNL A   1      45.704  24.843  26.612  1.00  0.00     0.031 C 
ATOM     60  C   UNL A   1      48.258  30.313  27.277  1.00  0.00     0.029 A 
ATOM     61  C   UNL A   1      47.349  29.267  27.295  1.00  0.00     0.049 A 
ATOM     62  H   UNL A   1      45.338  29.262  27.927  1.00  0.00     0.167 HD
ATOM     63  C   UNL A   1      46.597  26.933  26.924  1.00  0.00     0.074 A 
ATOM     64  C   UNL A   1      46.809  25.565  26.495  1.00  0.00     0.031 C 
ATOM     65  C   UNL A   1      47.545  27.901  26.878  1.00  0.00     0.037 A 
BRANCH  52  66
ATOM     66  C   UNL A   1      45.633  33.387  28.991  1.00  0.00     0.058 A 
ATOM     67  C   UNL A   1      46.177  33.793  30.219  1.00  0.00     0.135 A 
ATOM     68  C   UNL A   1      45.408  34.372  28.015  1.00  0.00     0.135 A 
ATOM     69  F   UNL A   1      46.387  32.895  31.195  1.00  0.00    -0.206 F 
ATOM     70  C   UNL A   1      46.467  35.129  30.478  1.00  0.00     0.059 A 
ATOM     71  C   UNL A   1      45.712  35.709  28.243  1.00  0.00     0.059 A 
ATOM     72  F   UNL A   1      44.883  34.036  26.826  1.00  0.00    -0.206 F 
ATOM     73  C   UNL A   1      46.228  36.081  29.484  1.00  0.00     0.060 A 
BRANCH  73  74
ATOM     74  S   UNL A   1      46.608  37.812  29.831  1.00  0.00     0.124 S 
ATOM     75  O   UNL A   1      45.292  38.331  30.189  1.00  0.00    -0.237 OA
ATOM     76  O   UNL A   1      47.568  37.710  30.926  1.00  0.00    -0.237 OA
ATOM     77  O   UNL A   1      47.153  38.298  28.567  1.00  0.00    -0.744 OA
ENDBRANCH  73  74
ENDBRANCH  52  66
BRANCH  53  78
ATOM     78  C   UNL A   1      42.993  23.918  27.226  1.00  0.00     0.058 A 
ATOM     79  C   UNL A   1      42.673  23.508  25.924  1.00  0.00     0.135 A 
ATOM     80  C   UNL A   1      42.938  22.958  28.249  1.00  0.00     0.135 A 
ATOM     81  F   UNL A   1      42.697  24.394  24.917  1.00  0.00    -0.206 F 
ATOM     82  C   UNL A   1      42.304  22.195  25.645  1.00  0.00     0.059 A 
ATOM     83  C   UNL A   1      42.595  21.635  27.990  1.00  0.00     0.059 A 
ATOM     84  F   UNL A   1      43.241  23.300  29.511  1.00  0.00    -0.206 F 
ATOM     85  C   UNL A   1      42.272  21.265  26.686  1.00  0.00     0.060 A 
BRANCH  85  86
ATOM     86  S   UNL A   1      41.852  19.549  26.310  1.00  0.00     0.124 S 
ATOM     87  O   UNL A   1      40.409  19.635  26.117  1.00  0.00    -0.237 OA
ATOM     88  O   UNL A   1      42.642  19.291  25.108  1.00  0.00    -0.237 OA
ATOM     89  O   UNL A   1      42.291  18.830  27.502  1.00  0.00    -0.744 OA
ENDBRANCH  85  86
ENDBRANCH  53  78
BRANCH  65  90
ATOM     90  C   UNL A   1      48.908  27.503  26.385  1.00  0.00     0.058 A 
ATOM     91  C   UNL A   1      49.931  27.126  27.269  1.00  0.00     0.135 A 
ATOM     92  C   UNL A   1      49.187  27.484  25.009  1.00  0.00     0.135 A 
ATOM     93  F   UNL A   1      49.715  27.131  28.594  1.00  0.00    -0.206 F 
ATOM     94  C   UNL A   1      51.197  26.779  26.806  1.00  0.00     0.059 A 
ATOM     95  C   UNL A   1      50.438  27.117  24.524  1.00  0.00     0.059 A 
ATOM     96  F   UNL A   1      48.238  27.822  24.122  1.00  0.00    -0.206 F 
ATOM     97  C   UNL A   1      51.443  26.785  25.432  1.00  0.00     0.060 A 
BRANCH  97  98
ATOM     98  S   UNL A   1      53.088  26.336  24.839  1.00  0.00     0.124 S 
ATOM     99  O   UNL A   1      52.768  25.582  23.632  1.00  0.00    -0.237 OA
ATOM    100  O   UNL A   1      53.715  27.637  24.626  1.00  0.00    -0.237 OA
ATOM    101  O   UNL A   1      53.643  25.554  25.940  1.00  0.00    -0.744 OA
ENDBRANCH  97  98
ENDBRANCH  65  90
ENDBRANCH  39  40
ENDBRANCH  32  34
ENDBRANCH  31  32
ENDBRANCH  30  31
ENDBRANCH  29  30
ENDBRANCH  28  29
ENDBRANCH  27  28
ENDBRANCH   1  27
TORSDOF 27
ENDMDL
MODEL 2
REMARK VINA RESULT:      -9.3      6.378     11.030
REMARK SMILES [NH3+][C@](CCC[P@TB4](=O)([O-])[O-])(Cc1ccccc1)C(=O)OCCOCCOCCOC(=O)c1ccc(-c2c3nc(c(-c4c(F)cc(S(=O)(=O)[O-])cc4F)c4ccc([nH]4)c(-c4c(F)cc(S(=O)(=O)[O-])cc4F)c4nc(c(-c5c(F)cc(S(=O)(=O)[O-])cc5F)c5ccc2[nH]5)C=C4)C=C3)cc1
REMARK SMILES IDX 23 1 22 2 21 3 20 4 19 5 17 6 18 7 2 8 1 9 10 13 11 14 12 15
REMARK SMILES IDX 16 16 13 17 15 18 14 19 3 20 4 21 5 22 6 23 7 24 8 25 9 26
REMARK SMILES IDX 24 27 25 28 26 29 27 30 28 31 29 32 30 33 31 34 32 35 96 36
REMARK SMILES IDX 33 37 95 38 34 39 35 40 36 41 89 42 37 43 94 44 88 45 90 46
REMARK SMILES IDX 38 47 93 48 87 49 86 50 39 52 73 53 52 54 72 55 53 56 56 57
REMARK SMILES IDX 71 58 91 59 54 60 55 61 70 63 92 64 57 65 40 66 41 67 50 68
REMARK SMILES IDX 42 69 43 70 49 71 51 72 44 73 45 74 46 75 47 76 48 77 74 78
REMARK SMILES IDX 75 79 84 80 76 81 77 82 83 83 85 84 78 85 79 86 80 87 81 88
REMARK SMILES IDX 82 89 58 90 59 91 68 92 60 93 61 94 67 95 69 96 62 97 63 98
REMARK SMILES IDX 64 99 65 100 66 101
REMARK H PARENT 1 10 1 11 1 12 90 51 56 62
REMARK Flexibility Score: inf
ROOT
ATOM      1  C   UNL A   1      32.743  27.239  26.286  1.00  0.00       nan C 
ENDROOT
BRANCH   1   2
ATOM      2  O   UNL A   1      32.679  26.872  24.910  1.00  0.00       nan OA
BRANCH   2   3
ATOM      3  C   UNL A   1      31.480  26.346  24.364  1.00  0.00       nan C 
BRANCH   3   4
ATOM      4  C   UNL A   1      31.675  25.054  23.552  1.00  0.00       nan C 
BRANCH   4   5
ATOM      5  O   UNL A   1      31.054  23.854  24.072  1.00  0.00       nan OA
BRANCH   5   6
ATOM      6  C   UNL A   1      31.670  22.699  23.701  1.00  0.00       nan C 
ATOM      7  O   UNL A   1      31.789  22.373  22.522  1.00  0.00       nan OA
BRANCH   6   8
ATOM      8  C   UNL A   1      32.128  21.757  24.863  1.00  0.00       nan C 
BRANCH   8   9
ATOM      9  N   UNL A   1      31.015  21.732  25.865  1.00  0.00       nan N 
ATOM     10  H   UNL A   1      31.374  22.008  26.779  1.00  0.00       nan HD
ATOM     11  H   UNL A   1      30.628  20.790  25.921  1.00  0.00       nan HD
ATOM     12  H   UNL A   1      30.284  22.383  25.577  1.00  0.00       nan HD
ENDBRANCH   8   9
BRANCH   8  13
ATOM     13  C   UNL A   1      33.391  22.263  25.666  1.00  0.00       nan C 
BRANCH  13  14
ATOM     14  C   UNL A   1      34.818  22.217  25.123  1.00  0.00       nan A 
ATOM     15  C   UNL A   1      35.753  21.339  25.694  1.00  0.00       nan A 
ATOM     16  C   UNL A   1      35.212  22.892  23.955  1.00  0.00       nan A 
ATOM     17  C   UNL A   1      37.046  21.210  25.170  1.00  0.00       nan A 
ATOM     18  C   UNL A   1      36.512  22.789  23.447  1.00  0.00       nan A 
ATOM     19  C   UNL A   1      37.432  21.951  24.058  1.00  0.00       nan A 
ENDBRANCH  13  14
ENDBRANCH   8  13
BRANCH   8  20
ATOM     20  C   UNL A   1      32.342  20.335  24.256  1.00  0.00       nan C 
BRANCH  20  21
ATOM     21  C   UNL A   1      32.833  19.178  25.132  1.00  0.00       nan C 
BRANCH  21  22
ATOM     22  C   UNL A   1      33.888  18.238  24.588  1.00  0.00       nan C 
BRANCH  22  23
ATOM     23  P   UNL A   1      33.812  16.455  24.991  1.00  0.00       nan P 
ATOM     24  O   UNL A   1      32.337  16.569  25.378  1.00  0.00       nan OA
ATOM     25  O   UNL A   1      33.781  16.064  23.399  1.00  0.00       nan OA
ATOM     26  O   UNL A   1      33.739  14.770  25.372  1.00  0.00       nan OA
ENDBRANCH  22  23
ENDBRANCH  21  22
ENDBRANCH  20  21
ENDBRANCH   8  20
ENDBRANCH   6   8
ENDBRANCH   5   6
ENDBRANCH   4   5
ENDBRANCH   3   4
ENDBRANCH   2   3
ENDBRANCH   1   2
BRANCH   1  27
ATOM     27  C   UNL A   1      33.361  28.579  26.691  1.00  0.00       nan C 
BRANCH  27  28
ATOM     28  O   UNL A   1      32.432  29.478  27.288  1.00  0.00       inf OA
BRANCH  28  29
ATOM     29  C   UNL A   1      32.592  30.846  26.933  1.00  0.00     0.202 C 
BRANCH  29  30
ATOM     30  C   UNL A   1      33.721  31.531  27.706  1.00  0.00     0.261 C 
BRANCH  30  31
ATOM     31  O   UNL A   1      33.845  32.931  27.384  1.00  0.00    -0.460 OA
BRANCH  31  32
ATOM     32  C   UNL A   1      33.633  33.779  28.418  1.00  0.00     0.338 C 
ATOM     33  O   UNL A   1      32.679  34.515  28.582  1.00  0.00    -0.246 OA
BRANCH  32  34
ATOM     34  C   UNL A   1      34.717  33.600  29.398  1.00  0.00     0.060 A 
ATOM     35  C   UNL A   1      35.991  34.094  29.111  1.00  0.00     0.016 A 
ATOM     36  C   UNL A   1      34.489  32.852  30.550  1.00  0.00     0.016 A 
ATOM     37  C   UNL A   1      37.065  33.790  29.944  1.00  0.00     0.010 A 
ATOM     38  C   UNL A   1      35.562  32.564  31.397  1.00  0.00     0.010 A 
ATOM     39  C   UNL A   1      36.863  32.994  31.078  1.00  0.00    -0.014 A 
BRANCH  39  40
ATOM     40  C   UNL A   1      38.027  32.482  31.841  1.00  0.00     0.031 A 
ATOM     41  C   UNL A   1      38.884  31.408  31.226  1.00  0.00     0.074 A 
ATOM     42  C   UNL A   1      38.346  32.988  33.047  1.00  0.00     0.049 A 
ATOM     43  N   UNL A   1      39.858  30.717  31.758  1.00  0.00    -0.248 NA
ATOM     44  C   UNL A   1      38.601  31.068  29.822  1.00  0.00     0.031 C 
ATOM     45  C   UNL A   1      37.645  34.082  33.721  1.00  0.00     0.029 A 
ATOM     46  N   UNL A   1      39.347  32.642  33.919  1.00  0.00    -0.354 N 
ATOM     47  C   UNL A   1      40.275  29.832  30.772  1.00  0.00     0.074 A 
ATOM     48  C   UNL A   1      39.446  30.070  29.610  1.00  0.00     0.031 C 
ATOM     49  C   UNL A   1      38.240  34.318  34.902  1.00  0.00     0.029 A 
ATOM     50  C   UNL A   1      39.327  33.359  35.091  1.00  0.00     0.049 A 
ATOM     51  H   UNL A   1      40.015  31.946  33.724  1.00  0.00     0.167 HD
ATOM     52  C   UNL A   1      41.258  28.902  30.830  1.00  0.00     0.037 A 
ATOM     53  C   UNL A   1      40.079  33.235  36.202  1.00  0.00     0.037 A 
ATOM     54  C   UNL A   1      42.105  28.692  31.974  1.00  0.00     0.049 A 
ATOM     55  C   UNL A   1      41.146  32.174  36.257  1.00  0.00     0.074 A 
ATOM     56  C   UNL A   1      43.124  27.769  32.136  1.00  0.00     0.029 A 
ATOM     57  N   UNL A   1      42.042  29.427  33.150  1.00  0.00    -0.354 N 
ATOM     58  N   UNL A   1      41.489  31.298  35.342  1.00  0.00    -0.248 NA
ATOM     59  C   UNL A   1      41.925  32.081  37.500  1.00  0.00     0.031 C 
ATOM     60  C   UNL A   1      43.662  27.930  33.419  1.00  0.00     0.029 A 
ATOM     61  C   UNL A   1      43.002  28.978  34.041  1.00  0.00     0.049 A 
ATOM     62  H   UNL A   1      41.408  30.159  33.324  1.00  0.00     0.167 HD
ATOM     63  C   UNL A   1      42.535  30.564  35.890  1.00  0.00     0.074 A 
ATOM     64  C   UNL A   1      42.777  31.107  37.212  1.00  0.00     0.031 C 
ATOM     65  C   UNL A   1      43.232  29.533  35.351  1.00  0.00     0.037 A 
BRANCH  52  66
ATOM     66  C   UNL A   1      41.444  28.017  29.631  1.00  0.00     0.058 A 
ATOM     67  C   UNL A   1      42.541  28.157  28.767  1.00  0.00     0.135 A 
ATOM     68  C   UNL A   1      40.514  27.003  29.351  1.00  0.00     0.135 A 
ATOM     69  F   UNL A   1      43.446  29.126  28.975  1.00  0.00    -0.206 F 
ATOM     70  C   UNL A   1      42.697  27.337  27.653  1.00  0.00     0.059 A 
ATOM     71  C   UNL A   1      40.662  26.157  28.258  1.00  0.00     0.059 A 
ATOM     72  F   UNL A   1      39.443  26.832  30.143  1.00  0.00    -0.206 F 
ATOM     73  C   UNL A   1      41.750  26.341  27.406  1.00  0.00     0.060 A 
BRANCH  73  74
ATOM     74  S   UNL A   1      41.961  25.282  25.958  1.00  0.00     0.124 S 
ATOM     75  O   UNL A   1      43.177  24.554  26.307  1.00  0.00    -0.237 OA
ATOM     76  O   UNL A   1      40.730  24.497  25.961  1.00  0.00    -0.237 OA
ATOM     77  O   UNL A   1      42.092  26.233  24.859  1.00  0.00    -0.744 OA
ENDBRANCH  73  74
ENDBRANCH  52  66
BRANCH  53  78
ATOM     78  C   UNL A   1      39.831  34.124  37.367  1.00  0.00     0.058 A 
ATOM     79  C   UNL A   1      39.113  33.671  38.483  1.00  0.00     0.135 A 
ATOM     80  C   UNL A   1      40.311  35.442  37.386  1.00  0.00     0.135 A 
ATOM     81  F   UNL A   1      38.621  32.423  38.503  1.00  0.00    -0.206 F 
ATOM     82  C   UNL A   1      38.874  34.496  39.578  1.00  0.00     0.059 A 
ATOM     83  C   UNL A   1      40.105  36.278  38.479  1.00  0.00     0.059 A 
ATOM     84  F   UNL A   1      41.008  35.921  36.344  1.00  0.00    -0.206 F 
ATOM     85  C   UNL A   1      39.378  35.798  39.567  1.00  0.00     0.060 A 
BRANCH  85  86
ATOM     86  S   UNL A   1      39.118  36.846  41.015  1.00  0.00     0.124 S 
ATOM     87  O   UNL A   1      38.709  38.103  40.398  1.00  0.00    -0.237 OA
ATOM     88  O   UNL A   1      38.076  36.124  41.740  1.00  0.00    -0.237 OA
ATOM     89  O   UNL A   1      40.427  36.853  41.660  1.00  0.00    -0.744 OA
ENDBRANCH  85  86
ENDBRANCH  53  78
BRANCH  65  90
ATOM     90  C   UNL A   1      44.349  28.956  36.174  1.00  0.00     0.058 A 
ATOM     91  C   UNL A   1      44.160  27.823  36.982  1.00  0.00     0.135 A 
ATOM     92  C   UNL A   1      45.627  29.534  36.141  1.00  0.00     0.135 A 
ATOM     93  F   UNL A   1      42.956  27.235  37.051  1.00  0.00    -0.206 F 
ATOM     94  C   UNL A   1      45.194  27.307  37.759  1.00  0.00     0.059 A 
ATOM     95  C   UNL A   1      46.680  29.020  36.891  1.00  0.00     0.059 A 
ATOM     96  F   UNL A   1      45.863  30.610  35.373  1.00  0.00    -0.206 F 
ATOM     97  C   UNL A   1      46.449  27.917  37.712  1.00  0.00     0.060 A 
BRANCH  97  98
ATOM     98  S   UNL A   1      47.783  27.244  38.724  1.00  0.00     0.124 S 
ATOM     99  O   UNL A   1      48.752  26.851  37.706  1.00  0.00    -0.237 OA
ATOM    100  O   UNL A   1      48.162  28.386  39.551  1.00  0.00    -0.237 OA
ATOM    101  O   UNL A   1      47.143  26.145  39.441  1.00  0.00    -0.744 OA
ENDBRANCH  97  98
ENDBRANCH  65  90
ENDBRANCH  39  40
ENDBRANCH  32  34
ENDBRANCH  31  32
ENDBRANCH  30  31
ENDBRANCH  29  30
ENDBRANCH  28  29
ENDBRANCH  27  28
ENDBRANCH   1  27
TORSDOF 27
ENDMDL
MODEL 3
REMARK VINA RESULT:      -9.2      6.619      8.903
REMARK SMILES [NH3+][C@](CCC[P@TB4](=O)([O-])[O-])(Cc1ccccc1)C(=O)OCCOCCOCCOC(=O)c1ccc(-c2c3nc(c(-c4c(F)cc(S(=O)(=O)[O-])cc4F)c4ccc([nH]4)c(-c4c(F)cc(S(=O)(=O)[O-])cc4F)c4nc(c(-c5c(F)cc(S(=O)(=O)[O-])cc5F)c5ccc2[nH]5)C=C4)C=C3)cc1
REMARK SMILES IDX 23 1 22 2 21 3 20 4 19 5 17 6 18 7 2 8 1 9 10 13 11 14 12 15
REMARK SMILES IDX 16 16 13 17 15 18 14 19 3 20 4 21 5 22 6 23 7 24 8 25 9 26
REMARK SMILES IDX 24 27 25 28 26 29 27 30 28 31 29 32 30 33 31 34 32 35 96 36
REMARK SMILES IDX 33 37 95 38 34 39 35 40 36 41 89 42 37 43 94 44 88 45 90 46
REMARK SMILES IDX 38 47 93 48 87 49 86 50 39 52 73 53 52 54 72 55 53 56 56 57
REMARK SMILES IDX 71 58 91 59 54 60 55 61 70 63 92 64 57 65 40 66 41 67 50 68
REMARK SMILES IDX 42 69 43 70 49 71 51 72 44 73 45 74 46 75 47 76 48 77 74 78
REMARK SMILES IDX 75 79 84 80 76 81 77 82 83 83 85 84 78 85 79 86 80 87 81 88
REMARK SMILES IDX 82 89 58 90 59 91 68 92 60 93 61 94 67 95 69 96 62 97 63 98
REMARK SMILES IDX 64 99 65 100 66 101
REMARK H PARENT 1 10 1 11 1 12 90 51 56 62
REMARK Flexibility Score: inf
ROOT
ATOM      1  C   UNL A   1      35.407  31.471  28.851  1.00  0.00       nan C 
ENDROOT
BRANCH   1   2
ATOM      2  O   UNL A   1      34.987  31.071  27.547  1.00  0.00       nan OA
BRANCH   2   3
ATOM      3  C   UNL A   1      33.607  30.971  27.239  1.00  0.00       nan C 
BRANCH   3   4
ATOM      4  C   UNL A   1      33.245  29.750  26.375  1.00  0.00       nan C 
BRANCH   4   5
ATOM      5  O   UNL A   1      31.979  29.797  25.674  1.00  0.00       nan OA
BRANCH   5   6
ATOM      6  C   UNL A   1      31.458  28.576  25.377  1.00  0.00       nan C 
ATOM      7  O   UNL A   1      31.353  27.689  26.221  1.00  0.00       nan OA
BRANCH   6   8
ATOM      8  C   UNL A   1      31.094  28.328  23.875  1.00  0.00       nan C 
BRANCH   8   9
ATOM      9  N   UNL A   1      31.972  29.228  23.063  1.00  0.00       nan N 
ATOM     10  H   UNL A   1      32.874  29.333  23.527  1.00  0.00       nan HD
ATOM     11  H   UNL A   1      31.528  30.142  22.970  1.00  0.00       nan HD
ATOM     12  H   UNL A   1      32.111  28.823  22.137  1.00  0.00       nan HD
ENDBRANCH   8   9
BRANCH   8  13
ATOM     13  C   UNL A   1      29.617  28.726  23.479  1.00  0.00       nan C 
BRANCH  13  14
ATOM     14  C   UNL A   1      29.223  30.098  22.935  1.00  0.00       nan A 
ATOM     15  C   UNL A   1      28.807  30.226  21.601  1.00  0.00       nan A 
ATOM     16  C   UNL A   1      29.090  31.233  23.754  1.00  0.00       nan A 
ATOM     17  C   UNL A   1      28.361  31.452  21.091  1.00  0.00       nan A 
ATOM     18  C   UNL A   1      28.673  32.467  23.241  1.00  0.00       nan A 
ATOM     19  C   UNL A   1      28.313  32.578  21.906  1.00  0.00       nan A 
ENDBRANCH  13  14
ENDBRANCH   8  13
BRANCH   8  20
ATOM     20  C   UNL A   1      31.409  26.833  23.559  1.00  0.00       nan C 
BRANCH  20  21
ATOM     21  C   UNL A   1      32.299  26.458  22.369  1.00  0.00       nan C 
BRANCH  21  22
ATOM     22  C   UNL A   1      33.597  25.721  22.622  1.00  0.00       nan C 
BRANCH  22  23
ATOM     23  P   UNL A   1      33.560  24.020  23.296  1.00  0.00       nan P 
ATOM     24  O   UNL A   1      34.737  23.605  22.412  1.00  0.00       nan OA
ATOM     25  O   UNL A   1      34.261  24.522  24.690  1.00  0.00       nan OA
ATOM     26  O   UNL A   1      33.525  22.412  23.932  1.00  0.00       nan OA
ENDBRANCH  22  23
ENDBRANCH  21  22
ENDBRANCH  20  21
ENDBRANCH   8  20
ENDBRANCH   6   8
ENDBRANCH   5   6
ENDBRANCH   4   5
ENDBRANCH   3   4
ENDBRANCH   2   3
ENDBRANCH   1   2
BRANCH   1  27
ATOM     27  C   UNL A   1      34.823  32.735  29.486  1.00  0.00       nan C 
BRANCH  27  28
ATOM     28  O   UNL A   1      35.369  33.940  28.963  1.00  0.00       inf OA
BRANCH  28  29
ATOM     29  C   UNL A   1      34.419  34.881  28.478  1.00  0.00     0.202 C 
BRANCH  29  30
ATOM     30  C   UNL A   1      33.214  35.040  29.409  1.00  0.00     0.261 C 
BRANCH  30  31
ATOM     31  O   UNL A   1      33.485  35.912  30.524  1.00  0.00    -0.460 OA
BRANCH  31  32
ATOM     32  C   UNL A   1      33.034  35.469  31.722  1.00  0.00     0.338 C 
ATOM     33  O   UNL A   1      31.884  35.465  32.119  1.00  0.00    -0.246 OA
BRANCH  32  34
ATOM     34  C   UNL A   1      34.165  34.883  32.459  1.00  0.00     0.060 A 
ATOM     35  C   UNL A   1      35.442  35.427  32.305  1.00  0.00     0.016 A 
ATOM     36  C   UNL A   1      33.971  33.731  33.217  1.00  0.00     0.016 A 
ATOM     37  C   UNL A   1      36.547  34.786  32.858  1.00  0.00     0.010 A 
ATOM     38  C   UNL A   1      35.078  33.099  33.789  1.00  0.00     0.010 A 
ATOM     39  C   UNL A   1      36.376  33.599  33.578  1.00  0.00    -0.014 A 
BRANCH  39  40
ATOM     40  C   UNL A   1      37.559  32.796  33.975  1.00  0.00     0.031 A 
ATOM     41  C   UNL A   1      38.231  33.092  35.289  1.00  0.00     0.074 A 
ATOM     42  C   UNL A   1      38.010  31.791  33.201  1.00  0.00     0.049 A 
ATOM     43  N   UNL A   1      39.349  32.621  35.775  1.00  0.00    -0.248 NA
ATOM     44  C   UNL A   1      37.548  34.051  36.172  1.00  0.00     0.031 C 
ATOM     45  C   UNL A   1      37.405  31.351  31.944  1.00  0.00     0.029 A 
ATOM     46  N   UNL A   1      39.088  30.958  33.366  1.00  0.00    -0.354 N 
ATOM     47  C   UNL A   1      39.528  33.257  36.997  1.00  0.00     0.074 A 
ATOM     48  C   UNL A   1      38.404  34.150  37.179  1.00  0.00     0.031 C 
ATOM     49  C   UNL A   1      38.121  30.326  31.451  1.00  0.00     0.029 A 
ATOM     50  C   UNL A   1      39.263  30.074  32.328  1.00  0.00     0.049 A 
ATOM     51  H   UNL A   1      39.679  30.991  34.151  1.00  0.00     0.167 HD
ATOM     52  C   UNL A   1      40.538  33.111  37.887  1.00  0.00     0.037 A 
ATOM     53  C   UNL A   1      40.249  29.186  32.096  1.00  0.00     0.037 A 
ATOM     54  C   UNL A   1      41.636  32.194  37.721  1.00  0.00     0.049 A 
ATOM     55  C   UNL A   1      41.378  29.062  33.084  1.00  0.00     0.074 A 
ATOM     56  C   UNL A   1      42.714  31.979  38.561  1.00  0.00     0.029 A 
ATOM     57  N   UNL A   1      41.787  31.329  36.647  1.00  0.00    -0.354 N 
ATOM     58  N   UNL A   1      41.571  29.715  34.206  1.00  0.00    -0.248 NA
ATOM     59  C   UNL A   1      42.429  28.084  32.770  1.00  0.00     0.031 C 
ATOM     60  C   UNL A   1      43.531  30.999  37.983  1.00  0.00     0.029 A 
ATOM     61  C   UNL A   1      42.940  30.579  36.802  1.00  0.00     0.049 A 
ATOM     62  H   UNL A   1      41.165  31.258  35.888  1.00  0.00     0.167 HD
ATOM     63  C   UNL A   1      42.753  29.213  34.740  1.00  0.00     0.074 A 
ATOM     64  C   UNL A   1      43.224  28.193  33.825  1.00  0.00     0.031 C 
ATOM     65  C   UNL A   1      43.392  29.564  35.884  1.00  0.00     0.037 A 
BRANCH  52  66
ATOM     66  C   UNL A   1      40.520  33.991  39.104  1.00  0.00     0.058 A 
ATOM     67  C   UNL A   1      41.191  35.223  39.141  1.00  0.00     0.135 A 
ATOM     68  C   UNL A   1      39.805  33.598  40.248  1.00  0.00     0.135 A 
ATOM     69  F   UNL A   1      41.909  35.632  38.084  1.00  0.00    -0.206 F 
ATOM     70  C   UNL A   1      41.174  36.025  40.278  1.00  0.00     0.059 A 
ATOM     71  C   UNL A   1      39.755  34.394  41.386  1.00  0.00     0.059 A 
ATOM     72  F   UNL A   1      39.151  32.426  40.266  1.00  0.00    -0.206 F 
ATOM     73  C   UNL A   1      40.455  35.600  41.398  1.00  0.00     0.060 A 
BRANCH  73  74
ATOM     74  S   UNL A   1      40.438  36.648  42.868  1.00  0.00     0.124 S 
ATOM     75  O   UNL A   1      41.847  37.013  42.980  1.00  0.00    -0.237 OA
ATOM     76  O   UNL A   1      39.535  37.726  42.476  1.00  0.00    -0.237 OA
ATOM     77  O   UNL A   1      39.934  35.760  43.911  1.00  0.00    -0.744 OA
ENDBRANCH  73  74
ENDBRANCH  52  66
BRANCH  53  78
ATOM     78  C   UNL A   1      40.225  28.360  30.861  1.00  0.00     0.058 A 
ATOM     79  C   UNL A   1      41.069  28.651  29.780  1.00  0.00     0.135 A 
ATOM     80  C   UNL A   1      39.361  27.261  30.741  1.00  0.00     0.135 A 
ATOM     81  F   UNL A   1      41.901  29.702  29.842  1.00  0.00    -0.206 F 
ATOM     82  C   UNL A   1      41.053  27.885  28.618  1.00  0.00     0.059 A 
ATOM     83  C   UNL A   1      39.344  26.466  29.599  1.00  0.00     0.059 A 
ATOM     84  F   UNL A   1      38.538  26.938  31.751  1.00  0.00    -0.206 F 
ATOM     85  C   UNL A   1      40.189  26.792  28.539  1.00  0.00     0.060 A 
BRANCH  85  86
ATOM     86  S   UNL A   1      40.215  25.763  27.054  1.00  0.00     0.124 S 
ATOM     87  O   UNL A   1      38.814  25.372  26.945  1.00  0.00    -0.237 OA
ATOM     88  O   UNL A   1      40.698  26.695  26.038  1.00  0.00    -0.237 OA
ATOM     89  O   UNL A   1      41.146  24.696  27.405  1.00  0.00    -0.744 OA
ENDBRANCH  85  86
ENDBRANCH  53  78
BRANCH  65  90
ATOM     90  C   UNL A   1      44.645  28.810  36.228  1.00  0.00     0.058 A 
ATOM     91  C   UNL A   1      44.608  27.615  36.966  1.00  0.00     0.135 A 
ATOM     92  C   UNL A   1      45.896  29.280  35.800  1.00  0.00     0.135 A 
ATOM     93  F   UNL A   1      43.437  27.125  37.400  1.00  0.00    -0.206 F 
ATOM     94  C   UNL A   1      45.775  26.933  37.298  1.00  0.00     0.059 A 
ATOM     95  C   UNL A   1      47.073  28.601  36.102  1.00  0.00     0.059 A 
ATOM     96  F   UNL A   1      45.984  30.409  35.080  1.00  0.00    -0.206 F 
ATOM     97  C   UNL A   1      47.003  27.438  36.868  1.00  0.00     0.060 A 
BRANCH  97  98
ATOM     98  S   UNL A   1      48.513  26.550  37.306  1.00  0.00     0.124 S 
ATOM     99  O   UNL A   1      48.758  25.775  36.095  1.00  0.00    -0.237 OA
ATOM    100  O   UNL A   1      49.455  27.635  37.566  1.00  0.00    -0.237 OA
ATOM    101  O   UNL A   1      48.121  25.775  38.480  1.00  0.00    -0.744 OA
ENDBRANCH  97  98
ENDBRANCH  65  90
ENDBRANCH  39  40
ENDBRANCH  32  34
ENDBRANCH  31  32
ENDBRANCH  30  31
ENDBRANCH  29  30
ENDBRANCH  28  29
ENDBRANCH  27  28
ENDBRANCH   1  27
TORSDOF 27
ENDMDL
