MODEL 1
REMARK VINA RESULT:     -10.1      0.000      0.000
REMARK SMILES CS(=O)(=O)c1ccc(NS(=O)(=O)c2ccc(F)c(C(=O)OCCOCCOCCOC(=O)c3ccc(-c4c5nc(c(-c6c(F)cc(S(=O)(=O)[O-])cc6F)c6ccc([nH]6)c(-c6c(F)cc(S(=O)(=O)[O-])cc6F)c6nc(c(-c7c(F)cc(S(=O)(=O)[O-])cc7F)c7ccc4[nH]7)C=C6)C=C5)cc3)c2)cc1
REMARK SMILES IDX 25 1 24 2 23 3 22 4 21 5 19 6 20 7 18 8 13 9 14 10 99 11
REMARK SMILES IDX 15 12 16 13 17 14 10 15 11 16 12 17 9 18 8 20 5 21 6 22
REMARK SMILES IDX 101 23 7 24 100 25 2 26 1 27 3 28 4 29 26 30 27 31 28 32
REMARK SMILES IDX 29 33 30 34 31 35 32 36 33 37 34 38 98 39 35 40 97 41 36 42
REMARK SMILES IDX 37 43 38 44 91 45 39 46 96 47 90 48 92 49 40 50 95 51 89 52
REMARK SMILES IDX 88 53 41 55 75 56 54 57 74 58 55 59 58 60 73 61 93 62 56 63
REMARK SMILES IDX 57 64 72 66 94 67 59 68 42 69 43 70 52 71 44 72 45 73 51 74
REMARK SMILES IDX 53 75 46 76 47 77 48 78 49 79 50 80 76 81 77 82 86 83 78 84
REMARK SMILES IDX 79 85 85 86 87 87 80 88 81 89 82 90 83 91 84 92 60 93 61 94
REMARK SMILES IDX 70 95 62 96 63 97 69 98 71 99 64 100 65 101 66 102 67 103
REMARK SMILES IDX 68 104
REMARK H PARENT 9 19 92 54 58 65
REMARK Flexibility Score: inf
ROOT
ATOM      1  C   UNL A   1      34.047  31.708  27.523  1.00  0.00     0.188 C 
ENDROOT
BRANCH   1   2
ATOM      2  O   UNL A   1      33.002  30.774  27.647  1.00  0.00    -0.376 OA
BRANCH   2   3
ATOM      3  C   UNL A   1      32.279  30.359  26.501  1.00  0.00     0.202 C 
BRANCH   3   4
ATOM      4  C   UNL A   1      31.836  28.913  26.189  1.00  0.00     0.261 C 
BRANCH   4   5
ATOM      5  O   UNL A   1      32.018  28.427  24.854  1.00  0.00    -0.460 OA
BRANCH   5   6
ATOM      6  C   UNL A   1      30.914  27.898  24.267  1.00  0.00     0.341 C 
ATOM      7  O   UNL A   1      29.994  28.516  23.765  1.00  0.00    -0.246 OA
BRANCH   6   8
ATOM      8  C   UNL A   1      31.029  26.425  24.216  1.00  0.00     0.097 A 
ATOM      9  C   UNL A   1      30.815  24.208  25.158  1.00  0.00     0.088 A 
ATOM     10  C   UNL A   1      31.165  23.647  23.920  1.00  0.00     0.025 A 
ATOM     11  C   UNL A   1      30.714  25.601  25.308  1.00  0.00     0.041 A 
ATOM     12  C   UNL A   1      31.542  24.476  22.866  1.00  0.00     0.041 A 
ATOM     13  C   UNL A   1      31.481  25.857  23.021  1.00  0.00     0.137 A 
ATOM     14  F   UNL A   1      31.919  26.628  22.018  1.00  0.00    -0.206 F 
BRANCH   9  15
ATOM     15  S   UNL A   1      30.423  23.106  26.500  1.00  0.00     0.261 S 
ATOM     16  O   UNL A   1      30.098  21.815  25.934  1.00  0.00    -0.201 OA
ATOM     17  O   UNL A   1      29.467  23.784  27.353  1.00  0.00    -0.201 OA
BRANCH  15  18
ATOM     18  N   UNL A   1      31.830  22.914  27.442  1.00  0.00    -0.280 N 
ATOM     19  H   UNL A   1      31.768  22.983  28.422  1.00  0.00     0.180 HD
BRANCH  18  20
ATOM     20  C   UNL A   1      33.101  22.654  26.832  1.00  0.00     0.049 A 
ATOM     21  C   UNL A   1      35.514  22.141  25.513  1.00  0.00     0.067 A 
ATOM     22  C   UNL A   1      34.638  21.093  25.790  1.00  0.00     0.022 A 
ATOM     23  C   UNL A   1      35.198  23.448  25.891  1.00  0.00     0.022 A 
ATOM     24  C   UNL A   1      33.416  21.363  26.404  1.00  0.00     0.028 A 
ATOM     25  C   UNL A   1      33.991  23.700  26.561  1.00  0.00     0.028 A 
BRANCH  21  26
ATOM     26  S   UNL A   1      37.061  21.769  24.713  1.00  0.00     0.175 S 
ATOM     27  C   UNL A   1      38.267  22.560  25.749  1.00  0.00     0.163 C 
ATOM     28  O   UNL A   1      37.029  22.456  23.435  1.00  0.00    -0.224 OA
ATOM     29  O   UNL A   1      37.252  20.336  24.795  1.00  0.00    -0.224 OA
ENDBRANCH  21  26
ENDBRANCH  18  20
ENDBRANCH  15  18
ENDBRANCH   9  15
ENDBRANCH   6   8
ENDBRANCH   5   6
ENDBRANCH   4   5
ENDBRANCH   3   4
ENDBRANCH   2   3
ENDBRANCH   1   2
BRANCH   1  30
ATOM     30  C   UNL A   1      34.940  31.842  28.774  1.00  0.00     0.188 C 
BRANCH  30  31
ATOM     31  O   UNL A   1      35.332  33.117  29.248  1.00  0.00    -0.376 OA
BRANCH  31  32
ATOM     32  C   UNL A   1      35.633  33.296  30.625  1.00  0.00     0.202 C 
BRANCH  32  33
ATOM     33  C   UNL A   1      37.052  33.135  31.210  1.00  0.00     0.261 C 
BRANCH  33  34
ATOM     34  O   UNL A   1      37.247  32.106  32.188  1.00  0.00    -0.460 OA
BRANCH  34  35
ATOM     35  C   UNL A   1      36.979  30.846  31.765  1.00  0.00     0.338 C 
ATOM     36  O   UNL A   1      35.903  30.273  31.784  1.00  0.00    -0.246 OA
BRANCH  35  37
ATOM     37  C   UNL A   1      38.164  30.308  31.069  1.00  0.00     0.060 A 
ATOM     38  C   UNL A   1      39.254  29.882  31.842  1.00  0.00     0.016 A 
ATOM     39  C   UNL A   1      38.223  30.270  29.678  1.00  0.00     0.016 A 
ATOM     40  C   UNL A   1      40.418  29.431  31.225  1.00  0.00     0.010 A 
ATOM     41  C   UNL A   1      39.399  29.840  29.059  1.00  0.00     0.010 A 
ATOM     42  C   UNL A   1      40.510  29.445  29.829  1.00  0.00    -0.014 A 
BRANCH  42  43
ATOM     43  C   UNL A   1      41.821  29.211  29.177  1.00  0.00     0.031 A 
ATOM     44  C   UNL A   1      42.121  27.837  28.642  1.00  0.00     0.074 A 
ATOM     45  C   UNL A   1      42.722  30.202  29.050  1.00  0.00     0.049 A 
ATOM     46  N   UNL A   1      43.218  27.378  28.101  1.00  0.00    -0.248 NA
ATOM     47  C   UNL A   1      41.036  26.847  28.739  1.00  0.00     0.031 C 
ATOM     48  C   UNL A   1      42.527  31.583  29.486  1.00  0.00     0.029 A 
ATOM     49  N   UNL A   1      43.990  30.189  28.527  1.00  0.00    -0.354 N 
ATOM     50  C   UNL A   1      42.961  26.046  27.800  1.00  0.00     0.074 A 
ATOM     51  C   UNL A   1      41.615  25.761  28.249  1.00  0.00     0.031 C 
ATOM     52  C   UNL A   1      43.645  32.283  29.228  1.00  0.00     0.029 A 
ATOM     53  C   UNL A   1      44.646  31.391  28.642  1.00  0.00     0.049 A 
ATOM     54  H   UNL A   1      44.392  29.394  28.107  1.00  0.00     0.167 HD
ATOM     55  C   UNL A   1      43.772  25.144  27.199  1.00  0.00     0.037 A 
ATOM     56  C   UNL A   1      45.917  31.724  28.337  1.00  0.00     0.037 A 
ATOM     57  C   UNL A   1      45.113  25.435  26.761  1.00  0.00     0.049 A 
ATOM     58  C   UNL A   1      46.828  30.681  27.739  1.00  0.00     0.074 A 
ATOM     59  C   UNL A   1      46.012  24.594  26.128  1.00  0.00     0.029 A 
ATOM     60  N   UNL A   1      45.751  26.657  26.918  1.00  0.00    -0.354 N 
ATOM     61  N   UNL A   1      46.570  29.429  27.441  1.00  0.00    -0.248 NA
ATOM     62  C   UNL A   1      48.205  31.096  27.433  1.00  0.00     0.031 C 
ATOM     63  C   UNL A   1      47.213  25.288  25.957  1.00  0.00     0.029 A 
ATOM     64  C   UNL A   1      47.043  26.583  26.422  1.00  0.00     0.049 A 
ATOM     65  H   UNL A   1      45.346  27.458  27.322  1.00  0.00     0.167 HD
ATOM     66  C   UNL A   1      47.739  28.919  26.883  1.00  0.00     0.074 A 
ATOM     67  C   UNL A   1      48.702  30.000  26.877  1.00  0.00     0.031 C 
ATOM     68  C   UNL A   1      47.991  27.670  26.415  1.00  0.00     0.037 A 
BRANCH  55  69
ATOM     69  C   UNL A   1      43.244  23.747  27.011  1.00  0.00     0.058 A 
ATOM     70  C   UNL A   1      42.753  23.299  25.775  1.00  0.00     0.135 A 
ATOM     71  C   UNL A   1      43.255  22.836  28.079  1.00  0.00     0.135 A 
ATOM     72  F   UNL A   1      42.696  24.135  24.725  1.00  0.00    -0.206 F 
ATOM     73  C   UNL A   1      42.267  22.006  25.610  1.00  0.00     0.059 A 
ATOM     74  C   UNL A   1      42.803  21.528  27.930  1.00  0.00     0.059 A 
ATOM     75  F   UNL A   1      43.708  23.211  29.285  1.00  0.00    -0.206 F 
ATOM     76  C   UNL A   1      42.296  21.127  26.694  1.00  0.00     0.060 A 
BRANCH  76  77
ATOM     77  S   UNL A   1      41.659  19.454  26.463  1.00  0.00     0.124 S 
ATOM     78  O   UNL A   1      41.901  18.867  27.778  1.00  0.00    -0.237 OA
ATOM     79  O   UNL A   1      40.261  19.698  26.126  1.00  0.00    -0.237 OA
ATOM     80  O   UNL A   1      42.480  18.924  25.379  1.00  0.00    -0.744 OA
ENDBRANCH  76  77
ENDBRANCH  55  69
BRANCH  56  81
ATOM     81  C   UNL A   1      46.411  33.102  28.604  1.00  0.00     0.058 A 
ATOM     82  C   UNL A   1      46.968  33.447  29.844  1.00  0.00     0.135 A 
ATOM     83  C   UNL A   1      46.328  34.107  27.627  1.00  0.00     0.135 A 
ATOM     84  F   UNL A   1      47.056  32.528  30.819  1.00  0.00    -0.206 F 
ATOM     85  C   UNL A   1      47.411  34.738  30.112  1.00  0.00     0.059 A 
ATOM     86  C   UNL A   1      46.790  35.398  27.861  1.00  0.00     0.059 A 
ATOM     87  F   UNL A   1      45.809  33.830  26.420  1.00  0.00    -0.206 F 
ATOM     88  C   UNL A   1      47.322  35.707  29.111  1.00  0.00     0.060 A 
BRANCH  88  89
ATOM     89  S   UNL A   1      47.941  37.368  29.456  1.00  0.00     0.124 S 
ATOM     90  O   UNL A   1      49.131  37.420  28.615  1.00  0.00    -0.237 OA
ATOM     91  O   UNL A   1      46.823  38.204  29.032  1.00  0.00    -0.237 OA
ATOM     92  O   UNL A   1      48.187  37.342  30.895  1.00  0.00    -0.744 OA
ENDBRANCH  88  89
ENDBRANCH  56  81
BRANCH  68  93
ATOM     93  C   UNL A   1      49.348  27.409  25.815  1.00  0.00     0.058 A 
ATOM     94  C   UNL A   1      49.570  27.454  24.430  1.00  0.00     0.135 A 
ATOM     95  C   UNL A   1      50.456  27.171  26.646  1.00  0.00     0.135 A 
ATOM     96  F   UNL A   1      48.548  27.674  23.588  1.00  0.00    -0.206 F 
ATOM     97  C   UNL A   1      50.835  27.246  23.889  1.00  0.00     0.059 A 
ATOM     98  C   UNL A   1      51.736  26.993  26.129  1.00  0.00     0.059 A 
ATOM     99  F   UNL A   1      50.305  27.130  27.980  1.00  0.00    -0.206 F 
ATOM    100  C   UNL A   1      51.913  27.020  24.748  1.00  0.00     0.060 A 
BRANCH 100 101
ATOM    101  S   UNL A   1      53.556  26.789  24.034  1.00  0.00     0.124 S 
ATOM    102  O   UNL A   1      53.496  27.663  22.866  1.00  0.00    -0.237 OA
ATOM    103  O   UNL A   1      54.430  27.235  25.114  1.00  0.00    -0.237 OA
ATOM    104  O   UNL A   1      53.605  25.359  23.746  1.00  0.00    -0.744 OA
ENDBRANCH 100 101
ENDBRANCH  68  93
ENDBRANCH  42  43
ENDBRANCH  35  37
ENDBRANCH  34  35
ENDBRANCH  33  34
ENDBRANCH  32  33
ENDBRANCH  31  32
ENDBRANCH  30  31
ENDBRANCH   1  30
TORSDOF 24
ENDMDL
MODEL 2
REMARK VINA RESULT:     -10.0      1.108      8.056
REMARK SMILES CS(=O)(=O)c1ccc(NS(=O)(=O)c2ccc(F)c(C(=O)OCCOCCOCCOC(=O)c3ccc(-c4c5nc(c(-c6c(F)cc(S(=O)(=O)[O-])cc6F)c6ccc([nH]6)c(-c6c(F)cc(S(=O)(=O)[O-])cc6F)c6nc(c(-c7c(F)cc(S(=O)(=O)[O-])cc7F)c7ccc4[nH]7)C=C6)C=C5)cc3)c2)cc1
REMARK SMILES IDX 25 1 24 2 23 3 22 4 21 5 19 6 20 7 18 8 13 9 14 10 99 11
REMARK SMILES IDX 15 12 16 13 17 14 10 15 11 16 12 17 9 18 8 20 5 21 6 22
REMARK SMILES IDX 101 23 7 24 100 25 2 26 1 27 3 28 4 29 26 30 27 31 28 32
REMARK SMILES IDX 29 33 30 34 31 35 32 36 33 37 34 38 98 39 35 40 97 41 36 42
REMARK SMILES IDX 37 43 38 44 91 45 39 46 96 47 90 48 92 49 40 50 95 51 89 52
REMARK SMILES IDX 88 53 41 55 75 56 54 57 74 58 55 59 58 60 73 61 93 62 56 63
REMARK SMILES IDX 57 64 72 66 94 67 59 68 42 69 43 70 52 71 44 72 45 73 51 74
REMARK SMILES IDX 53 75 46 76 47 77 48 78 49 79 50 80 76 81 77 82 86 83 78 84
REMARK SMILES IDX 79 85 85 86 87 87 80 88 81 89 82 90 83 91 84 92 60 93 61 94
REMARK SMILES IDX 70 95 62 96 63 97 69 98 71 99 64 100 65 101 66 102 67 103
REMARK SMILES IDX 68 104
REMARK H PARENT 9 19 92 54 58 65
REMARK Flexibility Score: inf
ROOT
ATOM      1  C   UNL A   1      33.663  28.944  25.932  1.00  0.00     0.188 C 
ENDROOT
BRANCH   1   2
ATOM      2  O   UNL A   1      33.232  28.284  24.766  1.00  0.00    -0.376 OA
BRANCH   2   3
ATOM      3  C   UNL A   1      34.094  28.181  23.647  1.00  0.00     0.202 C 
BRANCH   3   4
ATOM      4  C   UNL A   1      33.851  27.306  22.398  1.00  0.00     0.261 C 
BRANCH   4   5
ATOM      5  O   UNL A   1      33.175  26.056  22.575  1.00  0.00    -0.460 OA
BRANCH   5   6
ATOM      6  C   UNL A   1      31.865  26.041  22.216  1.00  0.00     0.341 C 
ATOM      7  O   UNL A   1      31.425  26.091  21.083  1.00  0.00    -0.246 OA
BRANCH   6   8
ATOM      8  C   UNL A   1      31.019  25.836  23.411  1.00  0.00     0.097 A 
ATOM      9  C   UNL A   1      30.467  24.766  25.509  1.00  0.00     0.088 A 
ATOM     10  C   UNL A   1      29.401  25.661  25.686  1.00  0.00     0.025 A 
ATOM     11  C   UNL A   1      31.305  24.865  24.385  1.00  0.00     0.041 A 
ATOM     12  C   UNL A   1      29.087  26.572  24.680  1.00  0.00     0.041 A 
ATOM     13  C   UNL A   1      29.890  26.649  23.546  1.00  0.00     0.137 A 
ATOM     14  F   UNL A   1      29.522  27.481  22.564  1.00  0.00    -0.206 F 
BRANCH   9  15
ATOM     15  S   UNL A   1      30.777  23.563  26.783  1.00  0.00     0.261 S 
ATOM     16  O   UNL A   1      29.514  23.255  27.419  1.00  0.00    -0.201 OA
ATOM     17  O   UNL A   1      31.888  24.048  27.577  1.00  0.00    -0.201 OA
BRANCH  15  18
ATOM     18  N   UNL A   1      31.332  22.139  26.031  1.00  0.00    -0.280 N 
ATOM     19  H   UNL A   1      30.685  21.442  25.780  1.00  0.00     0.180 HD
BRANCH  18  20
ATOM     20  C   UNL A   1      32.726  21.939  25.758  1.00  0.00     0.049 A 
ATOM     21  C   UNL A   1      35.419  21.590  25.089  1.00  0.00     0.067 A 
ATOM     22  C   UNL A   1      34.487  20.614  24.744  1.00  0.00     0.022 A 
ATOM     23  C   UNL A   1      35.020  22.744  25.769  1.00  0.00     0.022 A 
ATOM     24  C   UNL A   1      33.139  20.817  25.039  1.00  0.00     0.028 A 
ATOM     25  C   UNL A   1      33.670  22.911  26.111  1.00  0.00     0.028 A 
BRANCH  21  26
ATOM     26  S   UNL A   1      37.133  21.312  24.687  1.00  0.00     0.175 S 
ATOM     27  C   UNL A   1      38.006  22.168  25.974  1.00  0.00     0.163 C 
ATOM     28  O   UNL A   1      37.368  22.002  23.432  1.00  0.00    -0.224 OA
ATOM     29  O   UNL A   1      37.380  19.893  24.827  1.00  0.00    -0.224 OA
ENDBRANCH  21  26
ENDBRANCH  18  20
ENDBRANCH  15  18
ENDBRANCH   9  15
ENDBRANCH   6   8
ENDBRANCH   5   6
ENDBRANCH   4   5
ENDBRANCH   3   4
ENDBRANCH   2   3
ENDBRANCH   1   2
BRANCH   1  30
ATOM     30  C   UNL A   1      32.687  30.016  26.460  1.00  0.00     0.188 C 
BRANCH  30  31
ATOM     31  O   UNL A   1      33.154  31.081  27.268  1.00  0.00    -0.376 OA
BRANCH  31  32
ATOM     32  C   UNL A   1      34.507  31.097  27.702  1.00  0.00     0.202 C 
BRANCH  32  33
ATOM     33  C   UNL A   1      34.993  31.888  28.934  1.00  0.00     0.261 C 
BRANCH  33  34
ATOM     34  O   UNL A   1      35.699  31.161  29.946  1.00  0.00    -0.460 OA
BRANCH  34  35
ATOM     35  C   UNL A   1      36.799  31.778  30.444  1.00  0.00     0.338 C 
ATOM     36  O   UNL A   1      36.833  32.723  31.214  1.00  0.00    -0.246 OA
BRANCH  35  37
ATOM     37  C   UNL A   1      37.997  31.000  30.075  1.00  0.00     0.060 A 
ATOM     38  C   UNL A   1      38.945  30.723  31.071  1.00  0.00     0.016 A 
ATOM     39  C   UNL A   1      38.212  30.592  28.760  1.00  0.00     0.016 A 
ATOM     40  C   UNL A   1      40.122  30.050  30.754  1.00  0.00     0.010 A 
ATOM     41  C   UNL A   1      39.404  29.939  28.437  1.00  0.00     0.010 A 
ATOM     42  C   UNL A   1      40.375  29.689  29.426  1.00  0.00    -0.014 A 
BRANCH  42  43
ATOM     43  C   UNL A   1      41.723  29.207  29.039  1.00  0.00     0.031 A 
ATOM     44  C   UNL A   1      42.857  30.195  29.015  1.00  0.00     0.074 A 
ATOM     45  C   UNL A   1      41.937  27.917  28.728  1.00  0.00     0.049 A 
ATOM     46  N   UNL A   1      44.098  30.025  28.641  1.00  0.00    -0.248 NA
ATOM     47  C   UNL A   1      42.545  31.561  29.467  1.00  0.00     0.031 C 
ATOM     48  C   UNL A   1      40.928  26.860  28.760  1.00  0.00     0.029 A 
ATOM     49  N   UNL A   1      43.078  27.281  28.308  1.00  0.00    -0.354 N 
ATOM     50  C   UNL A   1      44.713  31.260  28.805  1.00  0.00     0.074 A 
ATOM     51  C   UNL A   1      43.701  32.179  29.280  1.00  0.00     0.031 C 
ATOM     52  C   UNL A   1      41.493  25.708  28.359  1.00  0.00     0.029 A 
ATOM     53  C   UNL A   1      42.891  25.954  28.007  1.00  0.00     0.049 A 
ATOM     54  H   UNL A   1      43.950  27.733  28.230  1.00  0.00     0.167 HD
ATOM     55  C   UNL A   1      46.006  31.596  28.584  1.00  0.00     0.037 A 
ATOM     56  C   UNL A   1      43.743  25.050  27.481  1.00  0.00     0.037 A 
ATOM     57  C   UNL A   1      47.005  30.676  28.106  1.00  0.00     0.049 A 
ATOM     58  C   UNL A   1      45.159  25.466  27.170  1.00  0.00     0.074 A 
ATOM     59  C   UNL A   1      48.347  30.913  27.863  1.00  0.00     0.029 A 
ATOM     60  N   UNL A   1      46.771  29.345  27.789  1.00  0.00    -0.354 N 
ATOM     61  N   UNL A   1      45.736  26.632  27.345  1.00  0.00    -0.248 NA
ATOM     62  C   UNL A   1      46.041  24.443  26.591  1.00  0.00     0.031 C 
ATOM     63  C   UNL A   1      48.910  29.744  27.343  1.00  0.00     0.029 A 
ATOM     64  C   UNL A   1      47.937  28.758  27.323  1.00  0.00     0.049 A 
ATOM     65  H   UNL A   1      45.905  28.887  27.881  1.00  0.00     0.167 HD
ATOM     66  C   UNL A   1      47.055  26.472  26.931  1.00  0.00     0.074 A 
ATOM     67  C   UNL A   1      47.193  25.095  26.504  1.00  0.00     0.031 C 
ATOM     68  C   UNL A   1      48.062  27.382  26.908  1.00  0.00     0.037 A 
BRANCH  55  69
ATOM     69  C   UNL A   1      46.406  33.026  28.825  1.00  0.00     0.058 A 
ATOM     70  C   UNL A   1      46.330  34.000  27.816  1.00  0.00     0.135 A 
ATOM     71  C   UNL A   1      46.848  33.434  30.094  1.00  0.00     0.135 A 
ATOM     72  F   UNL A   1      45.938  33.661  26.577  1.00  0.00    -0.206 F 
ATOM     73  C   UNL A   1      46.703  35.320  28.049  1.00  0.00     0.059 A 
ATOM     74  C   UNL A   1      47.196  34.756  30.358  1.00  0.00     0.059 A 
ATOM     75  F   UNL A   1      46.947  32.545  31.095  1.00  0.00    -0.206 F 
ATOM     76  C   UNL A   1      47.134  35.689  29.325  1.00  0.00     0.060 A 
BRANCH  76  77
ATOM     77  S   UNL A   1      47.616  37.405  29.607  1.00  0.00     0.124 S 
ATOM     78  O   UNL A   1      47.224  37.590  31.001  1.00  0.00    -0.237 OA
ATOM     79  O   UNL A   1      49.052  37.371  29.352  1.00  0.00    -0.237 OA
ATOM     80  O   UNL A   1      46.825  38.146  28.629  1.00  0.00    -0.744 OA
ENDBRANCH  76  77
ENDBRANCH  55  69
BRANCH  56  81
ATOM     81  C   UNL A   1      43.278  23.664  27.200  1.00  0.00     0.058 A 
ATOM     82  C   UNL A   1      42.989  23.246  25.893  1.00  0.00     0.135 A 
ATOM     83  C   UNL A   1      43.105  22.731  28.234  1.00  0.00     0.135 A 
ATOM     84  F   UNL A   1      43.123  24.104  24.868  1.00  0.00    -0.206 F 
ATOM     85  C   UNL A   1      42.532  21.960  25.621  1.00  0.00     0.059 A 
ATOM     86  C   UNL A   1      42.677  21.431  27.985  1.00  0.00     0.059 A 
ATOM     87  F   UNL A   1      43.373  23.077  29.504  1.00  0.00    -0.206 F 
ATOM     88  C   UNL A   1      42.384  21.057  26.676  1.00  0.00     0.060 A 
BRANCH  88  89
ATOM     89  S   UNL A   1      41.832  19.378  26.305  1.00  0.00     0.124 S 
ATOM     90  O   UNL A   1      40.386  19.554  26.223  1.00  0.00    -0.237 OA
ATOM     91  O   UNL A   1      42.514  19.104  25.045  1.00  0.00    -0.237 OA
ATOM     92  O   UNL A   1      42.309  18.607  27.450  1.00  0.00    -0.744 OA
ENDBRANCH  88  89
ENDBRANCH  56  81
BRANCH  68  93
ATOM     93  C   UNL A   1      49.418  26.913  26.447  1.00  0.00     0.058 A 
ATOM     94  C   UNL A   1      50.331  26.303  27.321  1.00  0.00     0.135 A 
ATOM     95  C   UNL A   1      49.783  27.022  25.094  1.00  0.00     0.135 A 
ATOM     96  F   UNL A   1      50.037  26.174  28.625  1.00  0.00    -0.206 F 
ATOM     97  C   UNL A   1      51.566  25.841  26.876  1.00  0.00     0.059 A 
ATOM     98  C   UNL A   1      50.999  26.539  24.621  1.00  0.00     0.059 A 
ATOM     99  F   UNL A   1      48.944  27.587  24.210  1.00  0.00    -0.206 F 
ATOM    100  C   UNL A   1      51.890  25.960  25.523  1.00  0.00     0.060 A 
BRANCH 100 101
ATOM    101  S   UNL A   1      53.481  25.324  24.953  1.00  0.00     0.124 S 
ATOM    102  O   UNL A   1      53.366  23.906  25.280  1.00  0.00    -0.237 OA
ATOM    103  O   UNL A   1      53.455  25.650  23.531  1.00  0.00    -0.237 OA
ATOM    104  O   UNL A   1      54.451  26.073  25.744  1.00  0.00    -0.744 OA
ENDBRANCH 100 101
ENDBRANCH  68  93
ENDBRANCH  42  43
ENDBRANCH  35  37
ENDBRANCH  34  35
ENDBRANCH  33  34
ENDBRANCH  32  33
ENDBRANCH  31  32
ENDBRANCH  30  31
ENDBRANCH   1  30
TORSDOF 24
ENDMDL
MODEL 3
REMARK VINA RESULT:      -9.6      4.825     11.285
REMARK SMILES CS(=O)(=O)c1ccc(NS(=O)(=O)c2ccc(F)c(C(=O)OCCOCCOCCOC(=O)c3ccc(-c4c5nc(c(-c6c(F)cc(S(=O)(=O)[O-])cc6F)c6ccc([nH]6)c(-c6c(F)cc(S(=O)(=O)[O-])cc6F)c6nc(c(-c7c(F)cc(S(=O)(=O)[O-])cc7F)c7ccc4[nH]7)C=C6)C=C5)cc3)c2)cc1
REMARK SMILES IDX 25 1 24 2 23 3 22 4 21 5 19 6 20 7 18 8 13 9 14 10 99 11
REMARK SMILES IDX 15 12 16 13 17 14 10 15 11 16 12 17 9 18 8 20 5 21 6 22
REMARK SMILES IDX 101 23 7 24 100 25 2 26 1 27 3 28 4 29 26 30 27 31 28 32
REMARK SMILES IDX 29 33 30 34 31 35 32 36 33 37 34 38 98 39 35 40 97 41 36 42
REMARK SMILES IDX 37 43 38 44 91 45 39 46 96 47 90 48 92 49 40 50 95 51 89 52
REMARK SMILES IDX 88 53 41 55 75 56 54 57 74 58 55 59 58 60 73 61 93 62 56 63
REMARK SMILES IDX 57 64 72 66 94 67 59 68 42 69 43 70 52 71 44 72 45 73 51 74
REMARK SMILES IDX 53 75 46 76 47 77 48 78 49 79 50 80 76 81 77 82 86 83 78 84
REMARK SMILES IDX 79 85 85 86 87 87 80 88 81 89 82 90 83 91 84 92 60 93 61 94
REMARK SMILES IDX 70 95 62 96 63 97 69 98 71 99 64 100 65 101 66 102 67 103
REMARK SMILES IDX 68 104
REMARK H PARENT 9 19 92 54 58 65
REMARK Flexibility Score: inf
ROOT
ATOM      1  C   UNL A   1      34.560  34.872  28.988  1.00  0.00     0.188 C 
ENDROOT
BRANCH   1   2
ATOM      2  O   UNL A   1      35.700  34.500  29.725  1.00  0.00    -0.376 OA
BRANCH   2   3
ATOM      3  C   UNL A   1      36.433  33.342  29.366  1.00  0.00     0.202 C 
BRANCH   3   4
ATOM      4  C   UNL A   1      37.935  33.302  29.008  1.00  0.00     0.261 C 
BRANCH   4   5
ATOM      5  O   UNL A   1      38.705  34.493  29.202  1.00  0.00    -0.460 OA
BRANCH   5   6
ATOM      6  C   UNL A   1      39.581  34.463  30.239  1.00  0.00     0.341 C 
ATOM      7  O   UNL A   1      39.308  34.572  31.420  1.00  0.00    -0.246 OA
BRANCH   6   8
ATOM      8  C   UNL A   1      40.940  34.159  29.741  1.00  0.00     0.097 A 
ATOM      9  C   UNL A   1      42.863  32.720  29.456  1.00  0.00     0.088 A 
ATOM     10  C   UNL A   1      43.454  33.675  28.615  1.00  0.00     0.025 A 
ATOM     11  C   UNL A   1      41.587  32.940  30.002  1.00  0.00     0.041 A 
ATOM     12  C   UNL A   1      42.833  34.907  28.422  1.00  0.00     0.041 A 
ATOM     13  C   UNL A   1      41.585  35.145  28.991  1.00  0.00     0.137 A 
ATOM     14  F   UNL A   1      41.046  36.363  28.850  1.00  0.00    -0.206 F 
BRANCH   9  15
ATOM     15  S   UNL A   1      43.735  31.195  29.741  1.00  0.00     0.261 S 
ATOM     16  O   UNL A   1      42.999  30.134  29.088  1.00  0.00    -0.201 OA
ATOM     17  O   UNL A   1      44.016  31.114  31.161  1.00  0.00    -0.201 OA
BRANCH  15  18
ATOM     18  N   UNL A   1      45.252  31.313  28.975  1.00  0.00    -0.280 N 
ATOM     19  H   UNL A   1      45.786  32.132  29.084  1.00  0.00     0.180 HD
BRANCH  18  20
ATOM     20  C   UNL A   1      45.764  30.239  28.174  1.00  0.00     0.049 A 
ATOM     21  C   UNL A   1      46.885  28.220  26.596  1.00  0.00     0.067 A 
ATOM     22  C   UNL A   1      46.365  29.363  25.993  1.00  0.00     0.022 A 
ATOM     23  C   UNL A   1      46.850  28.072  27.985  1.00  0.00     0.022 A 
ATOM     24  C   UNL A   1      45.851  30.386  26.789  1.00  0.00     0.028 A 
ATOM     25  C   UNL A   1      46.278  29.083  28.773  1.00  0.00     0.028 A 
BRANCH  21  26
ATOM     26  S   UNL A   1      47.550  26.935  25.556  1.00  0.00     0.175 S 
ATOM     27  C   UNL A   1      47.644  25.531  26.639  1.00  0.00     0.163 C 
ATOM     28  O   UNL A   1      48.900  27.349  25.219  1.00  0.00    -0.224 OA
ATOM     29  O   UNL A   1      46.565  26.662  24.531  1.00  0.00    -0.224 OA
ENDBRANCH  21  26
ENDBRANCH  18  20
ENDBRANCH  15  18
ENDBRANCH   9  15
ENDBRANCH   6   8
ENDBRANCH   5   6
ENDBRANCH   4   5
ENDBRANCH   3   4
ENDBRANCH   2   3
ENDBRANCH   1   2
BRANCH   1  30
ATOM     30  C   UNL A   1      33.615  33.704  28.636  1.00  0.00     0.188 C 
BRANCH  30  31
ATOM     31  O   UNL A   1      32.579  33.876  27.686  1.00  0.00    -0.376 OA
BRANCH  31  32
ATOM     32  C   UNL A   1      32.006  32.739  27.055  1.00  0.00     0.202 C 
BRANCH  32  33
ATOM     33  C   UNL A   1      32.580  31.314  27.191  1.00  0.00     0.261 C 
BRANCH  33  34
ATOM     34  O   UNL A   1      34.002  31.165  27.092  1.00  0.00    -0.460 OA
BRANCH  34  35
ATOM     35  C   UNL A   1      34.452  29.886  27.080  1.00  0.00     0.338 C 
ATOM     36  O   UNL A   1      34.032  28.959  26.409  1.00  0.00    -0.246 OA
BRANCH  35  37
ATOM     37  C   UNL A   1      35.697  29.806  27.870  1.00  0.00     0.060 A 
ATOM     38  C   UNL A   1      36.917  30.019  27.213  1.00  0.00     0.016 A 
ATOM     39  C   UNL A   1      35.668  29.476  29.223  1.00  0.00     0.016 A 
ATOM     40  C   UNL A   1      38.119  29.886  27.904  1.00  0.00     0.010 A 
ATOM     41  C   UNL A   1      36.874  29.319  29.910  1.00  0.00     0.010 A 
ATOM     42  C   UNL A   1      38.104  29.497  29.247  1.00  0.00    -0.014 A 
BRANCH  42  43
ATOM     43  C   UNL A   1      39.370  29.108  29.914  1.00  0.00     0.031 A 
ATOM     44  C   UNL A   1      39.797  29.867  31.140  1.00  0.00     0.074 A 
ATOM     45  C   UNL A   1      40.119  28.093  29.448  1.00  0.00     0.049 A 
ATOM     46  N   UNL A   1      40.891  29.759  31.846  1.00  0.00    -0.248 NA
ATOM     47  C   UNL A   1      38.862  30.894  31.632  1.00  0.00     0.031 C 
ATOM     48  C   UNL A   1      39.787  27.255  28.297  1.00  0.00     0.029 A 
ATOM     49  N   UNL A   1      41.326  27.606  29.882  1.00  0.00    -0.354 N 
ATOM     50  C   UNL A   1      40.783  30.704  32.858  1.00  0.00     0.074 A 
ATOM     51  C   UNL A   1      39.531  31.401  32.656  1.00  0.00     0.031 C 
ATOM     52  C   UNL A   1      40.777  26.367  28.105  1.00  0.00     0.029 A 
ATOM     53  C   UNL A   1      41.828  26.597  29.096  1.00  0.00     0.049 A 
ATOM     54  H   UNL A   1      41.789  27.947  30.681  1.00  0.00     0.167 HD
ATOM     55  C   UNL A   1      41.647  30.964  33.867  1.00  0.00     0.037 A 
ATOM     56  C   UNL A   1      43.013  25.954  29.153  1.00  0.00     0.037 A 
ATOM     57  C   UNL A   1      42.894  30.268  34.058  1.00  0.00     0.049 A 
ATOM     58  C   UNL A   1      43.994  26.313  30.241  1.00  0.00     0.074 A 
ATOM     59  C   UNL A   1      43.834  30.447  35.057  1.00  0.00     0.029 A 
ATOM     60  N   UNL A   1      43.379  29.269  33.226  1.00  0.00    -0.354 N 
ATOM     61  N   UNL A   1      43.875  27.197  31.204  1.00  0.00    -0.248 NA
ATOM     62  C   UNL A   1      45.272  25.587  30.251  1.00  0.00     0.031 C 
ATOM     63  C   UNL A   1      44.915  29.599  34.797  1.00  0.00     0.029 A 
ATOM     64  C   UNL A   1      44.621  28.843  33.673  1.00  0.00     0.049 A 
ATOM     65  H   UNL A   1      42.912  28.915  32.436  1.00  0.00     0.167 HD
ATOM     66  C   UNL A   1      45.045  27.107  31.953  1.00  0.00     0.074 A 
ATOM     67  C   UNL A   1      45.856  26.078  31.335  1.00  0.00     0.031 C 
ATOM     68  C   UNL A   1      45.414  27.811  33.053  1.00  0.00     0.037 A 
BRANCH  55  69
ATOM     69  C   UNL A   1      41.290  32.069  34.825  1.00  0.00     0.058 A 
ATOM     70  C   UNL A   1      41.707  33.394  34.620  1.00  0.00     0.135 A 
ATOM     71  C   UNL A   1      40.495  31.801  35.951  1.00  0.00     0.135 A 
ATOM     72  F   UNL A   1      42.489  33.703  33.573  1.00  0.00    -0.206 F 
ATOM     73  C   UNL A   1      41.372  34.408  35.510  1.00  0.00     0.059 A 
ATOM     74  C   UNL A   1      40.121  32.806  36.839  1.00  0.00     0.059 A 
ATOM     75  F   UNL A   1      40.073  30.551  36.200  1.00  0.00    -0.206 F 
ATOM     76  C   UNL A   1      40.577  34.104  36.618  1.00  0.00     0.060 A 
BRANCH  76  77
ATOM     77  S   UNL A   1      40.154  35.433  37.764  1.00  0.00     0.124 S 
ATOM     78  O   UNL A   1      39.879  36.533  36.844  1.00  0.00    -0.237 OA
ATOM     79  O   UNL A   1      38.995  34.885  38.460  1.00  0.00    -0.237 OA
ATOM     80  O   UNL A   1      41.359  35.580  38.574  1.00  0.00    -0.744 OA
ENDBRANCH  76  77
ENDBRANCH  55  69
BRANCH  56  81
ATOM     81  C   UNL A   1      43.345  24.914  28.142  1.00  0.00     0.058 A 
ATOM     82  C   UNL A   1      43.920  25.257  26.909  1.00  0.00     0.135 A 
ATOM     83  C   UNL A   1      43.088  23.555  28.384  1.00  0.00     0.135 A 
ATOM     84  F   UNL A   1      44.172  26.543  26.621  1.00  0.00    -0.206 F 
ATOM     85  C   UNL A   1      44.213  24.294  25.947  1.00  0.00     0.059 A 
ATOM     86  C   UNL A   1      43.399  22.572  27.451  1.00  0.00     0.059 A 
ATOM     87  F   UNL A   1      42.545  23.171  29.550  1.00  0.00    -0.206 F 
ATOM     88  C   UNL A   1      43.952  22.952  26.230  1.00  0.00     0.060 A 
BRANCH  88  89
ATOM     89  S   UNL A   1      44.378  21.709  24.991  1.00  0.00     0.124 S 
ATOM     90  O   UNL A   1      44.147  22.438  23.750  1.00  0.00    -0.237 OA
ATOM     91  O   UNL A   1      45.773  21.423  25.313  1.00  0.00    -0.237 OA
ATOM     92  O   UNL A   1      43.442  20.624  25.268  1.00  0.00    -0.744 OA
ENDBRANCH  88  89
ENDBRANCH  56  81
BRANCH  68  93
ATOM     93  C   UNL A   1      46.734  27.467  33.693  1.00  0.00     0.058 A 
ATOM     94  C   UNL A   1      47.925  28.119  33.338  1.00  0.00     0.135 A 
ATOM     95  C   UNL A   1      46.796  26.512  34.722  1.00  0.00     0.135 A 
ATOM     96  F   UNL A   1      47.927  29.038  32.359  1.00  0.00    -0.206 F 
ATOM     97  C   UNL A   1      49.133  27.819  33.961  1.00  0.00     0.059 A 
ATOM     98  C   UNL A   1      47.986  26.219  35.381  1.00  0.00     0.059 A 
ATOM     99  F   UNL A   1      45.685  25.866  35.112  1.00  0.00    -0.206 F 
ATOM    100  C   UNL A   1      49.152  26.869  34.985  1.00  0.00     0.060 A 
BRANCH 100 101
ATOM    101  S   UNL A   1      50.719  26.516  35.809  1.00  0.00     0.124 S 
ATOM    102  O   UNL A   1      50.819  25.069  35.647  1.00  0.00    -0.237 OA
ATOM    103  O   UNL A   1      51.666  27.307  35.029  1.00  0.00    -0.237 OA
ATOM    104  O   UNL A   1      50.500  26.981  37.175  1.00  0.00    -0.744 OA
ENDBRANCH 100 101
ENDBRANCH  68  93
ENDBRANCH  42  43
ENDBRANCH  35  37
ENDBRANCH  34  35
ENDBRANCH  33  34
ENDBRANCH  32  33
ENDBRANCH  31  32
ENDBRANCH  30  31
ENDBRANCH   1  30
TORSDOF 24
ENDMDL
