MODEL 1
REMARK VINA RESULT:     -10.5      0.000      0.000
REMARK SMILES Cn1ccc(NC(=O)[C@@H]2CCCC[C@@H]2C(=O)OCCOCCOCCOC(=O)c2ccc(-c3c4nc(c(-c5c(F)cc(S(=O)(=O)[O-])cc5F)c5ccc([nH]5)c(-c5c(F)cc(S(=O)(=O)[O-])cc5F)c5nc(c(-c6c(F)cc(S(=O)(=O)[O-])cc6F)c6ccc3[nH]6)C=C5)C=C4)cc2)n1
REMARK SMILES IDX 22 1 21 2 20 3 19 4 18 5 17 6 15 7 16 8 14 9 9 10 10 11
REMARK SMILES IDX 11 12 13 13 12 14 7 15 6 16 8 18 5 19 1 20 2 21 3 22 95 23
REMARK SMILES IDX 4 24 23 25 24 26 25 27 26 28 27 29 28 30 29 31 30 32 94 33
REMARK SMILES IDX 31 34 93 35 32 36 33 37 34 38 87 39 35 40 92 41 86 42 88 43
REMARK SMILES IDX 36 44 91 45 85 46 84 47 37 49 71 50 50 51 70 52 51 53 54 54
REMARK SMILES IDX 69 55 89 56 52 57 53 58 68 60 90 61 55 62 38 63 39 64 48 65
REMARK SMILES IDX 40 66 41 67 47 68 49 69 42 70 43 71 44 72 45 73 46 74 72 75
REMARK SMILES IDX 73 76 82 77 74 78 75 79 81 80 83 81 76 82 77 83 78 84 79 85
REMARK SMILES IDX 80 86 56 87 57 88 66 89 58 90 59 91 65 92 67 93 60 94 61 95
REMARK SMILES IDX 62 96 63 97 64 98
REMARK H PARENT 6 17 88 48 54 59
REMARK Flexibility Score: inf
ROOT
ATOM      1  C   UNL A   1      32.973  30.445  26.805  1.00  0.00     0.188 C 
ENDROOT
BRANCH   1   2
ATOM      2  C   UNL A   1      33.000  29.356  25.728  1.00  0.00     0.188 C 
BRANCH   2   3
ATOM      3  O   UNL A   1      32.535  28.046  26.053  1.00  0.00    -0.376 OA
BRANCH   3   4
ATOM      4  C   UNL A   1      31.352  27.575  25.433  1.00  0.00     0.202 C 
BRANCH   4   5
ATOM      5  C   UNL A   1      30.682  26.366  26.093  1.00  0.00     0.261 C 
BRANCH   5   6
ATOM      6  O   UNL A   1      31.507  25.192  26.187  1.00  0.00    -0.463 OA
BRANCH   6   7
ATOM      7  C   UNL A   1      30.827  24.021  26.236  1.00  0.00     0.309 C 
ATOM      8  O   UNL A   1      30.127  23.690  27.189  1.00  0.00    -0.252 OA
BRANCH   7   9
ATOM      9  C   UNL A   1      31.147  23.060  25.094  1.00  0.00     0.111 C 
ATOM     10  C   UNL A   1      32.493  22.279  25.023  1.00  0.00     0.093 C 
ATOM     11  C   UNL A   1      33.568  23.035  24.211  1.00  0.00     0.014 C 
ATOM     12  C   UNL A   1      33.060  23.508  22.857  1.00  0.00     0.001 C 
ATOM     13  C   UNL A   1      30.738  23.666  23.734  1.00  0.00     0.016 C 
ATOM     14  C   UNL A   1      31.859  24.417  23.038  1.00  0.00     0.001 C 
BRANCH  10  15
ATOM     15  C   UNL A   1      33.124  21.800  26.350  1.00  0.00     0.229 C 
ATOM     16  N   UNL A   1      33.424  20.492  26.586  1.00  0.00    -0.309 N 
ATOM     17  H   UNL A   1      33.766  20.286  27.485  1.00  0.00     0.171 HD
ATOM     18  O   UNL A   1      33.363  22.595  27.268  1.00  0.00    -0.274 OA
BRANCH  16  19
ATOM     19  C   UNL A   1      33.310  19.427  25.733  1.00  0.00     0.154 A 
ATOM     20  C   UNL A   1      32.531  16.092  25.298  1.00  0.00     0.173 C 
ATOM     21  N   UNL A   1      32.918  17.465  25.070  1.00  0.00    -0.274 N 
ATOM     22  C   UNL A   1      33.839  17.938  24.185  1.00  0.00     0.110 A 
ATOM     23  N   UNL A   1      32.483  18.403  25.920  1.00  0.00    -0.155 NA
ATOM     24  C   UNL A   1      34.083  19.241  24.566  1.00  0.00     0.068 A 
ENDBRANCH  16  19
ENDBRANCH  10  15
ENDBRANCH   7   9
ENDBRANCH   6   7
ENDBRANCH   5   6
ENDBRANCH   4   5
ENDBRANCH   3   4
ENDBRANCH   2   3
ENDBRANCH   1   2
BRANCH   1  25
ATOM     25  O   UNL A   1      34.247  30.546  27.445  1.00  0.00    -0.376 OA
BRANCH  25  26
ATOM     26  C   UNL A   1      34.390  31.739  28.206  1.00  0.00     0.202 C 
BRANCH  26  27
ATOM     27  C   UNL A   1      35.346  31.515  29.381  1.00  0.00     0.261 C 
BRANCH  27  28
ATOM     28  O   UNL A   1      35.962  30.212  29.409  1.00  0.00    -0.460 OA
BRANCH  28  29
ATOM     29  C   UNL A   1      36.759  29.950  30.469  1.00  0.00     0.338 C 
ATOM     30  O   UNL A   1      36.395  29.651  31.591  1.00  0.00    -0.246 OA
BRANCH  29  31
ATOM     31  C   UNL A   1      38.174  29.949  30.025  1.00  0.00     0.060 A 
ATOM     32  C   UNL A   1      38.444  29.946  28.654  1.00  0.00     0.016 A 
ATOM     33  C   UNL A   1      39.225  29.888  30.944  1.00  0.00     0.016 A 
ATOM     34  C   UNL A   1      39.763  29.853  28.195  1.00  0.00     0.010 A 
ATOM     35  C   UNL A   1      40.544  29.781  30.484  1.00  0.00     0.010 A 
ATOM     36  C   UNL A   1      40.822  29.736  29.106  1.00  0.00    -0.014 A 
BRANCH  36  37
ATOM     37  C   UNL A   1      42.190  29.401  28.626  1.00  0.00     0.031 A 
ATOM     38  C   UNL A   1      42.478  27.986  28.193  1.00  0.00     0.074 A 
ATOM     39  C   UNL A   1      43.164  30.327  28.549  1.00  0.00     0.049 A 
ATOM     40  N   UNL A   1      43.613  27.434  27.852  1.00  0.00    -0.248 NA
ATOM     41  C   UNL A   1      41.324  27.073  28.137  1.00  0.00     0.031 C 
ATOM     42  C   UNL A   1      43.011  31.746  28.865  1.00  0.00     0.029 A 
ATOM     43  N   UNL A   1      44.485  30.204  28.189  1.00  0.00    -0.354 N 
ATOM     44  C   UNL A   1      43.317  26.108  27.559  1.00  0.00     0.074 A 
ATOM     45  C   UNL A   1      41.896  25.936  27.771  1.00  0.00     0.031 C 
ATOM     46  C   UNL A   1      44.197  32.359  28.699  1.00  0.00     0.029 A 
ATOM     47  C   UNL A   1      45.202  31.371  28.309  1.00  0.00     0.049 A 
ATOM     48  H   UNL A   1      44.880  29.359  27.874  1.00  0.00     0.167 HD
ATOM     49  C   UNL A   1      44.152  25.120  27.154  1.00  0.00     0.037 A 
ATOM     50  C   UNL A   1      46.522  31.608  28.155  1.00  0.00     0.037 A 
ATOM     51  C   UNL A   1      45.564  25.288  26.934  1.00  0.00     0.049 A 
ATOM     52  C   UNL A   1      47.447  30.476  27.779  1.00  0.00     0.074 A 
ATOM     53  C   UNL A   1      46.489  24.341  26.531  1.00  0.00     0.029 A 
ATOM     54  N   UNL A   1      46.256  26.477  27.100  1.00  0.00    -0.354 N 
ATOM     55  N   UNL A   1      47.160  29.221  27.530  1.00  0.00    -0.248 NA
ATOM     56  C   UNL A   1      48.881  30.792  27.674  1.00  0.00     0.031 C 
ATOM     57  C   UNL A   1      47.749  24.948  26.488  1.00  0.00     0.029 A 
ATOM     58  C   UNL A   1      47.600  26.284  26.824  1.00  0.00     0.049 A 
ATOM     59  H   UNL A   1      45.853  27.332  27.373  1.00  0.00     0.167 HD
ATOM     60  C   UNL A   1      48.369  28.605  27.219  1.00  0.00     0.074 A 
ATOM     61  C   UNL A   1      49.391  29.627  27.299  1.00  0.00     0.031 C 
ATOM     62  C   UNL A   1      48.610  27.311  26.895  1.00  0.00     0.037 A 
BRANCH  49  63
ATOM     63  C   UNL A   1      43.561  23.753  26.962  1.00  0.00     0.058 A 
ATOM     64  C   UNL A   1      43.302  23.232  25.686  1.00  0.00     0.135 A 
ATOM     65  C   UNL A   1      43.270  22.946  28.074  1.00  0.00     0.135 A 
ATOM     66  F   UNL A   1      43.544  23.970  24.592  1.00  0.00    -0.206 F 
ATOM     67  C   UNL A   1      42.753  21.964  25.518  1.00  0.00     0.059 A 
ATOM     68  C   UNL A   1      42.742  21.667  27.929  1.00  0.00     0.059 A 
ATOM     69  F   UNL A   1      43.496  23.401  29.316  1.00  0.00    -0.206 F 
ATOM     70  C   UNL A   1      42.474  21.191  26.647  1.00  0.00     0.060 A 
BRANCH  70  71
ATOM     71  S   UNL A   1      41.758  19.549  26.416  1.00  0.00     0.124 S 
ATOM     72  O   UNL A   1      42.213  18.863  27.622  1.00  0.00    -0.237 OA
ATOM     73  O   UNL A   1      40.329  19.836  26.352  1.00  0.00    -0.237 OA
ATOM     74  O   UNL A   1      42.359  19.090  25.168  1.00  0.00    -0.744 OA
ENDBRANCH  70  71
ENDBRANCH  49  63
BRANCH  50  75
ATOM     75  C   UNL A   1      47.070  32.971  28.397  1.00  0.00     0.058 A 
ATOM     76  C   UNL A   1      47.131  33.923  27.369  1.00  0.00     0.135 A 
ATOM     77  C   UNL A   1      47.569  33.338  29.657  1.00  0.00     0.135 A 
ATOM     78  F   UNL A   1      46.686  33.615  26.142  1.00  0.00    -0.206 F 
ATOM     79  C   UNL A   1      47.679  35.186  27.577  1.00  0.00     0.059 A 
ATOM     80  C   UNL A   1      48.098  34.603  29.896  1.00  0.00     0.059 A 
ATOM     81  F   UNL A   1      47.535  32.463  30.675  1.00  0.00    -0.206 F 
ATOM     82  C   UNL A   1      48.160  35.516  28.845  1.00  0.00     0.060 A 
BRANCH  82  83
ATOM     83  S   UNL A   1      48.834  37.170  29.116  1.00  0.00     0.124 S 
ATOM     84  O   UNL A   1      49.555  37.403  27.870  1.00  0.00    -0.237 OA
ATOM     85  O   UNL A   1      47.626  37.968  29.312  1.00  0.00    -0.237 OA
ATOM     86  O   UNL A   1      49.664  37.003  30.306  1.00  0.00    -0.744 OA
ENDBRANCH  82  83
ENDBRANCH  50  75
BRANCH  62  87
ATOM     87  C   UNL A   1      50.026  26.921  26.566  1.00  0.00     0.058 A 
ATOM     88  C   UNL A   1      50.908  26.446  27.550  1.00  0.00     0.135 A 
ATOM     89  C   UNL A   1      50.486  26.965  25.241  1.00  0.00     0.135 A 
ATOM     90  F   UNL A   1      50.520  26.387  28.833  1.00  0.00    -0.206 F 
ATOM     91  C   UNL A   1      52.202  26.044  27.233  1.00  0.00     0.059 A 
ATOM     92  C   UNL A   1      51.769  26.546  24.897  1.00  0.00     0.059 A 
ATOM     93  F   UNL A   1      49.680  27.401  24.259  1.00  0.00    -0.206 F 
ATOM     94  C   UNL A   1      52.623  26.096  25.901  1.00  0.00     0.060 A 
BRANCH  94  95
ATOM     95  S   UNL A   1      54.291  25.534  25.495  1.00  0.00     0.124 S 
ATOM     96  O   UNL A   1      54.719  26.551  24.539  1.00  0.00    -0.237 OA
ATOM     97  O   UNL A   1      54.958  25.562  26.792  1.00  0.00    -0.237 OA
ATOM     98  O   UNL A   1      54.073  24.202  24.938  1.00  0.00    -0.744 OA
ENDBRANCH  94  95
ENDBRANCH  62  87
ENDBRANCH  36  37
ENDBRANCH  29  31
ENDBRANCH  28  29
ENDBRANCH  27  28
ENDBRANCH  26  27
ENDBRANCH  25  26
ENDBRANCH   1  25
TORSDOF 22
ENDMDL
MODEL 2
REMARK VINA RESULT:     -10.4      1.229      8.244
REMARK SMILES Cn1ccc(NC(=O)[C@@H]2CCCC[C@@H]2C(=O)OCCOCCOCCOC(=O)c2ccc(-c3c4nc(c(-c5c(F)cc(S(=O)(=O)[O-])cc5F)c5ccc([nH]5)c(-c5c(F)cc(S(=O)(=O)[O-])cc5F)c5nc(c(-c6c(F)cc(S(=O)(=O)[O-])cc6F)c6ccc3[nH]6)C=C5)C=C4)cc2)n1
REMARK SMILES IDX 22 1 21 2 20 3 19 4 18 5 17 6 15 7 16 8 14 9 9 10 10 11
REMARK SMILES IDX 11 12 13 13 12 14 7 15 6 16 8 18 5 19 1 20 2 21 3 22 95 23
REMARK SMILES IDX 4 24 23 25 24 26 25 27 26 28 27 29 28 30 29 31 30 32 94 33
REMARK SMILES IDX 31 34 93 35 32 36 33 37 34 38 87 39 35 40 92 41 86 42 88 43
REMARK SMILES IDX 36 44 91 45 85 46 84 47 37 49 71 50 50 51 70 52 51 53 54 54
REMARK SMILES IDX 69 55 89 56 52 57 53 58 68 60 90 61 55 62 38 63 39 64 48 65
REMARK SMILES IDX 40 66 41 67 47 68 49 69 42 70 43 71 44 72 45 73 46 74 72 75
REMARK SMILES IDX 73 76 82 77 74 78 75 79 81 80 83 81 76 82 77 83 78 84 79 85
REMARK SMILES IDX 80 86 56 87 57 88 66 89 58 90 59 91 65 92 67 93 60 94 61 95
REMARK SMILES IDX 62 96 63 97 64 98
REMARK H PARENT 6 17 88 48 54 59
REMARK Flexibility Score: inf
ROOT
ATOM      1  C   UNL A   1      32.355  29.423  26.178  1.00  0.00     0.188 C 
ENDROOT
BRANCH   1   2
ATOM      2  C   UNL A   1      32.606  28.291  27.180  1.00  0.00     0.188 C 
BRANCH   2   3
ATOM      3  O   UNL A   1      33.069  27.029  26.700  1.00  0.00    -0.376 OA
BRANCH   3   4
ATOM      4  C   UNL A   1      33.144  26.824  25.299  1.00  0.00     0.202 C 
BRANCH   4   5
ATOM      5  C   UNL A   1      32.874  25.398  24.813  1.00  0.00     0.261 C 
BRANCH   5   6
ATOM      6  O   UNL A   1      33.931  24.814  24.032  1.00  0.00    -0.463 OA
BRANCH   6   7
ATOM      7  C   UNL A   1      33.602  23.660  23.401  1.00  0.00     0.309 C 
ATOM      8  O   UNL A   1      32.596  23.538  22.708  1.00  0.00    -0.252 OA
BRANCH   7   9
ATOM      9  C   UNL A   1      34.480  22.469  23.772  1.00  0.00     0.111 C 
ATOM     10  C   UNL A   1      34.326  21.716  25.127  1.00  0.00     0.093 C 
ATOM     11  C   UNL A   1      35.255  22.284  26.222  1.00  0.00     0.014 C 
ATOM     12  C   UNL A   1      36.697  22.423  25.758  1.00  0.00     0.001 C 
ATOM     13  C   UNL A   1      35.956  22.737  23.405  1.00  0.00     0.016 C 
ATOM     14  C   UNL A   1      36.770  23.328  24.542  1.00  0.00     0.001 C 
BRANCH  10  15
ATOM     15  C   UNL A   1      32.905  21.567  25.715  1.00  0.00     0.229 C 
ATOM     16  N   UNL A   1      32.155  20.443  25.539  1.00  0.00    -0.309 N 
ATOM     17  H   UNL A   1      31.241  20.475  25.904  1.00  0.00     0.171 HD
ATOM     18  O   UNL A   1      32.379  22.485  26.359  1.00  0.00    -0.274 OA
BRANCH  16  19
ATOM     19  C   UNL A   1      32.509  19.275  24.920  1.00  0.00     0.154 A 
ATOM     20  C   UNL A   1      34.361  16.362  24.997  1.00  0.00     0.173 C 
ATOM     21  N   UNL A   1      33.458  17.419  24.605  1.00  0.00    -0.274 N 
ATOM     22  C   UNL A   1      33.214  17.886  23.349  1.00  0.00     0.110 A 
ATOM     23  N   UNL A   1      32.908  18.179  25.559  1.00  0.00    -0.155 NA
ATOM     24  C   UNL A   1      32.550  19.082  23.521  1.00  0.00     0.068 A 
ENDBRANCH  16  19
ENDBRANCH  10  15
ENDBRANCH   7   9
ENDBRANCH   6   7
ENDBRANCH   5   6
ENDBRANCH   4   5
ENDBRANCH   3   4
ENDBRANCH   2   3
ENDBRANCH   1   2
BRANCH   1  25
ATOM     25  O   UNL A   1      33.001  30.623  26.609  1.00  0.00    -0.376 OA
BRANCH  25  26
ATOM     26  C   UNL A   1      34.283  30.386  27.178  1.00  0.00     0.202 C 
BRANCH  26  27
ATOM     27  C   UNL A   1      34.624  31.471  28.204  1.00  0.00     0.261 C 
BRANCH  27  28
ATOM     28  O   UNL A   1      35.527  31.047  29.244  1.00  0.00    -0.460 OA
BRANCH  28  29
ATOM     29  C   UNL A   1      36.610  31.830  29.452  1.00  0.00     0.338 C 
ATOM     30  O   UNL A   1      36.604  32.986  29.832  1.00  0.00    -0.246 OA
BRANCH  29  31
ATOM     31  C   UNL A   1      37.838  31.019  29.272  1.00  0.00     0.060 A 
ATOM     32  C   UNL A   1      38.771  30.980  30.312  1.00  0.00     0.016 A 
ATOM     33  C   UNL A   1      38.102  30.353  28.072  1.00  0.00     0.016 A 
ATOM     34  C   UNL A   1      39.984  30.301  30.147  1.00  0.00     0.010 A 
ATOM     35  C   UNL A   1      39.322  29.686  27.903  1.00  0.00     0.010 A 
ATOM     36  C   UNL A   1      40.284  29.676  28.929  1.00  0.00    -0.014 A 
BRANCH  36  37
ATOM     37  C   UNL A   1      41.656  29.162  28.668  1.00  0.00     0.031 A 
ATOM     38  C   UNL A   1      42.811  30.128  28.717  1.00  0.00     0.074 A 
ATOM     39  C   UNL A   1      41.891  27.862  28.414  1.00  0.00     0.049 A 
ATOM     40  N   UNL A   1      44.069  29.939  28.412  1.00  0.00    -0.248 NA
ATOM     41  C   UNL A   1      42.502  31.494  29.173  1.00  0.00     0.031 C 
ATOM     42  C   UNL A   1      40.884  26.803  28.406  1.00  0.00     0.029 A 
ATOM     43  N   UNL A   1      43.062  27.212  28.099  1.00  0.00    -0.354 N 
ATOM     44  C   UNL A   1      44.698  31.161  28.621  1.00  0.00     0.074 A 
ATOM     45  C   UNL A   1      43.681  32.087  29.070  1.00  0.00     0.031 C 
ATOM     46  C   UNL A   1      41.478  25.639  28.087  1.00  0.00     0.029 A 
ATOM     47  C   UNL A   1      42.897  25.875  27.825  1.00  0.00     0.049 A 
ATOM     48  H   UNL A   1      43.938  27.663  28.074  1.00  0.00     0.167 HD
ATOM     49  C   UNL A   1      46.002  31.485  28.451  1.00  0.00     0.037 A 
ATOM     50  C   UNL A   1      43.781  24.956  27.381  1.00  0.00     0.037 A 
ATOM     51  C   UNL A   1      47.019  30.566  28.012  1.00  0.00     0.049 A 
ATOM     52  C   UNL A   1      45.212  25.357  27.124  1.00  0.00     0.074 A 
ATOM     53  C   UNL A   1      48.366  30.808  27.804  1.00  0.00     0.029 A 
ATOM     54  N   UNL A   1      46.803  29.230  27.712  1.00  0.00    -0.354 N 
ATOM     55  N   UNL A   1      45.790  26.522  27.300  1.00  0.00    -0.248 NA
ATOM     56  C   UNL A   1      46.113  24.319  26.595  1.00  0.00     0.031 C 
ATOM     57  C   UNL A   1      48.958  29.628  27.343  1.00  0.00     0.029 A 
ATOM     58  C   UNL A   1      47.988  28.639  27.304  1.00  0.00     0.049 A 
ATOM     59  H   UNL A   1      45.936  28.769  27.779  1.00  0.00     0.167 HD
ATOM     60  C   UNL A   1      47.120  26.351  26.926  1.00  0.00     0.074 A 
ATOM     61  C   UNL A   1      47.267  24.968  26.525  1.00  0.00     0.031 C 
ATOM     62  C   UNL A   1      48.128  27.257  26.917  1.00  0.00     0.037 A 
BRANCH  49  63
ATOM     63  C   UNL A   1      46.397  32.912  28.702  1.00  0.00     0.058 A 
ATOM     64  C   UNL A   1      46.869  33.340  29.952  1.00  0.00     0.135 A 
ATOM     65  C   UNL A   1      46.321  33.859  27.668  1.00  0.00     0.135 A 
ATOM     66  F   UNL A   1      46.943  32.478  30.978  1.00  0.00    -0.206 F 
ATOM     67  C   UNL A   1      47.232  34.665  30.175  1.00  0.00     0.059 A 
ATOM     68  C   UNL A   1      46.699  35.184  27.862  1.00  0.00     0.059 A 
ATOM     69  F   UNL A   1      45.872  33.500  26.455  1.00  0.00    -0.206 F 
ATOM     70  C   UNL A   1      47.139  35.579  29.124  1.00  0.00     0.060 A 
BRANCH  70  71
ATOM     71  S   UNL A   1      47.609  37.297  29.428  1.00  0.00     0.124 S 
ATOM     72  O   UNL A   1      48.850  37.129  30.179  1.00  0.00    -0.237 OA
ATOM     73  O   UNL A   1      47.753  37.827  28.076  1.00  0.00    -0.237 OA
ATOM     74  O   UNL A   1      46.482  37.827  30.189  1.00  0.00    -0.744 OA
ENDBRANCH  70  71
ENDBRANCH  49  63
BRANCH  50  75
ATOM     75  C   UNL A   1      43.334  23.562  27.105  1.00  0.00     0.058 A 
ATOM     76  C   UNL A   1      43.175  23.097  25.792  1.00  0.00     0.135 A 
ATOM     77  C   UNL A   1      43.030  22.678  28.153  1.00  0.00     0.135 A 
ATOM     78  F   UNL A   1      43.432  23.910  24.756  1.00  0.00    -0.206 F 
ATOM     79  C   UNL A   1      42.718  21.809  25.525  1.00  0.00     0.059 A 
ATOM     80  C   UNL A   1      42.596  21.378  27.911  1.00  0.00     0.059 A 
ATOM     81  F   UNL A   1      43.164  23.074  29.428  1.00  0.00    -0.206 F 
ATOM     82  C   UNL A   1      42.432  20.957  26.592  1.00  0.00     0.060 A 
BRANCH  82  83
ATOM     83  S   UNL A   1      41.877  19.275  26.238  1.00  0.00     0.124 S 
ATOM     84  O   UNL A   1      42.591  18.984  25.000  1.00  0.00    -0.237 OA
ATOM     85  O   UNL A   1      42.327  18.545  27.420  1.00  0.00    -0.237 OA
ATOM     86  O   UNL A   1      40.429  19.419  26.114  1.00  0.00    -0.744 OA
ENDBRANCH  82  83
ENDBRANCH  50  75
BRANCH  62  87
ATOM     87  C   UNL A   1      49.493  26.785  26.494  1.00  0.00     0.058 A 
ATOM     88  C   UNL A   1      50.418  26.277  27.420  1.00  0.00     0.135 A 
ATOM     89  C   UNL A   1      49.856  26.784  25.138  1.00  0.00     0.135 A 
ATOM     90  F   UNL A   1      50.122  26.259  28.730  1.00  0.00    -0.206 F 
ATOM     91  C   UNL A   1      51.662  25.799  27.018  1.00  0.00     0.059 A 
ATOM     92  C   UNL A   1      51.086  26.290  24.711  1.00  0.00     0.059 A 
ATOM     93  F   UNL A   1      49.005  27.249  24.210  1.00  0.00    -0.206 F 
ATOM     94  C   UNL A   1      51.986  25.809  25.659  1.00  0.00     0.060 A 
BRANCH  94  95
ATOM     95  S   UNL A   1      53.587  25.150  25.144  1.00  0.00     0.124 S 
ATOM     96  O   UNL A   1      53.301  23.722  25.049  1.00  0.00    -0.237 OA
ATOM     97  O   UNL A   1      53.816  25.835  23.876  1.00  0.00    -0.237 OA
ATOM     98  O   UNL A   1      54.481  25.540  26.230  1.00  0.00    -0.744 OA
ENDBRANCH  94  95
ENDBRANCH  62  87
ENDBRANCH  36  37
ENDBRANCH  29  31
ENDBRANCH  28  29
ENDBRANCH  27  28
ENDBRANCH  26  27
ENDBRANCH  25  26
ENDBRANCH   1  25
TORSDOF 22
ENDMDL
MODEL 3
REMARK VINA RESULT:     -10.3      6.517     12.002
REMARK SMILES Cn1ccc(NC(=O)[C@@H]2CCCC[C@@H]2C(=O)OCCOCCOCCOC(=O)c2ccc(-c3c4nc(c(-c5c(F)cc(S(=O)(=O)[O-])cc5F)c5ccc([nH]5)c(-c5c(F)cc(S(=O)(=O)[O-])cc5F)c5nc(c(-c6c(F)cc(S(=O)(=O)[O-])cc6F)c6ccc3[nH]6)C=C5)C=C4)cc2)n1
REMARK SMILES IDX 22 1 21 2 20 3 19 4 18 5 17 6 15 7 16 8 14 9 9 10 10 11
REMARK SMILES IDX 11 12 13 13 12 14 7 15 6 16 8 18 5 19 1 20 2 21 3 22 95 23
REMARK SMILES IDX 4 24 23 25 24 26 25 27 26 28 27 29 28 30 29 31 30 32 94 33
REMARK SMILES IDX 31 34 93 35 32 36 33 37 34 38 87 39 35 40 92 41 86 42 88 43
REMARK SMILES IDX 36 44 91 45 85 46 84 47 37 49 71 50 50 51 70 52 51 53 54 54
REMARK SMILES IDX 69 55 89 56 52 57 53 58 68 60 90 61 55 62 38 63 39 64 48 65
REMARK SMILES IDX 40 66 41 67 47 68 49 69 42 70 43 71 44 72 45 73 46 74 72 75
REMARK SMILES IDX 73 76 82 77 74 78 75 79 81 80 83 81 76 82 77 83 78 84 79 85
REMARK SMILES IDX 80 86 56 87 57 88 66 89 58 90 59 91 65 92 67 93 60 94 61 95
REMARK SMILES IDX 62 96 63 97 64 98
REMARK H PARENT 6 17 88 48 54 59
REMARK Flexibility Score: inf
ROOT
ATOM      1  C   UNL A   1      39.699  22.074  26.615  1.00  0.00     0.188 C 
ENDROOT
BRANCH   1   2
ATOM      2  C   UNL A   1      38.451  22.257  25.745  1.00  0.00     0.188 C 
BRANCH   2   3
ATOM      3  O   UNL A   1      37.840  21.108  25.157  1.00  0.00    -0.376 OA
BRANCH   3   4
ATOM      4  C   UNL A   1      36.441  21.128  24.928  1.00  0.00     0.202 C 
BRANCH   4   5
ATOM      5  C   UNL A   1      35.569  21.519  26.123  1.00  0.00     0.261 C 
BRANCH   5   6
ATOM      6  O   UNL A   1      34.399  22.288  25.795  1.00  0.00    -0.463 OA
BRANCH   6   7
ATOM      7  C   UNL A   1      34.637  23.590  25.503  1.00  0.00     0.309 C 
ATOM      8  O   UNL A   1      35.523  24.247  26.040  1.00  0.00    -0.252 OA
BRANCH   7   9
ATOM      9  C   UNL A   1      33.595  24.229  24.589  1.00  0.00     0.111 C 
ATOM     10  C   UNL A   1      32.107  24.397  25.020  1.00  0.00     0.093 C 
ATOM     11  C   UNL A   1      31.231  23.202  24.586  1.00  0.00     0.014 C 
ATOM     12  C   UNL A   1      31.408  22.844  23.118  1.00  0.00     0.001 C 
ATOM     13  C   UNL A   1      33.739  23.710  23.142  1.00  0.00     0.016 C 
ATOM     14  C   UNL A   1      32.861  22.511  22.832  1.00  0.00     0.001 C 
BRANCH  10  15
ATOM     15  C   UNL A   1      31.814  24.709  26.505  1.00  0.00     0.229 C 
ATOM     16  N   UNL A   1      31.883  25.970  27.015  1.00  0.00    -0.309 N 
ATOM     17  H   UNL A   1      31.737  26.050  27.985  1.00  0.00     0.171 HD
ATOM     18  O   UNL A   1      31.522  23.807  27.302  1.00  0.00    -0.274 OA
BRANCH  16  19
ATOM     19  C   UNL A   1      32.131  27.141  26.351  1.00  0.00     0.154 A 
ATOM     20  C   UNL A   1      30.969  29.615  24.241  1.00  0.00     0.173 C 
ATOM     21  N   UNL A   1      31.794  28.821  25.121  1.00  0.00    -0.274 N 
ATOM     22  C   UNL A   1      33.140  28.622  25.053  1.00  0.00     0.110 A 
ATOM     23  N   UNL A   1      31.195  28.024  26.015  1.00  0.00    -0.155 NA
ATOM     24  C   UNL A   1      33.399  27.554  25.886  1.00  0.00     0.068 A 
ENDBRANCH  16  19
ENDBRANCH  10  15
ENDBRANCH   7   9
ENDBRANCH   6   7
ENDBRANCH   5   6
ENDBRANCH   4   5
ENDBRANCH   3   4
ENDBRANCH   2   3
ENDBRANCH   1   2
BRANCH   1  25
ATOM     25  O   UNL A   1      40.829  21.750  25.803  1.00  0.00    -0.376 OA
BRANCH  25  26
ATOM     26  C   UNL A   1      42.068  22.035  26.442  1.00  0.00     0.202 C 
BRANCH  26  27
ATOM     27  C   UNL A   1      42.800  23.167  25.714  1.00  0.00     0.261 C 
BRANCH  27  28
ATOM     28  O   UNL A   1      42.195  24.466  25.870  1.00  0.00    -0.460 OA
BRANCH  28  29
ATOM     29  C   UNL A   1      43.039  25.493  26.112  1.00  0.00     0.338 C 
ATOM     30  O   UNL A   1      44.048  25.763  25.487  1.00  0.00    -0.246 OA
BRANCH  29  31
ATOM     31  C   UNL A   1      42.477  26.341  27.190  1.00  0.00     0.060 A 
ATOM     32  C   UNL A   1      43.005  27.621  27.378  1.00  0.00     0.016 A 
ATOM     33  C   UNL A   1      41.485  25.861  28.050  1.00  0.00     0.016 A 
ATOM     34  C   UNL A   1      42.564  28.417  28.442  1.00  0.00     0.010 A 
ATOM     35  C   UNL A   1      41.055  26.653  29.124  1.00  0.00     0.010 A 
ATOM     36  C   UNL A   1      41.610  27.927  29.344  1.00  0.00    -0.014 A 
BRANCH  36  37
ATOM     37  C   UNL A   1      41.316  28.667  30.601  1.00  0.00     0.031 A 
ATOM     38  C   UNL A   1      40.175  29.651  30.610  1.00  0.00     0.074 A 
ATOM     39  C   UNL A   1      42.025  28.466  31.727  1.00  0.00     0.049 A 
ATOM     40  N   UNL A   1      39.806  30.490  31.543  1.00  0.00    -0.248 NA
ATOM     41  C   UNL A   1      39.336  29.690  29.400  1.00  0.00     0.031 C 
ATOM     42  C   UNL A   1      43.107  27.496  31.886  1.00  0.00     0.029 A 
ATOM     43  N   UNL A   1      41.943  29.081  32.954  1.00  0.00    -0.354 N 
ATOM     44  C   UNL A   1      38.707  31.170  31.029  1.00  0.00     0.074 A 
ATOM     45  C   UNL A   1      38.474  30.650  29.699  1.00  0.00     0.031 C 
ATOM     46  C   UNL A   1      43.598  27.593  33.135  1.00  0.00     0.029 A 
ATOM     47  C   UNL A   1      42.898  28.659  33.849  1.00  0.00     0.049 A 
ATOM     48  H   UNL A   1      41.263  29.760  33.171  1.00  0.00     0.167 HD
ATOM     49  C   UNL A   1      37.961  32.140  31.609  1.00  0.00     0.037 A 
ATOM     50  C   UNL A   1      43.194  29.105  35.089  1.00  0.00     0.037 A 
ATOM     51  C   UNL A   1      38.183  32.655  32.935  1.00  0.00     0.049 A 
ATOM     52  C   UNL A   1      42.400  30.241  35.686  1.00  0.00     0.074 A 
ATOM     53  C   UNL A   1      37.482  33.644  33.602  1.00  0.00     0.029 A 
ATOM     54  N   UNL A   1      39.181  32.224  33.795  1.00  0.00    -0.354 N 
ATOM     55  N   UNL A   1      41.380  30.892  35.181  1.00  0.00    -0.248 NA
ATOM     56  C   UNL A   1      42.805  30.710  37.021  1.00  0.00     0.031 C 
ATOM     57  C   UNL A   1      38.079  33.838  34.852  1.00  0.00     0.029 A 
ATOM     58  C   UNL A   1      39.126  32.940  34.980  1.00  0.00     0.049 A 
ATOM     59  H   UNL A   1      39.833  31.516  33.593  1.00  0.00     0.167 HD
ATOM     60  C   UNL A   1      41.010  31.829  36.142  1.00  0.00     0.074 A 
ATOM     61  C   UNL A   1      41.907  31.654  37.264  1.00  0.00     0.031 C 
ATOM     62  C   UNL A   1      40.016  32.751  36.098  1.00  0.00     0.037 A 
BRANCH  49  63
ATOM     63  C   UNL A   1      36.854  32.740  30.792  1.00  0.00     0.058 A 
ATOM     64  C   UNL A   1      37.086  33.784  29.884  1.00  0.00     0.135 A 
ATOM     65  C   UNL A   1      35.544  32.246  30.904  1.00  0.00     0.135 A 
ATOM     66  F   UNL A   1      38.316  34.305  29.752  1.00  0.00    -0.206 F 
ATOM     67  C   UNL A   1      36.053  34.334  29.131  1.00  0.00     0.059 A 
ATOM     68  C   UNL A   1      34.500  32.766  30.146  1.00  0.00     0.059 A 
ATOM     69  F   UNL A   1      35.269  31.251  31.762  1.00  0.00    -0.206 F 
ATOM     70  C   UNL A   1      34.763  33.820  29.272  1.00  0.00     0.060 A 
BRANCH  70  71
ATOM     71  S   UNL A   1      33.430  34.545  28.293  1.00  0.00     0.124 S 
ATOM     72  O   UNL A   1      34.179  35.370  27.350  1.00  0.00    -0.237 OA
ATOM     73  O   UNL A   1      32.780  33.367  27.726  1.00  0.00    -0.237 OA
ATOM     74  O   UNL A   1      32.643  35.277  29.280  1.00  0.00    -0.744 OA
ENDBRANCH  70  71
ENDBRANCH  49  63
BRANCH  50  75
ATOM     75  C   UNL A   1      44.329  28.507  35.846  1.00  0.00     0.058 A 
ATOM     76  C   UNL A   1      45.644  28.956  35.658  1.00  0.00     0.135 A 
ATOM     77  C   UNL A   1      44.121  27.455  36.751  1.00  0.00     0.135 A 
ATOM     78  F   UNL A   1      45.898  29.946  34.789  1.00  0.00    -0.206 F 
ATOM     79  C   UNL A   1      46.716  28.375  36.331  1.00  0.00     0.059 A 
ATOM     80  C   UNL A   1      45.173  26.875  37.455  1.00  0.00     0.059 A 
ATOM     81  F   UNL A   1      42.882  26.987  36.966  1.00  0.00    -0.206 F 
ATOM     82  C   UNL A   1      46.469  27.335  37.228  1.00  0.00     0.060 A 
BRANCH  82  83
ATOM     83  S   UNL A   1      47.860  26.613  38.126  1.00  0.00     0.124 S 
ATOM     84  O   UNL A   1      47.178  25.730  39.066  1.00  0.00    -0.237 OA
ATOM     85  O   UNL A   1      48.608  25.953  37.060  1.00  0.00    -0.237 OA
ATOM     86  O   UNL A   1      48.519  27.775  38.715  1.00  0.00    -0.744 OA
ENDBRANCH  82  83
ENDBRANCH  50  75
BRANCH  62  87
ATOM     87  C   UNL A   1      39.814  33.624  37.307  1.00  0.00     0.058 A 
ATOM     88  C   UNL A   1      40.433  34.878  37.424  1.00  0.00     0.135 A 
ATOM     89  C   UNL A   1      38.941  33.226  38.332  1.00  0.00     0.135 A 
ATOM     90  F   UNL A   1      41.281  35.304  36.474  1.00  0.00    -0.206 F 
ATOM     91  C   UNL A   1      40.207  35.701  38.523  1.00  0.00     0.059 A 
ATOM     92  C   UNL A   1      38.682  34.043  39.430  1.00  0.00     0.059 A 
ATOM     93  F   UNL A   1      38.314  32.041  38.265  1.00  0.00    -0.206 F 
ATOM     94  C   UNL A   1      39.327  35.275  39.521  1.00  0.00     0.060 A 
BRANCH  94  95
ATOM     95  S   UNL A   1      39.009  36.368  40.924  1.00  0.00     0.124 S 
ATOM     96  O   UNL A   1      40.295  36.343  41.613  1.00  0.00    -0.237 OA
ATOM     97  O   UNL A   1      38.664  37.626  40.271  1.00  0.00    -0.237 OA
ATOM     98  O   UNL A   1      37.909  35.710  41.624  1.00  0.00    -0.744 OA
ENDBRANCH  94  95
ENDBRANCH  62  87
ENDBRANCH  36  37
ENDBRANCH  29  31
ENDBRANCH  28  29
ENDBRANCH  27  28
ENDBRANCH  26  27
ENDBRANCH  25  26
ENDBRANCH   1  25
TORSDOF 22
ENDMDL
