MODEL 1
REMARK VINA RESULT:      -9.1      0.000      0.000
REMARK SMILES CCCC[C@H](C(=O)OC)[C@H](O)C(=O)OCCOCCOCCOC(=O)c1ccc(-c2c3nc(c(-c4c(F)cc(S(=O)(=O)[O-])cc4F)c4ccc([nH]4)c(-c4c(F)cc(S(=O)(=O)[O-])cc4F)c4nc(c(-c5c(F)cc(S(=O)(=O)[O-])cc5F)c5ccc2[nH]5)C=C4)C=C3)cc1
REMARK SMILES IDX 18 1 17 2 16 3 15 4 14 5 12 6 13 7 10 8 5 9 4 10 3 11 2 12
REMARK SMILES IDX 1 13 6 14 7 15 8 16 9 17 11 18 19 20 20 21 21 22 22 23 23 24
REMARK SMILES IDX 24 25 25 26 26 27 27 28 91 29 28 30 90 31 29 32 30 33 31 34
REMARK SMILES IDX 84 35 32 36 89 37 83 38 85 39 33 40 88 41 82 42 81 43 34 45
REMARK SMILES IDX 68 46 47 47 67 48 48 49 51 50 66 51 86 52 49 53 50 54 65 56
REMARK SMILES IDX 87 57 52 58 35 59 36 60 45 61 37 62 38 63 44 64 46 65 39 66
REMARK SMILES IDX 40 67 41 68 42 69 43 70 69 71 70 72 79 73 71 74 72 75 78 76
REMARK SMILES IDX 80 77 73 78 74 79 75 80 76 81 77 82 53 83 54 84 63 85 55 86
REMARK SMILES IDX 56 87 62 88 64 89 57 90 58 91 59 92 60 93 61 94
REMARK H PARENT 11 19 85 44 51 55
REMARK Flexibility Score: inf
ROOT
ATOM      1  C   UNL A   1      35.418  22.442  25.688  1.00  0.00     0.188 C 
ENDROOT
BRANCH   1   2
ATOM      2  O   UNL A   1      34.082  22.625  26.101  1.00  0.00    -0.376 OA
BRANCH   2   3
ATOM      3  C   UNL A   1      33.203  23.465  25.369  1.00  0.00     0.202 C 
BRANCH   3   4
ATOM      4  C   UNL A   1      33.648  24.399  24.232  1.00  0.00     0.261 C 
BRANCH   4   5
ATOM      5  O   UNL A   1      32.880  24.308  23.027  1.00  0.00    -0.461 OA
BRANCH   5   6
ATOM      6  C   UNL A   1      32.819  25.452  22.283  1.00  0.00     0.335 C 
ATOM      7  O   UNL A   1      33.661  25.773  21.457  1.00  0.00    -0.249 OA
BRANCH   6   8
ATOM      8  C   UNL A   1      31.495  26.209  22.553  1.00  0.00     0.238 C 
BRANCH   8   9
ATOM      9  C   UNL A   1      31.659  27.334  23.573  1.00  0.00     0.139 C 
BRANCH   9  10
ATOM     10  C   UNL A   1      30.410  28.212  23.823  1.00  0.00     0.019 C 
BRANCH  10  11
ATOM     11  C   UNL A   1      29.710  28.886  22.631  1.00  0.00     0.001 C 
BRANCH  11  12
ATOM     12  C   UNL A   1      28.362  29.592  22.864  1.00  0.00    -0.003 C 
ATOM     13  C   UNL A   1      27.168  28.689  23.147  1.00  0.00     0.004 C 
ENDBRANCH  11  12
ENDBRANCH  10  11
ENDBRANCH   9  10
BRANCH   9  14
ATOM     14  C   UNL A   1      32.906  28.180  23.380  1.00  0.00     0.311 C 
ATOM     15  O   UNL A   1      32.994  29.026  22.495  1.00  0.00    -0.252 OA
BRANCH  14  16
ATOM     16  O   UNL A   1      33.877  27.906  24.290  1.00  0.00    -0.469 OA
ATOM     17  C   UNL A   1      33.421  27.995  25.649  1.00  0.00     0.282 C 
ENDBRANCH  14  16
ENDBRANCH   9  14
ENDBRANCH   8   9
BRANCH   8  18
ATOM     18  O   UNL A   1      30.488  25.336  23.073  1.00  0.00    -0.381 OA
ATOM     19  H   UNL A   1      30.904  24.527  23.410  1.00  0.00     0.211 HD
ENDBRANCH   8  18
ENDBRANCH   6   8
ENDBRANCH   5   6
ENDBRANCH   4   5
ENDBRANCH   3   4
ENDBRANCH   2   3
ENDBRANCH   1   2
BRANCH   1  20
ATOM     20  C   UNL A   1      35.890  21.024  25.315  1.00  0.00     0.188 C 
BRANCH  20  21
ATOM     21  O   UNL A   1      37.263  20.710  25.331  1.00  0.00    -0.376 OA
BRANCH  21  22
ATOM     22  C   UNL A   1      38.215  21.766  25.285  1.00  0.00     0.202 C 
BRANCH  22  23
ATOM     23  C   UNL A   1      39.310  22.029  26.346  1.00  0.00     0.261 C 
BRANCH  23  24
ATOM     24  O   UNL A   1      39.423  23.352  26.884  1.00  0.00    -0.460 OA
BRANCH  24  25
ATOM     25  C   UNL A   1      40.683  23.855  26.945  1.00  0.00     0.338 C 
ATOM     26  O   UNL A   1      41.653  23.492  26.294  1.00  0.00    -0.246 OA
BRANCH  25  27
ATOM     27  C   UNL A   1      40.674  25.076  27.774  1.00  0.00     0.060 A 
ATOM     28  C   UNL A   1      41.813  25.898  27.797  1.00  0.00     0.016 A 
ATOM     29  C   UNL A   1      39.558  25.397  28.540  1.00  0.00     0.016 A 
ATOM     30  C   UNL A   1      41.826  27.062  28.566  1.00  0.00     0.010 A 
ATOM     31  C   UNL A   1      39.587  26.542  29.341  1.00  0.00     0.010 A 
ATOM     32  C   UNL A   1      40.720  27.379  29.363  1.00  0.00    -0.014 A 
BRANCH  32  33
ATOM     33  C   UNL A   1      40.765  28.512  30.319  1.00  0.00     0.031 A 
ATOM     34  C   UNL A   1      41.716  28.437  31.480  1.00  0.00     0.074 A 
ATOM     35  C   UNL A   1      39.926  29.556  30.194  1.00  0.00     0.049 A 
ATOM     36  N   UNL A   1      41.788  29.197  32.541  1.00  0.00    -0.248 NA
ATOM     37  C   UNL A   1      42.714  27.354  31.444  1.00  0.00     0.031 C 
ATOM     38  C   UNL A   1      38.993  29.765  29.087  1.00  0.00     0.029 A 
ATOM     39  N   UNL A   1      39.695  30.620  31.033  1.00  0.00    -0.354 N 
ATOM     40  C   UNL A   1      42.810  28.666  33.317  1.00  0.00     0.074 A 
ATOM     41  C   UNL A   1      43.337  27.524  32.603  1.00  0.00     0.031 C 
ATOM     42  C   UNL A   1      38.257  30.862  29.339  1.00  0.00     0.029 A 
ATOM     43  C   UNL A   1      38.630  31.402  30.646  1.00  0.00     0.049 A 
ATOM     44  H   UNL A   1      40.237  30.805  31.834  1.00  0.00     0.167 HD
ATOM     45  C   UNL A   1      43.257  29.090  34.522  1.00  0.00     0.037 A 
ATOM     46  C   UNL A   1      37.993  32.398  31.297  1.00  0.00     0.037 A 
ATOM     47  C   UNL A   1      42.735  30.238  35.217  1.00  0.00     0.049 A 
ATOM     48  C   UNL A   1      38.468  32.806  32.672  1.00  0.00     0.074 A 
ATOM     49  C   UNL A   1      43.165  30.782  36.415  1.00  0.00     0.029 A 
ATOM     50  N   UNL A   1      41.660  31.004  34.794  1.00  0.00    -0.354 N 
ATOM     51  N   UNL A   1      39.469  32.332  33.375  1.00  0.00    -0.248 NA
ATOM     52  C   UNL A   1      37.720  33.878  33.347  1.00  0.00     0.031 C 
ATOM     53  C   UNL A   1      42.307  31.831  36.751  1.00  0.00     0.029 A 
ATOM     54  C   UNL A   1      41.383  31.985  35.730  1.00  0.00     0.049 A 
ATOM     55  H   UNL A   1      41.168  30.870  33.952  1.00  0.00     0.167 HD
ATOM     56  C   UNL A   1      39.484  33.062  34.560  1.00  0.00     0.074 A 
ATOM     57  C   UNL A   1      38.405  34.022  34.474  1.00  0.00     0.031 C 
ATOM     58  C   UNL A   1      40.313  32.946  35.628  1.00  0.00     0.037 A 
BRANCH  45  59
ATOM     59  C   UNL A   1      44.337  28.297  35.201  1.00  0.00     0.058 A 
ATOM     60  C   UNL A   1      44.049  27.235  36.069  1.00  0.00     0.135 A 
ATOM     61  C   UNL A   1      45.686  28.549  34.896  1.00  0.00     0.135 A 
ATOM     62  F   UNL A   1      42.778  26.964  36.409  1.00  0.00    -0.206 F 
ATOM     63  C   UNL A   1      45.059  26.449  36.614  1.00  0.00     0.059 A 
ATOM     64  C   UNL A   1      46.710  27.761  35.408  1.00  0.00     0.059 A 
ATOM     65  F   UNL A   1      46.016  29.559  34.076  1.00  0.00    -0.206 F 
ATOM     66  C   UNL A   1      46.387  26.715  36.269  1.00  0.00     0.060 A 
BRANCH  66  67
ATOM     67  S   UNL A   1      47.681  25.652  36.944  1.00  0.00     0.124 S 
ATOM     68  O   UNL A   1      48.587  25.537  35.806  1.00  0.00    -0.237 OA
ATOM     69  O   UNL A   1      48.174  26.440  38.069  1.00  0.00    -0.237 OA
ATOM     70  O   UNL A   1      46.968  24.430  37.302  1.00  0.00    -0.744 OA
ENDBRANCH  66  67
ENDBRANCH  45  59
BRANCH  46  71
ATOM     71  C   UNL A   1      36.791  33.042  30.698  1.00  0.00     0.058 A 
ATOM     72  C   UNL A   1      36.904  33.944  29.629  1.00  0.00     0.135 A 
ATOM     73  C   UNL A   1      35.506  32.804  31.215  1.00  0.00     0.135 A 
ATOM     74  F   UNL A   1      38.110  34.217  29.108  1.00  0.00    -0.206 F 
ATOM     75  C   UNL A   1      35.795  34.608  29.114  1.00  0.00     0.059 A 
ATOM     76  C   UNL A   1      34.379  33.431  30.694  1.00  0.00     0.059 A 
ATOM     77  F   UNL A   1      35.338  31.947  32.232  1.00  0.00    -0.206 F 
ATOM     78  C   UNL A   1      34.536  34.346  29.655  1.00  0.00     0.060 A 
BRANCH  78  79
ATOM     79  S   UNL A   1      33.101  35.202  28.968  1.00  0.00     0.124 S 
ATOM     80  O   UNL A   1      32.269  35.377  30.153  1.00  0.00    -0.237 OA
ATOM     81  O   UNL A   1      33.702  36.415  28.423  1.00  0.00    -0.237 OA
ATOM     82  O   UNL A   1      32.595  34.261  27.973  1.00  0.00    -0.744 OA
ENDBRANCH  78  79
ENDBRANCH  46  71
BRANCH  58  83
ATOM     83  C   UNL A   1      40.117  33.892  36.782  1.00  0.00     0.058 A 
ATOM     84  C   UNL A   1      40.743  35.147  36.822  1.00  0.00     0.135 A 
ATOM     85  C   UNL A   1      39.222  33.575  37.817  1.00  0.00     0.135 A 
ATOM     86  F   UNL A   1      41.613  35.499  35.863  1.00  0.00    -0.206 F 
ATOM     87  C   UNL A   1      40.496  36.051  37.852  1.00  0.00     0.059 A 
ATOM     88  C   UNL A   1      38.937  34.474  38.840  1.00  0.00     0.059 A 
ATOM     89  F   UNL A   1      38.589  32.390  37.824  1.00  0.00    -0.206 F 
ATOM     90  C   UNL A   1      39.583  35.709  38.852  1.00  0.00     0.060 A 
BRANCH  90  91
ATOM     91  S   UNL A   1      39.226  36.917  40.145  1.00  0.00     0.124 S 
ATOM     92  O   UNL A   1      38.543  37.963  39.392  1.00  0.00    -0.237 OA
ATOM     93  O   UNL A   1      38.392  36.150  41.064  1.00  0.00    -0.237 OA
ATOM     94  O   UNL A   1      40.547  37.272  40.654  1.00  0.00    -0.744 OA
ENDBRANCH  90  91
ENDBRANCH  58  83
ENDBRANCH  32  33
ENDBRANCH  25  27
ENDBRANCH  24  25
ENDBRANCH  23  24
ENDBRANCH  22  23
ENDBRANCH  21  22
ENDBRANCH  20  21
ENDBRANCH   1  20
TORSDOF 27
ENDMDL
MODEL 2
REMARK VINA RESULT:      -8.9      6.264     10.715
REMARK SMILES CCCC[C@H](C(=O)OC)[C@H](O)C(=O)OCCOCCOCCOC(=O)c1ccc(-c2c3nc(c(-c4c(F)cc(S(=O)(=O)[O-])cc4F)c4ccc([nH]4)c(-c4c(F)cc(S(=O)(=O)[O-])cc4F)c4nc(c(-c5c(F)cc(S(=O)(=O)[O-])cc5F)c5ccc2[nH]5)C=C4)C=C3)cc1
REMARK SMILES IDX 18 1 17 2 16 3 15 4 14 5 12 6 13 7 10 8 5 9 4 10 3 11 2 12
REMARK SMILES IDX 1 13 6 14 7 15 8 16 9 17 11 18 19 20 20 21 21 22 22 23 23 24
REMARK SMILES IDX 24 25 25 26 26 27 27 28 91 29 28 30 90 31 29 32 30 33 31 34
REMARK SMILES IDX 84 35 32 36 89 37 83 38 85 39 33 40 88 41 82 42 81 43 34 45
REMARK SMILES IDX 68 46 47 47 67 48 48 49 51 50 66 51 86 52 49 53 50 54 65 56
REMARK SMILES IDX 87 57 52 58 35 59 36 60 45 61 37 62 38 63 44 64 46 65 39 66
REMARK SMILES IDX 40 67 41 68 42 69 43 70 69 71 70 72 79 73 71 74 72 75 78 76
REMARK SMILES IDX 80 77 73 78 74 79 75 80 76 81 77 82 53 83 54 84 63 85 55 86
REMARK SMILES IDX 56 87 62 88 64 89 57 90 58 91 59 92 60 93 61 94
REMARK H PARENT 11 19 85 44 51 55
REMARK Flexibility Score: inf
ROOT
ATOM      1  C   UNL A   1      35.692  22.639  25.799  1.00  0.00     0.188 C 
ENDROOT
BRANCH   1   2
ATOM      2  O   UNL A   1      34.623  23.486  26.158  1.00  0.00    -0.376 OA
BRANCH   2   3
ATOM      3  C   UNL A   1      33.287  23.009  26.166  1.00  0.00     0.202 C 
BRANCH   3   4
ATOM      4  C   UNL A   1      32.177  23.534  25.242  1.00  0.00     0.261 C 
BRANCH   4   5
ATOM      5  O   UNL A   1      30.990  23.986  25.904  1.00  0.00    -0.461 OA
BRANCH   5   6
ATOM      6  C   UNL A   1      30.660  25.294  25.688  1.00  0.00     0.335 C 
ATOM      7  O   UNL A   1      30.656  26.148  26.563  1.00  0.00    -0.249 OA
BRANCH   6   8
ATOM      8  C   UNL A   1      30.408  25.554  24.183  1.00  0.00     0.238 C 
BRANCH   8   9
ATOM      9  C   UNL A   1      30.999  26.880  23.709  1.00  0.00     0.139 C 
BRANCH   9  10
ATOM     10  C   UNL A   1      29.997  27.892  23.103  1.00  0.00     0.019 C 
BRANCH  10  11
ATOM     11  C   UNL A   1      29.880  29.298  23.716  1.00  0.00     0.001 C 
BRANCH  11  12
ATOM     12  C   UNL A   1      29.253  30.424  22.874  1.00  0.00    -0.003 C 
ATOM     13  C   UNL A   1      28.062  31.145  23.494  1.00  0.00     0.004 C 
ENDBRANCH  11  12
ENDBRANCH  10  11
ENDBRANCH   9  10
BRANCH   9  14
ATOM     14  C   UNL A   1      32.242  26.740  22.846  1.00  0.00     0.311 C 
ATOM     15  O   UNL A   1      32.247  26.095  21.802  1.00  0.00    -0.252 OA
BRANCH  14  16
ATOM     16  O   UNL A   1      33.310  27.413  23.346  1.00  0.00    -0.469 OA
ATOM     17  C   UNL A   1      33.657  28.578  22.582  1.00  0.00     0.282 C 
ENDBRANCH  14  16
ENDBRANCH   9  14
ENDBRANCH   8   9
BRANCH   8  18
ATOM     18  O   UNL A   1      29.009  25.607  23.886  1.00  0.00    -0.381 OA
ATOM     19  H   UNL A   1      28.868  26.129  23.081  1.00  0.00     0.211 HD
ENDBRANCH   8  18
ENDBRANCH   6   8
ENDBRANCH   5   6
ENDBRANCH   4   5
ENDBRANCH   3   4
ENDBRANCH   2   3
ENDBRANCH   1   2
BRANCH   1  20
ATOM     20  C   UNL A   1      35.373  21.265  25.180  1.00  0.00     0.188 C 
BRANCH  20  21
ATOM     21  O   UNL A   1      36.397  20.315  25.001  1.00  0.00    -0.376 OA
BRANCH  21  22
ATOM     22  C   UNL A   1      37.753  20.739  25.073  1.00  0.00     0.202 C 
BRANCH  22  23
ATOM     23  C   UNL A   1      38.958  19.825  25.404  1.00  0.00     0.261 C 
BRANCH  23  24
ATOM     24  O   UNL A   1      39.871  20.257  26.419  1.00  0.00    -0.460 OA
BRANCH  24  25
ATOM     25  C   UNL A   1      41.187  20.044  26.154  1.00  0.00     0.338 C 
ATOM     26  O   UNL A   1      41.671  19.101  25.543  1.00  0.00    -0.246 OA
BRANCH  25  27
ATOM     27  C   UNL A   1      41.955  21.247  26.529  1.00  0.00     0.060 A 
ATOM     28  C   UNL A   1      42.243  21.484  27.884  1.00  0.00     0.016 A 
ATOM     29  C   UNL A   1      42.370  22.148  25.553  1.00  0.00     0.016 A 
ATOM     30  C   UNL A   1      42.974  22.610  28.262  1.00  0.00     0.010 A 
ATOM     31  C   UNL A   1      43.067  23.295  25.937  1.00  0.00     0.010 A 
ATOM     32  C   UNL A   1      43.371  23.537  27.291  1.00  0.00    -0.014 A 
BRANCH  32  33
ATOM     33  C   UNL A   1      43.999  24.825  27.675  1.00  0.00     0.031 A 
ATOM     34  C   UNL A   1      43.111  25.960  28.101  1.00  0.00     0.074 A 
ATOM     35  C   UNL A   1      45.329  25.001  27.581  1.00  0.00     0.049 A 
ATOM     36  N   UNL A   1      43.409  27.219  28.282  1.00  0.00    -0.248 NA
ATOM     37  C   UNL A   1      41.696  25.632  28.346  1.00  0.00     0.031 C 
ATOM     38  C   UNL A   1      46.298  23.964  27.226  1.00  0.00     0.029 A 
ATOM     39  N   UNL A   1      46.092  26.134  27.735  1.00  0.00    -0.354 N 
ATOM     40  C   UNL A   1      42.216  27.843  28.626  1.00  0.00     0.074 A 
ATOM     41  C   UNL A   1      41.190  26.824  28.635  1.00  0.00     0.031 C 
ATOM     42  C   UNL A   1      47.519  24.519  27.143  1.00  0.00     0.029 A 
ATOM     43  C   UNL A   1      47.412  25.956  27.388  1.00  0.00     0.049 A 
ATOM     44  H   UNL A   1      45.729  26.989  28.061  1.00  0.00     0.167 HD
ATOM     45  C   UNL A   1      41.999  29.152  28.895  1.00  0.00     0.037 A 
ATOM     46  C   UNL A   1      48.403  26.859  27.227  1.00  0.00     0.037 A 
ATOM     47  C   UNL A   1      43.032  30.156  28.896  1.00  0.00     0.049 A 
ATOM     48  C   UNL A   1      48.118  28.323  27.467  1.00  0.00     0.074 A 
ATOM     49  C   UNL A   1      42.919  31.498  29.217  1.00  0.00     0.029 A 
ATOM     50  N   UNL A   1      44.353  29.939  28.542  1.00  0.00    -0.354 N 
ATOM     51  N   UNL A   1      46.999  28.896  27.842  1.00  0.00    -0.248 NA
ATOM     52  C   UNL A   1      49.228  29.265  27.251  1.00  0.00     0.031 C 
ATOM     53  C   UNL A   1      44.156  32.106  28.989  1.00  0.00     0.029 A 
ATOM     54  C   UNL A   1      45.056  31.131  28.590  1.00  0.00     0.049 A 
ATOM     55  H   UNL A   1      44.737  29.066  28.294  1.00  0.00     0.167 HD
ATOM     56  C   UNL A   1      47.278  30.258  27.929  1.00  0.00     0.074 A 
ATOM     57  C   UNL A   1      48.673  30.422  27.585  1.00  0.00     0.031 C 
ATOM     58  C   UNL A   1      46.451  31.282  28.259  1.00  0.00     0.037 A 
BRANCH  45  59
ATOM     59  C   UNL A   1      40.593  29.599  29.173  1.00  0.00     0.058 A 
ATOM     60  C   UNL A   1      39.614  29.646  28.170  1.00  0.00     0.135 A 
ATOM     61  C   UNL A   1      40.199  29.892  30.489  1.00  0.00     0.135 A 
ATOM     62  F   UNL A   1      39.941  29.395  26.892  1.00  0.00    -0.206 F 
ATOM     63  C   UNL A   1      38.293  29.970  28.461  1.00  0.00     0.059 A 
ATOM     64  C   UNL A   1      38.879  30.192  30.808  1.00  0.00     0.059 A 
ATOM     65  F   UNL A   1      41.100  29.868  31.485  1.00  0.00    -0.206 F 
ATOM     66  C   UNL A   1      37.933  30.231  29.786  1.00  0.00     0.060 A 
BRANCH  66  67
ATOM     67  S   UNL A   1      36.204  30.597  30.153  1.00  0.00     0.124 S 
ATOM     68  O   UNL A   1      35.933  29.662  31.241  1.00  0.00    -0.237 OA
ATOM     69  O   UNL A   1      36.259  32.007  30.529  1.00  0.00    -0.237 OA
ATOM     70  O   UNL A   1      35.520  30.312  28.897  1.00  0.00    -0.744 OA
ENDBRANCH  66  67
ENDBRANCH  45  59
BRANCH  46  71
ATOM     71  C   UNL A   1      49.747  26.425  26.752  1.00  0.00     0.058 A 
ATOM     72  C   UNL A   1      50.067  26.408  25.387  1.00  0.00     0.135 A 
ATOM     73  C   UNL A   1      50.725  25.974  27.655  1.00  0.00     0.135 A 
ATOM     74  F   UNL A   1      49.163  26.815  24.482  1.00  0.00    -0.206 F 
ATOM     75  C   UNL A   1      51.292  25.932  24.930  1.00  0.00     0.059 A 
ATOM     76  C   UNL A   1      51.970  25.526  27.224  1.00  0.00     0.059 A 
ATOM     77  F   UNL A   1      50.477  25.975  28.973  1.00  0.00    -0.206 F 
ATOM     78  C   UNL A   1      52.237  25.492  25.858  1.00  0.00     0.060 A 
BRANCH  78  79
ATOM     79  S   UNL A   1      53.831  24.892  25.254  1.00  0.00     0.124 S 
ATOM     80  O   UNL A   1      53.973  25.639  24.009  1.00  0.00    -0.237 OA
ATOM     81  O   UNL A   1      54.731  25.276  26.337  1.00  0.00    -0.237 OA
ATOM     82  O   UNL A   1      53.615  23.455  25.108  1.00  0.00    -0.744 OA
ENDBRANCH  78  79
ENDBRANCH  46  71
BRANCH  58  83
ATOM     83  C   UNL A   1      47.027  32.672  28.297  1.00  0.00     0.058 A 
ATOM     84  C   UNL A   1      46.959  33.530  27.190  1.00  0.00     0.135 A 
ATOM     85  C   UNL A   1      47.576  33.181  29.487  1.00  0.00     0.135 A 
ATOM     86  F   UNL A   1      46.452  33.092  26.027  1.00  0.00    -0.206 F 
ATOM     87  C   UNL A   1      47.421  34.841  27.256  1.00  0.00     0.059 A 
ATOM     88  C   UNL A   1      48.016  34.498  29.584  1.00  0.00     0.059 A 
ATOM     89  F   UNL A   1      47.658  32.406  30.580  1.00  0.00    -0.206 F 
ATOM     90  C   UNL A   1      47.939  35.320  28.461  1.00  0.00     0.060 A 
BRANCH  90  91
ATOM     91  S   UNL A   1      48.475  37.042  28.549  1.00  0.00     0.124 S 
ATOM     92  O   UNL A   1      49.299  37.034  29.752  1.00  0.00    -0.237 OA
ATOM     93  O   UNL A   1      49.192  37.208  27.290  1.00  0.00    -0.237 OA
ATOM     94  O   UNL A   1      47.222  37.783  28.653  1.00  0.00    -0.744 OA
ENDBRANCH  90  91
ENDBRANCH  58  83
ENDBRANCH  32  33
ENDBRANCH  25  27
ENDBRANCH  24  25
ENDBRANCH  23  24
ENDBRANCH  22  23
ENDBRANCH  21  22
ENDBRANCH  20  21
ENDBRANCH   1  20
TORSDOF 27
ENDMDL
MODEL 3
REMARK VINA RESULT:      -8.8      2.229      9.030
REMARK SMILES CCCC[C@H](C(=O)OC)[C@H](O)C(=O)OCCOCCOCCOC(=O)c1ccc(-c2c3nc(c(-c4c(F)cc(S(=O)(=O)[O-])cc4F)c4ccc([nH]4)c(-c4c(F)cc(S(=O)(=O)[O-])cc4F)c4nc(c(-c5c(F)cc(S(=O)(=O)[O-])cc5F)c5ccc2[nH]5)C=C4)C=C3)cc1
REMARK SMILES IDX 18 1 17 2 16 3 15 4 14 5 12 6 13 7 10 8 5 9 4 10 3 11 2 12
REMARK SMILES IDX 1 13 6 14 7 15 8 16 9 17 11 18 19 20 20 21 21 22 22 23 23 24
REMARK SMILES IDX 24 25 25 26 26 27 27 28 91 29 28 30 90 31 29 32 30 33 31 34
REMARK SMILES IDX 84 35 32 36 89 37 83 38 85 39 33 40 88 41 82 42 81 43 34 45
REMARK SMILES IDX 68 46 47 47 67 48 48 49 51 50 66 51 86 52 49 53 50 54 65 56
REMARK SMILES IDX 87 57 52 58 35 59 36 60 45 61 37 62 38 63 44 64 46 65 39 66
REMARK SMILES IDX 40 67 41 68 42 69 43 70 69 71 70 72 79 73 71 74 72 75 78 76
REMARK SMILES IDX 80 77 73 78 74 79 75 80 76 81 77 82 53 83 54 84 63 85 55 86
REMARK SMILES IDX 56 87 62 88 64 89 57 90 58 91 59 92 60 93 61 94
REMARK H PARENT 11 19 85 44 51 55
REMARK Flexibility Score: inf
ROOT
ATOM      1  C   UNL A   1      40.225  20.331  26.198  1.00  0.00     0.188 C 
ENDROOT
BRANCH   1   2
ATOM      2  O   UNL A   1      39.681  21.595  26.505  1.00  0.00    -0.376 OA
BRANCH   2   3
ATOM      3  C   UNL A   1      38.480  22.038  25.892  1.00  0.00     0.202 C 
BRANCH   3   4
ATOM      4  C   UNL A   1      37.606  21.166  24.976  1.00  0.00     0.261 C 
BRANCH   4   5
ATOM      5  O   UNL A   1      36.658  21.878  24.172  1.00  0.00    -0.461 OA
BRANCH   5   6
ATOM      6  C   UNL A   1      35.669  22.519  24.862  1.00  0.00     0.335 C 
ATOM      7  O   UNL A   1      35.231  23.619  24.559  1.00  0.00    -0.249 OA
BRANCH   6   8
ATOM      8  C   UNL A   1      35.115  21.615  25.992  1.00  0.00     0.238 C 
BRANCH   8   9
ATOM      9  C   UNL A   1      33.773  20.981  25.631  1.00  0.00     0.139 C 
BRANCH   9  10
ATOM     10  C   UNL A   1      33.816  19.864  24.562  1.00  0.00     0.019 C 
BRANCH  10  11
ATOM     11  C   UNL A   1      32.675  18.834  24.501  1.00  0.00     0.001 C 
BRANCH  11  12
ATOM     12  C   UNL A   1      32.671  17.799  23.360  1.00  0.00    -0.003 C 
ATOM     13  C   UNL A   1      33.991  17.090  23.089  1.00  0.00     0.004 C 
ENDBRANCH  11  12
ENDBRANCH  10  11
ENDBRANCH   9  10
BRANCH   9  14
ATOM     14  C   UNL A   1      32.663  21.980  25.351  1.00  0.00     0.311 C 
ATOM     15  O   UNL A   1      31.983  22.474  26.246  1.00  0.00    -0.252 OA
BRANCH  14  16
ATOM     16  O   UNL A   1      32.529  22.265  24.030  1.00  0.00    -0.469 OA
ATOM     17  C   UNL A   1      31.345  23.018  23.728  1.00  0.00     0.282 C 
ENDBRANCH  14  16
ENDBRANCH   9  14
ENDBRANCH   8   9
BRANCH   8  18
ATOM     18  O   UNL A   1      34.901  22.355  27.198  1.00  0.00    -0.381 OA
ATOM     19  H   UNL A   1      35.746  22.472  27.660  1.00  0.00     0.211 HD
ENDBRANCH   8  18
ENDBRANCH   6   8
ENDBRANCH   5   6
ENDBRANCH   4   5
ENDBRANCH   3   4
ENDBRANCH   2   3
ENDBRANCH   1   2
BRANCH   1  20
ATOM     20  C   UNL A   1      41.756  20.180  26.132  1.00  0.00     0.188 C 
BRANCH  20  21
ATOM     21  O   UNL A   1      42.589  21.269  26.458  1.00  0.00    -0.376 OA
BRANCH  21  22
ATOM     22  C   UNL A   1      42.824  22.276  25.481  1.00  0.00     0.202 C 
BRANCH  22  23
ATOM     23  C   UNL A   1      43.728  23.516  25.676  1.00  0.00     0.261 C 
BRANCH  23  24
ATOM     24  O   UNL A   1      43.355  24.470  26.677  1.00  0.00    -0.460 OA
BRANCH  24  25
ATOM     25  C   UNL A   1      42.569  25.492  26.250  1.00  0.00     0.338 C 
ATOM     26  O   UNL A   1      42.108  25.647  25.127  1.00  0.00    -0.246 OA
BRANCH  25  27
ATOM     27  C   UNL A   1      42.157  26.302  27.413  1.00  0.00     0.060 A 
ATOM     28  C   UNL A   1      42.951  27.393  27.806  1.00  0.00     0.016 A 
ATOM     29  C   UNL A   1      41.006  25.975  28.125  1.00  0.00     0.016 A 
ATOM     30  C   UNL A   1      42.578  28.178  28.897  1.00  0.00     0.010 A 
ATOM     31  C   UNL A   1      40.657  26.739  29.241  1.00  0.00     0.010 A 
ATOM     32  C   UNL A   1      41.440  27.841  29.637  1.00  0.00    -0.014 A 
BRANCH  32  33
ATOM     33  C   UNL A   1      41.110  28.548  30.899  1.00  0.00     0.031 A 
ATOM     34  C   UNL A   1      39.999  29.561  30.888  1.00  0.00     0.074 A 
ATOM     35  C   UNL A   1      41.831  28.343  32.016  1.00  0.00     0.049 A 
ATOM     36  N   UNL A   1      39.670  30.437  31.799  1.00  0.00    -0.248 NA
ATOM     37  C   UNL A   1      39.153  29.595  29.683  1.00  0.00     0.031 C 
ATOM     38  C   UNL A   1      42.900  27.356  32.164  1.00  0.00     0.029 A 
ATOM     39  N   UNL A   1      41.800  28.989  33.229  1.00  0.00    -0.354 N 
ATOM     40  C   UNL A   1      38.605  31.152  31.268  1.00  0.00     0.074 A 
ATOM     41  C   UNL A   1      38.336  30.604  29.957  1.00  0.00     0.031 C 
ATOM     42  C   UNL A   1      43.454  27.494  33.382  1.00  0.00     0.029 A 
ATOM     43  C   UNL A   1      42.815  28.609  34.077  1.00  0.00     0.049 A 
ATOM     44  H   UNL A   1      41.118  29.657  33.468  1.00  0.00     0.167 HD
ATOM     45  C   UNL A   1      37.923  32.182  31.823  1.00  0.00     0.037 A 
ATOM     46  C   UNL A   1      43.219  29.141  35.251  1.00  0.00     0.037 A 
ATOM     47  C   UNL A   1      38.191  32.711  33.135  1.00  0.00     0.049 A 
ATOM     48  C   UNL A   1      42.485  30.334  35.815  1.00  0.00     0.074 A 
ATOM     49  C   UNL A   1      37.513  33.713  33.808  1.00  0.00     0.029 A 
ATOM     50  N   UNL A   1      39.224  32.302  33.963  1.00  0.00    -0.354 N 
ATOM     51  N   UNL A   1      41.446  30.970  35.329  1.00  0.00    -0.248 NA
ATOM     52  C   UNL A   1      42.986  30.890  37.083  1.00  0.00     0.031 C 
ATOM     53  C   UNL A   1      38.179  33.958  35.011  1.00  0.00     0.029 A 
ATOM     54  C   UNL A   1      39.231  33.063  35.119  1.00  0.00     0.049 A 
ATOM     55  H   UNL A   1      39.857  31.576  33.760  1.00  0.00     0.167 HD
ATOM     56  C   UNL A   1      41.156  31.982  36.241  1.00  0.00     0.074 A 
ATOM     57  C   UNL A   1      42.116  31.864  37.317  1.00  0.00     0.031 C 
ATOM     58  C   UNL A   1      40.185  32.928  36.192  1.00  0.00     0.037 A 
BRANCH  45  59
ATOM     59  C   UNL A   1      36.847  32.844  31.010  1.00  0.00     0.058 A 
ATOM     60  C   UNL A   1      37.141  33.724  29.959  1.00  0.00     0.135 A 
ATOM     61  C   UNL A   1      35.500  32.513  31.233  1.00  0.00     0.135 A 
ATOM     62  F   UNL A   1      38.410  34.089  29.716  1.00  0.00    -0.206 F 
ATOM     63  C   UNL A   1      36.137  34.253  29.155  1.00  0.00     0.059 A 
ATOM     64  C   UNL A   1      34.482  33.009  30.426  1.00  0.00     0.059 A 
ATOM     65  F   UNL A   1      35.165  31.681  32.232  1.00  0.00    -0.206 F 
ATOM     66  C   UNL A   1      34.811  33.882  29.391  1.00  0.00     0.060 A 
BRANCH  66  67
ATOM     67  S   UNL A   1      33.527  34.537  28.304  1.00  0.00     0.124 S 
ATOM     68  O   UNL A   1      33.023  33.318  27.680  1.00  0.00    -0.237 OA
ATOM     69  O   UNL A   1      32.622  35.185  29.249  1.00  0.00    -0.237 OA
ATOM     70  O   UNL A   1      34.256  35.439  27.418  1.00  0.00    -0.744 OA
ENDBRANCH  66  67
ENDBRANCH  45  59
BRANCH  46  71
ATOM     71  C   UNL A   1      44.420  28.601  35.949  1.00  0.00     0.058 A 
ATOM     72  C   UNL A   1      44.312  27.562  36.885  1.00  0.00     0.135 A 
ATOM     73  C   UNL A   1      45.695  29.147  35.728  1.00  0.00     0.135 A 
ATOM     74  F   UNL A   1      43.114  27.015  37.145  1.00  0.00    -0.206 F 
ATOM     75  C   UNL A   1      45.416  27.104  37.598  1.00  0.00     0.059 A 
ATOM     76  C   UNL A   1      46.819  28.683  36.403  1.00  0.00     0.059 A 
ATOM     77  F   UNL A   1      45.858  30.138  34.838  1.00  0.00    -0.206 F 
ATOM     78  C   UNL A   1      46.666  27.673  37.350  1.00  0.00     0.060 A 
BRANCH  78  79
ATOM     79  S   UNL A   1      48.095  27.059  38.269  1.00  0.00     0.124 S 
ATOM     80  O   UNL A   1      47.829  25.626  38.303  1.00  0.00    -0.237 OA
ATOM     81  O   UNL A   1      49.207  27.484  37.424  1.00  0.00    -0.237 OA
ATOM     82  O   UNL A   1      47.992  27.752  39.551  1.00  0.00    -0.744 OA
ENDBRANCH  78  79
ENDBRANCH  46  71
BRANCH  58  83
ATOM     83  C   UNL A   1      40.081  33.897  37.339  1.00  0.00     0.058 A 
ATOM     84  C   UNL A   1      40.705  35.153  37.302  1.00  0.00     0.135 A 
ATOM     85  C   UNL A   1      39.275  33.599  38.450  1.00  0.00     0.135 A 
ATOM     86  F   UNL A   1      41.493  35.486  36.269  1.00  0.00    -0.206 F 
ATOM     87  C   UNL A   1      40.540  36.077  38.331  1.00  0.00     0.059 A 
ATOM     88  C   UNL A   1      39.071  34.519  39.475  1.00  0.00     0.059 A 
ATOM     89  F   UNL A   1      38.647  32.414  38.533  1.00  0.00    -0.206 F 
ATOM     90  C   UNL A   1      39.713  35.754  39.409  1.00  0.00     0.060 A 
BRANCH  90  91
ATOM     91  S   UNL A   1      39.458  36.988  40.702  1.00  0.00     0.124 S 
ATOM     92  O   UNL A   1      38.860  38.085  39.951  1.00  0.00    -0.237 OA
ATOM     93  O   UNL A   1      38.568  36.291  41.625  1.00  0.00    -0.237 OA
ATOM     94  O   UNL A   1      40.806  37.235  41.206  1.00  0.00    -0.744 OA
ENDBRANCH  90  91
ENDBRANCH  58  83
ENDBRANCH  32  33
ENDBRANCH  25  27
ENDBRANCH  24  25
ENDBRANCH  23  24
ENDBRANCH  22  23
ENDBRANCH  21  22
ENDBRANCH  20  21
ENDBRANCH   1  20
TORSDOF 27
ENDMDL
