MODEL 1
REMARK VINA RESULT:     -10.1      0.000      0.000
REMARK SMILES Cc1cccc(C(=O)NCc2ccc(C(=O)OCCOCCOCCOC(=O)c3ccc(-c4c5nc(c(-c6c(F)cc(S(=O)(=O)[O-])cc6F)c6ccc([nH]6)c(-c6c(F)cc(S(=O)(=O)[O-])cc6F)c6nc(c(-c7c(F)cc(S(=O)(=O)[O-])cc7F)c7ccc4[nH]7)C=C6)C=C5)cc3)o2)c1O
REMARK SMILES IDX 21 1 20 2 19 3 18 4 17 5 15 6 16 7 14 8 11 9 12 10 95 11
REMARK SMILES IDX 13 12 10 13 9 14 7 15 8 16 6 18 1 19 2 20 3 21 96 22 4 23
REMARK SMILES IDX 5 24 97 25 22 27 23 28 24 29 25 30 26 31 27 32 28 33 29 34
REMARK SMILES IDX 30 35 94 36 31 37 93 38 32 39 33 40 34 41 87 42 35 43 92 44
REMARK SMILES IDX 86 45 88 46 36 47 91 48 85 49 84 50 37 52 71 53 50 54 70 55
REMARK SMILES IDX 51 56 54 57 69 58 89 59 52 60 53 61 68 63 90 64 55 65 38 66
REMARK SMILES IDX 39 67 48 68 40 69 41 70 47 71 49 72 42 73 43 74 44 75 45 76
REMARK SMILES IDX 46 77 72 78 73 79 82 80 74 81 75 82 81 83 83 84 76 85 77 86
REMARK SMILES IDX 78 87 79 88 80 89 56 90 57 91 66 92 58 93 59 94 65 95 67 96
REMARK SMILES IDX 60 97 61 98 62 99 63 100 64 101
REMARK H PARENT 9 17 97 26 88 51 54 62
REMARK Flexibility Score: inf
ROOT
ATOM      1  C   UNL A   1      35.693  21.094  25.436  1.00  0.00     0.188 C 
ENDROOT
BRANCH   1   2
ATOM      2  O   UNL A   1      34.850  20.367  24.549  1.00  0.00    -0.376 OA
BRANCH   2   3
ATOM      3  C   UNL A   1      33.544  19.995  24.971  1.00  0.00     0.202 C 
BRANCH   3   4
ATOM      4  C   UNL A   1      33.078  20.536  26.325  1.00  0.00     0.261 C 
BRANCH   4   5
ATOM      5  O   UNL A   1      32.387  21.789  26.191  1.00  0.00    -0.457 OA
BRANCH   5   6
ATOM      6  C   UNL A   1      32.583  22.690  27.201  1.00  0.00     0.374 C 
ATOM      7  O   UNL A   1      32.643  22.399  28.389  1.00  0.00    -0.242 OA
BRANCH   6   8
ATOM      8  C   UNL A   1      32.820  23.999  26.639  1.00  0.00     0.211 A 
ATOM      9  C   UNL A   1      32.281  26.096  26.204  1.00  0.00     0.124 A 
ATOM     10  C   UNL A   1      33.584  25.933  25.781  1.00  0.00     0.048 A 
ATOM     11  O   UNL A   1      31.810  24.923  26.712  1.00  0.00    -0.452 OA
ATOM     12  C   UNL A   1      33.933  24.591  26.066  1.00  0.00     0.058 A 
BRANCH   9  13
ATOM     13  C   UNL A   1      31.348  27.255  26.194  1.00  0.00     0.191 C 
BRANCH  13  14
ATOM     14  N   UNL A   1      30.223  26.919  25.353  1.00  0.00    -0.345 N 
ATOM     15  C   UNL A   1      29.989  26.341  24.134  1.00  0.00     0.255 C 
ATOM     16  O   UNL A   1      28.788  26.358  23.842  1.00  0.00    -0.269 OA
ATOM     17  H   UNL A   1      29.378  27.184  25.781  1.00  0.00     0.164 HD
BRANCH  15  18
ATOM     18  C   UNL A   1      31.010  25.721  23.209  1.00  0.00     0.081 A 
ATOM     19  C   UNL A   1      32.487  22.215  22.470  1.00  0.00     0.048 C 
ATOM     20  C   UNL A   1      32.220  23.695  22.438  1.00  0.00    -0.008 A 
ATOM     21  C   UNL A   1      32.931  24.475  21.524  1.00  0.00     0.007 A 
ATOM     22  C   UNL A   1      31.272  24.326  23.278  1.00  0.00     0.131 A 
ATOM     23  C   UNL A   1      32.688  25.838  21.432  1.00  0.00     0.001 A 
ATOM     24  C   UNL A   1      31.724  26.446  22.247  1.00  0.00     0.018 A 
BRANCH  22  25
ATOM     25  O   UNL A   1      30.588  23.550  24.183  1.00  0.00    -0.507 OA
ATOM     26  H   UNL A   1      29.795  23.120  23.926  1.00  0.00     0.293 HD
ENDBRANCH  22  25
ENDBRANCH  15  18
ENDBRANCH  13  14
ENDBRANCH   9  13
ENDBRANCH   6   8
ENDBRANCH   5   6
ENDBRANCH   4   5
ENDBRANCH   3   4
ENDBRANCH   2   3
ENDBRANCH   1   2
BRANCH   1  27
ATOM     27  C   UNL A   1      37.178  21.282  25.071  1.00  0.00     0.188 C 
BRANCH  27  28
ATOM     28  O   UNL A   1      37.859  22.258  25.850  1.00  0.00    -0.376 OA
BRANCH  28  29
ATOM     29  C   UNL A   1      39.216  21.963  26.156  1.00  0.00     0.202 C 
BRANCH  29  30
ATOM     30  C   UNL A   1      39.581  20.503  25.871  1.00  0.00     0.261 C 
BRANCH  30  31
ATOM     31  O   UNL A   1      40.565  19.957  26.764  1.00  0.00    -0.460 OA
BRANCH  31  32
ATOM     32  C   UNL A   1      41.810  19.813  26.262  1.00  0.00     0.338 C 
ATOM     33  O   UNL A   1      42.224  18.894  25.577  1.00  0.00    -0.246 OA
BRANCH  32  34
ATOM     34  C   UNL A   1      42.570  21.045  26.538  1.00  0.00     0.060 A 
ATOM     35  C   UNL A   1      42.706  21.459  27.868  1.00  0.00     0.016 A 
ATOM     36  C   UNL A   1      43.104  21.806  25.494  1.00  0.00     0.016 A 
ATOM     37  C   UNL A   1      43.337  22.669  28.152  1.00  0.00     0.010 A 
ATOM     38  C   UNL A   1      43.726  23.023  25.781  1.00  0.00     0.010 A 
ATOM     39  C   UNL A   1      43.809  23.478  27.108  1.00  0.00    -0.014 A 
BRANCH  39  40
ATOM     40  C   UNL A   1      44.206  24.875  27.398  1.00  0.00     0.031 A 
ATOM     41  C   UNL A   1      45.637  25.276  27.173  1.00  0.00     0.074 A 
ATOM     42  C   UNL A   1      43.306  25.782  27.820  1.00  0.00     0.049 A 
ATOM     43  N   UNL A   1      46.198  26.452  27.287  1.00  0.00    -0.248 NA
ATOM     44  C   UNL A   1      46.562  24.204  26.765  1.00  0.00     0.031 C 
ATOM     45  C   UNL A   1      41.894  25.517  28.083  1.00  0.00     0.029 A 
ATOM     46  N   UNL A   1      43.459  27.116  28.099  1.00  0.00    -0.354 N 
ATOM     47  C   UNL A   1      47.535  26.266  26.956  1.00  0.00     0.074 A 
ATOM     48  C   UNL A   1      47.710  24.857  26.673  1.00  0.00     0.031 C 
ATOM     49  C   UNL A   1      41.308  26.658  28.490  1.00  0.00     0.029 A 
ATOM     50  C   UNL A   1      42.303  27.729  28.513  1.00  0.00     0.049 A 
ATOM     51  H   UNL A   1      44.318  27.590  28.012  1.00  0.00     0.167 HD
ATOM     52  C   UNL A   1      48.526  27.184  26.881  1.00  0.00     0.037 A 
ATOM     53  C   UNL A   1      42.075  29.010  28.866  1.00  0.00     0.037 A 
ATOM     54  C   UNL A   1      48.361  28.582  27.177  1.00  0.00     0.049 A 
ATOM     55  C   UNL A   1      43.198  30.013  28.793  1.00  0.00     0.074 A 
ATOM     56  C   UNL A   1      49.304  29.593  27.123  1.00  0.00     0.029 A 
ATOM     57  N   UNL A   1      47.174  29.164  27.594  1.00  0.00    -0.354 N 
ATOM     58  N   UNL A   1      44.445  29.831  28.431  1.00  0.00    -0.248 NA
ATOM     59  C   UNL A   1      42.875  31.397  29.166  1.00  0.00     0.031 C 
ATOM     60  C   UNL A   1      48.693  30.784  27.535  1.00  0.00     0.029 A 
ATOM     61  C   UNL A   1      47.362  30.519  27.812  1.00  0.00     0.049 A 
ATOM     62  H   UNL A   1      46.323  28.684  27.717  1.00  0.00     0.167 HD
ATOM     63  C   UNL A   1      45.049  31.084  28.506  1.00  0.00     0.074 A 
ATOM     64  C   UNL A   1      44.027  32.014  28.939  1.00  0.00     0.031 C 
ATOM     65  C   UNL A   1      46.333  31.433  28.239  1.00  0.00     0.037 A 
BRANCH  52  66
ATOM     66  C   UNL A   1      49.884  26.690  26.473  1.00  0.00     0.058 A 
ATOM     67  C   UNL A   1      50.274  26.656  25.125  1.00  0.00     0.135 A 
ATOM     68  C   UNL A   1      50.802  26.243  27.435  1.00  0.00     0.135 A 
ATOM     69  F   UNL A   1      49.423  27.051  24.163  1.00  0.00    -0.206 F 
ATOM     70  C   UNL A   1      51.518  26.166  24.741  1.00  0.00     0.059 A 
ATOM     71  C   UNL A   1      52.060  25.768  27.076  1.00  0.00     0.059 A 
ATOM     72  F   UNL A   1      50.473  26.250  28.737  1.00  0.00    -0.206 F 
ATOM     73  C   UNL A   1      52.402  25.718  25.725  1.00  0.00     0.060 A 
BRANCH  73  74
ATOM     74  S   UNL A   1      54.007  25.068  25.216  1.00  0.00     0.124 S 
ATOM     75  O   UNL A   1      54.330  25.941  24.092  1.00  0.00    -0.237 OA
ATOM     76  O   UNL A   1      54.817  25.254  26.416  1.00  0.00    -0.237 OA
ATOM     77  O   UNL A   1      53.715  23.680  24.871  1.00  0.00    -0.744 OA
ENDBRANCH  73  74
ENDBRANCH  52  66
BRANCH  53  78
ATOM     78  C   UNL A   1      40.717  29.431  29.291  1.00  0.00     0.058 A 
ATOM     79  C   UNL A   1      40.426  29.667  30.643  1.00  0.00     0.135 A 
ATOM     80  C   UNL A   1      39.684  29.603  28.359  1.00  0.00     0.135 A 
ATOM     81  F   UNL A   1      41.380  29.508  31.572  1.00  0.00    -0.206 F 
ATOM     82  C   UNL A   1      39.155  30.046  31.058  1.00  0.00     0.059 A 
ATOM     83  C   UNL A   1      38.409  30.005  28.746  1.00  0.00     0.059 A 
ATOM     84  F   UNL A   1      39.917  29.396  27.053  1.00  0.00    -0.206 F 
ATOM     85  C   UNL A   1      38.154  30.218  30.100  1.00  0.00     0.060 A 
BRANCH  85  86
ATOM     86  S   UNL A   1      36.528  30.787  30.642  1.00  0.00     0.124 S 
ATOM     87  O   UNL A   1      36.072  29.656  31.440  1.00  0.00    -0.237 OA
ATOM     88  O   UNL A   1      36.864  31.999  31.384  1.00  0.00    -0.237 OA
ATOM     89  O   UNL A   1      35.817  31.007  29.387  1.00  0.00    -0.744 OA
ENDBRANCH  85  86
ENDBRANCH  53  78
BRANCH  65  90
ATOM     90  C   UNL A   1      46.693  32.885  28.375  1.00  0.00     0.058 A 
ATOM     91  C   UNL A   1      47.195  33.410  29.576  1.00  0.00     0.135 A 
ATOM     92  C   UNL A   1      46.553  33.758  27.285  1.00  0.00     0.135 A 
ATOM     93  F   UNL A   1      47.345  32.619  30.650  1.00  0.00    -0.206 F 
ATOM     94  C   UNL A   1      47.515  34.758  29.701  1.00  0.00     0.059 A 
ATOM     95  C   UNL A   1      46.888  35.105  27.380  1.00  0.00     0.059 A 
ATOM     96  F   UNL A   1      46.090  33.303  26.110  1.00  0.00    -0.206 F 
ATOM     97  C   UNL A   1      47.351  35.600  28.600  1.00  0.00     0.060 A 
BRANCH  97  98
ATOM     98  S   UNL A   1      47.769  37.349  28.765  1.00  0.00     0.124 S 
ATOM     99  O   UNL A   1      46.446  37.964  28.794  1.00  0.00    -0.237 OA
ATOM    100  O   UNL A   1      48.509  37.380  30.023  1.00  0.00    -0.237 OA
ATOM    101  O   UNL A   1      48.564  37.619  27.571  1.00  0.00    -0.744 OA
ENDBRANCH  97  98
ENDBRANCH  65  90
ENDBRANCH  39  40
ENDBRANCH  32  34
ENDBRANCH  31  32
ENDBRANCH  30  31
ENDBRANCH  29  30
ENDBRANCH  28  29
ENDBRANCH  27  28
ENDBRANCH   1  27
TORSDOF 24
ENDMDL
MODEL 2
REMARK VINA RESULT:     -10.0      1.208      2.378
REMARK SMILES Cc1cccc(C(=O)NCc2ccc(C(=O)OCCOCCOCCOC(=O)c3ccc(-c4c5nc(c(-c6c(F)cc(S(=O)(=O)[O-])cc6F)c6ccc([nH]6)c(-c6c(F)cc(S(=O)(=O)[O-])cc6F)c6nc(c(-c7c(F)cc(S(=O)(=O)[O-])cc7F)c7ccc4[nH]7)C=C6)C=C5)cc3)o2)c1O
REMARK SMILES IDX 21 1 20 2 19 3 18 4 17 5 15 6 16 7 14 8 11 9 12 10 95 11
REMARK SMILES IDX 13 12 10 13 9 14 7 15 8 16 6 18 1 19 2 20 3 21 96 22 4 23
REMARK SMILES IDX 5 24 97 25 22 27 23 28 24 29 25 30 26 31 27 32 28 33 29 34
REMARK SMILES IDX 30 35 94 36 31 37 93 38 32 39 33 40 34 41 87 42 35 43 92 44
REMARK SMILES IDX 86 45 88 46 36 47 91 48 85 49 84 50 37 52 71 53 50 54 70 55
REMARK SMILES IDX 51 56 54 57 69 58 89 59 52 60 53 61 68 63 90 64 55 65 38 66
REMARK SMILES IDX 39 67 48 68 40 69 41 70 47 71 49 72 42 73 43 74 44 75 45 76
REMARK SMILES IDX 46 77 72 78 73 79 82 80 74 81 75 82 81 83 83 84 76 85 77 86
REMARK SMILES IDX 78 87 79 88 80 89 56 90 57 91 66 92 58 93 59 94 65 95 67 96
REMARK SMILES IDX 60 97 61 98 62 99 63 100 64 101
REMARK H PARENT 9 17 97 26 88 51 54 62
REMARK Flexibility Score: inf
ROOT
ATOM      1  C   UNL A   1      35.769  21.824  25.421  1.00  0.00     0.188 C 
ENDROOT
BRANCH   1   2
ATOM      2  O   UNL A   1      34.912  21.488  24.337  1.00  0.00    -0.376 OA
BRANCH   2   3
ATOM      3  C   UNL A   1      33.536  21.228  24.586  1.00  0.00     0.202 C 
BRANCH   3   4
ATOM      4  C   UNL A   1      32.923  21.894  25.819  1.00  0.00     0.261 C 
BRANCH   4   5
ATOM      5  O   UNL A   1      31.735  22.636  25.492  1.00  0.00    -0.457 OA
BRANCH   5   6
ATOM      6  C   UNL A   1      31.390  23.628  26.368  1.00  0.00     0.374 C 
ATOM      7  O   UNL A   1      31.555  23.572  27.580  1.00  0.00    -0.242 OA
BRANCH   6   8
ATOM      8  C   UNL A   1      30.918  24.777  25.631  1.00  0.00     0.211 A 
ATOM      9  C   UNL A   1      30.585  25.950  23.789  1.00  0.00     0.124 A 
ATOM     10  C   UNL A   1      29.933  26.622  24.803  1.00  0.00     0.048 A 
ATOM     11  O   UNL A   1      31.194  24.838  24.289  1.00  0.00    -0.452 OA
ATOM     12  C   UNL A   1      30.140  25.867  25.982  1.00  0.00     0.058 A 
BRANCH   9  13
ATOM     13  C   UNL A   1      30.744  26.213  22.333  1.00  0.00     0.191 C 
BRANCH  13  14
ATOM     14  N   UNL A   1      32.123  26.565  22.088  1.00  0.00    -0.345 N 
ATOM     15  C   UNL A   1      33.140  27.233  22.715  1.00  0.00     0.255 C 
ATOM     16  O   UNL A   1      34.148  27.307  22.003  1.00  0.00    -0.269 OA
ATOM     17  H   UNL A   1      32.417  26.225  21.213  1.00  0.00     0.164 HD
BRANCH  15  18
ATOM     18  C   UNL A   1      33.120  27.822  24.107  1.00  0.00     0.081 A 
ATOM     19  C   UNL A   1      31.511  30.827  25.950  1.00  0.00     0.048 C 
ATOM     20  C   UNL A   1      32.323  29.598  25.647  1.00  0.00    -0.008 A 
ATOM     21  C   UNL A   1      33.046  29.011  26.688  1.00  0.00     0.007 A 
ATOM     22  C   UNL A   1      32.373  29.003  24.364  1.00  0.00     0.131 A 
ATOM     23  C   UNL A   1      33.777  27.853  26.463  1.00  0.00     0.001 A 
ATOM     24  C   UNL A   1      33.793  27.256  25.196  1.00  0.00     0.018 A 
BRANCH  22  25
ATOM     25  O   UNL A   1      31.668  29.597  23.345  1.00  0.00    -0.507 OA
ATOM     26  H   UNL A   1      32.009  30.362  22.924  1.00  0.00     0.293 HD
ENDBRANCH  22  25
ENDBRANCH  15  18
ENDBRANCH  13  14
ENDBRANCH   9  13
ENDBRANCH   6   8
ENDBRANCH   5   6
ENDBRANCH   4   5
ENDBRANCH   3   4
ENDBRANCH   2   3
ENDBRANCH   1   2
BRANCH   1  27
ATOM     27  C   UNL A   1      37.286  21.595  25.276  1.00  0.00     0.188 C 
BRANCH  27  28
ATOM     28  O   UNL A   1      38.090  22.403  26.126  1.00  0.00    -0.376 OA
BRANCH  28  29
ATOM     29  C   UNL A   1      39.444  21.990  26.267  1.00  0.00     0.202 C 
BRANCH  29  30
ATOM     30  C   UNL A   1      39.645  20.507  25.944  1.00  0.00     0.261 C 
BRANCH  30  31
ATOM     31  O   UNL A   1      40.593  19.842  26.793  1.00  0.00    -0.460 OA
BRANCH  31  32
ATOM     32  C   UNL A   1      41.840  19.698  26.294  1.00  0.00     0.338 C 
ATOM     33  O   UNL A   1      42.263  18.769  25.628  1.00  0.00    -0.246 OA
BRANCH  32  34
ATOM     34  C   UNL A   1      42.590  20.942  26.547  1.00  0.00     0.060 A 
ATOM     35  C   UNL A   1      42.771  21.352  27.872  1.00  0.00     0.016 A 
ATOM     36  C   UNL A   1      43.070  21.717  25.487  1.00  0.00     0.016 A 
ATOM     37  C   UNL A   1      43.393  22.572  28.138  1.00  0.00     0.010 A 
ATOM     38  C   UNL A   1      43.682  22.943  25.755  1.00  0.00     0.010 A 
ATOM     39  C   UNL A   1      43.809  23.393  27.080  1.00  0.00    -0.014 A 
BRANCH  39  40
ATOM     40  C   UNL A   1      44.194  24.796  27.362  1.00  0.00     0.031 A 
ATOM     41  C   UNL A   1      45.627  25.201  27.156  1.00  0.00     0.074 A 
ATOM     42  C   UNL A   1      43.283  25.702  27.759  1.00  0.00     0.049 A 
ATOM     43  N   UNL A   1      46.179  26.381  27.266  1.00  0.00    -0.248 NA
ATOM     44  C   UNL A   1      46.564  24.131  26.775  1.00  0.00     0.031 C 
ATOM     45  C   UNL A   1      41.868  25.431  28.001  1.00  0.00     0.029 A 
ATOM     46  N   UNL A   1      43.424  27.039  28.026  1.00  0.00    -0.354 N 
ATOM     47  C   UNL A   1      47.522  26.200  26.959  1.00  0.00     0.074 A 
ATOM     48  C   UNL A   1      47.709  24.789  26.694  1.00  0.00     0.031 C 
ATOM     49  C   UNL A   1      41.269  26.573  28.386  1.00  0.00     0.029 A 
ATOM     50  C   UNL A   1      42.257  27.650  28.415  1.00  0.00     0.049 A 
ATOM     51  H   UNL A   1      44.282  27.517  27.948  1.00  0.00     0.167 HD
ATOM     52  C   UNL A   1      48.510  27.123  26.891  1.00  0.00     0.037 A 
ATOM     53  C   UNL A   1      42.017  28.934  28.750  1.00  0.00     0.037 A 
ATOM     54  C   UNL A   1      48.332  28.522  27.169  1.00  0.00     0.049 A 
ATOM     55  C   UNL A   1      43.135  29.942  28.685  1.00  0.00     0.074 A 
ATOM     56  C   UNL A   1      49.271  29.538  27.120  1.00  0.00     0.029 A 
ATOM     57  N   UNL A   1      47.135  29.103  27.560  1.00  0.00    -0.354 N 
ATOM     58  N   UNL A   1      44.390  29.764  28.345  1.00  0.00    -0.248 NA
ATOM     59  C   UNL A   1      42.799  31.328  29.037  1.00  0.00     0.031 C 
ATOM     60  C   UNL A   1      48.646  30.730  27.509  1.00  0.00     0.029 A 
ATOM     61  C   UNL A   1      47.312  30.460  27.766  1.00  0.00     0.049 A 
ATOM     62  H   UNL A   1      46.285  28.620  27.674  1.00  0.00     0.167 HD
ATOM     63  C   UNL A   1      44.985  31.020  28.416  1.00  0.00     0.074 A 
ATOM     64  C   UNL A   1      43.952  31.949  28.822  1.00  0.00     0.031 C 
ATOM     65  C   UNL A   1      46.271  31.373  28.166  1.00  0.00     0.037 A 
BRANCH  52  66
ATOM     66  C   UNL A   1      49.877  26.632  26.510  1.00  0.00     0.058 A 
ATOM     67  C   UNL A   1      50.271  26.537  25.166  1.00  0.00     0.135 A 
ATOM     68  C   UNL A   1      50.799  26.249  27.495  1.00  0.00     0.135 A 
ATOM     69  F   UNL A   1      49.417  26.870  24.185  1.00  0.00    -0.206 F 
ATOM     70  C   UNL A   1      51.524  26.050  24.810  1.00  0.00     0.059 A 
ATOM     71  C   UNL A   1      52.066  25.777  27.163  1.00  0.00     0.059 A 
ATOM     72  F   UNL A   1      50.467  26.314  28.795  1.00  0.00    -0.206 F 
ATOM     73  C   UNL A   1      52.413  25.666  25.816  1.00  0.00     0.060 A 
BRANCH  73  74
ATOM     74  S   UNL A   1      54.029  25.019  25.344  1.00  0.00     0.124 S 
ATOM     75  O   UNL A   1      54.719  24.995  26.630  1.00  0.00    -0.237 OA
ATOM     76  O   UNL A   1      53.694  23.714  24.781  1.00  0.00    -0.237 OA
ATOM     77  O   UNL A   1      54.521  26.003  24.385  1.00  0.00    -0.744 OA
ENDBRANCH  73  74
ENDBRANCH  52  66
BRANCH  53  78
ATOM     78  C   UNL A   1      40.650  29.351  29.149  1.00  0.00     0.058 A 
ATOM     79  C   UNL A   1      40.326  29.566  30.496  1.00  0.00     0.135 A 
ATOM     80  C   UNL A   1      39.641  29.542  28.193  1.00  0.00     0.135 A 
ATOM     81  F   UNL A   1      41.256  29.388  31.446  1.00  0.00    -0.206 F 
ATOM     82  C   UNL A   1      39.046  29.942  30.886  1.00  0.00     0.059 A 
ATOM     83  C   UNL A   1      38.358  29.942  28.555  1.00  0.00     0.059 A 
ATOM     84  F   UNL A   1      39.905  29.357  26.890  1.00  0.00    -0.206 F 
ATOM     85  C   UNL A   1      38.069  30.133  29.906  1.00  0.00     0.060 A 
BRANCH  85  86
ATOM     86  S   UNL A   1      36.432  30.698  30.417  1.00  0.00     0.124 S 
ATOM     87  O   UNL A   1      36.748  31.960  31.073  1.00  0.00    -0.237 OA
ATOM     88  O   UNL A   1      35.734  30.799  29.138  1.00  0.00    -0.237 OA
ATOM     89  O   UNL A   1      35.969  29.625  31.291  1.00  0.00    -0.744 OA
ENDBRANCH  85  86
ENDBRANCH  53  78
BRANCH  65  90
ATOM     90  C   UNL A   1      46.621  32.829  28.293  1.00  0.00     0.058 A 
ATOM     91  C   UNL A   1      46.470  33.719  27.219  1.00  0.00     0.135 A 
ATOM     92  C   UNL A   1      47.092  33.343  29.511  1.00  0.00     0.135 A 
ATOM     93  F   UNL A   1      46.027  33.278  26.032  1.00  0.00    -0.206 F 
ATOM     94  C   UNL A   1      46.808  35.064  27.339  1.00  0.00     0.059 A 
ATOM     95  C   UNL A   1      47.414  34.688  29.661  1.00  0.00     0.059 A 
ATOM     96  F   UNL A   1      47.241  32.536  30.574  1.00  0.00    -0.206 F 
ATOM     97  C   UNL A   1      47.286  35.538  28.561  1.00  0.00     0.060 A 
BRANCH  97  98
ATOM     98  S   UNL A   1      47.720  37.284  28.713  1.00  0.00     0.124 S 
ATOM     99  O   UNL A   1      46.606  37.794  29.508  1.00  0.00    -0.237 OA
ATOM    100  O   UNL A   1      49.011  37.232  29.394  1.00  0.00    -0.237 OA
ATOM    101  O   UNL A   1      47.768  37.742  27.328  1.00  0.00    -0.744 OA
ENDBRANCH  97  98
ENDBRANCH  65  90
ENDBRANCH  39  40
ENDBRANCH  32  34
ENDBRANCH  31  32
ENDBRANCH  30  31
ENDBRANCH  29  30
ENDBRANCH  28  29
ENDBRANCH  27  28
ENDBRANCH   1  27
TORSDOF 24
ENDMDL
MODEL 3
REMARK VINA RESULT:      -9.8      6.309     11.080
REMARK SMILES Cc1cccc(C(=O)NCc2ccc(C(=O)OCCOCCOCCOC(=O)c3ccc(-c4c5nc(c(-c6c(F)cc(S(=O)(=O)[O-])cc6F)c6ccc([nH]6)c(-c6c(F)cc(S(=O)(=O)[O-])cc6F)c6nc(c(-c7c(F)cc(S(=O)(=O)[O-])cc7F)c7ccc4[nH]7)C=C6)C=C5)cc3)o2)c1O
REMARK SMILES IDX 21 1 20 2 19 3 18 4 17 5 15 6 16 7 14 8 11 9 12 10 95 11
REMARK SMILES IDX 13 12 10 13 9 14 7 15 8 16 6 18 1 19 2 20 3 21 96 22 4 23
REMARK SMILES IDX 5 24 97 25 22 27 23 28 24 29 25 30 26 31 27 32 28 33 29 34
REMARK SMILES IDX 30 35 94 36 31 37 93 38 32 39 33 40 34 41 87 42 35 43 92 44
REMARK SMILES IDX 86 45 88 46 36 47 91 48 85 49 84 50 37 52 71 53 50 54 70 55
REMARK SMILES IDX 51 56 54 57 69 58 89 59 52 60 53 61 68 63 90 64 55 65 38 66
REMARK SMILES IDX 39 67 48 68 40 69 41 70 47 71 49 72 42 73 43 74 44 75 45 76
REMARK SMILES IDX 46 77 72 78 73 79 82 80 74 81 75 82 81 83 83 84 76 85 77 86
REMARK SMILES IDX 78 87 79 88 80 89 56 90 57 91 66 92 58 93 59 94 65 95 67 96
REMARK SMILES IDX 60 97 61 98 62 99 63 100 64 101
REMARK H PARENT 9 17 97 26 88 51 54 62
REMARK Flexibility Score: inf
ROOT
ATOM      1  C   UNL A   1      41.582  19.911  26.890  1.00  0.00     0.188 C 
ENDROOT
BRANCH   1   2
ATOM      2  O   UNL A   1      42.813  19.988  26.180  1.00  0.00    -0.376 OA
BRANCH   2   3
ATOM      3  C   UNL A   1      43.421  18.796  25.700  1.00  0.00     0.202 C 
BRANCH   3   4
ATOM      4  C   UNL A   1      44.347  18.934  24.490  1.00  0.00     0.261 C 
BRANCH   4   5
ATOM      5  O   UNL A   1      44.606  20.311  24.169  1.00  0.00    -0.457 OA
BRANCH   5   6
ATOM      6  C   UNL A   1      45.728  20.855  24.730  1.00  0.00     0.374 C 
ATOM      7  O   UNL A   1      46.761  20.236  24.956  1.00  0.00    -0.242 OA
BRANCH   6   8
ATOM      8  C   UNL A   1      45.540  22.277  24.900  1.00  0.00     0.211 A 
ATOM      9  C   UNL A   1      46.136  24.285  25.599  1.00  0.00     0.124 A 
ATOM     10  C   UNL A   1      44.995  24.458  24.843  1.00  0.00     0.048 A 
ATOM     11  O   UNL A   1      46.462  22.963  25.646  1.00  0.00    -0.452 OA
ATOM     12  C   UNL A   1      44.615  23.172  24.389  1.00  0.00     0.058 A 
BRANCH   9  13
ATOM     13  C   UNL A   1      47.017  25.229  26.338  1.00  0.00     0.191 C 
BRANCH  13  14
ATOM     14  N   UNL A   1      46.725  26.567  25.882  1.00  0.00    -0.345 N 
ATOM     15  C   UNL A   1      47.272  27.514  25.058  1.00  0.00     0.255 C 
ATOM     16  O   UNL A   1      46.623  28.566  25.074  1.00  0.00    -0.269 OA
ATOM     17  H   UNL A   1      45.888  26.896  26.282  1.00  0.00     0.164 HD
BRANCH  15  18
ATOM     18  C   UNL A   1      48.501  27.366  24.190  1.00  0.00     0.081 A 
ATOM     19  C   UNL A   1      49.435  27.609  20.437  1.00  0.00     0.048 C 
ATOM     20  C   UNL A   1      49.515  27.402  21.925  1.00  0.00    -0.008 A 
ATOM     21  C   UNL A   1      50.755  27.082  22.481  1.00  0.00     0.007 A 
ATOM     22  C   UNL A   1      48.397  27.534  22.783  1.00  0.00     0.131 A 
ATOM     23  C   UNL A   1      50.883  26.921  23.854  1.00  0.00     0.001 A 
ATOM     24  C   UNL A   1      49.776  27.085  24.696  1.00  0.00     0.018 A 
BRANCH  22  25
ATOM     25  O   UNL A   1      47.180  27.835  22.222  1.00  0.00    -0.507 OA
ATOM     26  H   UNL A   1      47.090  27.870  21.290  1.00  0.00     0.293 HD
ENDBRANCH  22  25
ENDBRANCH  15  18
ENDBRANCH  13  14
ENDBRANCH   9  13
ENDBRANCH   6   8
ENDBRANCH   5   6
ENDBRANCH   4   5
ENDBRANCH   3   4
ENDBRANCH   2   3
ENDBRANCH   1   2
BRANCH   1  27
ATOM     27  C   UNL A   1      40.264  20.155  26.131  1.00  0.00     0.188 C 
BRANCH  27  28
ATOM     28  O   UNL A   1      39.522  21.282  26.582  1.00  0.00    -0.376 OA
BRANCH  28  29
ATOM     29  C   UNL A   1      40.294  22.365  27.085  1.00  0.00     0.202 C 
BRANCH  29  30
ATOM     30  C   UNL A   1      41.012  23.143  25.978  1.00  0.00     0.261 C 
BRANCH  30  31
ATOM     31  O   UNL A   1      41.932  24.136  26.457  1.00  0.00    -0.460 OA
BRANCH  31  32
ATOM     32  C   UNL A   1      41.600  25.422  26.212  1.00  0.00     0.338 C 
ATOM     33  O   UNL A   1      41.265  25.904  25.144  1.00  0.00    -0.246 OA
BRANCH  32  34
ATOM     34  C   UNL A   1      41.548  26.143  27.497  1.00  0.00     0.060 A 
ATOM     35  C   UNL A   1      40.486  25.875  28.368  1.00  0.00     0.016 A 
ATOM     36  C   UNL A   1      42.511  27.105  27.817  1.00  0.00     0.016 A 
ATOM     37  C   UNL A   1      40.358  26.610  29.545  1.00  0.00     0.010 A 
ATOM     38  C   UNL A   1      42.374  27.847  28.992  1.00  0.00     0.010 A 
ATOM     39  C   UNL A   1      41.275  27.630  29.840  1.00  0.00    -0.014 A 
BRANCH  39  40
ATOM     40  C   UNL A   1      40.966  28.587  30.928  1.00  0.00     0.031 A 
ATOM     41  C   UNL A   1      41.790  28.534  32.185  1.00  0.00     0.074 A 
ATOM     42  C   UNL A   1      39.998  29.511  30.790  1.00  0.00     0.049 A 
ATOM     43  N   UNL A   1      41.752  29.312  33.235  1.00  0.00    -0.248 NA
ATOM     44  C   UNL A   1      42.789  27.455  32.270  1.00  0.00     0.031 C 
ATOM     45  C   UNL A   1      39.128  29.659  29.626  1.00  0.00     0.029 A 
ATOM     46  N   UNL A   1      39.591  30.500  31.648  1.00  0.00    -0.354 N 
ATOM     47  C   UNL A   1      42.727  28.827  34.099  1.00  0.00     0.074 A 
ATOM     48  C   UNL A   1      43.313  27.664  33.467  1.00  0.00     0.031 C 
ATOM     49  C   UNL A   1      38.283  30.684  29.846  1.00  0.00     0.029 A 
ATOM     50  C   UNL A   1      38.556  31.260  31.162  1.00  0.00     0.049 A 
ATOM     51  H   UNL A   1      40.001  30.651  32.531  1.00  0.00     0.167 HD
ATOM     52  C   UNL A   1      43.110  29.310  35.304  1.00  0.00     0.037 A 
ATOM     53  C   UNL A   1      37.908  32.304  31.716  1.00  0.00     0.037 A 
ATOM     54  C   UNL A   1      42.519  30.455  35.943  1.00  0.00     0.049 A 
ATOM     55  C   UNL A   1      38.338  32.815  33.067  1.00  0.00     0.074 A 
ATOM     56  C   UNL A   1      42.844  31.027  37.161  1.00  0.00     0.029 A 
ATOM     57  N   UNL A   1      41.473  31.199  35.419  1.00  0.00    -0.354 N 
ATOM     58  N   UNL A   1      39.295  32.376  33.850  1.00  0.00    -0.248 NA
ATOM     59  C   UNL A   1      37.608  33.972  33.601  1.00  0.00     0.031 C 
ATOM     60  C   UNL A   1      41.973  32.101  37.386  1.00  0.00     0.029 A 
ATOM     61  C   UNL A   1      41.131  32.217  36.292  1.00  0.00     0.049 A 
ATOM     62  H   UNL A   1      41.037  31.027  34.552  1.00  0.00     0.167 HD
ATOM     63  C   UNL A   1      39.298  33.220  34.957  1.00  0.00     0.074 A 
ATOM     64  C   UNL A   1      38.255  34.200  34.736  1.00  0.00     0.031 C 
ATOM     65  C   UNL A   1      40.093  33.188  36.056  1.00  0.00     0.037 A 
BRANCH  52  66
ATOM     66  C   UNL A   1      44.217  28.582  36.010  1.00  0.00     0.058 A 
ATOM     67  C   UNL A   1      43.952  27.487  36.849  1.00  0.00     0.135 A 
ATOM     68  C   UNL A   1      45.552  28.983  35.853  1.00  0.00     0.135 A 
ATOM     69  F   UNL A   1      42.688  27.079  37.051  1.00  0.00    -0.206 F 
ATOM     70  C   UNL A   1      44.972  26.833  37.532  1.00  0.00     0.059 A 
ATOM     71  C   UNL A   1      46.590  28.330  36.510  1.00  0.00     0.059 A 
ATOM     72  F   UNL A   1      45.855  30.029  35.067  1.00  0.00    -0.206 F 
ATOM     73  C   UNL A   1      46.288  27.267  37.361  1.00  0.00     0.060 A 
BRANCH  73  74
ATOM     74  S   UNL A   1      47.602  26.423  38.264  1.00  0.00     0.124 S 
ATOM     75  O   UNL A   1      46.869  25.323  38.883  1.00  0.00    -0.237 OA
ATOM     76  O   UNL A   1      48.527  26.048  37.199  1.00  0.00    -0.237 OA
ATOM     77  O   UNL A   1      48.092  27.447  39.182  1.00  0.00    -0.744 OA
ENDBRANCH  73  74
ENDBRANCH  52  66
BRANCH  53  78
ATOM     78  C   UNL A   1      36.800  32.963  30.981  1.00  0.00     0.058 A 
ATOM     79  C   UNL A   1      35.464  32.622  31.235  1.00  0.00     0.135 A 
ATOM     80  C   UNL A   1      37.053  33.942  30.010  1.00  0.00     0.135 A 
ATOM     81  F   UNL A   1      35.173  31.684  32.149  1.00  0.00    -0.206 F 
ATOM     82  C   UNL A   1      34.416  33.218  30.543  1.00  0.00     0.059 A 
ATOM     83  C   UNL A   1      36.021  34.573  29.321  1.00  0.00     0.059 A 
ATOM     84  F   UNL A   1      38.316  34.308  29.738  1.00  0.00    -0.206 F 
ATOM     85  C   UNL A   1      34.706  34.198  29.591  1.00  0.00     0.060 A 
BRANCH  85  86
ATOM     86  S   UNL A   1      33.334  35.023  28.755  1.00  0.00     0.124 S 
ATOM     87  O   UNL A   1      32.720  33.914  28.034  1.00  0.00    -0.237 OA
ATOM     88  O   UNL A   1      32.570  35.554  29.880  1.00  0.00    -0.237 OA
ATOM     89  O   UNL A   1      34.000  36.025  27.931  1.00  0.00    -0.744 OA
ENDBRANCH  85  86
ENDBRANCH  53  78
BRANCH  65  90
ATOM     90  C   UNL A   1      39.887  34.264  37.085  1.00  0.00     0.058 A 
ATOM     91  C   UNL A   1      38.995  34.098  38.155  1.00  0.00     0.135 A 
ATOM     92  C   UNL A   1      40.607  35.466  37.010  1.00  0.00     0.135 A 
ATOM     93  F   UNL A   1      38.280  32.969  38.271  1.00  0.00    -0.206 F 
ATOM     94  C   UNL A   1      38.798  35.103  39.098  1.00  0.00     0.059 A 
ATOM     95  C   UNL A   1      40.444  36.475  37.954  1.00  0.00     0.059 A 
ATOM     96  F   UNL A   1      41.484  35.670  36.013  1.00  0.00    -0.206 F 
ATOM     97  C   UNL A   1      39.522  36.291  38.985  1.00  0.00     0.060 A 
BRANCH  97  98
ATOM     98  S   UNL A   1      39.266  37.591  40.212  1.00  0.00     0.124 S 
ATOM     99  O   UNL A   1      38.918  36.811  41.396  1.00  0.00    -0.237 OA
ATOM    100  O   UNL A   1      40.568  38.252  40.250  1.00  0.00    -0.237 OA
ATOM    101  O   UNL A   1      38.184  38.386  39.640  1.00  0.00    -0.744 OA
ENDBRANCH  97  98
ENDBRANCH  65  90
ENDBRANCH  39  40
ENDBRANCH  32  34
ENDBRANCH  31  32
ENDBRANCH  30  31
ENDBRANCH  29  30
ENDBRANCH  28  29
ENDBRANCH  27  28
ENDBRANCH   1  27
TORSDOF 24
ENDMDL
