MODEL 1
REMARK VINA RESULT:     -11.5      0.000      0.000
REMARK SMILES Cc1ccc(C(=O)N2C[C@H](C(=O)OCCOCCOCCOC(=O)c3ccc(-c4c5nc(c(-c6c(F)cc(S(=O)(=O)[O-])cc6F)c6ccc([nH]6)c(-c6c(F)cc(S(=O)(=O)[O-])cc6F)c6nc(c(-c7c(F)cc(S(=O)(=O)[O-])cc7F)c7ccc4[nH]7)C=C6)C=C5)cc3)Oc3ccccc32)o1
REMARK SMILES IDX 18 1 17 2 16 3 15 4 14 5 13 6 11 7 12 8 10 9 8 10 9 11 97 12
REMARK SMILES IDX 92 13 96 14 91 15 93 16 95 17 94 18 6 19 7 20 5 21 1 22 2 23
REMARK SMILES IDX 3 24 98 25 4 26 19 27 20 28 21 29 22 30 23 31 24 32 25 33
REMARK SMILES IDX 26 34 90 35 27 36 89 37 28 38 29 39 30 40 83 41 31 42 88 43
REMARK SMILES IDX 82 44 84 45 32 46 87 47 81 48 80 49 33 51 67 52 46 53 66 54
REMARK SMILES IDX 47 55 50 56 65 57 85 58 48 59 49 60 64 62 86 63 51 64 34 65
REMARK SMILES IDX 35 66 44 67 36 68 37 69 43 70 45 71 38 72 39 73 40 74 41 75
REMARK SMILES IDX 42 76 68 77 69 78 78 79 70 80 71 81 77 82 79 83 72 84 73 85
REMARK SMILES IDX 74 86 75 87 76 88 52 89 53 90 62 91 54 92 55 93 61 94 63 95
REMARK SMILES IDX 56 96 57 97 58 98 59 99 60 100
REMARK H PARENT 84 50 50 61
REMARK Flexibility Score: inf
ROOT
ATOM      1  C   UNL A   1      34.003  29.909  26.869  1.00  0.00     0.188 C 
ENDROOT
BRANCH   1   2
ATOM      2  C   UNL A   1      32.895  29.615  25.857  1.00  0.00     0.188 C 
BRANCH   2   3
ATOM      3  O   UNL A   1      32.686  28.243  25.546  1.00  0.00    -0.376 OA
BRANCH   3   4
ATOM      4  C   UNL A   1      32.716  27.875  24.170  1.00  0.00     0.202 C 
BRANCH   4   5
ATOM      5  C   UNL A   1      32.511  26.385  23.844  1.00  0.00     0.261 C 
BRANCH   5   6
ATOM      6  O   UNL A   1      32.182  26.091  22.466  1.00  0.00    -0.460 OA
BRANCH   6   7
ATOM      7  C   UNL A   1      32.885  25.062  21.919  1.00  0.00     0.349 C 
ATOM      8  O   UNL A   1      33.246  25.035  20.743  1.00  0.00    -0.248 OA
BRANCH   7   9
ATOM      9  C   UNL A   1      33.196  23.917  22.867  1.00  0.00     0.302 C 
ATOM     10  N   UNL A   1      33.157  21.592  23.655  1.00  0.00    -0.298 N 
ATOM     11  C   UNL A   1      32.636  22.516  22.614  1.00  0.00     0.183 C 
ATOM     12  C   UNL A   1      34.516  21.822  24.053  1.00  0.00     0.087 A 
ATOM     13  C   UNL A   1      35.199  22.952  23.586  1.00  0.00     0.144 A 
ATOM     14  C   UNL A   1      35.223  20.912  24.851  1.00  0.00     0.030 A 
ATOM     15  O   UNL A   1      34.632  23.906  22.792  1.00  0.00    -0.475 OA
ATOM     16  C   UNL A   1      36.541  23.173  23.897  1.00  0.00     0.049 A 
ATOM     17  C   UNL A   1      36.572  21.126  25.158  1.00  0.00     0.002 A 
ATOM     18  C   UNL A   1      37.231  22.257  24.683  1.00  0.00     0.004 A 
BRANCH  10  19
ATOM     19  C   UNL A   1      32.347  20.722  24.401  1.00  0.00     0.294 C 
ATOM     20  O   UNL A   1      31.651  21.156  25.322  1.00  0.00    -0.265 OA
BRANCH  19  21
ATOM     21  C   UNL A   1      32.442  19.297  24.130  1.00  0.00     0.192 A 
ATOM     22  C   UNL A   1      32.682  16.144  25.834  1.00  0.00     0.087 C 
ATOM     23  C   UNL A   1      32.639  17.190  24.791  1.00  0.00     0.101 A 
ATOM     24  C   UNL A   1      32.824  17.188  23.427  1.00  0.00     0.046 A 
ATOM     25  O   UNL A   1      32.390  18.456  25.218  1.00  0.00    -0.456 OA
ATOM     26  C   UNL A   1      32.701  18.538  23.003  1.00  0.00     0.056 A 
ENDBRANCH  19  21
ENDBRANCH  10  19
ENDBRANCH   7   9
ENDBRANCH   6   7
ENDBRANCH   5   6
ENDBRANCH   4   5
ENDBRANCH   3   4
ENDBRANCH   2   3
ENDBRANCH   1   2
BRANCH   1  27
ATOM     27  O   UNL A   1      33.684  30.907  27.830  1.00  0.00    -0.376 OA
BRANCH  27  28
ATOM     28  C   UNL A   1      34.669  31.908  28.100  1.00  0.00     0.202 C 
BRANCH  28  29
ATOM     29  C   UNL A   1      34.894  32.335  29.567  1.00  0.00     0.261 C 
BRANCH  29  30
ATOM     30  O   UNL A   1      35.823  31.528  30.321  1.00  0.00    -0.460 OA
BRANCH  30  31
ATOM     31  C   UNL A   1      36.999  32.094  30.679  1.00  0.00     0.338 C 
ATOM     32  O   UNL A   1      37.139  33.018  31.463  1.00  0.00    -0.246 OA
BRANCH  31  33
ATOM     33  C   UNL A   1      38.112  31.232  30.187  1.00  0.00     0.060 A 
ATOM     34  C   UNL A   1      39.073  30.807  31.118  1.00  0.00     0.016 A 
ATOM     35  C   UNL A   1      38.184  30.779  28.865  1.00  0.00     0.016 A 
ATOM     36  C   UNL A   1      40.135  29.992  30.717  1.00  0.00     0.010 A 
ATOM     37  C   UNL A   1      39.257  29.974  28.459  1.00  0.00     0.010 A 
ATOM     38  C   UNL A   1      40.267  29.620  29.373  1.00  0.00    -0.014 A 
BRANCH  38  39
ATOM     39  C   UNL A   1      41.584  29.128  28.885  1.00  0.00     0.031 A 
ATOM     40  C   UNL A   1      42.724  30.116  28.851  1.00  0.00     0.074 A 
ATOM     41  C   UNL A   1      41.801  27.845  28.538  1.00  0.00     0.049 A 
ATOM     42  N   UNL A   1      43.966  29.945  28.478  1.00  0.00    -0.248 NA
ATOM     43  C   UNL A   1      42.416  31.484  29.300  1.00  0.00     0.031 C 
ATOM     44  C   UNL A   1      40.807  26.776  28.565  1.00  0.00     0.029 A 
ATOM     45  N   UNL A   1      42.947  27.226  28.096  1.00  0.00    -0.354 N 
ATOM     46  C   UNL A   1      44.583  31.180  28.647  1.00  0.00     0.074 A 
ATOM     47  C   UNL A   1      43.571  32.101  29.114  1.00  0.00     0.031 C 
ATOM     48  C   UNL A   1      41.384  25.633  28.150  1.00  0.00     0.029 A 
ATOM     49  C   UNL A   1      42.783  25.892  27.807  1.00  0.00     0.049 A 
ATOM     50  H   UNL A   1      43.806  27.696  27.995  1.00  0.00     0.167 HD
ATOM     51  C   UNL A   1      45.878  31.520  28.449  1.00  0.00     0.037 A 
ATOM     52  C   UNL A   1      43.658  24.989  27.314  1.00  0.00     0.037 A 
ATOM     53  C   UNL A   1      46.891  30.608  27.989  1.00  0.00     0.049 A 
ATOM     54  C   UNL A   1      45.083  25.406  27.034  1.00  0.00     0.074 A 
ATOM     55  C   UNL A   1      48.233  30.859  27.764  1.00  0.00     0.029 A 
ATOM     56  N   UNL A   1      46.675  29.274  27.678  1.00  0.00    -0.354 N 
ATOM     57  N   UNL A   1      45.657  26.573  27.214  1.00  0.00    -0.248 NA
ATOM     58  C   UNL A   1      45.985  24.378  26.490  1.00  0.00     0.031 C 
ATOM     59  C   UNL A   1      48.818  29.690  27.267  1.00  0.00     0.029 A 
ATOM     60  C   UNL A   1      47.854  28.695  27.242  1.00  0.00     0.049 A 
ATOM     61  H   UNL A   1      45.811  28.809  27.757  1.00  0.00     0.167 HD
ATOM     62  C   UNL A   1      46.990  26.407  26.844  1.00  0.00     0.074 A 
ATOM     63  C   UNL A   1      47.139  25.028  26.433  1.00  0.00     0.031 C 
ATOM     64  C   UNL A   1      47.999  27.314  26.850  1.00  0.00     0.037 A 
BRANCH  51  65
ATOM     65  C   UNL A   1      46.265  32.950  28.703  1.00  0.00     0.058 A 
ATOM     66  C   UNL A   1      46.675  33.394  29.971  1.00  0.00     0.135 A 
ATOM     67  C   UNL A   1      46.239  33.887  27.658  1.00  0.00     0.135 A 
ATOM     68  F   UNL A   1      46.693  32.545  31.012  1.00  0.00    -0.206 F 
ATOM     69  C   UNL A   1      47.020  34.722  30.200  1.00  0.00     0.059 A 
ATOM     70  C   UNL A   1      46.609  35.213  27.857  1.00  0.00     0.059 A 
ATOM     71  F   UNL A   1      45.849  33.518  26.428  1.00  0.00    -0.206 F 
ATOM     72  C   UNL A   1      46.983  35.624  29.136  1.00  0.00     0.060 A 
BRANCH  72  73
ATOM     73  S   UNL A   1      47.432  37.344  29.449  1.00  0.00     0.124 S 
ATOM     74  O   UNL A   1      47.239  37.939  28.130  1.00  0.00    -0.237 OA
ATOM     75  O   UNL A   1      46.466  37.738  30.470  1.00  0.00    -0.237 OA
ATOM     76  O   UNL A   1      48.817  37.257  29.901  1.00  0.00    -0.744 OA
ENDBRANCH  72  73
ENDBRANCH  51  65
BRANCH  52  77
ATOM     77  C   UNL A   1      43.218  23.593  27.037  1.00  0.00     0.058 A 
ATOM     78  C   UNL A   1      43.063  22.655  28.071  1.00  0.00     0.135 A 
ATOM     79  C   UNL A   1      42.970  23.158  25.725  1.00  0.00     0.135 A 
ATOM     80  F   UNL A   1      43.307  23.012  29.340  1.00  0.00    -0.206 F 
ATOM     81  C   UNL A   1      42.696  21.336  27.814  1.00  0.00     0.059 A 
ATOM     82  C   UNL A   1      42.575  21.853  25.446  1.00  0.00     0.059 A 
ATOM     83  F   UNL A   1      43.101  24.012  24.698  1.00  0.00    -0.206 F 
ATOM     84  C   UNL A   1      42.451  20.946  26.497  1.00  0.00     0.060 A 
BRANCH  84  85
ATOM     85  S   UNL A   1      41.936  19.244  26.177  1.00  0.00     0.124 S 
ATOM     86  O   UNL A   1      40.501  19.405  25.969  1.00  0.00    -0.237 OA
ATOM     87  O   UNL A   1      42.718  18.903  24.993  1.00  0.00    -0.237 OA
ATOM     88  O   UNL A   1      42.320  18.541  27.397  1.00  0.00    -0.744 OA
ENDBRANCH  84  85
ENDBRANCH  52  77
BRANCH  64  89
ATOM     89  C   UNL A   1      49.375  26.844  26.455  1.00  0.00     0.058 A 
ATOM     90  C   UNL A   1      50.237  26.211  27.364  1.00  0.00     0.135 A 
ATOM     91  C   UNL A   1      49.811  26.975  25.125  1.00  0.00     0.135 A 
ATOM     92  F   UNL A   1      49.873  26.058  28.647  1.00  0.00    -0.206 F 
ATOM     93  C   UNL A   1      51.493  25.751  26.975  1.00  0.00     0.059 A 
ATOM     94  C   UNL A   1      51.049  26.495  24.708  1.00  0.00     0.059 A 
ATOM     95  F   UNL A   1      49.022  27.559  24.209  1.00  0.00    -0.206 F 
ATOM     96  C   UNL A   1      51.889  25.895  25.644  1.00  0.00     0.060 A 
BRANCH  96  97
ATOM     97  S   UNL A   1      53.507  25.266  25.147  1.00  0.00     0.124 S 
ATOM     98  O   UNL A   1      53.334  23.829  25.332  1.00  0.00    -0.237 OA
ATOM     99  O   UNL A   1      53.606  25.718  23.762  1.00  0.00    -0.237 OA
ATOM    100  O   UNL A   1      54.426  25.913  26.077  1.00  0.00    -0.744 OA
ENDBRANCH  96  97
ENDBRANCH  64  89
ENDBRANCH  38  39
ENDBRANCH  31  33
ENDBRANCH  30  31
ENDBRANCH  29  30
ENDBRANCH  28  29
ENDBRANCH  27  28
ENDBRANCH   1  27
TORSDOF 22
ENDMDL
MODEL 2
REMARK VINA RESULT:     -11.1      2.366      3.140
REMARK SMILES Cc1ccc(C(=O)N2C[C@H](C(=O)OCCOCCOCCOC(=O)c3ccc(-c4c5nc(c(-c6c(F)cc(S(=O)(=O)[O-])cc6F)c6ccc([nH]6)c(-c6c(F)cc(S(=O)(=O)[O-])cc6F)c6nc(c(-c7c(F)cc(S(=O)(=O)[O-])cc7F)c7ccc4[nH]7)C=C6)C=C5)cc3)Oc3ccccc32)o1
REMARK SMILES IDX 18 1 17 2 16 3 15 4 14 5 13 6 11 7 12 8 10 9 8 10 9 11 97 12
REMARK SMILES IDX 92 13 96 14 91 15 93 16 95 17 94 18 6 19 7 20 5 21 1 22 2 23
REMARK SMILES IDX 3 24 98 25 4 26 19 27 20 28 21 29 22 30 23 31 24 32 25 33
REMARK SMILES IDX 26 34 90 35 27 36 89 37 28 38 29 39 30 40 83 41 31 42 88 43
REMARK SMILES IDX 82 44 84 45 32 46 87 47 81 48 80 49 33 51 67 52 46 53 66 54
REMARK SMILES IDX 47 55 50 56 65 57 85 58 48 59 49 60 64 62 86 63 51 64 34 65
REMARK SMILES IDX 35 66 44 67 36 68 37 69 43 70 45 71 38 72 39 73 40 74 41 75
REMARK SMILES IDX 42 76 68 77 69 78 78 79 70 80 71 81 77 82 79 83 72 84 73 85
REMARK SMILES IDX 74 86 75 87 76 88 52 89 53 90 62 91 54 92 55 93 61 94 63 95
REMARK SMILES IDX 56 96 57 97 58 98 59 99 60 100
REMARK H PARENT 84 50 50 61
REMARK Flexibility Score: inf
ROOT
ATOM      1  C   UNL A   1      31.655  27.651  26.300  1.00  0.00     0.188 C 
ENDROOT
BRANCH   1   2
ATOM      2  C   UNL A   1      31.193  28.068  24.903  1.00  0.00     0.188 C 
BRANCH   2   3
ATOM      3  O   UNL A   1      32.138  28.795  24.128  1.00  0.00    -0.376 OA
BRANCH   3   4
ATOM      4  C   UNL A   1      33.248  28.071  23.604  1.00  0.00     0.202 C 
BRANCH   4   5
ATOM      5  C   UNL A   1      33.065  27.424  22.221  1.00  0.00     0.261 C 
BRANCH   5   6
ATOM      6  O   UNL A   1      32.258  26.223  22.199  1.00  0.00    -0.460 OA
BRANCH   6   7
ATOM      7  C   UNL A   1      32.881  25.128  21.684  1.00  0.00     0.349 C 
ATOM      8  O   UNL A   1      33.171  25.008  20.494  1.00  0.00    -0.248 OA
BRANCH   7   9
ATOM      9  C   UNL A   1      33.194  24.031  22.687  1.00  0.00     0.302 C 
ATOM     10  N   UNL A   1      33.151  21.749  23.592  1.00  0.00    -0.298 N 
ATOM     11  C   UNL A   1      32.627  22.621  22.508  1.00  0.00     0.183 C 
ATOM     12  C   UNL A   1      34.514  21.994  23.969  1.00  0.00     0.087 A 
ATOM     13  C   UNL A   1      35.198  23.096  23.442  1.00  0.00     0.144 A 
ATOM     14  C   UNL A   1      35.222  21.122  24.808  1.00  0.00     0.030 A 
ATOM     15  O   UNL A   1      34.629  24.011  22.604  1.00  0.00    -0.475 OA
ATOM     16  C   UNL A   1      36.542  23.327  23.733  1.00  0.00     0.049 A 
ATOM     17  C   UNL A   1      36.574  21.346  25.095  1.00  0.00     0.002 A 
ATOM     18  C   UNL A   1      37.233  22.449  24.559  1.00  0.00     0.004 A 
BRANCH  10  19
ATOM     19  C   UNL A   1      32.342  20.921  24.385  1.00  0.00     0.294 C 
ATOM     20  O   UNL A   1      31.700  21.395  25.326  1.00  0.00    -0.265 OA
BRANCH  19  21
ATOM     21  C   UNL A   1      32.377  19.489  24.138  1.00  0.00     0.192 A 
ATOM     22  C   UNL A   1      32.710  16.364  25.878  1.00  0.00     0.087 C 
ATOM     23  C   UNL A   1      32.589  17.391  24.822  1.00  0.00     0.101 A 
ATOM     24  C   UNL A   1      32.639  17.358  23.447  1.00  0.00     0.046 A 
ATOM     25  O   UNL A   1      32.414  18.671  25.243  1.00  0.00    -0.456 OA
ATOM     26  C   UNL A   1      32.507  18.702  23.007  1.00  0.00     0.056 A 
ENDBRANCH  19  21
ENDBRANCH  10  19
ENDBRANCH   7   9
ENDBRANCH   6   7
ENDBRANCH   5   6
ENDBRANCH   4   5
ENDBRANCH   3   4
ENDBRANCH   2   3
ENDBRANCH   1   2
BRANCH   1  27
ATOM     27  O   UNL A   1      31.820  28.723  27.218  1.00  0.00    -0.376 OA
BRANCH  27  28
ATOM     28  C   UNL A   1      33.111  29.333  27.301  1.00  0.00     0.202 C 
BRANCH  28  29
ATOM     29  C   UNL A   1      33.190  30.875  27.333  1.00  0.00     0.261 C 
BRANCH  29  30
ATOM     30  O   UNL A   1      34.513  31.434  27.466  1.00  0.00    -0.460 OA
BRANCH  30  31
ATOM     31  C   UNL A   1      35.041  31.511  28.711  1.00  0.00     0.338 C 
ATOM     32  O   UNL A   1      34.475  31.943  29.701  1.00  0.00    -0.246 OA
BRANCH  31  33
ATOM     33  C   UNL A   1      36.310  30.728  28.740  1.00  0.00     0.060 A 
ATOM     34  C   UNL A   1      36.778  30.286  29.987  1.00  0.00     0.016 A 
ATOM     35  C   UNL A   1      36.994  30.363  27.575  1.00  0.00     0.016 A 
ATOM     36  C   UNL A   1      37.958  29.543  30.076  1.00  0.00     0.010 A 
ATOM     37  C   UNL A   1      38.185  29.630  27.666  1.00  0.00     0.010 A 
ATOM     38  C   UNL A   1      38.701  29.261  28.922  1.00  0.00    -0.014 A 
BRANCH  38  39
ATOM     39  C   UNL A   1      40.126  28.856  29.061  1.00  0.00     0.031 A 
ATOM     40  C   UNL A   1      41.079  29.864  29.656  1.00  0.00     0.074 A 
ATOM     41  C   UNL A   1      40.570  27.627  28.737  1.00  0.00     0.049 A 
ATOM     42  N   UNL A   1      42.362  29.763  29.891  1.00  0.00    -0.248 NA
ATOM     43  C   UNL A   1      40.501  31.164  30.036  1.00  0.00     0.031 C 
ATOM     44  C   UNL A   1      39.756  26.543  28.196  1.00  0.00     0.029 A 
ATOM     45  N   UNL A   1      41.832  27.087  28.825  1.00  0.00    -0.354 N 
ATOM     46  C   UNL A   1      42.740  30.981  30.444  1.00  0.00     0.074 A 
ATOM     47  C   UNL A   1      41.564  31.821  30.469  1.00  0.00     0.031 C 
ATOM     48  C   UNL A   1      40.540  25.467  27.994  1.00  0.00     0.029 A 
ATOM     49  C   UNL A   1      41.917  25.792  28.369  1.00  0.00     0.049 A 
ATOM     50  H   UNL A   1      42.605  27.583  29.180  1.00  0.00     0.167 HD
ATOM     51  C   UNL A   1      43.953  31.368  30.905  1.00  0.00     0.037 A 
ATOM     52  C   UNL A   1      42.983  24.971  28.258  1.00  0.00     0.037 A 
ATOM     53  C   UNL A   1      45.126  30.536  30.887  1.00  0.00     0.049 A 
ATOM     54  C   UNL A   1      44.343  25.446  28.716  1.00  0.00     0.074 A 
ATOM     55  C   UNL A   1      46.398  30.838  31.339  1.00  0.00     0.029 A 
ATOM     56  N   UNL A   1      45.174  29.244  30.388  1.00  0.00    -0.354 N 
ATOM     57  N   UNL A   1      44.682  26.596  29.252  1.00  0.00    -0.248 NA
ATOM     58  C   UNL A   1      45.465  24.507  28.561  1.00  0.00     0.031 C 
ATOM     59  C   UNL A   1      47.229  29.748  31.065  1.00  0.00     0.029 A 
ATOM     60  C   UNL A   1      46.460  28.743  30.501  1.00  0.00     0.049 A 
ATOM     61  H   UNL A   1      44.407  28.755  30.011  1.00  0.00     0.167 HD
ATOM     62  C   UNL A   1      46.044  26.501  29.532  1.00  0.00     0.074 A 
ATOM     63  C   UNL A   1      46.465  25.182  29.111  1.00  0.00     0.031 C 
ATOM     64  C   UNL A   1      46.869  27.420  30.094  1.00  0.00     0.037 A 
BRANCH  51  65
ATOM     65  C   UNL A   1      44.074  32.766  31.444  1.00  0.00     0.058 A 
ATOM     66  C   UNL A   1      44.517  33.833  30.646  1.00  0.00     0.135 A 
ATOM     67  C   UNL A   1      43.727  33.044  32.776  1.00  0.00     0.135 A 
ATOM     68  F   UNL A   1      44.886  33.618  29.372  1.00  0.00    -0.206 F 
ATOM     69  C   UNL A   1      44.637  35.122  31.156  1.00  0.00     0.059 A 
ATOM     70  C   UNL A   1      43.810  34.330  33.299  1.00  0.00     0.059 A 
ATOM     71  F   UNL A   1      43.305  32.060  33.584  1.00  0.00    -0.206 F 
ATOM     72  C   UNL A   1      44.282  35.360  32.485  1.00  0.00     0.060 A 
BRANCH  72  73
ATOM     73  S   UNL A   1      44.445  37.037  33.133  1.00  0.00     0.124 S 
ATOM     74  O   UNL A   1      43.592  36.975  34.315  1.00  0.00    -0.237 OA
ATOM     75  O   UNL A   1      45.879  37.134  33.390  1.00  0.00    -0.237 OA
ATOM     76  O   UNL A   1      43.948  37.872  32.044  1.00  0.00    -0.744 OA
ENDBRANCH  72  73
ENDBRANCH  51  65
BRANCH  52  77
ATOM     77  C   UNL A   1      42.822  23.608  27.678  1.00  0.00     0.058 A 
ATOM     78  C   UNL A   1      42.455  22.512  28.475  1.00  0.00     0.135 A 
ATOM     79  C   UNL A   1      43.061  23.368  26.315  1.00  0.00     0.135 A 
ATOM     80  F   UNL A   1      42.235  22.682  29.787  1.00  0.00    -0.206 F 
ATOM     81  C   UNL A   1      42.347  21.227  27.948  1.00  0.00     0.059 A 
ATOM     82  C   UNL A   1      42.932  22.098  25.760  1.00  0.00     0.059 A 
ATOM     83  F   UNL A   1      43.414  24.379  25.507  1.00  0.00    -0.206 F 
ATOM     84  C   UNL A   1      42.585  21.031  26.587  1.00  0.00     0.060 A 
BRANCH  84  85
ATOM     85  S   UNL A   1      42.403  19.369  25.904  1.00  0.00     0.124 S 
ATOM     86  O   UNL A   1      40.952  19.237  25.832  1.00  0.00    -0.237 OA
ATOM     87  O   UNL A   1      43.097  19.484  24.625  1.00  0.00    -0.237 OA
ATOM     88  O   UNL A   1      43.063  18.524  26.894  1.00  0.00    -0.744 OA
ENDBRANCH  84  85
ENDBRANCH  52  77
BRANCH  64  89
ATOM     89  C   UNL A   1      48.301  27.028  30.343  1.00  0.00     0.058 A 
ATOM     90  C   UNL A   1      49.324  27.312  29.424  1.00  0.00     0.135 A 
ATOM     91  C   UNL A   1      48.665  26.412  31.553  1.00  0.00     0.135 A 
ATOM     92  F   UNL A   1      49.035  27.899  28.252  1.00  0.00    -0.206 F 
ATOM     93  C   UNL A   1      50.649  26.975  29.683  1.00  0.00     0.059 A 
ATOM     94  C   UNL A   1      49.988  26.094  31.846  1.00  0.00     0.059 A 
ATOM     95  F   UNL A   1      47.732  26.130  32.476  1.00  0.00    -0.206 F 
ATOM     96  C   UNL A   1      50.973  26.368  30.899  1.00  0.00     0.060 A 
BRANCH  96  97
ATOM     97  S   UNL A   1      52.700  25.964  31.236  1.00  0.00     0.124 S 
ATOM     98  O   UNL A   1      53.232  25.798  29.887  1.00  0.00    -0.237 OA
ATOM     99  O   UNL A   1      53.163  27.145  31.958  1.00  0.00    -0.237 OA
ATOM    100  O   UNL A   1      52.616  24.744  32.032  1.00  0.00    -0.744 OA
ENDBRANCH  96  97
ENDBRANCH  64  89
ENDBRANCH  38  39
ENDBRANCH  31  33
ENDBRANCH  30  31
ENDBRANCH  29  30
ENDBRANCH  28  29
ENDBRANCH  27  28
ENDBRANCH   1  27
TORSDOF 22
ENDMDL
MODEL 3
REMARK VINA RESULT:     -11.1      2.129      8.357
REMARK SMILES Cc1ccc(C(=O)N2C[C@H](C(=O)OCCOCCOCCOC(=O)c3ccc(-c4c5nc(c(-c6c(F)cc(S(=O)(=O)[O-])cc6F)c6ccc([nH]6)c(-c6c(F)cc(S(=O)(=O)[O-])cc6F)c6nc(c(-c7c(F)cc(S(=O)(=O)[O-])cc7F)c7ccc4[nH]7)C=C6)C=C5)cc3)Oc3ccccc32)o1
REMARK SMILES IDX 18 1 17 2 16 3 15 4 14 5 13 6 11 7 12 8 10 9 8 10 9 11 97 12
REMARK SMILES IDX 92 13 96 14 91 15 93 16 95 17 94 18 6 19 7 20 5 21 1 22 2 23
REMARK SMILES IDX 3 24 98 25 4 26 19 27 20 28 21 29 22 30 23 31 24 32 25 33
REMARK SMILES IDX 26 34 90 35 27 36 89 37 28 38 29 39 30 40 83 41 31 42 88 43
REMARK SMILES IDX 82 44 84 45 32 46 87 47 81 48 80 49 33 51 67 52 46 53 66 54
REMARK SMILES IDX 47 55 50 56 65 57 85 58 48 59 49 60 64 62 86 63 51 64 34 65
REMARK SMILES IDX 35 66 44 67 36 68 37 69 43 70 45 71 38 72 39 73 40 74 41 75
REMARK SMILES IDX 42 76 68 77 69 78 78 79 70 80 71 81 77 82 79 83 72 84 73 85
REMARK SMILES IDX 74 86 75 87 76 88 52 89 53 90 62 91 54 92 55 93 61 94 63 95
REMARK SMILES IDX 56 96 57 97 58 98 59 99 60 100
REMARK H PARENT 84 50 50 61
REMARK Flexibility Score: inf
ROOT
ATOM      1  C   UNL A   1      31.578  28.499  25.391  1.00  0.00     0.188 C 
ENDROOT
BRANCH   1   2
ATOM      2  C   UNL A   1      30.982  29.225  24.185  1.00  0.00     0.188 C 
BRANCH   2   3
ATOM      3  O   UNL A   1      29.965  28.524  23.478  1.00  0.00    -0.376 OA
BRANCH   3   4
ATOM      4  C   UNL A   1      30.150  27.124  23.287  1.00  0.00     0.202 C 
BRANCH   4   5
ATOM      5  C   UNL A   1      31.072  26.696  22.132  1.00  0.00     0.261 C 
BRANCH   5   6
ATOM      6  O   UNL A   1      31.400  25.287  22.090  1.00  0.00    -0.460 OA
BRANCH   6   7
ATOM      7  C   UNL A   1      32.731  25.011  22.137  1.00  0.00     0.349 C 
ATOM      8  O   UNL A   1      33.578  25.635  21.499  1.00  0.00    -0.248 OA
BRANCH   7   9
ATOM      9  C   UNL A   1      33.118  23.851  23.037  1.00  0.00     0.302 C 
ATOM     10  N   UNL A   1      33.175  21.506  23.765  1.00  0.00    -0.298 N 
ATOM     11  C   UNL A   1      32.580  22.443  22.776  1.00  0.00     0.183 C 
ATOM     12  C   UNL A   1      34.547  21.761  24.099  1.00  0.00     0.087 A 
ATOM     13  C   UNL A   1      35.178  22.919  23.629  1.00  0.00     0.144 A 
ATOM     14  C   UNL A   1      35.316  20.849  24.836  1.00  0.00     0.030 A 
ATOM     15  O   UNL A   1      34.548  23.878  22.890  1.00  0.00    -0.475 OA
ATOM     16  C   UNL A   1      36.528  23.166  23.877  1.00  0.00     0.049 A 
ATOM     17  C   UNL A   1      36.673  21.090  25.080  1.00  0.00     0.002 A 
ATOM     18  C   UNL A   1      37.279  22.248  24.603  1.00  0.00     0.004 A 
BRANCH  10  19
ATOM     19  C   UNL A   1      32.425  20.597  24.527  1.00  0.00     0.294 C 
ATOM     20  O   UNL A   1      31.765  20.990  25.492  1.00  0.00    -0.265 OA
BRANCH  19  21
ATOM     21  C   UNL A   1      32.543  19.182  24.216  1.00  0.00     0.192 A 
ATOM     22  C   UNL A   1      32.447  15.960  25.802  1.00  0.00     0.087 C 
ATOM     23  C   UNL A   1      32.595  17.047  24.811  1.00  0.00     0.101 A 
ATOM     24  C   UNL A   1      33.007  17.095  23.499  1.00  0.00     0.046 A 
ATOM     25  O   UNL A   1      32.298  18.301  25.243  1.00  0.00    -0.456 OA
ATOM     26  C   UNL A   1      32.977  18.462  23.117  1.00  0.00     0.056 A 
ENDBRANCH  19  21
ENDBRANCH  10  19
ENDBRANCH   7   9
ENDBRANCH   6   7
ENDBRANCH   5   6
ENDBRANCH   4   5
ENDBRANCH   3   4
ENDBRANCH   2   3
ENDBRANCH   1   2
BRANCH   1  27
ATOM     27  O   UNL A   1      32.828  27.867  25.150  1.00  0.00    -0.376 OA
BRANCH  27  28
ATOM     28  C   UNL A   1      33.952  28.301  25.920  1.00  0.00     0.202 C 
BRANCH  28  29
ATOM     29  C   UNL A   1      33.867  29.669  26.631  1.00  0.00     0.261 C 
BRANCH  29  30
ATOM     30  O   UNL A   1      34.176  29.665  28.040  1.00  0.00    -0.460 OA
BRANCH  30  31
ATOM     31  C   UNL A   1      35.005  30.629  28.504  1.00  0.00     0.338 C 
ATOM     32  O   UNL A   1      34.661  31.685  29.008  1.00  0.00    -0.246 OA
BRANCH  31  33
ATOM     33  C   UNL A   1      36.390  30.080  28.564  1.00  0.00     0.060 A 
ATOM     34  C   UNL A   1      36.828  29.535  29.780  1.00  0.00     0.016 A 
ATOM     35  C   UNL A   1      37.224  30.024  27.441  1.00  0.00     0.016 A 
ATOM     36  C   UNL A   1      38.114  28.999  29.894  1.00  0.00     0.010 A 
ATOM     37  C   UNL A   1      38.519  29.499  27.558  1.00  0.00     0.010 A 
ATOM     38  C   UNL A   1      38.988  29.032  28.799  1.00  0.00    -0.014 A 
BRANCH  38  39
ATOM     39  C   UNL A   1      40.447  28.860  29.036  1.00  0.00     0.031 A 
ATOM     40  C   UNL A   1      41.057  27.529  28.668  1.00  0.00     0.074 A 
ATOM     41  C   UNL A   1      41.233  29.849  29.498  1.00  0.00     0.049 A 
ATOM     42  N   UNL A   1      42.297  27.123  28.767  1.00  0.00    -0.248 NA
ATOM     43  C   UNL A   1      40.138  26.520  28.116  1.00  0.00     0.031 C 
ATOM     44  C   UNL A   1      40.790  31.195  29.851  1.00  0.00     0.029 A 
ATOM     45  N   UNL A   1      42.586  29.867  29.748  1.00  0.00    -0.354 N 
ATOM     46  C   UNL A   1      42.303  25.816  28.289  1.00  0.00     0.074 A 
ATOM     47  C   UNL A   1      40.940  25.482  27.943  1.00  0.00     0.031 C 
ATOM     48  C   UNL A   1      41.850  31.907  30.277  1.00  0.00     0.029 A 
ATOM     49  C   UNL A   1      43.045  31.062  30.250  1.00  0.00     0.049 A 
ATOM     50  H   UNL A   1      43.173  29.093  29.583  1.00  0.00     0.167 HD
ATOM     51  C   UNL A   1      43.349  24.971  28.136  1.00  0.00     0.037 A 
ATOM     52  C   UNL A   1      44.282  31.426  30.650  1.00  0.00     0.037 A 
ATOM     53  C   UNL A   1      44.708  25.298  28.473  1.00  0.00     0.049 A 
ATOM     54  C   UNL A   1      45.424  30.444  30.535  1.00  0.00     0.074 A 
ATOM     55  C   UNL A   1      45.837  24.508  28.347  1.00  0.00     0.029 A 
ATOM     56  N   UNL A   1      45.123  26.508  29.008  1.00  0.00    -0.354 N 
ATOM     57  N   UNL A   1      45.419  29.217  30.066  1.00  0.00    -0.248 NA
ATOM     58  C   UNL A   1      46.746  30.899  30.995  1.00  0.00     0.031 C 
ATOM     59  C   UNL A   1      46.928  25.221  28.854  1.00  0.00     0.029 A 
ATOM     60  C   UNL A   1      46.488  26.478  29.238  1.00  0.00     0.049 A 
ATOM     61  H   UNL A   1      44.534  27.274  29.196  1.00  0.00     0.167 HD
ATOM     62  C   UNL A   1      46.738  28.772  30.140  1.00  0.00     0.074 A 
ATOM     63  C   UNL A   1      47.514  29.861  30.695  1.00  0.00     0.031 C 
ATOM     64  C   UNL A   1      47.258  27.574  29.776  1.00  0.00     0.037 A 
BRANCH  51  65
ATOM     65  C   UNL A   1      43.055  23.597  27.602  1.00  0.00     0.058 A 
ATOM     66  C   UNL A   1      43.173  23.289  26.237  1.00  0.00     0.135 A 
ATOM     67  C   UNL A   1      42.664  22.567  28.473  1.00  0.00     0.135 A 
ATOM     68  F   UNL A   1      43.518  24.243  25.356  1.00  0.00    -0.206 F 
ATOM     69  C   UNL A   1      42.887  22.018  25.750  1.00  0.00     0.059 A 
ATOM     70  C   UNL A   1      42.403  21.281  28.014  1.00  0.00     0.059 A 
ATOM     71  F   UNL A   1      42.530  22.808  29.787  1.00  0.00    -0.206 F 
ATOM     72  C   UNL A   1      42.502  21.020  26.647  1.00  0.00     0.060 A 
BRANCH  72  73
ATOM     73  S   UNL A   1      42.134  19.376  26.000  1.00  0.00     0.124 S 
ATOM     74  O   UNL A   1      43.013  19.319  24.836  1.00  0.00    -0.237 OA
ATOM     75  O   UNL A   1      42.504  18.512  27.117  1.00  0.00    -0.237 OA
ATOM     76  O   UNL A   1      40.706  19.438  25.705  1.00  0.00    -0.744 OA
ENDBRANCH  72  73
ENDBRANCH  51  65
BRANCH  52  77
ATOM     77  C   UNL A   1      44.517  32.786  31.213  1.00  0.00     0.058 A 
ATOM     78  C   UNL A   1      45.004  33.834  30.416  1.00  0.00     0.135 A 
ATOM     79  C   UNL A   1      44.288  33.057  32.572  1.00  0.00     0.135 A 
ATOM     80  F   UNL A   1      45.260  33.623  29.116  1.00  0.00    -0.206 F 
ATOM     81  C   UNL A   1      45.269  35.094  30.946  1.00  0.00     0.059 A 
ATOM     82  C   UNL A   1      44.518  34.316  33.118  1.00  0.00     0.059 A 
ATOM     83  F   UNL A   1      43.822  32.092  33.380  1.00  0.00    -0.206 F 
ATOM     84  C   UNL A   1      45.020  35.326  32.299  1.00  0.00     0.060 A 
BRANCH  84  85
ATOM     85  S   UNL A   1      45.328  36.975  32.969  1.00  0.00     0.124 S 
ATOM     86  O   UNL A   1      46.288  36.689  34.028  1.00  0.00    -0.237 OA
ATOM     87  O   UNL A   1      45.853  37.686  31.807  1.00  0.00    -0.237 OA
ATOM     88  O   UNL A   1      44.007  37.409  33.415  1.00  0.00    -0.744 OA
ENDBRANCH  84  85
ENDBRANCH  52  77
BRANCH  64  89
ATOM     89  C   UNL A   1      48.746  27.379  29.906  1.00  0.00     0.058 A 
ATOM     90  C   UNL A   1      49.628  27.631  28.843  1.00  0.00     0.135 A 
ATOM     91  C   UNL A   1      49.303  26.993  31.138  1.00  0.00     0.135 A 
ATOM     92  F   UNL A   1      49.153  28.003  27.644  1.00  0.00    -0.206 F 
ATOM     93  C   UNL A   1      51.004  27.481  28.989  1.00  0.00     0.059 A 
ATOM     94  C   UNL A   1      50.677  26.867  31.314  1.00  0.00     0.059 A 
ATOM     95  F   UNL A   1      48.509  26.753  32.193  1.00  0.00    -0.206 F 
ATOM     96  C   UNL A   1      51.521  27.100  30.230  1.00  0.00     0.060 A 
BRANCH  96  97
ATOM     97  S   UNL A   1      53.309  26.939  30.413  1.00  0.00     0.124 S 
ATOM     98  O   UNL A   1      53.408  25.988  31.516  1.00  0.00    -0.237 OA
ATOM     99  O   UNL A   1      53.715  26.434  29.105  1.00  0.00    -0.237 OA
ATOM    100  O   UNL A   1      53.746  28.299  30.715  1.00  0.00    -0.744 OA
ENDBRANCH  96  97
ENDBRANCH  64  89
ENDBRANCH  38  39
ENDBRANCH  31  33
ENDBRANCH  30  31
ENDBRANCH  29  30
ENDBRANCH  28  29
ENDBRANCH  27  28
ENDBRANCH   1  27
TORSDOF 22
ENDMDL
