MODEL 1
REMARK VINA RESULT:     -11.4      0.000      0.000
REMARK SMILES COc1ccc(C2=NN(C(=O)CCC(=O)OCCOCCOCCOC(=O)c3ccc(-c4c5nc(c(-c6c(F)cc(S(=O)(=O)[O-])cc6F)c6ccc([nH]6)c(-c6c(F)cc(S(=O)(=O)[O-])cc6F)c6nc(c(-c7c(F)cc(S(=O)(=O)[O-])cc7F)c7ccc4[nH]7)C=C6)C=C5)cc3)[C@H](c3ccc(Cl)cc3Cl)C2)cc1
REMARK SMILES IDX 20 1 19 2 18 3 17 4 16 5 14 6 15 7 13 8 12 9 10 10 11 11
REMARK SMILES IDX 9 12 7 13 8 14 103 15 94 16 6 17 3 18 4 19 105 20 5 21
REMARK SMILES IDX 104 22 2 23 1 24 95 25 96 26 101 27 97 28 100 29 102 30
REMARK SMILES IDX 98 31 99 32 21 33 22 34 23 35 24 36 25 37 26 38 27 39 28 40
REMARK SMILES IDX 29 41 93 42 30 43 92 44 31 45 32 46 33 47 86 48 34 49 91 50
REMARK SMILES IDX 85 51 87 52 35 53 90 54 84 55 83 56 36 58 70 59 49 60 69 61
REMARK SMILES IDX 50 62 53 63 68 64 88 65 51 66 52 67 67 69 89 70 54 71 37 72
REMARK SMILES IDX 38 73 47 74 39 75 40 76 46 77 48 78 41 79 42 80 43 81 44 82
REMARK SMILES IDX 45 83 71 84 72 85 81 86 73 87 74 88 80 89 82 90 75 91 76 92
REMARK SMILES IDX 77 93 78 94 79 95 55 96 56 97 65 98 57 99 58 100 64 101
REMARK SMILES IDX 66 102 59 103 60 104 61 105 62 106 63 107
REMARK H PARENT 87 57 53 68
REMARK Flexibility Score: inf
ROOT
ATOM      1  C   UNL A   1      36.290  29.910  30.483  1.00  0.00     0.188 C 
ENDROOT
BRANCH   1   2
ATOM      2  O   UNL A   1      36.104  31.327  30.131  1.00  0.00    -0.376 OA
BRANCH   2   3
ATOM      3  C   UNL A   1      35.815  32.036  28.886  1.00  0.00     0.202 C 
BRANCH   3   4
ATOM      4  C   UNL A   1      35.066  31.462  27.675  1.00  0.00     0.261 C 
BRANCH   4   5
ATOM      5  O   UNL A   1      33.703  31.334  27.983  1.00  0.00    -0.463 OA
BRANCH   5   6
ATOM      6  C   UNL A   1      32.905  30.746  27.092  1.00  0.00     0.306 C 
ATOM      7  O   UNL A   1      31.830  31.203  26.686  1.00  0.00    -0.252 OA
BRANCH   6   8
ATOM      8  C   UNL A   1      33.579  29.544  26.515  1.00  0.00     0.132 C 
BRANCH   8   9
ATOM      9  C   UNL A   1      33.246  28.174  27.127  1.00  0.00     0.114 C 
BRANCH   9  10
ATOM     10  C   UNL A   1      31.972  27.398  26.710  1.00  0.00     0.243 C 
ATOM     11  O   UNL A   1      31.094  27.541  27.602  1.00  0.00    -0.273 OA
BRANCH  10  12
ATOM     12  N   UNL A   1      31.659  26.655  25.512  1.00  0.00    -0.225 N 
ATOM     13  C   UNL A   1      30.464  27.151  23.702  1.00  0.00     0.071 C 
ATOM     14  N   UNL A   1      31.069  27.619  24.716  1.00  0.00    -0.174 NA
ATOM     15  C   UNL A   1      30.524  25.681  23.484  1.00  0.00     0.091 C 
ATOM     16  C   UNL A   1      31.639  25.097  24.548  1.00  0.00     0.149 C 
BRANCH  13  17
ATOM     17  C   UNL A   1      29.629  28.106  22.940  1.00  0.00    -0.002 A 
ATOM     18  C   UNL A   1      28.022  30.244  22.063  1.00  0.00     0.118 A 
ATOM     19  C   UNL A   1      29.391  30.201  21.761  1.00  0.00     0.047 A 
ATOM     20  C   UNL A   1      27.461  29.214  22.815  1.00  0.00     0.047 A 
ATOM     21  C   UNL A   1      30.203  29.150  22.216  1.00  0.00     0.014 A 
ATOM     22  C   UNL A   1      28.264  28.153  23.258  1.00  0.00     0.014 A 
BRANCH  18  23
ATOM     23  O   UNL A   1      27.348  31.328  21.566  1.00  0.00    -0.497 OA
ATOM     24  C   UNL A   1      28.093  32.245  20.770  1.00  0.00     0.278 C 
ENDBRANCH  18  23
ENDBRANCH  13  17
BRANCH  16  25
ATOM     25  C   UNL A   1      33.129  23.836  24.255  1.00  0.00    -0.004 A 
ATOM     26  C   UNL A   1      34.315  24.347  23.895  1.00  0.00     0.009 A 
ATOM     27  C   UNL A   1      33.376  22.217  24.489  1.00  0.00     0.047 A 
ATOM     28  C   UNL A   1      35.538  23.572  24.114  1.00  0.00     0.021 A 
ATOM     29  C   UNL A   1      34.588  21.502  24.398  1.00  0.00     0.041 A 
ATOM     30  Cl  UNL A   1      32.253  20.876  25.139  1.00  0.00    -0.084 Cl
ATOM     31  C   UNL A   1      35.702  22.233  24.373  1.00  0.00     0.042 A 
ATOM     32  Cl  UNL A   1      37.211  21.582  24.864  1.00  0.00    -0.084 Cl
ENDBRANCH  16  25
ENDBRANCH  10  12
ENDBRANCH   9  10
ENDBRANCH   8   9
ENDBRANCH   6   8
ENDBRANCH   5   6
ENDBRANCH   4   5
ENDBRANCH   3   4
ENDBRANCH   2   3
ENDBRANCH   1   2
BRANCH   1  33
ATOM     33  C   UNL A   1      37.822  28.810  30.659  1.00  0.00     0.188 C 
BRANCH  33  34
ATOM     34  O   UNL A   1      38.795  27.946  29.363  1.00  0.00    -0.376 OA
BRANCH  34  35
ATOM     35  C   UNL A   1      39.042  26.214  28.932  1.00  0.00     0.202 C 
BRANCH  35  36
ATOM     36  C   UNL A   1      39.545  25.311  27.346  1.00  0.00     0.261 C 
BRANCH  36  37
ATOM     37  O   UNL A   1      40.792  25.558  26.354  1.00  0.00    -0.460 OA
BRANCH  37  38
ATOM     38  C   UNL A   1      42.104  26.058  26.743  1.00  0.00     0.338 C 
ATOM     39  O   UNL A   1      43.124  25.444  26.445  1.00  0.00    -0.246 OA
BRANCH  38  40
ATOM     40  C   UNL A   1      42.170  27.164  27.974  1.00  0.00     0.060 A 
ATOM     41  C   UNL A   1      41.650  28.464  27.736  1.00  0.00     0.016 A 
ATOM     42  C   UNL A   1      43.004  27.110  29.107  1.00  0.00     0.016 A 
ATOM     43  C   UNL A   1      42.191  29.648  28.353  1.00  0.00     0.010 A 
ATOM     44  C   UNL A   1      43.388  28.313  29.856  1.00  0.00     0.010 A 
ATOM     45  C   UNL A   1      43.037  29.632  29.474  1.00  0.00    -0.014 A 
BRANCH  45  46
ATOM     46  C   UNL A   1      43.456  30.934  30.233  1.00  0.00     0.031 A 
ATOM     47  C   UNL A   1      42.761  31.446  31.515  1.00  0.00     0.074 A 
ATOM     48  C   UNL A   1      44.467  31.744  29.807  1.00  0.00     0.049 A 
ATOM     49  N   UNL A   1      42.764  32.649  32.062  1.00  0.00    -0.248 NA
ATOM     50  C   UNL A   1      42.001  30.469  32.300  1.00  0.00     0.031 C 
ATOM     51  C   UNL A   1      45.390  31.472  28.705  1.00  0.00     0.029 A 
ATOM     52  N   UNL A   1      44.877  33.005  30.240  1.00  0.00    -0.354 N 
ATOM     53  C   UNL A   1      41.955  32.588  33.203  1.00  0.00     0.074 A 
ATOM     54  C   UNL A   1      41.509  31.209  33.290  1.00  0.00     0.031 C 
ATOM     55  C   UNL A   1      46.231  32.502  28.544  1.00  0.00     0.029 A 
ATOM     56  C   UNL A   1      45.850  33.582  29.442  1.00  0.00     0.049 A 
ATOM     57  H   UNL A   1      44.509  33.443  31.040  1.00  0.00     0.167 HD
ATOM     58  C   UNL A   1      41.595  33.568  34.085  1.00  0.00     0.037 A 
ATOM     59  C   UNL A   1      46.350  34.837  29.346  1.00  0.00     0.037 A 
ATOM     60  C   UNL A   1      42.063  34.941  34.068  1.00  0.00     0.049 A 
ATOM     61  C   UNL A   1      45.857  35.945  30.238  1.00  0.00     0.074 A 
ATOM     62  C   UNL A   1      41.703  35.988  34.911  1.00  0.00     0.029 A 
ATOM     63  N   UNL A   1      43.000  35.463  33.192  1.00  0.00    -0.354 N 
ATOM     64  N   UNL A   1      44.981  35.896  31.208  1.00  0.00    -0.248 NA
ATOM     65  C   UNL A   1      46.417  37.289  30.008  1.00  0.00     0.031 C 
ATOM     66  C   UNL A   1      42.380  37.148  34.511  1.00  0.00     0.029 A 
ATOM     67  C   UNL A   1      43.212  36.811  33.460  1.00  0.00     0.049 A 
ATOM     68  H   UNL A   1      43.450  34.953  32.481  1.00  0.00     0.167 HD
ATOM     69  C   UNL A   1      44.912  37.188  31.725  1.00  0.00     0.074 A 
ATOM     70  C   UNL A   1      45.840  37.998  30.969  1.00  0.00     0.031 C 
ATOM     71  C   UNL A   1      44.141  37.649  32.741  1.00  0.00     0.037 A 
BRANCH  58  72
ATOM     72  C   UNL A   1      40.559  33.231  35.143  1.00  0.00     0.058 A 
ATOM     73  C   UNL A   1      39.180  33.215  34.884  1.00  0.00     0.135 A 
ATOM     74  C   UNL A   1      40.976  32.836  36.430  1.00  0.00     0.135 A 
ATOM     75  F   UNL A   1      38.718  33.566  33.674  1.00  0.00    -0.206 F 
ATOM     76  C   UNL A   1      38.254  32.869  35.870  1.00  0.00     0.059 A 
ATOM     77  C   UNL A   1      40.071  32.458  37.421  1.00  0.00     0.059 A 
ATOM     78  F   UNL A   1      42.283  32.797  36.733  1.00  0.00    -0.206 F 
ATOM     79  C   UNL A   1      38.708  32.502  37.139  1.00  0.00     0.060 A 
BRANCH  79  80
ATOM     80  S   UNL A   1      37.497  32.097  38.418  1.00  0.00     0.124 S 
ATOM     81  O   UNL A   1      36.426  33.043  38.112  1.00  0.00    -0.237 OA
ATOM     82  O   UNL A   1      37.201  30.696  38.142  1.00  0.00    -0.237 OA
ATOM     83  O   UNL A   1      38.216  32.350  39.663  1.00  0.00    -0.744 OA
ENDBRANCH  79  80
ENDBRANCH  58  72
BRANCH  59  84
ATOM     84  C   UNL A   1      47.349  35.160  28.277  1.00  0.00     0.058 A 
ATOM     85  C   UNL A   1      48.728  35.157  28.538  1.00  0.00     0.135 A 
ATOM     86  C   UNL A   1      46.936  35.513  26.980  1.00  0.00     0.135 A 
ATOM     87  F   UNL A   1      49.176  34.862  29.768  1.00  0.00    -0.206 F 
ATOM     88  C   UNL A   1      49.659  35.496  27.559  1.00  0.00     0.059 A 
ATOM     89  C   UNL A   1      47.849  35.819  25.975  1.00  0.00     0.059 A 
ATOM     90  F   UNL A   1      45.630  35.538  26.673  1.00  0.00    -0.206 F 
ATOM     91  C   UNL A   1      49.210  35.817  26.277  1.00  0.00     0.060 A 
BRANCH  91  92
ATOM     92  S   UNL A   1      50.427  36.190  24.995  1.00  0.00     0.124 S 
ATOM     93  O   UNL A   1      49.669  37.073  24.117  1.00  0.00    -0.237 OA
ATOM     94  O   UNL A   1      51.498  36.816  25.764  1.00  0.00    -0.237 OA
ATOM     95  O   UNL A   1      50.748  34.876  24.445  1.00  0.00    -0.744 OA
ENDBRANCH  91  92
ENDBRANCH  59  84
BRANCH  71  96
ATOM     96  C   UNL A   1      44.315  39.090  33.160  1.00  0.00     0.058 A 
ATOM     97  C   UNL A   1      43.600  40.140  32.558  1.00  0.00     0.135 A 
ATOM     98  C   UNL A   1      45.222  39.429  34.179  1.00  0.00     0.135 A 
ATOM     99  F   UNL A   1      42.723  39.883  31.575  1.00  0.00    -0.206 F 
ATOM    100  C   UNL A   1      43.809  41.471  32.920  1.00  0.00     0.059 A 
ATOM    101  C   UNL A   1      45.426  40.750  34.576  1.00  0.00     0.059 A 
ATOM    102  F   UNL A   1      45.929  38.472  34.800  1.00  0.00    -0.206 F 
ATOM    103  C   UNL A   1      44.730  41.767  33.926  1.00  0.00     0.060 A 
BRANCH 103 104
ATOM    104  S   UNL A   1      45.001  43.495  34.380  1.00  0.00     0.124 S 
ATOM    105  O   UNL A   1      45.482  43.368  35.752  1.00  0.00    -0.237 OA
ATOM    106  O   UNL A   1      45.990  43.928  33.399  1.00  0.00    -0.237 OA
ATOM    107  O   UNL A   1      43.678  44.097  34.234  1.00  0.00    -0.744 OA
ENDBRANCH 103 104
ENDBRANCH  71  96
ENDBRANCH  45  46
ENDBRANCH  38  40
ENDBRANCH  37  38
ENDBRANCH  36  37
ENDBRANCH  35  36
ENDBRANCH  34  35
ENDBRANCH  33  34
ENDBRANCH   1  33
TORSDOF 26
ENDMDL
MODEL 2
REMARK VINA RESULT:     -11.3      3.963      6.271
REMARK SMILES COc1ccc(C2=NN(C(=O)CCC(=O)OCCOCCOCCOC(=O)c3ccc(-c4c5nc(c(-c6c(F)cc(S(=O)(=O)[O-])cc6F)c6ccc([nH]6)c(-c6c(F)cc(S(=O)(=O)[O-])cc6F)c6nc(c(-c7c(F)cc(S(=O)(=O)[O-])cc7F)c7ccc4[nH]7)C=C6)C=C5)cc3)[C@H](c3ccc(Cl)cc3Cl)C2)cc1
REMARK SMILES IDX 20 1 19 2 18 3 17 4 16 5 14 6 15 7 13 8 12 9 10 10 11 11
REMARK SMILES IDX 9 12 7 13 8 14 103 15 94 16 6 17 3 18 4 19 105 20 5 21
REMARK SMILES IDX 104 22 2 23 1 24 95 25 96 26 101 27 97 28 100 29 102 30
REMARK SMILES IDX 98 31 99 32 21 33 22 34 23 35 24 36 25 37 26 38 27 39 28 40
REMARK SMILES IDX 29 41 93 42 30 43 92 44 31 45 32 46 33 47 86 48 34 49 91 50
REMARK SMILES IDX 85 51 87 52 35 53 90 54 84 55 83 56 36 58 70 59 49 60 69 61
REMARK SMILES IDX 50 62 53 63 68 64 88 65 51 66 52 67 67 69 89 70 54 71 37 72
REMARK SMILES IDX 38 73 47 74 39 75 40 76 46 77 48 78 41 79 42 80 43 81 44 82
REMARK SMILES IDX 45 83 71 84 72 85 81 86 73 87 74 88 80 89 82 90 75 91 76 92
REMARK SMILES IDX 77 93 78 94 79 95 55 96 56 97 65 98 57 99 58 100 64 101
REMARK SMILES IDX 66 102 59 103 60 104 61 105 62 106 63 107
REMARK H PARENT 87 57 53 68
REMARK Flexibility Score: inf
ROOT
ATOM      1  C   UNL A   1      39.011  27.211  29.715  1.00  0.00     0.188 C 
ENDROOT
BRANCH   1   2
ATOM      2  O   UNL A   1      39.134  28.662  29.497  1.00  0.00    -0.376 OA
BRANCH   2   3
ATOM      3  C   UNL A   1      38.436  29.625  28.648  1.00  0.00     0.202 C 
BRANCH   3   4
ATOM      4  C   UNL A   1      37.076  29.409  27.967  1.00  0.00     0.261 C 
BRANCH   4   5
ATOM      5  O   UNL A   1      36.376  30.624  27.920  1.00  0.00    -0.463 OA
BRANCH   5   6
ATOM      6  C   UNL A   1      35.071  30.592  27.655  1.00  0.00     0.306 C 
ATOM      7  O   UNL A   1      34.274  31.509  27.886  1.00  0.00    -0.252 OA
BRANCH   6   8
ATOM      8  C   UNL A   1      34.736  29.363  26.874  1.00  0.00     0.132 C 
BRANCH   8   9
ATOM      9  C   UNL A   1      33.571  28.494  27.372  1.00  0.00     0.114 C 
BRANCH   9  10
ATOM     10  C   UNL A   1      32.189  28.526  26.671  1.00  0.00     0.243 C 
ATOM     11  O   UNL A   1      31.686  29.672  26.809  1.00  0.00    -0.273 OA
BRANCH  10  12
ATOM     12  N   UNL A   1      31.493  27.530  25.892  1.00  0.00    -0.225 N 
ATOM     13  C   UNL A   1      30.163  27.668  24.113  1.00  0.00     0.071 C 
ATOM     14  N   UNL A   1      31.035  28.267  24.816  1.00  0.00    -0.174 NA
ATOM     15  C   UNL A   1      29.811  26.275  24.498  1.00  0.00     0.091 C 
ATOM     16  C   UNL A   1      30.911  25.811  25.633  1.00  0.00     0.149 C 
BRANCH  13  17
ATOM     17  C   UNL A   1      29.476  28.484  23.088  1.00  0.00    -0.002 A 
ATOM     18  C   UNL A   1      28.030  30.423  21.648  1.00  0.00     0.118 A 
ATOM     19  C   UNL A   1      29.432  30.406  21.625  1.00  0.00     0.047 A 
ATOM     20  C   UNL A   1      27.354  29.467  22.403  1.00  0.00     0.047 A 
ATOM     21  C   UNL A   1      30.160  29.456  22.360  1.00  0.00     0.014 A 
ATOM     22  C   UNL A   1      28.074  28.506  23.126  1.00  0.00     0.014 A 
BRANCH  18  23
ATOM     23  O   UNL A   1      27.446  31.405  20.894  1.00  0.00    -0.497 OA
ATOM     24  C   UNL A   1      28.030  32.703  20.956  1.00  0.00     0.278 C 
ENDBRANCH  18  23
ENDBRANCH  13  17
BRANCH  16  25
ATOM     25  C   UNL A   1      31.960  24.145  25.775  1.00  0.00    -0.004 A 
ATOM     26  C   UNL A   1      31.285  22.990  25.859  1.00  0.00     0.009 A 
ATOM     27  C   UNL A   1      33.559  23.738  25.668  1.00  0.00     0.047 A 
ATOM     28  C   UNL A   1      31.946  21.734  25.500  1.00  0.00     0.021 A 
ATOM     29  C   UNL A   1      34.125  22.448  25.608  1.00  0.00     0.041 A 
ATOM     30  Cl  UNL A   1      35.082  24.776  25.376  1.00  0.00    -0.084 Cl
ATOM     31  C   UNL A   1      33.282  21.448  25.353  1.00  0.00     0.042 A 
ATOM     32  Cl  UNL A   1      33.825  19.974  24.664  1.00  0.00    -0.084 Cl
ENDBRANCH  16  25
ENDBRANCH  10  12
ENDBRANCH   9  10
ENDBRANCH   8   9
ENDBRANCH   6   8
ENDBRANCH   5   6
ENDBRANCH   4   5
ENDBRANCH   3   4
ENDBRANCH   2   3
ENDBRANCH   1   2
BRANCH   1  33
ATOM     33  C   UNL A   1      39.559  25.701  28.712  1.00  0.00     0.188 C 
BRANCH  33  34
ATOM     34  O   UNL A   1      39.056  25.172  27.027  1.00  0.00    -0.376 OA
BRANCH  34  35
ATOM     35  C   UNL A   1      38.229  23.711  26.370  1.00  0.00     0.202 C 
BRANCH  35  36
ATOM     36  C   UNL A   1      38.743  21.906  26.126  1.00  0.00     0.261 C 
BRANCH  36  37
ATOM     37  O   UNL A   1      40.194  21.262  25.837  1.00  0.00    -0.460 OA
BRANCH  37  38
ATOM     38  C   UNL A   1      41.312  21.229  26.771  1.00  0.00     0.338 C 
ATOM     39  O   UNL A   1      41.676  20.173  27.278  1.00  0.00    -0.246 OA
BRANCH  38  40
ATOM     40  C   UNL A   1      41.751  22.653  27.493  1.00  0.00     0.060 A 
ATOM     41  C   UNL A   1      41.925  23.797  26.670  1.00  0.00     0.016 A 
ATOM     42  C   UNL A   1      42.335  22.804  28.765  1.00  0.00     0.016 A 
ATOM     43  C   UNL A   1      42.884  24.832  26.961  1.00  0.00     0.010 A 
ATOM     44  C   UNL A   1      43.152  23.972  29.120  1.00  0.00     0.010 A 
ATOM     45  C   UNL A   1      43.499  25.003  28.212  1.00  0.00    -0.014 A 
BRANCH  45  46
ATOM     46  C   UNL A   1      44.390  26.242  28.551  1.00  0.00     0.031 A 
ATOM     47  C   UNL A   1      43.874  27.501  29.284  1.00  0.00     0.074 A 
ATOM     48  C   UNL A   1      45.707  26.322  28.203  1.00  0.00     0.049 A 
ATOM     49  N   UNL A   1      44.382  28.720  29.342  1.00  0.00    -0.248 NA
ATOM     50  C   UNL A   1      42.656  27.356  30.086  1.00  0.00     0.031 C 
ATOM     51  C   UNL A   1      46.514  25.254  27.615  1.00  0.00     0.029 A 
ATOM     52  N   UNL A   1      46.610  27.383  28.267  1.00  0.00    -0.354 N 
ATOM     53  C   UNL A   1      43.511  29.495  30.118  1.00  0.00     0.074 A 
ATOM     54  C   UNL A   1      42.460  28.590  30.544  1.00  0.00     0.031 C 
ATOM     55  C   UNL A   1      47.755  25.696  27.369  1.00  0.00     0.029 A 
ATOM     56  C   UNL A   1      47.827  27.120  27.661  1.00  0.00     0.049 A 
ATOM     57  H   UNL A   1      46.401  28.240  28.702  1.00  0.00     0.167 HD
ATOM     58  C   UNL A   1      43.556  30.823  30.438  1.00  0.00     0.037 A 
ATOM     59  C   UNL A   1      48.869  27.901  27.288  1.00  0.00     0.037 A 
ATOM     60  C   UNL A   1      44.616  31.748  30.082  1.00  0.00     0.049 A 
ATOM     61  C   UNL A   1      48.857  29.387  27.529  1.00  0.00     0.074 A 
ATOM     62  C   UNL A   1      44.697  33.112  30.343  1.00  0.00     0.029 A 
ATOM     63  N   UNL A   1      45.784  31.418  29.416  1.00  0.00    -0.354 N 
ATOM     64  N   UNL A   1      47.953  30.118  28.130  1.00  0.00    -0.248 NA
ATOM     65  C   UNL A   1      50.008  30.156  27.026  1.00  0.00     0.031 C 
ATOM     66  C   UNL A   1      45.885  33.611  29.790  1.00  0.00     0.029 A 
ATOM     67  C   UNL A   1      46.576  32.548  29.242  1.00  0.00     0.049 A 
ATOM     68  H   UNL A   1      46.020  30.513  29.110  1.00  0.00     0.167 HD
ATOM     69  C   UNL A   1      48.443  31.423  28.107  1.00  0.00     0.074 A 
ATOM     70  C   UNL A   1      49.726  31.383  27.442  1.00  0.00     0.031 C 
ATOM     71  C   UNL A   1      47.869  32.547  28.600  1.00  0.00     0.037 A 
BRANCH  58  72
ATOM     72  C   UNL A   1      42.367  31.423  31.168  1.00  0.00     0.058 A 
ATOM     73  C   UNL A   1      42.394  31.750  32.532  1.00  0.00     0.135 A 
ATOM     74  C   UNL A   1      41.198  31.750  30.452  1.00  0.00     0.135 A 
ATOM     75  F   UNL A   1      43.483  31.478  33.269  1.00  0.00    -0.206 F 
ATOM     76  C   UNL A   1      41.295  32.330  33.168  1.00  0.00     0.059 A 
ATOM     77  C   UNL A   1      40.100  32.357  31.059  1.00  0.00     0.059 A 
ATOM     78  F   UNL A   1      41.120  31.495  29.136  1.00  0.00    -0.206 F 
ATOM     79  C   UNL A   1      40.148  32.621  32.425  1.00  0.00     0.060 A 
BRANCH  79  80
ATOM     80  S   UNL A   1      38.717  33.334  33.268  1.00  0.00     0.124 S 
ATOM     81  O   UNL A   1      39.354  34.014  34.394  1.00  0.00    -0.237 OA
ATOM     82  O   UNL A   1      38.147  34.203  32.245  1.00  0.00    -0.237 OA
ATOM     83  O   UNL A   1      37.910  32.169  33.618  1.00  0.00    -0.744 OA
ENDBRANCH  79  80
ENDBRANCH  58  72
BRANCH  59  84
ATOM     84  C   UNL A   1      50.020  27.299  26.542  1.00  0.00     0.058 A 
ATOM     85  C   UNL A   1      51.122  26.749  27.215  1.00  0.00     0.135 A 
ATOM     86  C   UNL A   1      50.052  27.296  25.136  1.00  0.00     0.135 A 
ATOM     87  F   UNL A   1      51.159  26.757  28.556  1.00  0.00    -0.206 F 
ATOM     88  C   UNL A   1      52.213  26.225  26.526  1.00  0.00     0.059 A 
ATOM     89  C   UNL A   1      51.114  26.744  24.425  1.00  0.00     0.059 A 
ATOM     90  F   UNL A   1      49.028  27.812  24.439  1.00  0.00    -0.206 F 
ATOM     91  C   UNL A   1      52.196  26.219  25.130  1.00  0.00     0.060 A 
BRANCH  91  92
ATOM     92  S   UNL A   1      53.585  25.476  24.245  1.00  0.00     0.124 S 
ATOM     93  O   UNL A   1      53.530  24.097  24.716  1.00  0.00    -0.237 OA
ATOM     94  O   UNL A   1      53.208  25.692  22.851  1.00  0.00    -0.237 OA
ATOM     95  O   UNL A   1      54.730  26.256  24.703  1.00  0.00    -0.744 OA
ENDBRANCH  91  92
ENDBRANCH  59  84
BRANCH  71  96
ATOM     96  C   UNL A   1      48.652  33.836  28.513  1.00  0.00     0.058 A 
ATOM     97  C   UNL A   1      49.524  34.257  29.532  1.00  0.00     0.135 A 
ATOM     98  C   UNL A   1      48.522  34.672  27.390  1.00  0.00     0.135 A 
ATOM     99  F   UNL A   1      49.688  33.506  30.633  1.00  0.00    -0.206 F 
ATOM    100  C   UNL A   1      50.202  35.474  29.461  1.00  0.00     0.059 A 
ATOM    101  C   UNL A   1      49.211  35.879  27.286  1.00  0.00     0.059 A 
ATOM    102  F   UNL A   1      47.713  34.323  26.378  1.00  0.00    -0.206 F 
ATOM    103  C   UNL A   1      50.034  36.283  28.336  1.00  0.00     0.060 A 
BRANCH 103 104
ATOM    104  S   UNL A   1      50.907  37.863  28.258  1.00  0.00     0.124 S 
ATOM    105  O   UNL A   1      50.323  38.579  29.387  1.00  0.00    -0.237 OA
ATOM    106  O   UNL A   1      52.301  37.461  28.415  1.00  0.00    -0.237 OA
ATOM    107  O   UNL A   1      50.557  38.381  26.938  1.00  0.00    -0.744 OA
ENDBRANCH 103 104
ENDBRANCH  71  96
ENDBRANCH  45  46
ENDBRANCH  38  40
ENDBRANCH  37  38
ENDBRANCH  36  37
ENDBRANCH  35  36
ENDBRANCH  34  35
ENDBRANCH  33  34
ENDBRANCH   1  33
TORSDOF 26
ENDMDL
MODEL 3
REMARK VINA RESULT:     -11.1      2.048      7.794
REMARK SMILES COc1ccc(C2=NN(C(=O)CCC(=O)OCCOCCOCCOC(=O)c3ccc(-c4c5nc(c(-c6c(F)cc(S(=O)(=O)[O-])cc6F)c6ccc([nH]6)c(-c6c(F)cc(S(=O)(=O)[O-])cc6F)c6nc(c(-c7c(F)cc(S(=O)(=O)[O-])cc7F)c7ccc4[nH]7)C=C6)C=C5)cc3)[C@H](c3ccc(Cl)cc3Cl)C2)cc1
REMARK SMILES IDX 20 1 19 2 18 3 17 4 16 5 14 6 15 7 13 8 12 9 10 10 11 11
REMARK SMILES IDX 9 12 7 13 8 14 103 15 94 16 6 17 3 18 4 19 105 20 5 21
REMARK SMILES IDX 104 22 2 23 1 24 95 25 96 26 101 27 97 28 100 29 102 30
REMARK SMILES IDX 98 31 99 32 21 33 22 34 23 35 24 36 25 37 26 38 27 39 28 40
REMARK SMILES IDX 29 41 93 42 30 43 92 44 31 45 32 46 33 47 86 48 34 49 91 50
REMARK SMILES IDX 85 51 87 52 35 53 90 54 84 55 83 56 36 58 70 59 49 60 69 61
REMARK SMILES IDX 50 62 53 63 68 64 88 65 51 66 52 67 67 69 89 70 54 71 37 72
REMARK SMILES IDX 38 73 47 74 39 75 40 76 46 77 48 78 41 79 42 80 43 81 44 82
REMARK SMILES IDX 45 83 71 84 72 85 81 86 73 87 74 88 80 89 82 90 75 91 76 92
REMARK SMILES IDX 77 93 78 94 79 95 55 96 56 97 65 98 57 99 58 100 64 101
REMARK SMILES IDX 66 102 59 103 60 104 61 105 62 106 63 107
REMARK H PARENT 87 57 53 68
REMARK Flexibility Score: inf
ROOT
ATOM      1  C   UNL A   1      36.267  29.986  30.216  1.00  0.00     0.188 C 
ENDROOT
BRANCH   1   2
ATOM      2  O   UNL A   1      36.037  31.428  30.030  1.00  0.00    -0.376 OA
BRANCH   2   3
ATOM      3  C   UNL A   1      35.640  32.256  28.893  1.00  0.00     0.202 C 
BRANCH   3   4
ATOM      4  C   UNL A   1      34.898  31.770  27.639  1.00  0.00     0.261 C 
BRANCH   4   5
ATOM      5  O   UNL A   1      33.572  31.452  27.971  1.00  0.00    -0.463 OA
BRANCH   5   6
ATOM      6  C   UNL A   1      32.808  30.878  27.043  1.00  0.00     0.306 C 
ATOM      7  O   UNL A   1      31.766  31.358  26.580  1.00  0.00    -0.252 OA
BRANCH   6   8
ATOM      8  C   UNL A   1      33.482  29.657  26.507  1.00  0.00     0.132 C 
BRANCH   8   9
ATOM      9  C   UNL A   1      33.226  28.324  27.226  1.00  0.00     0.114 C 
BRANCH   9  10
ATOM     10  C   UNL A   1      31.922  27.521  26.988  1.00  0.00     0.243 C 
ATOM     11  O   UNL A   1      31.111  27.770  27.918  1.00  0.00    -0.273 OA
BRANCH  10  12
ATOM     12  N   UNL A   1      31.521  26.657  25.903  1.00  0.00    -0.225 N 
ATOM     13  C   UNL A   1      30.403  27.030  24.015  1.00  0.00     0.071 C 
ATOM     14  N   UNL A   1      31.060  27.561  24.964  1.00  0.00    -0.174 NA
ATOM     15  C   UNL A   1      30.279  25.548  24.012  1.00  0.00     0.091 C 
ATOM     16  C   UNL A   1      31.309  24.990  25.172  1.00  0.00     0.149 C 
BRANCH  13  17
ATOM     17  C   UNL A   1      29.698  27.960  23.106  1.00  0.00    -0.002 A 
ATOM     18  C   UNL A   1      28.300  30.096  21.920  1.00  0.00     0.118 A 
ATOM     19  C   UNL A   1      29.687  29.965  21.758  1.00  0.00     0.047 A 
ATOM     20  C   UNL A   1      27.616  29.155  22.687  1.00  0.00     0.047 A 
ATOM     21  C   UNL A   1      30.393  28.915  22.367  1.00  0.00     0.014 A 
ATOM     22  C   UNL A   1      28.313  28.096  23.284  1.00  0.00     0.014 A 
BRANCH  18  23
ATOM     23  O   UNL A   1      27.736  31.167  21.280  1.00  0.00    -0.497 OA
ATOM     24  C   UNL A   1      28.174  32.463  21.678  1.00  0.00     0.278 C 
ENDBRANCH  18  23
ENDBRANCH  13  17
BRANCH  16  25
ATOM     25  C   UNL A   1      32.629  23.525  25.095  1.00  0.00    -0.004 A 
ATOM     26  C   UNL A   1      33.272  23.327  23.936  1.00  0.00     0.009 A 
ATOM     27  C   UNL A   1      33.318  22.491  26.187  1.00  0.00     0.047 A 
ATOM     28  C   UNL A   1      34.551  22.612  23.926  1.00  0.00     0.021 A 
ATOM     29  C   UNL A   1      34.403  21.614  25.988  1.00  0.00     0.041 A 
ATOM     30  Cl  UNL A   1      33.069  22.289  28.026  1.00  0.00    -0.084 Cl
ATOM     31  C   UNL A   1      35.124  21.812  24.884  1.00  0.00     0.042 A 
ATOM     32  Cl  UNL A   1      36.754  21.290  24.774  1.00  0.00    -0.084 Cl
ENDBRANCH  16  25
ENDBRANCH  10  12
ENDBRANCH   9  10
ENDBRANCH   8   9
ENDBRANCH   6   8
ENDBRANCH   5   6
ENDBRANCH   4   5
ENDBRANCH   3   4
ENDBRANCH   2   3
ENDBRANCH   1   2
BRANCH   1  33
ATOM     33  C   UNL A   1      37.833  28.928  30.324  1.00  0.00     0.188 C 
BRANCH  33  34
ATOM     34  O   UNL A   1      38.755  28.065  28.990  1.00  0.00    -0.376 OA
BRANCH  34  35
ATOM     35  C   UNL A   1      39.763  26.572  28.932  1.00  0.00     0.202 C 
BRANCH  35  36
ATOM     36  C   UNL A   1      39.625  24.926  28.006  1.00  0.00     0.261 C 
BRANCH  36  37
ATOM     37  O   UNL A   1      40.544  24.307  26.834  1.00  0.00    -0.460 OA
BRANCH  37  38
ATOM     38  C   UNL A   1      41.998  24.374  26.767  1.00  0.00     0.338 C 
ATOM     39  O   UNL A   1      42.686  23.400  27.057  1.00  0.00    -0.246 OA
BRANCH  38  40
ATOM     40  C   UNL A   1      42.697  25.875  26.770  1.00  0.00     0.060 A 
ATOM     41  C   UNL A   1      43.529  26.225  27.867  1.00  0.00     0.016 A 
ATOM     42  C   UNL A   1      42.290  26.993  26.017  1.00  0.00     0.016 A 
ATOM     43  C   UNL A   1      43.643  27.573  28.362  1.00  0.00     0.010 A 
ATOM     44  C   UNL A   1      42.591  28.369  26.431  1.00  0.00     0.010 A 
ATOM     45  C   UNL A   1      43.234  28.710  27.648  1.00  0.00    -0.014 A 
BRANCH  45  46
ATOM     46  C   UNL A   1      43.540  30.165  28.130  1.00  0.00     0.031 A 
ATOM     47  C   UNL A   1      44.858  30.914  27.828  1.00  0.00     0.074 A 
ATOM     48  C   UNL A   1      42.667  30.893  28.884  1.00  0.00     0.049 A 
ATOM     49  N   UNL A   1      45.394  31.967  28.421  1.00  0.00    -0.248 NA
ATOM     50  C   UNL A   1      45.650  30.442  26.688  1.00  0.00     0.031 C 
ATOM     51  C   UNL A   1      41.297  30.515  29.230  1.00  0.00     0.029 A 
ATOM     52  N   UNL A   1      42.816  32.116  29.537  1.00  0.00    -0.354 N 
ATOM     53  C   UNL A   1      46.609  32.231  27.777  1.00  0.00     0.074 A 
ATOM     54  C   UNL A   1      46.710  31.246  26.716  1.00  0.00     0.031 C 
ATOM     55  C   UNL A   1      40.745  31.451  30.014  1.00  0.00     0.029 A 
ATOM     56  C   UNL A   1      41.745  32.454  30.346  1.00  0.00     0.049 A 
ATOM     57  H   UNL A   1      43.611  32.687  29.432  1.00  0.00     0.167 HD
ATOM     58  C   UNL A   1      47.561  33.176  28.039  1.00  0.00     0.037 A 
ATOM     59  C   UNL A   1      41.566  33.388  31.310  1.00  0.00     0.037 A 
ATOM     60  C   UNL A   1      47.474  34.214  29.050  1.00  0.00     0.049 A 
ATOM     61  C   UNL A   1      42.665  34.347  31.683  1.00  0.00     0.074 A 
ATOM     62  C   UNL A   1      48.423  35.173  29.388  1.00  0.00     0.029 A 
ATOM     63  N   UNL A   1      46.383  34.451  29.869  1.00  0.00    -0.354 N 
ATOM     64  N   UNL A   1      43.859  34.477  31.163  1.00  0.00    -0.248 NA
ATOM     65  C   UNL A   1      42.392  35.281  32.790  1.00  0.00     0.031 C 
ATOM     66  C   UNL A   1      47.926  35.952  30.442  1.00  0.00     0.029 A 
ATOM     67  C   UNL A   1      46.642  35.522  30.719  1.00  0.00     0.049 A 
ATOM     68  H   UNL A   1      45.545  33.936  29.853  1.00  0.00     0.167 HD
ATOM     69  C   UNL A   1      44.462  35.526  31.854  1.00  0.00     0.074 A 
ATOM     70  C   UNL A   1      43.502  36.005  32.823  1.00  0.00     0.031 C 
ATOM     71  C   UNL A   1      45.706  36.040  31.687  1.00  0.00     0.037 A 
BRANCH  58  72
ATOM     72  C   UNL A   1      48.865  33.111  27.264  1.00  0.00     0.058 A 
ATOM     73  C   UNL A   1      49.891  32.204  27.572  1.00  0.00     0.135 A 
ATOM     74  C   UNL A   1      49.049  33.929  26.132  1.00  0.00     0.135 A 
ATOM     75  F   UNL A   1      49.773  31.386  28.629  1.00  0.00    -0.206 F 
ATOM     76  C   UNL A   1      51.066  32.146  26.820  1.00  0.00     0.059 A 
ATOM     77  C   UNL A   1      50.200  33.868  25.349  1.00  0.00     0.059 A 
ATOM     78  F   UNL A   1      48.090  34.794  25.763  1.00  0.00    -0.206 F 
ATOM     79  C   UNL A   1      51.216  32.989  25.716  1.00  0.00     0.060 A 
BRANCH  79  80
ATOM     80  S   UNL A   1      52.759  32.933  24.776  1.00  0.00     0.124 S 
ATOM     81  O   UNL A   1      52.262  32.964  23.403  1.00  0.00    -0.237 OA
ATOM     82  O   UNL A   1      53.448  34.138  25.226  1.00  0.00    -0.237 OA
ATOM     83  O   UNL A   1      53.369  31.674  25.192  1.00  0.00    -0.744 OA
ENDBRANCH  79  80
ENDBRANCH  58  72
BRANCH  59  84
ATOM     84  C   UNL A   1      40.284  33.420  32.086  1.00  0.00     0.058 A 
ATOM     85  C   UNL A   1      40.122  32.672  33.262  1.00  0.00     0.135 A 
ATOM     86  C   UNL A   1      39.185  34.177  31.642  1.00  0.00     0.135 A 
ATOM     87  F   UNL A   1      41.127  31.906  33.712  1.00  0.00    -0.206 F 
ATOM     88  C   UNL A   1      38.920  32.667  33.966  1.00  0.00     0.059 A 
ATOM     89  C   UNL A   1      37.986  34.216  32.348  1.00  0.00     0.059 A 
ATOM     90  F   UNL A   1      39.281  34.908  30.521  1.00  0.00    -0.206 F 
ATOM     91  C   UNL A   1      37.860  33.450  33.506  1.00  0.00     0.060 A 
BRANCH  91  92
ATOM     92  S   UNL A   1      36.327  33.490  34.461  1.00  0.00     0.124 S 
ATOM     93  O   UNL A   1      35.923  34.883  34.309  1.00  0.00    -0.237 OA
ATOM     94  O   UNL A   1      35.507  32.505  33.763  1.00  0.00    -0.237 OA
ATOM     95  O   UNL A   1      36.757  33.100  35.800  1.00  0.00    -0.744 OA
ENDBRANCH  91  92
ENDBRANCH  59  84
BRANCH  71  96
ATOM     96  C   UNL A   1      46.091  37.239  32.520  1.00  0.00     0.058 A 
ATOM     97  C   UNL A   1      45.832  38.558  32.108  1.00  0.00     0.135 A 
ATOM     98  C   UNL A   1      46.741  37.067  33.755  1.00  0.00     0.135 A 
ATOM     99  F   UNL A   1      45.220  38.790  30.936  1.00  0.00    -0.206 F 
ATOM    100  C   UNL A   1      46.240  39.657  32.864  1.00  0.00     0.059 A 
ATOM    101  C   UNL A   1      47.132  38.150  34.541  1.00  0.00     0.059 A 
ATOM    102  F   UNL A   1      47.009  35.833  34.211  1.00  0.00    -0.206 F 
ATOM    103  C   UNL A   1      46.896  39.443  34.077  1.00  0.00     0.060 A 
BRANCH 103 104
ATOM    104  S   UNL A   1      47.430  40.872  35.045  1.00  0.00     0.124 S 
ATOM    105  O   UNL A   1      46.929  40.533  36.373  1.00  0.00    -0.237 OA
ATOM    106  O   UNL A   1      48.880  40.837  34.887  1.00  0.00    -0.237 OA
ATOM    107  O   UNL A   1      46.762  41.995  34.392  1.00  0.00    -0.744 OA
ENDBRANCH 103 104
ENDBRANCH  71  96
ENDBRANCH  45  46
ENDBRANCH  38  40
ENDBRANCH  37  38
ENDBRANCH  36  37
ENDBRANCH  35  36
ENDBRANCH  34  35
ENDBRANCH  33  34
ENDBRANCH   1  33
TORSDOF 26
ENDMDL
