MODEL 1
REMARK VINA RESULT:     -10.1      0.000      0.000
REMARK SMILES CCCN(C(=O)Cc1c(C(=O)OCCOCCOCCOC(=O)c2ccc(-c3c4nc(c(-c5c(F)cc(S(=O)(=O)[O-])cc5F)c5ccc([nH]5)c(-c5c(F)cc(S(=O)(=O)[O-])cc5F)c5nc(c(-c6c(F)cc(S(=O)(=O)[O-])cc6F)c6ccc3[nH]6)C=C5)C=C4)cc2)c(C)cn1CC)c1cccc(Cl)c1
REMARK SMILES IDX 16 1 15 2 14 3 13 4 12 5 10 6 11 7 9 8 8 9 93 10 90 11 92 12
REMARK SMILES IDX 91 13 7 14 5 15 6 16 4 17 3 18 2 19 1 20 96 21 97 22 102 23
REMARK SMILES IDX 98 24 100 25 99 26 101 27 94 28 95 29 17 30 18 31 19 32
REMARK SMILES IDX 20 33 21 34 22 35 23 36 24 37 25 38 89 39 26 40 88 41 27 42
REMARK SMILES IDX 28 43 29 44 82 45 30 46 87 47 81 48 83 49 31 50 86 51 80 52
REMARK SMILES IDX 79 53 32 55 66 56 45 57 65 58 46 59 49 60 64 61 84 62 47 63
REMARK SMILES IDX 48 64 63 66 85 67 50 68 33 69 34 70 43 71 35 72 36 73 42 74
REMARK SMILES IDX 44 75 37 76 38 77 39 78 40 79 41 80 67 81 68 82 77 83 69 84
REMARK SMILES IDX 70 85 76 86 78 87 71 88 72 89 73 90 74 91 75 92 51 93 52 94
REMARK SMILES IDX 61 95 53 96 54 97 60 98 62 99 55 100 56 101 57 102 58 103
REMARK SMILES IDX 59 104
REMARK H PARENT 83 54 49 65
REMARK Flexibility Score: inf
ROOT
ATOM      1  C   UNL A   1      37.927  21.731  25.161  1.00  0.00     0.188 C 
ENDROOT
BRANCH   1   2
ATOM      2  O   UNL A   1      36.777  21.151  24.584  1.00  0.00    -0.376 OA
BRANCH   2   3
ATOM      3  C   UNL A   1      35.581  21.009  25.329  1.00  0.00     0.202 C 
BRANCH   3   4
ATOM      4  C   UNL A   1      35.098  22.002  26.407  1.00  0.00     0.261 C 
BRANCH   4   5
ATOM      5  O   UNL A   1      34.208  23.048  26.005  1.00  0.00    -0.460 OA
BRANCH   5   6
ATOM      6  C   UNL A   1      32.878  22.810  26.185  1.00  0.00     0.340 C 
ATOM      7  O   UNL A   1      32.429  22.035  27.023  1.00  0.00    -0.246 OA
BRANCH   6   8
ATOM      8  C   UNL A   1      32.020  23.624  25.319  1.00  0.00     0.084 A 
ATOM      9  C   UNL A   1      31.642  24.957  25.560  1.00  0.00     0.042 A 
ATOM     10  N   UNL A   1      30.495  25.121  24.813  1.00  0.00    -0.350 N 
ATOM     11  C   UNL A   1      31.563  23.361  23.982  1.00  0.00    -0.019 A 
ATOM     12  C   UNL A   1      30.605  24.317  23.709  1.00  0.00     0.090 A 
ATOM     13  C   UNL A   1      32.019  22.292  23.054  1.00  0.00     0.047 C 
BRANCH   9  14
ATOM     14  C   UNL A   1      32.414  26.035  26.303  1.00  0.00     0.155 C 
BRANCH  14  15
ATOM     15  C   UNL A   1      33.507  26.747  25.533  1.00  0.00     0.232 C 
ATOM     16  O   UNL A   1      34.606  26.175  25.498  1.00  0.00    -0.274 OA
BRANCH  15  17
ATOM     17  N   UNL A   1      33.279  28.025  24.965  1.00  0.00    -0.312 N 
BRANCH  17  18
ATOM     18  C   UNL A   1      32.956  28.277  23.532  1.00  0.00     0.125 C 
BRANCH  18  19
ATOM     19  C   UNL A   1      32.450  27.137  22.619  1.00  0.00     0.019 C 
ATOM     20  C   UNL A   1      33.481  26.193  22.010  1.00  0.00     0.006 C 
ENDBRANCH  18  19
ENDBRANCH  17  18
BRANCH  17  21
ATOM     21  C   UNL A   1      33.506  29.186  25.810  1.00  0.00     0.045 A 
ATOM     22  C   UNL A   1      34.549  29.221  26.750  1.00  0.00     0.026 A 
ATOM     23  C   UNL A   1      32.618  30.264  25.811  1.00  0.00     0.046 A 
ATOM     24  C   UNL A   1      34.622  30.214  27.733  1.00  0.00     0.004 A 
ATOM     25  C   UNL A   1      32.662  31.234  26.816  1.00  0.00     0.043 A 
ATOM     26  C   UNL A   1      33.650  31.204  27.790  1.00  0.00     0.020 A 
ATOM     27  Cl  UNL A   1      31.432  32.438  26.884  1.00  0.00    -0.084 Cl
ENDBRANCH  17  21
ENDBRANCH  15  17
ENDBRANCH  14  15
ENDBRANCH   9  14
BRANCH  10  28
ATOM     28  C   UNL A   1      29.368  26.002  25.053  1.00  0.00     0.118 C 
ATOM     29  C   UNL A   1      28.662  26.469  23.792  1.00  0.00     0.027 C 
ENDBRANCH  10  28
ENDBRANCH   6   8
ENDBRANCH   5   6
ENDBRANCH   4   5
ENDBRANCH   3   4
ENDBRANCH   2   3
ENDBRANCH   1   2
BRANCH   1  30
ATOM     30  C   UNL A   1      39.064  20.847  25.718  1.00  0.00     0.188 C 
BRANCH  30  31
ATOM     31  O   UNL A   1      40.089  21.474  26.456  1.00  0.00    -0.376 OA
BRANCH  31  32
ATOM     32  C   UNL A   1      41.454  21.091  26.408  1.00  0.00     0.202 C 
BRANCH  32  33
ATOM     33  C   UNL A   1      42.616  21.937  25.894  1.00  0.00     0.261 C 
BRANCH  33  34
ATOM     34  O   UNL A   1      42.783  23.178  26.530  1.00  0.00    -0.460 OA
BRANCH  34  35
ATOM     35  C   UNL A   1      42.602  24.232  25.714  1.00  0.00     0.338 C 
ATOM     36  O   UNL A   1      43.271  24.532  24.733  1.00  0.00    -0.246 OA
BRANCH  35  37
ATOM     37  C   UNL A   1      41.463  25.005  26.209  1.00  0.00     0.060 A 
ATOM     38  C   UNL A   1      41.239  26.218  25.558  1.00  0.00     0.016 A 
ATOM     39  C   UNL A   1      41.027  24.742  27.514  1.00  0.00     0.016 A 
ATOM     40  C   UNL A   1      40.941  27.295  26.348  1.00  0.00     0.010 A 
ATOM     41  C   UNL A   1      40.767  25.820  28.306  1.00  0.00     0.010 A 
ATOM     42  C   UNL A   1      40.861  27.082  27.726  1.00  0.00    -0.014 A 
BRANCH  42  43
ATOM     43  C   UNL A   1      40.918  28.233  28.587  1.00  0.00     0.031 A 
ATOM     44  C   UNL A   1      42.126  29.036  28.353  1.00  0.00     0.074 A 
ATOM     45  C   UNL A   1      39.890  28.534  29.401  1.00  0.00     0.049 A 
ATOM     46  N   UNL A   1      43.182  29.097  29.091  1.00  0.00    -0.248 NA
ATOM     47  C   UNL A   1      42.290  29.624  27.013  1.00  0.00     0.031 C 
ATOM     48  C   UNL A   1      38.555  27.928  29.455  1.00  0.00     0.029 A 
ATOM     49  N   UNL A   1      39.795  29.556  30.287  1.00  0.00    -0.354 N 
ATOM     50  C   UNL A   1      44.037  29.956  28.412  1.00  0.00     0.074 A 
ATOM     51  C   UNL A   1      43.569  29.992  27.055  1.00  0.00     0.031 C 
ATOM     52  C   UNL A   1      37.726  28.744  30.146  1.00  0.00     0.029 A 
ATOM     53  C   UNL A   1      38.495  29.856  30.676  1.00  0.00     0.049 A 
ATOM     54  H   UNL A   1      40.581  30.045  30.626  1.00  0.00     0.167 HD
ATOM     55  C   UNL A   1      44.850  30.813  29.084  1.00  0.00     0.037 A 
ATOM     56  C   UNL A   1      38.118  31.017  31.271  1.00  0.00     0.037 A 
ATOM     57  C   UNL A   1      44.960  30.432  30.471  1.00  0.00     0.049 A 
ATOM     58  C   UNL A   1      39.359  31.625  31.841  1.00  0.00     0.074 A 
ATOM     59  C   UNL A   1      45.405  29.303  31.132  1.00  0.00     0.029 A 
ATOM     60  N   UNL A   1      44.201  31.133  31.382  1.00  0.00    -0.354 N 
ATOM     61  N   UNL A   1      40.047  31.084  32.815  1.00  0.00    -0.248 NA
ATOM     62  C   UNL A   1      40.109  32.545  30.995  1.00  0.00     0.031 C 
ATOM     63  C   UNL A   1      44.527  29.151  32.242  1.00  0.00     0.029 A 
ATOM     64  C   UNL A   1      43.636  30.227  32.242  1.00  0.00     0.049 A 
ATOM     65  H   UNL A   1      44.085  32.109  31.410  1.00  0.00     0.167 HD
ATOM     66  C   UNL A   1      41.381  31.271  32.467  1.00  0.00     0.074 A 
ATOM     67  C   UNL A   1      41.356  32.233  31.367  1.00  0.00     0.031 C 
ATOM     68  C   UNL A   1      42.356  30.414  32.894  1.00  0.00     0.037 A 
BRANCH  55  69
ATOM     69  C   UNL A   1      45.202  32.201  28.599  1.00  0.00     0.058 A 
ATOM     70  C   UNL A   1      46.558  32.583  28.594  1.00  0.00     0.135 A 
ATOM     71  C   UNL A   1      44.275  33.253  28.416  1.00  0.00     0.135 A 
ATOM     72  F   UNL A   1      47.528  31.666  28.741  1.00  0.00    -0.206 F 
ATOM     73  C   UNL A   1      46.955  33.916  28.528  1.00  0.00     0.059 A 
ATOM     74  C   UNL A   1      44.653  34.581  28.288  1.00  0.00     0.059 A 
ATOM     75  F   UNL A   1      42.950  33.078  28.448  1.00  0.00    -0.206 F 
ATOM     76  C   UNL A   1      45.990  34.910  28.400  1.00  0.00     0.060 A 
BRANCH  76  77
ATOM     77  S   UNL A   1      46.481  36.638  28.459  1.00  0.00     0.124 S 
ATOM     78  O   UNL A   1      47.812  36.577  27.866  1.00  0.00    -0.237 OA
ATOM     79  O   UNL A   1      45.445  37.272  27.653  1.00  0.00    -0.237 OA
ATOM     80  O   UNL A   1      46.438  36.949  29.885  1.00  0.00    -0.744 OA
ENDBRANCH  76  77
ENDBRANCH  55  69
BRANCH  56  81
ATOM     81  C   UNL A   1      36.872  31.788  31.002  1.00  0.00     0.058 A 
ATOM     82  C   UNL A   1      35.896  31.985  31.993  1.00  0.00     0.135 A 
ATOM     83  C   UNL A   1      36.725  32.564  29.831  1.00  0.00     0.135 A 
ATOM     84  F   UNL A   1      35.972  31.317  33.155  1.00  0.00    -0.206 F 
ATOM     85  C   UNL A   1      34.852  32.910  31.843  1.00  0.00     0.059 A 
ATOM     86  C   UNL A   1      35.690  33.480  29.654  1.00  0.00     0.059 A 
ATOM     87  F   UNL A   1      37.638  32.520  28.850  1.00  0.00    -0.206 F 
ATOM     88  C   UNL A   1      34.765  33.664  30.671  1.00  0.00     0.060 A 
BRANCH  88  89
ATOM     89  S   UNL A   1      33.510  34.959  30.524  1.00  0.00     0.124 S 
ATOM     90  O   UNL A   1      34.329  36.157  30.371  1.00  0.00    -0.237 OA
ATOM     91  O   UNL A   1      32.768  34.537  29.341  1.00  0.00    -0.237 OA
ATOM     92  O   UNL A   1      32.775  34.863  31.783  1.00  0.00    -0.744 OA
ENDBRANCH  88  89
ENDBRANCH  56  81
BRANCH  68  93
ATOM     93  C   UNL A   1      42.021  29.411  33.967  1.00  0.00     0.058 A 
ATOM     94  C   UNL A   1      41.417  28.166  33.716  1.00  0.00     0.135 A 
ATOM     95  C   UNL A   1      42.547  29.625  35.249  1.00  0.00     0.135 A 
ATOM     96  F   UNL A   1      40.977  27.849  32.491  1.00  0.00    -0.206 F 
ATOM     97  C   UNL A   1      41.335  27.179  34.703  1.00  0.00     0.059 A 
ATOM     98  C   UNL A   1      42.503  28.646  36.237  1.00  0.00     0.059 A 
ATOM     99  F   UNL A   1      43.190  30.771  35.527  1.00  0.00    -0.206 F 
ATOM    100  C   UNL A   1      41.894  27.425  35.958  1.00  0.00     0.060 A 
BRANCH 100 101
ATOM    101  S   UNL A   1      41.913  26.103  37.189  1.00  0.00     0.124 S 
ATOM    102  O   UNL A   1      42.377  24.962  36.408  1.00  0.00    -0.237 OA
ATOM    103  O   UNL A   1      42.850  26.612  38.187  1.00  0.00    -0.237 OA
ATOM    104  O   UNL A   1      40.523  26.032  37.635  1.00  0.00    -0.744 OA
ENDBRANCH 100 101
ENDBRANCH  68  93
ENDBRANCH  42  43
ENDBRANCH  35  37
ENDBRANCH  34  35
ENDBRANCH  33  34
ENDBRANCH  32  33
ENDBRANCH  31  32
ENDBRANCH  30  31
ENDBRANCH   1  30
TORSDOF 27
ENDMDL
MODEL 2
REMARK VINA RESULT:      -9.9      1.050      2.035
REMARK SMILES CCCN(C(=O)Cc1c(C(=O)OCCOCCOCCOC(=O)c2ccc(-c3c4nc(c(-c5c(F)cc(S(=O)(=O)[O-])cc5F)c5ccc([nH]5)c(-c5c(F)cc(S(=O)(=O)[O-])cc5F)c5nc(c(-c6c(F)cc(S(=O)(=O)[O-])cc6F)c6ccc3[nH]6)C=C5)C=C4)cc2)c(C)cn1CC)c1cccc(Cl)c1
REMARK SMILES IDX 16 1 15 2 14 3 13 4 12 5 10 6 11 7 9 8 8 9 93 10 90 11 92 12
REMARK SMILES IDX 91 13 7 14 5 15 6 16 4 17 3 18 2 19 1 20 96 21 97 22 102 23
REMARK SMILES IDX 98 24 100 25 99 26 101 27 94 28 95 29 17 30 18 31 19 32
REMARK SMILES IDX 20 33 21 34 22 35 23 36 24 37 25 38 89 39 26 40 88 41 27 42
REMARK SMILES IDX 28 43 29 44 82 45 30 46 87 47 81 48 83 49 31 50 86 51 80 52
REMARK SMILES IDX 79 53 32 55 66 56 45 57 65 58 46 59 49 60 64 61 84 62 47 63
REMARK SMILES IDX 48 64 63 66 85 67 50 68 33 69 34 70 43 71 35 72 36 73 42 74
REMARK SMILES IDX 44 75 37 76 38 77 39 78 40 79 41 80 67 81 68 82 77 83 69 84
REMARK SMILES IDX 70 85 76 86 78 87 71 88 72 89 73 90 74 91 75 92 51 93 52 94
REMARK SMILES IDX 61 95 53 96 54 97 60 98 62 99 55 100 56 101 57 102 58 103
REMARK SMILES IDX 59 104
REMARK H PARENT 83 54 49 65
REMARK Flexibility Score: inf
ROOT
ATOM      1  C   UNL A   1      37.484  22.198  25.022  1.00  0.00     0.188 C 
ENDROOT
BRANCH   1   2
ATOM      2  O   UNL A   1      36.261  21.844  24.412  1.00  0.00    -0.376 OA
BRANCH   2   3
ATOM      3  C   UNL A   1      35.220  21.243  25.161  1.00  0.00     0.202 C 
BRANCH   3   4
ATOM      4  C   UNL A   1      34.746  21.729  26.546  1.00  0.00     0.261 C 
BRANCH   4   5
ATOM      5  O   UNL A   1      34.131  23.017  26.632  1.00  0.00    -0.460 OA
BRANCH   5   6
ATOM      6  C   UNL A   1      32.806  23.033  26.953  1.00  0.00     0.340 C 
ATOM      7  O   UNL A   1      32.349  22.572  27.994  1.00  0.00    -0.246 OA
BRANCH   6   8
ATOM      8  C   UNL A   1      31.975  23.718  25.959  1.00  0.00     0.084 A 
ATOM      9  C   UNL A   1      31.590  25.070  26.005  1.00  0.00     0.042 A 
ATOM     10  N   UNL A   1      30.466  25.126  25.209  1.00  0.00    -0.350 N 
ATOM     11  C   UNL A   1      31.558  23.274  24.657  1.00  0.00    -0.019 A 
ATOM     12  C   UNL A   1      30.609  24.179  24.228  1.00  0.00     0.090 A 
ATOM     13  C   UNL A   1      32.041  22.090  23.898  1.00  0.00     0.047 C 
BRANCH   9  14
ATOM     14  C   UNL A   1      32.340  26.242  26.616  1.00  0.00     0.155 C 
BRANCH  14  15
ATOM     15  C   UNL A   1      33.439  26.863  25.779  1.00  0.00     0.232 C 
ATOM     16  O   UNL A   1      34.487  26.208  25.688  1.00  0.00    -0.274 OA
BRANCH  15  17
ATOM     17  N   UNL A   1      33.278  28.151  25.211  1.00  0.00    -0.312 N 
BRANCH  17  18
ATOM     18  C   UNL A   1      34.115  29.340  25.540  1.00  0.00     0.125 C 
BRANCH  18  19
ATOM     19  C   UNL A   1      34.124  29.936  26.966  1.00  0.00     0.019 C 
ATOM     20  C   UNL A   1      35.194  29.454  27.940  1.00  0.00     0.006 C 
ENDBRANCH  18  19
ENDBRANCH  17  18
BRANCH  17  21
ATOM     21  C   UNL A   1      32.130  28.366  24.345  1.00  0.00     0.045 A 
ATOM     22  C   UNL A   1      31.991  27.686  23.124  1.00  0.00     0.026 A 
ATOM     23  C   UNL A   1      31.183  29.351  24.631  1.00  0.00     0.046 A 
ATOM     24  C   UNL A   1      31.036  28.064  22.175  1.00  0.00     0.004 A 
ATOM     25  C   UNL A   1      30.255  29.760  23.670  1.00  0.00     0.043 A 
ATOM     26  C   UNL A   1      30.189  29.133  22.433  1.00  0.00     0.020 A 
ATOM     27  Cl  UNL A   1      29.231  31.105  24.001  1.00  0.00    -0.084 Cl
ENDBRANCH  17  21
ENDBRANCH  15  17
ENDBRANCH  14  15
ENDBRANCH   9  14
BRANCH  10  28
ATOM     28  C   UNL A   1      29.332  26.027  25.292  1.00  0.00     0.118 C 
ATOM     29  C   UNL A   1      28.656  26.304  23.961  1.00  0.00     0.027 C 
ENDBRANCH  10  28
ENDBRANCH   6   8
ENDBRANCH   5   6
ENDBRANCH   4   5
ENDBRANCH   3   4
ENDBRANCH   2   3
ENDBRANCH   1   2
BRANCH   1  30
ATOM     30  C   UNL A   1      38.507  21.115  25.430  1.00  0.00     0.188 C 
BRANCH  30  31
ATOM     31  O   UNL A   1      39.505  21.465  26.362  1.00  0.00    -0.376 OA
BRANCH  31  32
ATOM     32  C   UNL A   1      40.795  20.877  26.407  1.00  0.00     0.202 C 
BRANCH  32  33
ATOM     33  C   UNL A   1      42.117  21.565  26.073  1.00  0.00     0.261 C 
BRANCH  33  34
ATOM     34  O   UNL A   1      42.344  22.784  26.734  1.00  0.00    -0.460 OA
BRANCH  34  35
ATOM     35  C   UNL A   1      42.220  23.860  25.938  1.00  0.00     0.338 C 
ATOM     36  O   UNL A   1      42.866  24.114  24.929  1.00  0.00    -0.246 OA
BRANCH  35  37
ATOM     37  C   UNL A   1      41.179  24.725  26.494  1.00  0.00     0.060 A 
ATOM     38  C   UNL A   1      41.018  25.953  25.852  1.00  0.00     0.016 A 
ATOM     39  C   UNL A   1      40.798  24.497  27.823  1.00  0.00     0.016 A 
ATOM     40  C   UNL A   1      40.856  27.050  26.653  1.00  0.00     0.010 A 
ATOM     41  C   UNL A   1      40.674  25.593  28.624  1.00  0.00     0.010 A 
ATOM     42  C   UNL A   1      40.838  26.843  28.034  1.00  0.00    -0.014 A 
BRANCH  42  43
ATOM     43  C   UNL A   1      41.038  27.985  28.885  1.00  0.00     0.031 A 
ATOM     44  C   UNL A   1      42.151  28.826  28.424  1.00  0.00     0.074 A 
ATOM     45  C   UNL A   1      40.191  28.246  29.897  1.00  0.00     0.049 A 
ATOM     46  N   UNL A   1      43.334  28.910  28.933  1.00  0.00    -0.248 NA
ATOM     47  C   UNL A   1      42.022  29.435  27.090  1.00  0.00     0.031 C 
ATOM     48  C   UNL A   1      38.912  27.601  30.211  1.00  0.00     0.029 A 
ATOM     49  N   UNL A   1      40.252  29.255  30.801  1.00  0.00    -0.354 N 
ATOM     50  C   UNL A   1      44.008  29.802  28.108  1.00  0.00     0.074 A 
ATOM     51  C   UNL A   1      43.272  29.840  26.876  1.00  0.00     0.031 C 
ATOM     52  C   UNL A   1      38.220  28.383  31.072  1.00  0.00     0.029 A 
ATOM     53  C   UNL A   1      39.051  29.511  31.453  1.00  0.00     0.049 A 
ATOM     54  H   UNL A   1      41.077  29.762  30.982  1.00  0.00     0.167 HD
ATOM     55  C   UNL A   1      44.919  30.675  28.616  1.00  0.00     0.037 A 
ATOM     56  C   UNL A   1      38.772  30.653  32.133  1.00  0.00     0.037 A 
ATOM     57  C   UNL A   1      45.320  30.281  29.945  1.00  0.00     0.049 A 
ATOM     58  C   UNL A   1      40.087  31.291  32.448  1.00  0.00     0.074 A 
ATOM     59  C   UNL A   1      45.920  29.158  30.480  1.00  0.00     0.029 A 
ATOM     60  N   UNL A   1      44.745  30.949  31.003  1.00  0.00    -0.354 N 
ATOM     61  N   UNL A   1      40.974  30.759  33.252  1.00  0.00    -0.248 NA
ATOM     62  C   UNL A   1      40.624  32.243  31.484  1.00  0.00     0.031 C 
ATOM     63  C   UNL A   1      45.293  28.968  31.744  1.00  0.00     0.029 A 
ATOM     64  C   UNL A   1      44.392  30.016  31.944  1.00  0.00     0.049 A 
ATOM     65  H   UNL A   1      44.611  31.921  31.071  1.00  0.00     0.167 HD
ATOM     66  C   UNL A   1      42.203  30.990  32.643  1.00  0.00     0.074 A 
ATOM     67  C   UNL A   1      41.928  31.963  31.588  1.00  0.00     0.031 C 
ATOM     68  C   UNL A   1      43.267  30.158  32.846  1.00  0.00     0.037 A 
BRANCH  55  69
ATOM     69  C   UNL A   1      45.127  32.079  28.094  1.00  0.00     0.058 A 
ATOM     70  C   UNL A   1      46.426  32.460  27.703  1.00  0.00     0.135 A 
ATOM     71  C   UNL A   1      44.197  33.136  28.225  1.00  0.00     0.135 A 
ATOM     72  F   UNL A   1      47.387  31.539  27.529  1.00  0.00    -0.206 F 
ATOM     73  C   UNL A   1      46.799  33.795  27.565  1.00  0.00     0.059 A 
ATOM     74  C   UNL A   1      44.535  34.468  28.034  1.00  0.00     0.059 A 
ATOM     75  F   UNL A   1      42.939  32.961  28.639  1.00  0.00    -0.206 F 
ATOM     76  C   UNL A   1      45.849  34.792  27.759  1.00  0.00     0.060 A 
BRANCH  76  77
ATOM     77  S   UNL A   1      46.353  36.517  27.727  1.00  0.00     0.124 S 
ATOM     78  O   UNL A   1      45.239  37.127  27.011  1.00  0.00    -0.237 OA
ATOM     79  O   UNL A   1      46.453  36.828  29.148  1.00  0.00    -0.237 OA
ATOM     80  O   UNL A   1      47.623  36.481  27.007  1.00  0.00    -0.744 OA
ENDBRANCH  76  77
ENDBRANCH  55  69
BRANCH  56  81
ATOM     81  C   UNL A   1      37.478  31.390  32.137  1.00  0.00     0.058 A 
ATOM     82  C   UNL A   1      36.954  31.958  33.311  1.00  0.00     0.135 A 
ATOM     83  C   UNL A   1      36.843  31.769  30.934  1.00  0.00     0.135 A 
ATOM     84  F   UNL A   1      37.515  31.683  34.499  1.00  0.00    -0.206 F 
ATOM     85  C   UNL A   1      35.882  32.863  33.292  1.00  0.00     0.059 A 
ATOM     86  C   UNL A   1      35.769  32.656  30.891  1.00  0.00     0.059 A 
ATOM     87  F   UNL A   1      37.302  31.353  29.745  1.00  0.00    -0.206 F 
ATOM     88  C   UNL A   1      35.304  33.217  32.072  1.00  0.00     0.060 A 
BRANCH  88  89
ATOM     89  S   UNL A   1      34.018  34.488  32.020  1.00  0.00     0.124 S 
ATOM     90  O   UNL A   1      34.725  35.654  32.541  1.00  0.00    -0.237 OA
ATOM     91  O   UNL A   1      33.680  34.528  30.602  1.00  0.00    -0.237 OA
ATOM     92  O   UNL A   1      32.975  33.951  32.891  1.00  0.00    -0.744 OA
ENDBRANCH  88  89
ENDBRANCH  56  81
BRANCH  68  93
ATOM     93  C   UNL A   1      43.185  29.132  33.947  1.00  0.00     0.058 A 
ATOM     94  C   UNL A   1      43.332  29.433  35.313  1.00  0.00     0.135 A 
ATOM     95  C   UNL A   1      42.708  27.855  33.617  1.00  0.00     0.135 A 
ATOM     96  F   UNL A   1      43.690  30.662  35.712  1.00  0.00    -0.206 F 
ATOM     97  C   UNL A   1      43.022  28.500  36.307  1.00  0.00     0.059 A 
ATOM     98  C   UNL A   1      42.366  26.922  34.590  1.00  0.00     0.059 A 
ATOM     99  F   UNL A   1      42.489  27.533  32.332  1.00  0.00    -0.206 F 
ATOM    100  C   UNL A   1      42.526  27.251  35.934  1.00  0.00     0.060 A 
BRANCH 100 101
ATOM    101  S   UNL A   1      41.995  26.094  37.217  1.00  0.00     0.124 S 
ATOM    102  O   UNL A   1      40.729  26.676  37.651  1.00  0.00    -0.237 OA
ATOM    103  O   UNL A   1      41.896  24.833  36.487  1.00  0.00    -0.237 OA
ATOM    104  O   UNL A   1      43.077  26.151  38.197  1.00  0.00    -0.744 OA
ENDBRANCH 100 101
ENDBRANCH  68  93
ENDBRANCH  42  43
ENDBRANCH  35  37
ENDBRANCH  34  35
ENDBRANCH  33  34
ENDBRANCH  32  33
ENDBRANCH  31  32
ENDBRANCH  30  31
ENDBRANCH   1  30
TORSDOF 27
ENDMDL
MODEL 3
REMARK VINA RESULT:      -9.5      1.531      2.076
REMARK SMILES CCCN(C(=O)Cc1c(C(=O)OCCOCCOCCOC(=O)c2ccc(-c3c4nc(c(-c5c(F)cc(S(=O)(=O)[O-])cc5F)c5ccc([nH]5)c(-c5c(F)cc(S(=O)(=O)[O-])cc5F)c5nc(c(-c6c(F)cc(S(=O)(=O)[O-])cc6F)c6ccc3[nH]6)C=C5)C=C4)cc2)c(C)cn1CC)c1cccc(Cl)c1
REMARK SMILES IDX 16 1 15 2 14 3 13 4 12 5 10 6 11 7 9 8 8 9 93 10 90 11 92 12
REMARK SMILES IDX 91 13 7 14 5 15 6 16 4 17 3 18 2 19 1 20 96 21 97 22 102 23
REMARK SMILES IDX 98 24 100 25 99 26 101 27 94 28 95 29 17 30 18 31 19 32
REMARK SMILES IDX 20 33 21 34 22 35 23 36 24 37 25 38 89 39 26 40 88 41 27 42
REMARK SMILES IDX 28 43 29 44 82 45 30 46 87 47 81 48 83 49 31 50 86 51 80 52
REMARK SMILES IDX 79 53 32 55 66 56 45 57 65 58 46 59 49 60 64 61 84 62 47 63
REMARK SMILES IDX 48 64 63 66 85 67 50 68 33 69 34 70 43 71 35 72 36 73 42 74
REMARK SMILES IDX 44 75 37 76 38 77 39 78 40 79 41 80 67 81 68 82 77 83 69 84
REMARK SMILES IDX 70 85 76 86 78 87 71 88 72 89 73 90 74 91 75 92 51 93 52 94
REMARK SMILES IDX 61 95 53 96 54 97 60 98 62 99 55 100 56 101 57 102 58 103
REMARK SMILES IDX 59 104
REMARK H PARENT 83 54 49 65
REMARK Flexibility Score: inf
ROOT
ATOM      1  C   UNL A   1      38.148  21.121  24.969  1.00  0.00     0.188 C 
ENDROOT
BRANCH   1   2
ATOM      2  O   UNL A   1      36.819  20.851  24.578  1.00  0.00    -0.376 OA
BRANCH   2   3
ATOM      3  C   UNL A   1      35.747  20.989  25.493  1.00  0.00     0.202 C 
BRANCH   3   4
ATOM      4  C   UNL A   1      35.640  22.103  26.554  1.00  0.00     0.261 C 
BRANCH   4   5
ATOM      5  O   UNL A   1      34.704  23.160  26.326  1.00  0.00    -0.460 OA
BRANCH   5   6
ATOM      6  C   UNL A   1      33.386  22.836  26.451  1.00  0.00     0.340 C 
ATOM      7  O   UNL A   1      32.897  22.334  27.458  1.00  0.00    -0.246 OA
BRANCH   6   8
ATOM      8  C   UNL A   1      32.583  23.205  25.282  1.00  0.00     0.084 A 
ATOM      9  C   UNL A   1      32.225  24.516  24.915  1.00  0.00     0.042 A 
ATOM     10  N   UNL A   1      31.115  24.349  24.116  1.00  0.00    -0.350 N 
ATOM     11  C   UNL A   1      32.175  22.399  24.164  1.00  0.00    -0.019 A 
ATOM     12  C   UNL A   1      31.250  23.150  23.466  1.00  0.00     0.090 A 
ATOM     13  C   UNL A   1      32.644  21.035  23.802  1.00  0.00     0.047 C 
BRANCH   9  14
ATOM     14  C   UNL A   1      32.991  25.804  25.163  1.00  0.00     0.155 C 
BRANCH  14  15
ATOM     15  C   UNL A   1      33.269  26.679  23.957  1.00  0.00     0.232 C 
ATOM     16  O   UNL A   1      33.985  26.178  23.078  1.00  0.00    -0.274 OA
BRANCH  15  17
ATOM     17  N   UNL A   1      32.790  28.011  23.903  1.00  0.00    -0.312 N 
BRANCH  17  18
ATOM     18  C   UNL A   1      32.108  28.626  22.729  1.00  0.00     0.125 C 
BRANCH  18  19
ATOM     19  C   UNL A   1      30.629  28.307  22.412  1.00  0.00     0.019 C 
ATOM     20  C   UNL A   1      29.550  29.101  23.139  1.00  0.00     0.006 C 
ENDBRANCH  18  19
ENDBRANCH  17  18
BRANCH  17  21
ATOM     21  C   UNL A   1      33.103  28.884  25.022  1.00  0.00     0.045 A 
ATOM     22  C   UNL A   1      34.096  28.554  25.959  1.00  0.00     0.026 A 
ATOM     23  C   UNL A   1      32.340  30.024  25.284  1.00  0.00     0.046 A 
ATOM     24  C   UNL A   1      34.231  29.249  27.166  1.00  0.00     0.004 A 
ATOM     25  C   UNL A   1      32.444  30.695  26.506  1.00  0.00     0.043 A 
ATOM     26  C   UNL A   1      33.374  30.301  27.458  1.00  0.00     0.020 A 
ATOM     27  Cl  UNL A   1      31.353  31.981  26.860  1.00  0.00    -0.084 Cl
ENDBRANCH  17  21
ENDBRANCH  15  17
ENDBRANCH  14  15
ENDBRANCH   9  14
BRANCH  10  28
ATOM     28  C   UNL A   1      29.999  25.252  23.905  1.00  0.00     0.118 C 
ATOM     29  C   UNL A   1      29.459  25.884  25.176  1.00  0.00     0.027 C 
ENDBRANCH  10  28
ENDBRANCH   6   8
ENDBRANCH   5   6
ENDBRANCH   4   5
ENDBRANCH   3   4
ENDBRANCH   2   3
ENDBRANCH   1   2
BRANCH   1  30
ATOM     30  C   UNL A   1      38.987  20.055  25.708  1.00  0.00     0.188 C 
BRANCH  30  31
ATOM     31  O   UNL A   1      40.159  20.477  26.369  1.00  0.00    -0.376 OA
BRANCH  31  32
ATOM     32  C   UNL A   1      41.390  19.773  26.333  1.00  0.00     0.202 C 
BRANCH  32  33
ATOM     33  C   UNL A   1      42.681  20.238  25.665  1.00  0.00     0.261 C 
BRANCH  33  34
ATOM     34  O   UNL A   1      43.263  21.391  26.218  1.00  0.00    -0.460 OA
BRANCH  34  35
ATOM     35  C   UNL A   1      42.940  22.523  25.568  1.00  0.00     0.338 C 
ATOM     36  O   UNL A   1      43.397  22.923  24.505  1.00  0.00    -0.246 OA
BRANCH  35  37
ATOM     37  C   UNL A   1      41.945  23.242  26.364  1.00  0.00     0.060 A 
ATOM     38  C   UNL A   1      41.327  24.314  25.720  1.00  0.00     0.016 A 
ATOM     39  C   UNL A   1      42.041  23.137  27.758  1.00  0.00     0.016 A 
ATOM     40  C   UNL A   1      41.168  25.462  26.447  1.00  0.00     0.010 A 
ATOM     41  C   UNL A   1      41.917  24.290  28.474  1.00  0.00     0.010 A 
ATOM     42  C   UNL A   1      41.611  25.453  27.772  1.00  0.00    -0.014 A 
BRANCH  42  43
ATOM     43  C   UNL A   1      41.793  26.720  28.426  1.00  0.00     0.031 A 
ATOM     44  C   UNL A   1      42.985  27.426  27.936  1.00  0.00     0.074 A 
ATOM     45  C   UNL A   1      40.873  27.188  29.289  1.00  0.00     0.049 A 
ATOM     46  N   UNL A   1      44.120  27.558  28.535  1.00  0.00    -0.248 NA
ATOM     47  C   UNL A   1      43.008  27.791  26.510  1.00  0.00     0.031 C 
ATOM     48  C   UNL A   1      39.539  26.654  29.585  1.00  0.00     0.029 A 
ATOM     49  N   UNL A   1      40.905  28.338  30.006  1.00  0.00    -0.354 N 
ATOM     50  C   UNL A   1      44.911  28.264  27.638  1.00  0.00     0.074 A 
ATOM     51  C   UNL A   1      44.292  28.107  26.352  1.00  0.00     0.031 C 
ATOM     52  C   UNL A   1      38.815  27.601  30.224  1.00  0.00     0.029 A 
ATOM     53  C   UNL A   1      39.665  28.749  30.482  1.00  0.00     0.049 A 
ATOM     54  H   UNL A   1      41.735  28.841  30.174  1.00  0.00     0.167 HD
ATOM     55  C   UNL A   1      45.817  29.180  28.072  1.00  0.00     0.037 A 
ATOM     56  C   UNL A   1      39.386  30.003  30.922  1.00  0.00     0.037 A 
ATOM     57  C   UNL A   1      46.076  29.017  29.481  1.00  0.00     0.049 A 
ATOM     58  C   UNL A   1      40.698  30.641  31.248  1.00  0.00     0.074 A 
ATOM     59  C   UNL A   1      46.566  27.987  30.261  1.00  0.00     0.029 A 
ATOM     60  N   UNL A   1      45.443  29.882  30.346  1.00  0.00    -0.354 N 
ATOM     61  N   UNL A   1      41.481  30.230  32.214  1.00  0.00    -0.248 NA
ATOM     62  C   UNL A   1      41.369  31.386  30.189  1.00  0.00     0.031 C 
ATOM     63  C   UNL A   1      45.819  28.047  31.470  1.00  0.00     0.029 A 
ATOM     64  C   UNL A   1      44.959  29.145  31.396  1.00  0.00     0.049 A 
ATOM     65  H   UNL A   1      45.354  30.855  30.230  1.00  0.00     0.167 HD
ATOM     66  C   UNL A   1      42.770  30.305  31.697  1.00  0.00     0.074 A 
ATOM     67  C   UNL A   1      42.642  31.083  30.468  1.00  0.00     0.031 C 
ATOM     68  C   UNL A   1      43.767  29.485  32.146  1.00  0.00     0.037 A 
BRANCH  55  69
ATOM     69  C   UNL A   1      46.143  30.460  27.336  1.00  0.00     0.058 A 
ATOM     70  C   UNL A   1      47.498  30.818  27.187  1.00  0.00     0.135 A 
ATOM     71  C   UNL A   1      45.210  31.477  27.027  1.00  0.00     0.135 A 
ATOM     72  F   UNL A   1      48.472  29.927  27.434  1.00  0.00    -0.206 F 
ATOM     73  C   UNL A   1      47.895  32.115  26.869  1.00  0.00     0.059 A 
ATOM     74  C   UNL A   1      45.584  32.758  26.651  1.00  0.00     0.059 A 
ATOM     75  F   UNL A   1      43.889  31.328  27.166  1.00  0.00    -0.206 F 
ATOM     76  C   UNL A   1      46.926  33.084  26.629  1.00  0.00     0.060 A 
BRANCH  76  77
ATOM     77  S   UNL A   1      47.424  34.790  26.361  1.00  0.00     0.124 S 
ATOM     78  O   UNL A   1      48.525  34.919  27.310  1.00  0.00    -0.237 OA
ATOM     79  O   UNL A   1      47.790  34.779  24.950  1.00  0.00    -0.237 OA
ATOM     80  O   UNL A   1      46.218  35.546  26.686  1.00  0.00    -0.744 OA
ENDBRANCH  76  77
ENDBRANCH  55  69
BRANCH  56  81
ATOM     81  C   UNL A   1      38.137  30.775  30.671  1.00  0.00     0.058 A 
ATOM     82  C   UNL A   1      37.441  31.414  31.711  1.00  0.00     0.135 A 
ATOM     83  C   UNL A   1      37.729  31.110  29.361  1.00  0.00     0.135 A 
ATOM     84  F   UNL A   1      37.781  31.184  32.989  1.00  0.00    -0.206 F 
ATOM     85  C   UNL A   1      36.421  32.346  31.468  1.00  0.00     0.059 A 
ATOM     86  C   UNL A   1      36.710  32.022  29.095  1.00  0.00     0.059 A 
ATOM     87  F   UNL A   1      38.369  30.623  28.289  1.00  0.00    -0.206 F 
ATOM     88  C   UNL A   1      36.071  32.653  30.153  1.00  0.00     0.060 A 
BRANCH  88  89
ATOM     89  S   UNL A   1      34.858  33.955  29.824  1.00  0.00     0.124 S 
ATOM     90  O   UNL A   1      33.681  33.181  29.444  1.00  0.00    -0.237 OA
ATOM     91  O   UNL A   1      34.784  34.640  31.110  1.00  0.00    -0.237 OA
ATOM     92  O   UNL A   1      35.472  34.726  28.745  1.00  0.00    -0.744 OA
ENDBRANCH  88  89
ENDBRANCH  56  81
BRANCH  68  93
ATOM     93  C   UNL A   1      43.534  28.677  33.395  1.00  0.00     0.058 A 
ATOM     94  C   UNL A   1      43.601  29.205  34.697  1.00  0.00     0.135 A 
ATOM     95  C   UNL A   1      42.994  27.390  33.250  1.00  0.00     0.135 A 
ATOM     96  F   UNL A   1      44.015  30.462  34.908  1.00  0.00    -0.206 F 
ATOM     97  C   UNL A   1      43.155  28.481  35.806  1.00  0.00     0.059 A 
ATOM     98  C   UNL A   1      42.516  26.664  34.337  1.00  0.00     0.059 A 
ATOM     99  F   UNL A   1      42.847  26.859  32.025  1.00  0.00    -0.206 F 
ATOM    100  C   UNL A   1      42.601  27.215  35.613  1.00  0.00     0.060 A 
BRANCH 100 101
ATOM    101  S   UNL A   1      41.898  26.335  37.026  1.00  0.00     0.124 S 
ATOM    102  O   UNL A   1      42.953  26.466  38.025  1.00  0.00    -0.237 OA
ATOM    103  O   UNL A   1      40.674  27.087  37.292  1.00  0.00    -0.237 OA
ATOM    104  O   UNL A   1      41.686  24.983  36.515  1.00  0.00    -0.744 OA
ENDBRANCH 100 101
ENDBRANCH  68  93
ENDBRANCH  42  43
ENDBRANCH  35  37
ENDBRANCH  34  35
ENDBRANCH  33  34
ENDBRANCH  32  33
ENDBRANCH  31  32
ENDBRANCH  30  31
ENDBRANCH   1  30
TORSDOF 27
ENDMDL
