MODEL 1
REMARK VINA RESULT:     -10.0      0.000      0.000
REMARK SMILES Cc1nn(C)c(Cl)c1C[N@@H+]1CC[C@H](O)C[C@@H]1C(=O)OCCOCCOCCOC(=O)c1ccc(-c2c3nc(c(-c4c(F)cc(S(=O)(=O)[O-])cc4F)c4ccc([nH]4)c(-c4c(F)cc(S(=O)(=O)[O-])cc4F)c4nc(c(-c5c(F)cc(S(=O)(=O)[O-])cc5F)c5ccc2[nH]5)C=C4)C=C3)cc1
REMARK SMILES IDX 24 1 23 2 22 3 21 4 20 5 19 6 17 7 18 8 16 9 10 10 11 11
REMARK SMILES IDX 12 13 15 14 13 15 9 16 8 17 1 18 2 19 3 20 4 21 6 22 5 23
REMARK SMILES IDX 7 24 14 25 25 27 26 28 27 29 28 30 29 31 30 32 31 33 32 34
REMARK SMILES IDX 96 35 33 36 95 37 34 38 35 39 36 40 89 41 37 42 94 43 88 44
REMARK SMILES IDX 90 45 38 46 93 47 87 48 86 49 39 51 73 52 52 53 72 54 53 55
REMARK SMILES IDX 56 56 71 57 91 58 54 59 55 60 70 62 92 63 57 64 40 65 41 66
REMARK SMILES IDX 50 67 42 68 43 69 49 70 51 71 44 72 45 73 46 74 47 75 48 76
REMARK SMILES IDX 74 77 75 78 84 79 76 80 77 81 83 82 85 83 78 84 79 85 80 86
REMARK SMILES IDX 81 87 82 88 58 89 59 90 68 91 60 92 61 93 67 94 69 95 62 96
REMARK SMILES IDX 63 97 64 98 65 99 66 100
REMARK H PARENT 10 12 14 26 90 50 56 61
REMARK Flexibility Score: inf
ROOT
ATOM      1  C   UNL A   1      33.206  28.935  24.757  1.00  0.00     0.188 C 
ENDROOT
BRANCH   1   2
ATOM      2  C   UNL A   1      32.113  29.133  23.694  1.00  0.00     0.188 C 
BRANCH   2   3
ATOM      3  O   UNL A   1      30.753  28.934  24.075  1.00  0.00    -0.376 OA
BRANCH   3   4
ATOM      4  C   UNL A   1      30.070  27.815  23.538  1.00  0.00     0.202 C 
BRANCH   4   5
ATOM      5  C   UNL A   1      30.896  26.891  22.624  1.00  0.00     0.261 C 
BRANCH   5   6
ATOM      6  O   UNL A   1      31.238  25.586  23.154  1.00  0.00    -0.459 OA
BRANCH   6   7
ATOM      7  C   UNL A   1      32.561  25.395  23.423  1.00  0.00     0.365 C 
ATOM      8  O   UNL A   1      33.471  25.836  22.728  1.00  0.00    -0.245 OA
BRANCH   7   9
ATOM      9  C   UNL A   1      32.845  24.584  24.704  1.00  0.00     0.297 C 
ATOM     10  N   UNL A   1      32.707  23.118  24.612  1.00  0.00    -0.319 N 
ATOM     11  C   UNL A   1      31.410  22.549  24.941  1.00  0.00     0.265 C 
ATOM     12  H   UNL A   1      33.253  22.881  25.440  1.00  0.00     0.349 HD
ATOM     13  C   UNL A   1      30.898  23.035  26.290  1.00  0.00     0.093 C 
ATOM     14  C   UNL A   1      32.163  25.168  25.955  1.00  0.00     0.109 C 
ATOM     15  C   UNL A   1      30.810  24.547  26.306  1.00  0.00     0.126 C 
BRANCH  10  16
ATOM     16  C   UNL A   1      33.486  22.405  23.596  1.00  0.00     0.305 C 
BRANCH  16  17
ATOM     17  C   UNL A   1      34.708  21.749  24.139  1.00  0.00     0.066 A 
ATOM     18  C   UNL A   1      33.765  19.436  24.982  1.00  0.00     0.069 C 
ATOM     19  C   UNL A   1      34.811  20.477  24.789  1.00  0.00     0.070 A 
ATOM     20  N   UNL A   1      36.045  20.259  25.273  1.00  0.00    -0.177 NA
ATOM     21  N   UNL A   1      36.725  21.367  24.924  1.00  0.00    -0.256 N 
ATOM     22  C   UNL A   1      36.020  22.158  24.074  1.00  0.00     0.135 A 
ATOM     23  C   UNL A   1      37.988  21.647  25.562  1.00  0.00     0.175 C 
ATOM     24  Cl  UNL A   1      36.807  23.403  23.218  1.00  0.00    -0.062 Cl
ENDBRANCH  16  17
ENDBRANCH  10  16
BRANCH  15  25
ATOM     25  O   UNL A   1      29.763  24.951  25.433  1.00  0.00    -0.393 OA
ATOM     26  H   UNL A   1      30.026  24.782  24.513  1.00  0.00     0.210 HD
ENDBRANCH  15  25
ENDBRANCH   7   9
ENDBRANCH   6   7
ENDBRANCH   5   6
ENDBRANCH   4   5
ENDBRANCH   3   4
ENDBRANCH   2   3
ENDBRANCH   1   2
BRANCH   1  27
ATOM     27  O   UNL A   1      32.840  28.443  26.041  1.00  0.00    -0.376 OA
BRANCH  27  28
ATOM     28  C   UNL A   1      32.818  29.346  27.138  1.00  0.00     0.202 C 
BRANCH  28  29
ATOM     29  C   UNL A   1      33.432  30.712  26.862  1.00  0.00     0.261 C 
BRANCH  29  30
ATOM     30  O   UNL A   1      33.418  31.457  28.075  1.00  0.00    -0.460 OA
BRANCH  30  31
ATOM     31  C   UNL A   1      33.177  32.775  28.003  1.00  0.00     0.338 C 
ATOM     32  O   UNL A   1      32.242  33.336  27.431  1.00  0.00    -0.246 OA
BRANCH  31  33
ATOM     33  C   UNL A   1      34.263  33.471  28.706  1.00  0.00     0.060 A 
ATOM     34  C   UNL A   1      35.328  33.911  27.915  1.00  0.00     0.016 A 
ATOM     35  C   UNL A   1      34.394  33.246  30.081  1.00  0.00     0.016 A 
ATOM     36  C   UNL A   1      36.600  33.748  28.413  1.00  0.00     0.010 A 
ATOM     37  C   UNL A   1      35.653  33.003  30.545  1.00  0.00     0.010 A 
ATOM     38  C   UNL A   1      36.727  33.152  29.665  1.00  0.00    -0.014 A 
BRANCH  38  39
ATOM     39  C   UNL A   1      37.957  32.456  29.986  1.00  0.00     0.031 A 
ATOM     40  C   UNL A   1      38.000  31.042  29.567  1.00  0.00     0.074 A 
ATOM     41  C   UNL A   1      39.022  33.180  30.394  1.00  0.00     0.049 A 
ATOM     42  N   UNL A   1      38.163  29.988  30.296  1.00  0.00    -0.248 NA
ATOM     43  C   UNL A   1      37.666  30.750  28.161  1.00  0.00     0.031 C 
ATOM     44  C   UNL A   1      39.111  34.650  30.459  1.00  0.00     0.029 A 
ATOM     45  N   UNL A   1      40.293  32.788  30.680  1.00  0.00    -0.354 N 
ATOM     46  C   UNL A   1      38.193  28.935  29.386  1.00  0.00     0.074 A 
ATOM     47  C   UNL A   1      37.616  29.422  28.169  1.00  0.00     0.031 C 
ATOM     48  C   UNL A   1      40.409  35.013  30.533  1.00  0.00     0.029 A 
ATOM     49  C   UNL A   1      41.228  33.815  30.610  1.00  0.00     0.049 A 
ATOM     50  H   UNL A   1      40.530  31.861  30.912  1.00  0.00     0.167 HD
ATOM     51  C   UNL A   1      39.002  27.859  29.571  1.00  0.00     0.037 A 
ATOM     52  C   UNL A   1      42.573  33.682  30.501  1.00  0.00     0.037 A 
ATOM     53  C   UNL A   1      39.408  27.734  30.946  1.00  0.00     0.049 A 
ATOM     54  C   UNL A   1      42.916  32.283  30.870  1.00  0.00     0.074 A 
ATOM     55  C   UNL A   1      38.735  27.629  32.148  1.00  0.00     0.029 A 
ATOM     56  N   UNL A   1      40.705  28.058  31.260  1.00  0.00    -0.354 N 
ATOM     57  N   UNL A   1      42.796  31.779  32.068  1.00  0.00    -0.248 NA
ATOM     58  C   UNL A   1      43.030  31.303  29.798  1.00  0.00     0.031 C 
ATOM     59  C   UNL A   1      39.556  28.293  33.103  1.00  0.00     0.029 A 
ATOM     60  C   UNL A   1      40.700  28.748  32.445  1.00  0.00     0.049 A 
ATOM     61  H   UNL A   1      41.502  27.833  30.726  1.00  0.00     0.167 HD
ATOM     62  C   UNL A   1      42.412  30.460  31.866  1.00  0.00     0.074 A 
ATOM     63  C   UNL A   1      42.696  30.194  30.461  1.00  0.00     0.031 C 
ATOM     64  C   UNL A   1      41.634  29.804  32.777  1.00  0.00     0.037 A 
BRANCH  51  65
ATOM     65  C   UNL A   1      39.727  27.173  28.432  1.00  0.00     0.058 A 
ATOM     66  C   UNL A   1      39.613  25.778  28.296  1.00  0.00     0.135 A 
ATOM     67  C   UNL A   1      40.732  27.780  27.639  1.00  0.00     0.135 A 
ATOM     68  F   UNL A   1      38.701  25.096  29.008  1.00  0.00    -0.206 F 
ATOM     69  C   UNL A   1      40.481  25.034  27.496  1.00  0.00     0.059 A 
ATOM     70  C   UNL A   1      41.560  27.068  26.782  1.00  0.00     0.059 A 
ATOM     71  F   UNL A   1      41.044  29.078  27.726  1.00  0.00    -0.206 F 
ATOM     72  C   UNL A   1      41.463  25.689  26.760  1.00  0.00     0.060 A 
BRANCH  72  73
ATOM     73  S   UNL A   1      42.684  24.733  25.849  1.00  0.00     0.124 S 
ATOM     74  O   UNL A   1      42.130  23.389  25.958  1.00  0.00    -0.237 OA
ATOM     75  O   UNL A   1      42.627  25.346  24.526  1.00  0.00    -0.237 OA
ATOM     76  O   UNL A   1      43.918  24.972  26.592  1.00  0.00    -0.744 OA
ENDBRANCH  72  73
ENDBRANCH  51  65
BRANCH  52  77
ATOM     77  C   UNL A   1      43.521  34.587  29.795  1.00  0.00     0.058 A 
ATOM     78  C   UNL A   1      44.710  35.022  30.403  1.00  0.00     0.135 A 
ATOM     79  C   UNL A   1      43.396  34.865  28.416  1.00  0.00     0.135 A 
ATOM     80  F   UNL A   1      44.935  34.767  31.701  1.00  0.00    -0.206 F 
ATOM     81  C   UNL A   1      45.720  35.677  29.687  1.00  0.00     0.059 A 
ATOM     82  C   UNL A   1      44.376  35.537  27.688  1.00  0.00     0.059 A 
ATOM     83  F   UNL A   1      42.350  34.415  27.708  1.00  0.00    -0.206 F 
ATOM     84  C   UNL A   1      45.546  35.923  28.325  1.00  0.00     0.060 A 
BRANCH  84  85
ATOM     85  S   UNL A   1      46.895  36.651  27.368  1.00  0.00     0.124 S 
ATOM     86  O   UNL A   1      47.820  37.067  28.417  1.00  0.00    -0.237 OA
ATOM     87  O   UNL A   1      47.329  35.529  26.543  1.00  0.00    -0.237 OA
ATOM     88  O   UNL A   1      46.248  37.741  26.642  1.00  0.00    -0.744 OA
ENDBRANCH  84  85
ENDBRANCH  52  77
BRANCH  64  89
ATOM     89  C   UNL A   1      41.535  30.379  34.166  1.00  0.00     0.058 A 
ATOM     90  C   UNL A   1      42.458  30.121  35.193  1.00  0.00     0.135 A 
ATOM     91  C   UNL A   1      40.552  31.348  34.415  1.00  0.00     0.135 A 
ATOM     92  F   UNL A   1      43.491  29.290  34.998  1.00  0.00    -0.206 F 
ATOM     93  C   UNL A   1      42.383  30.767  36.428  1.00  0.00     0.059 A 
ATOM     94  C   UNL A   1      40.477  32.029  35.627  1.00  0.00     0.059 A 
ATOM     95  F   UNL A   1      39.680  31.686  33.450  1.00  0.00    -0.206 F 
ATOM     96  C   UNL A   1      41.390  31.725  36.635  1.00  0.00     0.060 A 
BRANCH  96  97
ATOM     97  S   UNL A   1      41.359  32.636  38.193  1.00  0.00     0.124 S 
ATOM     98  O   UNL A   1      41.973  33.906  37.819  1.00  0.00    -0.237 OA
ATOM     99  O   UNL A   1      39.934  32.689  38.506  1.00  0.00    -0.237 OA
ATOM    100  O   UNL A   1      42.152  31.800  39.091  1.00  0.00    -0.744 OA
ENDBRANCH  96  97
ENDBRANCH  64  89
ENDBRANCH  38  39
ENDBRANCH  31  33
ENDBRANCH  30  31
ENDBRANCH  29  30
ENDBRANCH  28  29
ENDBRANCH  27  28
ENDBRANCH   1  27
TORSDOF 23
ENDMDL
MODEL 2
REMARK VINA RESULT:      -9.6      2.483      7.433
REMARK SMILES Cc1nn(C)c(Cl)c1C[N@@H+]1CC[C@H](O)C[C@@H]1C(=O)OCCOCCOCCOC(=O)c1ccc(-c2c3nc(c(-c4c(F)cc(S(=O)(=O)[O-])cc4F)c4ccc([nH]4)c(-c4c(F)cc(S(=O)(=O)[O-])cc4F)c4nc(c(-c5c(F)cc(S(=O)(=O)[O-])cc5F)c5ccc2[nH]5)C=C4)C=C3)cc1
REMARK SMILES IDX 24 1 23 2 22 3 21 4 20 5 19 6 17 7 18 8 16 9 10 10 11 11
REMARK SMILES IDX 12 13 15 14 13 15 9 16 8 17 1 18 2 19 3 20 4 21 6 22 5 23
REMARK SMILES IDX 7 24 14 25 25 27 26 28 27 29 28 30 29 31 30 32 31 33 32 34
REMARK SMILES IDX 96 35 33 36 95 37 34 38 35 39 36 40 89 41 37 42 94 43 88 44
REMARK SMILES IDX 90 45 38 46 93 47 87 48 86 49 39 51 73 52 52 53 72 54 53 55
REMARK SMILES IDX 56 56 71 57 91 58 54 59 55 60 70 62 92 63 57 64 40 65 41 66
REMARK SMILES IDX 50 67 42 68 43 69 49 70 51 71 44 72 45 73 46 74 47 75 48 76
REMARK SMILES IDX 74 77 75 78 84 79 76 80 77 81 83 82 85 83 78 84 79 85 80 86
REMARK SMILES IDX 81 87 82 88 58 89 59 90 68 91 60 92 61 93 67 94 69 95 62 96
REMARK SMILES IDX 63 97 64 98 65 99 66 100
REMARK H PARENT 10 12 14 26 90 50 56 61
REMARK Flexibility Score: inf
ROOT
ATOM      1  C   UNL A   1      34.798  31.569  27.917  1.00  0.00     0.188 C 
ENDROOT
BRANCH   1   2
ATOM      2  C   UNL A   1      33.354  31.206  27.531  1.00  0.00     0.188 C 
BRANCH   2   3
ATOM      3  O   UNL A   1      33.151  30.308  26.442  1.00  0.00    -0.376 OA
BRANCH   3   4
ATOM      4  C   UNL A   1      31.841  30.193  25.913  1.00  0.00     0.202 C 
BRANCH   4   5
ATOM      5  C   UNL A   1      31.637  29.116  24.832  1.00  0.00     0.261 C 
BRANCH   5   6
ATOM      6  O   UNL A   1      32.465  27.930  24.929  1.00  0.00    -0.459 OA
BRANCH   6   7
ATOM      7  C   UNL A   1      31.825  26.806  25.365  1.00  0.00     0.365 C 
ATOM      8  O   UNL A   1      31.136  26.762  26.379  1.00  0.00    -0.245 OA
BRANCH   7   9
ATOM      9  C   UNL A   1      32.016  25.570  24.464  1.00  0.00     0.297 C 
ATOM     10  N   UNL A   1      33.396  25.248  24.052  1.00  0.00    -0.319 N 
ATOM     11  C   UNL A   1      33.867  25.817  22.800  1.00  0.00     0.265 C 
ATOM     12  H   UNL A   1      33.234  24.276  23.791  1.00  0.00     0.349 HD
ATOM     13  C   UNL A   1      32.905  25.543  21.650  1.00  0.00     0.093 C 
ATOM     14  C   UNL A   1      31.017  25.512  23.294  1.00  0.00     0.109 C 
ATOM     15  C   UNL A   1      31.530  26.091  21.974  1.00  0.00     0.126 C 
BRANCH  10  16
ATOM     16  C   UNL A   1      34.409  25.053  25.093  1.00  0.00     0.305 C 
BRANCH  16  17
ATOM     17  C   UNL A   1      34.803  23.628  25.276  1.00  0.00     0.066 A 
ATOM     18  C   UNL A   1      33.180  22.851  27.203  1.00  0.00     0.069 C 
ATOM     19  C   UNL A   1      34.299  22.690  26.234  1.00  0.00     0.070 A 
ATOM     20  N   UNL A   1      34.975  21.530  26.205  1.00  0.00    -0.177 NA
ATOM     21  N   UNL A   1      35.888  21.717  25.234  1.00  0.00    -0.256 N 
ATOM     22  C   UNL A   1      35.667  22.859  24.531  1.00  0.00     0.135 A 
ATOM     23  C   UNL A   1      37.012  20.819  25.142  1.00  0.00     0.175 C 
ATOM     24  Cl  UNL A   1      36.454  23.110  23.042  1.00  0.00    -0.062 Cl
ENDBRANCH  16  17
ENDBRANCH  10  16
BRANCH  15  25
ATOM     25  O   UNL A   1      31.594  27.511  21.971  1.00  0.00    -0.393 OA
ATOM     26  H   UNL A   1      32.345  27.800  21.429  1.00  0.00     0.210 HD
ENDBRANCH  15  25
ENDBRANCH   7   9
ENDBRANCH   6   7
ENDBRANCH   5   6
ENDBRANCH   4   5
ENDBRANCH   3   4
ENDBRANCH   2   3
ENDBRANCH   1   2
BRANCH   1  27
ATOM     27  O   UNL A   1      35.025  32.676  28.782  1.00  0.00    -0.376 OA
BRANCH  27  28
ATOM     28  C   UNL A   1      34.484  33.941  28.428  1.00  0.00     0.202 C 
BRANCH  28  29
ATOM     29  C   UNL A   1      33.629  34.602  29.501  1.00  0.00     0.261 C 
BRANCH  29  30
ATOM     30  O   UNL A   1      33.890  33.949  30.739  1.00  0.00    -0.460 OA
BRANCH  30  31
ATOM     31  C   UNL A   1      33.857  34.687  31.860  1.00  0.00     0.338 C 
ATOM     32  O   UNL A   1      33.277  35.758  32.036  1.00  0.00    -0.246 OA
BRANCH  31  33
ATOM     33  C   UNL A   1      34.683  34.011  32.869  1.00  0.00     0.060 A 
ATOM     34  C   UNL A   1      35.631  34.803  33.523  1.00  0.00     0.016 A 
ATOM     35  C   UNL A   1      34.802  32.619  32.783  1.00  0.00     0.016 A 
ATOM     36  C   UNL A   1      36.875  34.258  33.741  1.00  0.00     0.010 A 
ATOM     37  C   UNL A   1      36.056  32.101  32.919  1.00  0.00     0.010 A 
ATOM     38  C   UNL A   1      37.093  32.958  33.289  1.00  0.00    -0.014 A 
BRANCH  38  39
ATOM     39  C   UNL A   1      38.447  32.548  32.973  1.00  0.00     0.031 A 
ATOM     40  C   UNL A   1      39.338  32.393  34.139  1.00  0.00     0.074 A 
ATOM     41  C   UNL A   1      38.716  32.109  31.724  1.00  0.00     0.049 A 
ATOM     42  N   UNL A   1      40.446  33.004  34.396  1.00  0.00    -0.248 NA
ATOM     43  C   UNL A   1      38.852  31.546  35.245  1.00  0.00     0.031 C 
ATOM     44  C   UNL A   1      37.741  31.901  30.639  1.00  0.00     0.029 A 
ATOM     45  N   UNL A   1      39.865  31.604  31.199  1.00  0.00    -0.354 N 
ATOM     46  C   UNL A   1      40.899  32.426  35.579  1.00  0.00     0.074 A 
ATOM     47  C   UNL A   1      39.775  31.768  36.176  1.00  0.00     0.031 C 
ATOM     48  C   UNL A   1      38.292  31.110  29.693  1.00  0.00     0.029 A 
ATOM     49  C   UNL A   1      39.670  30.832  30.058  1.00  0.00     0.049 A 
ATOM     50  H   UNL A   1      40.753  31.768  31.592  1.00  0.00     0.167 HD
ATOM     51  C   UNL A   1      42.222  32.222  35.808  1.00  0.00     0.037 A 
ATOM     52  C   UNL A   1      40.540  29.939  29.525  1.00  0.00     0.037 A 
ATOM     53  C   UNL A   1      43.039  33.058  34.969  1.00  0.00     0.049 A 
ATOM     54  C   UNL A   1      41.878  30.209  30.116  1.00  0.00     0.074 A 
ATOM     55  C   UNL A   1      43.129  34.419  34.752  1.00  0.00     0.029 A 
ATOM     56  N   UNL A   1      43.702  32.459  33.925  1.00  0.00    -0.354 N 
ATOM     57  N   UNL A   1      42.586  31.283  29.895  1.00  0.00    -0.248 NA
ATOM     58  C   UNL A   1      42.272  29.443  31.290  1.00  0.00     0.031 C 
ATOM     59  C   UNL A   1      43.485  34.563  33.381  1.00  0.00     0.029 A 
ATOM     60  C   UNL A   1      43.620  33.286  32.834  1.00  0.00     0.049 A 
ATOM     61  H   UNL A   1      44.156  31.585  33.955  1.00  0.00     0.167 HD
ATOM     62  C   UNL A   1      43.226  31.546  31.098  1.00  0.00     0.074 A 
ATOM     63  C   UNL A   1      43.097  30.318  31.872  1.00  0.00     0.031 C 
ATOM     64  C   UNL A   1      43.544  32.822  31.464  1.00  0.00     0.037 A 
BRANCH  51  65
ATOM     65  C   UNL A   1      42.752  30.988  36.508  1.00  0.00     0.058 A 
ATOM     66  C   UNL A   1      43.718  31.141  37.518  1.00  0.00     0.135 A 
ATOM     67  C   UNL A   1      42.556  29.660  36.052  1.00  0.00     0.135 A 
ATOM     68  F   UNL A   1      43.994  32.356  38.018  1.00  0.00    -0.206 F 
ATOM     69  C   UNL A   1      44.485  30.072  37.983  1.00  0.00     0.059 A 
ATOM     70  C   UNL A   1      43.258  28.572  36.551  1.00  0.00     0.059 A 
ATOM     71  F   UNL A   1      41.754  29.354  35.025  1.00  0.00    -0.206 F 
ATOM     72  C   UNL A   1      44.259  28.796  37.477  1.00  0.00     0.060 A 
BRANCH  72  73
ATOM     73  S   UNL A   1      45.342  27.441  37.951  1.00  0.00     0.124 S 
ATOM     74  O   UNL A   1      44.436  26.304  37.847  1.00  0.00    -0.237 OA
ATOM     75  O   UNL A   1      46.392  27.522  36.942  1.00  0.00    -0.237 OA
ATOM     76  O   UNL A   1      45.753  27.801  39.306  1.00  0.00    -0.744 OA
ENDBRANCH  72  73
ENDBRANCH  51  65
BRANCH  52  77
ATOM     77  C   UNL A   1      40.218  28.682  28.795  1.00  0.00     0.058 A 
ATOM     78  C   UNL A   1      40.727  28.431  27.510  1.00  0.00     0.135 A 
ATOM     79  C   UNL A   1      39.589  27.592  29.434  1.00  0.00     0.135 A 
ATOM     80  F   UNL A   1      41.376  29.396  26.841  1.00  0.00    -0.206 F 
ATOM     81  C   UNL A   1      40.631  27.172  26.902  1.00  0.00     0.059 A 
ATOM     82  C   UNL A   1      39.460  26.338  28.840  1.00  0.00     0.059 A 
ATOM     83  F   UNL A   1      39.151  27.685  30.698  1.00  0.00    -0.206 F 
ATOM     84  C   UNL A   1      40.001  26.129  27.580  1.00  0.00     0.060 A 
BRANCH  84  85
ATOM     85  S   UNL A   1      39.988  24.472  26.858  1.00  0.00     0.124 S 
ATOM     86  O   UNL A   1      40.202  23.629  28.029  1.00  0.00    -0.237 OA
ATOM     87  O   UNL A   1      38.660  24.408  26.258  1.00  0.00    -0.237 OA
ATOM     88  O   UNL A   1      41.096  24.507  25.907  1.00  0.00    -0.744 OA
ENDBRANCH  84  85
ENDBRANCH  52  77
BRANCH  64  89
ATOM     89  C   UNL A   1      43.561  33.882  30.393  1.00  0.00     0.058 A 
ATOM     90  C   UNL A   1      44.658  34.139  29.554  1.00  0.00     0.135 A 
ATOM     91  C   UNL A   1      42.364  34.555  30.107  1.00  0.00     0.135 A 
ATOM     92  F   UNL A   1      45.805  33.458  29.693  1.00  0.00    -0.206 F 
ATOM     93  C   UNL A   1      44.582  35.054  28.504  1.00  0.00     0.059 A 
ATOM     94  C   UNL A   1      42.254  35.449  29.044  1.00  0.00     0.059 A 
ATOM     95  F   UNL A   1      41.261  34.304  30.832  1.00  0.00    -0.206 F 
ATOM     96  C   UNL A   1      43.372  35.703  28.253  1.00  0.00     0.060 A 
BRANCH  96  97
ATOM     97  S   UNL A   1      43.246  36.806  26.829  1.00  0.00     0.124 S 
ATOM     98  O   UNL A   1      44.577  37.401  26.783  1.00  0.00    -0.237 OA
ATOM     99  O   UNL A   1      42.924  35.888  25.740  1.00  0.00    -0.237 OA
ATOM    100  O   UNL A   1      42.166  37.717  27.200  1.00  0.00    -0.744 OA
ENDBRANCH  96  97
ENDBRANCH  64  89
ENDBRANCH  38  39
ENDBRANCH  31  33
ENDBRANCH  30  31
ENDBRANCH  29  30
ENDBRANCH  28  29
ENDBRANCH  27  28
ENDBRANCH   1  27
TORSDOF 23
ENDMDL
MODEL 3
REMARK VINA RESULT:      -9.4      2.393      3.214
REMARK SMILES Cc1nn(C)c(Cl)c1C[N@@H+]1CC[C@H](O)C[C@@H]1C(=O)OCCOCCOCCOC(=O)c1ccc(-c2c3nc(c(-c4c(F)cc(S(=O)(=O)[O-])cc4F)c4ccc([nH]4)c(-c4c(F)cc(S(=O)(=O)[O-])cc4F)c4nc(c(-c5c(F)cc(S(=O)(=O)[O-])cc5F)c5ccc2[nH]5)C=C4)C=C3)cc1
REMARK SMILES IDX 24 1 23 2 22 3 21 4 20 5 19 6 17 7 18 8 16 9 10 10 11 11
REMARK SMILES IDX 12 13 15 14 13 15 9 16 8 17 1 18 2 19 3 20 4 21 6 22 5 23
REMARK SMILES IDX 7 24 14 25 25 27 26 28 27 29 28 30 29 31 30 32 31 33 32 34
REMARK SMILES IDX 96 35 33 36 95 37 34 38 35 39 36 40 89 41 37 42 94 43 88 44
REMARK SMILES IDX 90 45 38 46 93 47 87 48 86 49 39 51 73 52 52 53 72 54 53 55
REMARK SMILES IDX 56 56 71 57 91 58 54 59 55 60 70 62 92 63 57 64 40 65 41 66
REMARK SMILES IDX 50 67 42 68 43 69 49 70 51 71 44 72 45 73 46 74 47 75 48 76
REMARK SMILES IDX 74 77 75 78 84 79 76 80 77 81 83 82 85 83 78 84 79 85 80 86
REMARK SMILES IDX 81 87 82 88 58 89 59 90 68 91 60 92 61 93 67 94 69 95 62 96
REMARK SMILES IDX 63 97 64 98 65 99 66 100
REMARK H PARENT 10 12 14 26 90 50 56 61
REMARK Flexibility Score: inf
ROOT
ATOM      1  C   UNL A   1      31.869  28.334  24.524  1.00  0.00     0.188 C 
ENDROOT
BRANCH   1   2
ATOM      2  C   UNL A   1      32.351  27.731  23.194  1.00  0.00     0.188 C 
BRANCH   2   3
ATOM      3  O   UNL A   1      31.605  26.655  22.628  1.00  0.00    -0.376 OA
BRANCH   3   4
ATOM      4  C   UNL A   1      31.222  25.592  23.483  1.00  0.00     0.202 C 
BRANCH   4   5
ATOM      5  C   UNL A   1      31.572  24.173  23.001  1.00  0.00     0.261 C 
BRANCH   5   6
ATOM      6  O   UNL A   1      32.543  23.437  23.786  1.00  0.00    -0.459 OA
BRANCH   6   7
ATOM      7  C   UNL A   1      33.779  24.006  23.868  1.00  0.00     0.365 C 
ATOM      8  O   UNL A   1      34.430  24.370  22.892  1.00  0.00    -0.245 OA
BRANCH   7   9
ATOM      9  C   UNL A   1      34.311  24.184  25.304  1.00  0.00     0.297 C 
ATOM     10  N   UNL A   1      35.438  23.322  25.712  1.00  0.00    -0.319 N 
ATOM     11  C   UNL A   1      35.111  22.056  26.347  1.00  0.00     0.265 C 
ATOM     12  H   UNL A   1      35.750  23.879  26.507  1.00  0.00     0.349 HD
ATOM     13  C   UNL A   1      34.145  22.233  27.512  1.00  0.00     0.093 C 
ATOM     14  C   UNL A   1      33.194  24.243  26.361  1.00  0.00     0.109 C 
ATOM     15  C   UNL A   1      32.874  22.910  27.041  1.00  0.00     0.126 C 
BRANCH  10  16
ATOM     16  C   UNL A   1      36.662  23.343  24.906  1.00  0.00     0.305 C 
BRANCH  16  17
ATOM     17  C   UNL A   1      37.832  22.728  25.591  1.00  0.00     0.066 A 
ATOM     18  C   UNL A   1      38.649  24.687  27.154  1.00  0.00     0.069 C 
ATOM     19  C   UNL A   1      38.724  23.338  26.530  1.00  0.00     0.070 A 
ATOM     20  N   UNL A   1      39.751  22.531  26.846  1.00  0.00    -0.177 NA
ATOM     21  N   UNL A   1      39.511  21.416  26.131  1.00  0.00    -0.256 N 
ATOM     22  C   UNL A   1      38.281  21.427  25.555  1.00  0.00     0.135 A 
ATOM     23  C   UNL A   1      40.571  20.456  25.947  1.00  0.00     0.175 C 
ATOM     24  Cl  UNL A   1      37.621  19.989  24.924  1.00  0.00    -0.062 Cl
ENDBRANCH  16  17
ENDBRANCH  10  16
BRANCH  15  25
ATOM     25  O   UNL A   1      32.161  22.009  26.204  1.00  0.00    -0.393 OA
ATOM     26  H   UNL A   1      32.617  21.152  26.190  1.00  0.00     0.210 HD
ENDBRANCH  15  25
ENDBRANCH   7   9
ENDBRANCH   6   7
ENDBRANCH   5   6
ENDBRANCH   4   5
ENDBRANCH   3   4
ENDBRANCH   2   3
ENDBRANCH   1   2
BRANCH   1  27
ATOM     27  O   UNL A   1      31.194  29.587  24.510  1.00  0.00    -0.376 OA
BRANCH  27  28
ATOM     28  C   UNL A   1      31.397  30.483  25.594  1.00  0.00     0.202 C 
BRANCH  28  29
ATOM     29  C   UNL A   1      32.191  29.915  26.762  1.00  0.00     0.261 C 
BRANCH  29  30
ATOM     30  O   UNL A   1      33.427  30.616  26.841  1.00  0.00    -0.460 OA
BRANCH  30  31
ATOM     31  C   UNL A   1      34.500  29.954  27.303  1.00  0.00     0.338 C 
ATOM     32  O   UNL A   1      34.913  28.852  26.943  1.00  0.00    -0.246 OA
BRANCH  31  33
ATOM     33  C   UNL A   1      35.102  30.763  28.371  1.00  0.00     0.060 A 
ATOM     34  C   UNL A   1      35.665  31.981  27.981  1.00  0.00     0.016 A 
ATOM     35  C   UNL A   1      35.482  30.105  29.547  1.00  0.00     0.016 A 
ATOM     36  C   UNL A   1      36.867  32.338  28.547  1.00  0.00     0.010 A 
ATOM     37  C   UNL A   1      36.713  30.409  30.049  1.00  0.00     0.010 A 
ATOM     38  C   UNL A   1      37.431  31.453  29.463  1.00  0.00    -0.014 A 
BRANCH  38  39
ATOM     39  C   UNL A   1      38.868  31.466  29.651  1.00  0.00     0.031 A 
ATOM     40  C   UNL A   1      39.562  30.235  29.228  1.00  0.00     0.074 A 
ATOM     41  C   UNL A   1      39.472  32.638  29.946  1.00  0.00     0.049 A 
ATOM     42  N   UNL A   1      40.289  29.434  29.934  1.00  0.00    -0.248 NA
ATOM     43  C   UNL A   1      39.288  29.746  27.864  1.00  0.00     0.031 C 
ATOM     44  C   UNL A   1      38.832  33.964  30.004  1.00  0.00     0.029 A 
ATOM     45  N   UNL A   1      40.791  32.933  30.096  1.00  0.00    -0.354 N 
ATOM     46  C   UNL A   1      40.750  28.486  29.024  1.00  0.00     0.074 A 
ATOM     47  C   UNL A   1      39.898  28.565  27.875  1.00  0.00     0.031 C 
ATOM     48  C   UNL A   1      39.784  34.920  29.941  1.00  0.00     0.029 A 
ATOM     49  C   UNL A   1      41.089  34.281  29.929  1.00  0.00     0.049 A 
ATOM     50  H   UNL A   1      41.474  32.253  30.301  1.00  0.00     0.167 HD
ATOM     51  C   UNL A   1      41.996  27.954  29.122  1.00  0.00     0.037 A 
ATOM     52  C   UNL A   1      42.309  34.819  29.679  1.00  0.00     0.037 A 
ATOM     53  C   UNL A   1      42.536  28.113  30.446  1.00  0.00     0.049 A 
ATOM     54  C   UNL A   1      43.328  33.787  30.008  1.00  0.00     0.074 A 
ATOM     55  C   UNL A   1      42.116  27.753  31.712  1.00  0.00     0.029 A 
ATOM     56  N   UNL A   1      43.529  29.046  30.622  1.00  0.00    -0.354 N 
ATOM     57  N   UNL A   1      43.582  33.349  31.211  1.00  0.00    -0.248 NA
ATOM     58  C   UNL A   1      43.810  32.935  28.929  1.00  0.00     0.031 C 
ATOM     59  C   UNL A   1      42.588  28.781  32.576  1.00  0.00     0.029 A 
ATOM     60  C   UNL A   1      43.295  29.704  31.803  1.00  0.00     0.049 A 
ATOM     61  H   UNL A   1      44.280  29.213  30.007  1.00  0.00     0.167 HD
ATOM     62  C   UNL A   1      43.880  32.003  31.049  1.00  0.00     0.074 A 
ATOM     63  C   UNL A   1      44.128  31.840  29.622  1.00  0.00     0.031 C 
ATOM     64  C   UNL A   1      43.613  31.097  32.035  1.00  0.00     0.037 A 
BRANCH  51  65
ATOM     65  C   UNL A   1      42.856  27.654  27.912  1.00  0.00     0.058 A 
ATOM     66  C   UNL A   1      43.386  26.361  27.759  1.00  0.00     0.135 A 
ATOM     67  C   UNL A   1      43.397  28.638  27.047  1.00  0.00     0.135 A 
ATOM     68  F   UNL A   1      42.956  25.352  28.533  1.00  0.00    -0.206 F 
ATOM     69  C   UNL A   1      44.429  26.082  26.873  1.00  0.00     0.059 A 
ATOM     70  C   UNL A   1      44.384  28.368  26.110  1.00  0.00     0.059 A 
ATOM     71  F   UNL A   1      43.082  29.936  27.133  1.00  0.00    -0.206 F 
ATOM     72  C   UNL A   1      44.932  27.100  26.068  1.00  0.00     0.060 A 
BRANCH  72  73
ATOM     73  S   UNL A   1      46.374  26.794  25.038  1.00  0.00     0.124 S 
ATOM     74  O   UNL A   1      46.141  25.415  24.626  1.00  0.00    -0.237 OA
ATOM     75  O   UNL A   1      46.227  27.809  24.000  1.00  0.00    -0.237 OA
ATOM     76  O   UNL A   1      47.490  27.001  25.956  1.00  0.00    -0.744 OA
ENDBRANCH  72  73
ENDBRANCH  51  65
BRANCH  52  77
ATOM     77  C   UNL A   1      42.619  36.034  28.879  1.00  0.00     0.058 A 
ATOM     78  C   UNL A   1      42.073  36.228  27.599  1.00  0.00     0.135 A 
ATOM     79  C   UNL A   1      43.279  37.148  29.444  1.00  0.00     0.135 A 
ATOM     80  F   UNL A   1      41.393  35.239  27.000  1.00  0.00    -0.206 F 
ATOM     81  C   UNL A   1      42.161  37.454  26.927  1.00  0.00     0.059 A 
ATOM     82  C   UNL A   1      43.400  38.369  28.785  1.00  0.00     0.059 A 
ATOM     83  F   UNL A   1      43.755  37.112  30.697  1.00  0.00    -0.206 F 
ATOM     84  C   UNL A   1      42.821  38.523  27.534  1.00  0.00     0.060 A 
BRANCH  84  85
ATOM     85  S   UNL A   1      42.826  40.142  26.731  1.00  0.00     0.124 S 
ATOM     86  O   UNL A   1      43.931  40.008  25.786  1.00  0.00    -0.237 OA
ATOM     87  O   UNL A   1      41.490  40.201  26.147  1.00  0.00    -0.237 OA
ATOM     88  O   UNL A   1      43.062  41.069  27.835  1.00  0.00    -0.744 OA
ENDBRANCH  84  85
ENDBRANCH  52  77
BRANCH  64  89
ATOM     89  C   UNL A   1      43.374  31.619  33.429  1.00  0.00     0.058 A 
ATOM     90  C   UNL A   1      44.395  31.901  34.351  1.00  0.00     0.135 A 
ATOM     91  C   UNL A   1      42.068  31.991  33.782  1.00  0.00     0.135 A 
ATOM     92  F   UNL A   1      45.680  31.676  34.046  1.00  0.00    -0.206 F 
ATOM     93  C   UNL A   1      44.125  32.489  35.588  1.00  0.00     0.059 A 
ATOM     94  C   UNL A   1      41.779  32.609  34.997  1.00  0.00     0.059 A 
ATOM     95  F   UNL A   1      41.058  31.807  32.916  1.00  0.00    -0.206 F 
ATOM     96  C   UNL A   1      42.813  32.844  35.901  1.00  0.00     0.060 A 
BRANCH  96  97
ATOM     97  S   UNL A   1      42.481  33.701  37.455  1.00  0.00     0.124 S 
ATOM     98  O   UNL A   1      43.728  33.502  38.187  1.00  0.00    -0.237 OA
ATOM     99  O   UNL A   1      42.215  35.069  37.017  1.00  0.00    -0.237 OA
ATOM    100  O   UNL A   1      41.321  32.995  37.992  1.00  0.00    -0.744 OA
ENDBRANCH  96  97
ENDBRANCH  64  89
ENDBRANCH  38  39
ENDBRANCH  31  33
ENDBRANCH  30  31
ENDBRANCH  29  30
ENDBRANCH  28  29
ENDBRANCH  27  28
ENDBRANCH   1  27
TORSDOF 23
ENDMDL
