MODEL 1
REMARK VINA RESULT:      -9.1      0.000      0.000
REMARK SMILES CCC[N@@H+](CC1CC[NH2+]CC1)[C@@H](CC)C(=O)OCCOCCOCCOC(=O)c1ccc(-c2c3nc(c(-c4c(F)cc(S(=O)(=O)[O-])cc4F)c4ccc([nH]4)c(-c4c(F)cc(S(=O)(=O)[O-])cc4F)c4nc(c(-c5c(F)cc(S(=O)(=O)[O-])cc5F)c5ccc2[nH]5)C=C4)C=C3)cc1
REMARK SMILES IDX 21 1 20 2 19 3 18 4 17 5 15 6 16 7 12 8 4 9 3 11 2 12 1 13
REMARK SMILES IDX 5 14 6 15 7 16 11 17 8 18 10 19 9 20 13 23 14 24 22 25 23 26
REMARK SMILES IDX 24 27 25 28 26 29 27 30 28 31 29 32 30 33 94 34 31 35 93 36
REMARK SMILES IDX 32 37 33 38 34 39 87 40 35 41 92 42 86 43 88 44 36 45 91 46
REMARK SMILES IDX 85 47 84 48 37 50 71 51 50 52 70 53 51 54 54 55 69 56 89 57
REMARK SMILES IDX 52 58 53 59 68 61 90 62 55 63 38 64 39 65 48 66 40 67 41 68
REMARK SMILES IDX 47 69 49 70 42 71 43 72 44 73 45 74 46 75 72 76 73 77 82 78
REMARK SMILES IDX 74 79 75 80 81 81 83 82 76 83 77 84 78 85 79 86 80 87 56 88
REMARK SMILES IDX 57 89 66 90 58 91 59 92 65 93 67 94 60 95 61 96 62 97 63 98
REMARK SMILES IDX 64 99
REMARK H PARENT 4 10 9 21 9 22 88 49 54 60
REMARK Flexibility Score: inf
ROOT
ATOM      1  C   UNL A   1      32.949  29.617  25.561  1.00  0.00     0.188 C 
ENDROOT
BRANCH   1   2
ATOM      2  O   UNL A   1      32.802  29.045  24.270  1.00  0.00    -0.376 OA
BRANCH   2   3
ATOM      3  C   UNL A   1      33.980  28.431  23.713  1.00  0.00     0.202 C 
BRANCH   3   4
ATOM      4  C   UNL A   1      34.050  28.094  22.202  1.00  0.00     0.261 C 
BRANCH   4   5
ATOM      5  O   UNL A   1      33.790  26.709  21.879  1.00  0.00    -0.459 OA
BRANCH   5   6
ATOM      6  C   UNL A   1      32.506  26.273  22.035  1.00  0.00     0.364 C 
ATOM      7  O   UNL A   1      31.557  26.702  21.385  1.00  0.00    -0.245 OA
BRANCH   6   8
ATOM      8  C   UNL A   1      32.368  25.151  23.089  1.00  0.00     0.294 C 
BRANCH   8   9
ATOM      9  N   UNL A   1      33.626  24.408  23.418  1.00  0.00    -0.323 N 
ATOM     10  H   UNL A   1      34.175  24.854  22.682  1.00  0.00     0.348 HD
BRANCH   9  11
ATOM     11  C   UNL A   1      34.508  24.710  24.555  1.00  0.00     0.262 C 
BRANCH  11  12
ATOM     12  C   UNL A   1      35.826  24.062  25.053  1.00  0.00     0.058 C 
ATOM     13  C   UNL A   1      36.743  23.242  24.185  1.00  0.00     0.010 C 
ENDBRANCH  11  12
ENDBRANCH   9  11
BRANCH   9  14
ATOM     14  C   UNL A   1      33.454  22.916  23.301  1.00  0.00     0.266 C 
BRANCH  14  15
ATOM     15  C   UNL A   1      32.494  21.987  24.146  1.00  0.00     0.055 C 
ATOM     16  C   UNL A   1      32.408  22.279  25.652  1.00  0.00     0.071 C 
ATOM     17  C   UNL A   1      32.478  20.468  23.934  1.00  0.00     0.071 C 
ATOM     18  C   UNL A   1      33.346  21.471  26.535  1.00  0.00     0.261 C 
ATOM     19  C   UNL A   1      33.472  19.702  24.797  1.00  0.00     0.261 C 
ATOM     20  N   UNL A   1      33.426  20.047  26.215  1.00  0.00    -0.346 N 
ATOM     21  H   UNL A   1      32.608  19.592  26.619  1.00  0.00     0.346 HD
ATOM     22  H   UNL A   1      34.317  19.732  26.599  1.00  0.00     0.346 HD
ENDBRANCH  14  15
ENDBRANCH   9  14
ENDBRANCH   8   9
BRANCH   8  23
ATOM     23  C   UNL A   1      31.350  25.580  24.139  1.00  0.00     0.074 C 
ATOM     24  C   UNL A   1      30.015  24.889  24.226  1.00  0.00     0.011 C 
ENDBRANCH   8  23
ENDBRANCH   6   8
ENDBRANCH   5   6
ENDBRANCH   4   5
ENDBRANCH   3   4
ENDBRANCH   2   3
ENDBRANCH   1   2
BRANCH   1  25
ATOM     25  C   UNL A   1      33.803  28.943  26.633  1.00  0.00     0.188 C 
BRANCH  25  26
ATOM     26  O   UNL A   1      34.645  29.747  27.442  1.00  0.00    -0.376 OA
BRANCH  26  27
ATOM     27  C   UNL A   1      34.311  31.125  27.523  1.00  0.00     0.202 C 
BRANCH  27  28
ATOM     28  C   UNL A   1      34.660  31.879  28.816  1.00  0.00     0.261 C 
BRANCH  28  29
ATOM     29  O   UNL A   1      36.069  31.971  29.105  1.00  0.00    -0.460 OA
BRANCH  29  30
ATOM     30  C   UNL A   1      36.498  31.308  30.212  1.00  0.00     0.338 C 
ATOM     31  O   UNL A   1      35.888  31.160  31.264  1.00  0.00    -0.246 OA
BRANCH  30  32
ATOM     32  C   UNL A   1      37.738  30.570  29.890  1.00  0.00     0.060 A 
ATOM     33  C   UNL A   1      38.598  30.160  30.927  1.00  0.00     0.016 A 
ATOM     34  C   UNL A   1      38.074  30.328  28.562  1.00  0.00     0.016 A 
ATOM     35  C   UNL A   1      39.789  29.496  30.637  1.00  0.00     0.010 A 
ATOM     36  C   UNL A   1      39.291  29.708  28.271  1.00  0.00     0.010 A 
ATOM     37  C   UNL A   1      40.160  29.307  29.304  1.00  0.00    -0.014 A 
BRANCH  37  38
ATOM     38  C   UNL A   1      41.537  28.885  28.964  1.00  0.00     0.031 A 
ATOM     39  C   UNL A   1      42.605  29.942  28.921  1.00  0.00     0.074 A 
ATOM     40  C   UNL A   1      41.823  27.607  28.665  1.00  0.00     0.049 A 
ATOM     41  N   UNL A   1      43.831  29.866  28.477  1.00  0.00    -0.248 NA
ATOM     42  C   UNL A   1      42.230  31.269  29.440  1.00  0.00     0.031 C 
ATOM     43  C   UNL A   1      40.885  26.489  28.740  1.00  0.00     0.029 A 
ATOM     44  N   UNL A   1      42.988  27.043  28.207  1.00  0.00    -0.354 N 
ATOM     45  C   UNL A   1      44.367  31.138  28.642  1.00  0.00     0.074 A 
ATOM     46  C   UNL A   1      43.330  31.969  29.212  1.00  0.00     0.031 C 
ATOM     47  C   UNL A   1      41.502  25.376  28.306  1.00  0.00     0.029 A 
ATOM     48  C   UNL A   1      42.859  25.714  27.879  1.00  0.00     0.049 A 
ATOM     49  H   UNL A   1      43.832  27.541  28.120  1.00  0.00     0.167 HD
ATOM     50  C   UNL A   1      45.614  31.570  28.339  1.00  0.00     0.037 A 
ATOM     51  C   UNL A   1      43.724  24.884  27.262  1.00  0.00     0.037 A 
ATOM     52  C   UNL A   1      46.633  30.731  27.766  1.00  0.00     0.049 A 
ATOM     53  C   UNL A   1      45.077  25.410  26.849  1.00  0.00     0.074 A 
ATOM     54  C   UNL A   1      47.934  31.061  27.435  1.00  0.00     0.029 A 
ATOM     55  N   UNL A   1      46.459  29.396  27.425  1.00  0.00    -0.354 N 
ATOM     56  N   UNL A   1      45.586  26.609  27.017  1.00  0.00    -0.248 NA
ATOM     57  C   UNL A   1      45.971  24.474  26.155  1.00  0.00     0.031 C 
ATOM     58  C   UNL A   1      48.529  29.944  26.840  1.00  0.00     0.029 A 
ATOM     59  C   UNL A   1      47.619  28.898  26.855  1.00  0.00     0.049 A 
ATOM     60  H   UNL A   1      45.633  28.880  27.568  1.00  0.00     0.167 HD
ATOM     61  C   UNL A   1      46.863  26.564  26.469  1.00  0.00     0.074 A 
ATOM     62  C   UNL A   1      47.058  25.214  25.982  1.00  0.00     0.031 C 
ATOM     63  C   UNL A   1      47.792  27.549  26.374  1.00  0.00     0.037 A 
BRANCH  50  64
ATOM     64  C   UNL A   1      45.928  33.020  28.583  1.00  0.00     0.058 A 
ATOM     65  C   UNL A   1      45.704  34.004  27.606  1.00  0.00     0.135 A 
ATOM     66  C   UNL A   1      46.437  33.436  29.825  1.00  0.00     0.135 A 
ATOM     67  F   UNL A   1      45.240  33.661  26.394  1.00  0.00    -0.206 F 
ATOM     68  C   UNL A   1      45.995  35.344  27.844  1.00  0.00     0.059 A 
ATOM     69  C   UNL A   1      46.707  34.774  30.094  1.00  0.00     0.059 A 
ATOM     70  F   UNL A   1      46.678  32.537  30.792  1.00  0.00    -0.206 F 
ATOM     71  C   UNL A   1      46.493  35.720  29.092  1.00  0.00     0.060 A 
BRANCH  71  72
ATOM     72  S   UNL A   1      46.850  37.465  29.388  1.00  0.00     0.124 S 
ATOM     73  O   UNL A   1      48.224  37.402  29.877  1.00  0.00    -0.237 OA
ATOM     74  O   UNL A   1      46.675  38.046  28.061  1.00  0.00    -0.237 OA
ATOM     75  O   UNL A   1      45.850  37.854  30.378  1.00  0.00    -0.744 OA
ENDBRANCH  71  72
ENDBRANCH  50  64
BRANCH  51  76
ATOM     76  C   UNL A   1      43.331  23.479  26.966  1.00  0.00     0.058 A 
ATOM     77  C   UNL A   1      43.319  22.503  27.972  1.00  0.00     0.135 A 
ATOM     78  C   UNL A   1      42.962  23.083  25.670  1.00  0.00     0.135 A 
ATOM     79  F   UNL A   1      43.680  22.825  29.224  1.00  0.00    -0.206 F 
ATOM     80  C   UNL A   1      42.968  21.183  27.706  1.00  0.00     0.059 A 
ATOM     81  C   UNL A   1      42.578  21.775  25.384  1.00  0.00     0.059 A 
ATOM     82  F   UNL A   1      42.954  23.976  24.669  1.00  0.00    -0.206 F 
ATOM     83  C   UNL A   1      42.592  20.830  26.408  1.00  0.00     0.060 A 
BRANCH  83  84
ATOM     84  S   UNL A   1      42.087  19.125  26.088  1.00  0.00     0.124 S 
ATOM     85  O   UNL A   1      42.885  18.797  24.912  1.00  0.00    -0.237 OA
ATOM     86  O   UNL A   1      42.469  18.455  27.327  1.00  0.00    -0.237 OA
ATOM     87  O   UNL A   1      40.648  19.237  25.863  1.00  0.00    -0.744 OA
ENDBRANCH  83  84
ENDBRANCH  51  76
BRANCH  63  88
ATOM     88  C   UNL A   1      49.113  27.202  25.739  1.00  0.00     0.058 A 
ATOM     89  C   UNL A   1      49.340  27.379  24.365  1.00  0.00     0.135 A 
ATOM     90  C   UNL A   1      50.185  26.746  26.525  1.00  0.00     0.135 A 
ATOM     91  F   UNL A   1      48.348  27.807  23.566  1.00  0.00    -0.206 F 
ATOM     92  C   UNL A   1      50.574  27.097  23.789  1.00  0.00     0.059 A 
ATOM     93  C   UNL A   1      51.437  26.489  25.976  1.00  0.00     0.059 A 
ATOM     94  F   UNL A   1      50.029  26.570  27.846  1.00  0.00    -0.206 F 
ATOM     95  C   UNL A   1      51.618  26.656  24.604  1.00  0.00     0.060 A 
BRANCH  95  96
ATOM     96  S   UNL A   1      53.226  26.331  23.848  1.00  0.00     0.124 S 
ATOM     97  O   UNL A   1      53.899  27.613  24.024  1.00  0.00    -0.237 OA
ATOM     98  O   UNL A   1      53.735  25.230  24.662  1.00  0.00    -0.237 OA
ATOM     99  O   UNL A   1      52.892  25.981  22.471  1.00  0.00    -0.744 OA
ENDBRANCH  95  96
ENDBRANCH  63  88
ENDBRANCH  37  38
ENDBRANCH  30  32
ENDBRANCH  29  30
ENDBRANCH  28  29
ENDBRANCH  27  28
ENDBRANCH  26  27
ENDBRANCH  25  26
ENDBRANCH   1  25
TORSDOF 26
ENDMDL
MODEL 2
REMARK VINA RESULT:      -8.4      5.154      9.615
REMARK SMILES CCC[N@@H+](CC1CC[NH2+]CC1)[C@@H](CC)C(=O)OCCOCCOCCOC(=O)c1ccc(-c2c3nc(c(-c4c(F)cc(S(=O)(=O)[O-])cc4F)c4ccc([nH]4)c(-c4c(F)cc(S(=O)(=O)[O-])cc4F)c4nc(c(-c5c(F)cc(S(=O)(=O)[O-])cc5F)c5ccc2[nH]5)C=C4)C=C3)cc1
REMARK SMILES IDX 21 1 20 2 19 3 18 4 17 5 15 6 16 7 12 8 4 9 3 11 2 12 1 13
REMARK SMILES IDX 5 14 6 15 7 16 11 17 8 18 10 19 9 20 13 23 14 24 22 25 23 26
REMARK SMILES IDX 24 27 25 28 26 29 27 30 28 31 29 32 30 33 94 34 31 35 93 36
REMARK SMILES IDX 32 37 33 38 34 39 87 40 35 41 92 42 86 43 88 44 36 45 91 46
REMARK SMILES IDX 85 47 84 48 37 50 71 51 50 52 70 53 51 54 54 55 69 56 89 57
REMARK SMILES IDX 52 58 53 59 68 61 90 62 55 63 38 64 39 65 48 66 40 67 41 68
REMARK SMILES IDX 47 69 49 70 42 71 43 72 44 73 45 74 46 75 72 76 73 77 82 78
REMARK SMILES IDX 74 79 75 80 81 81 83 82 76 83 77 84 78 85 79 86 80 87 56 88
REMARK SMILES IDX 57 89 66 90 58 91 59 92 65 93 67 94 60 95 61 96 62 97 63 98
REMARK SMILES IDX 64 99
REMARK H PARENT 4 10 9 21 9 22 88 49 54 60
REMARK Flexibility Score: inf
ROOT
ATOM      1  C   UNL A   1      30.323  28.832  23.469  1.00  0.00     0.188 C 
ENDROOT
BRANCH   1   2
ATOM      2  O   UNL A   1      30.873  27.550  23.738  1.00  0.00    -0.376 OA
BRANCH   2   3
ATOM      3  C   UNL A   1      30.335  26.859  24.881  1.00  0.00     0.202 C 
BRANCH   3   4
ATOM      4  C   UNL A   1      31.282  26.245  25.944  1.00  0.00     0.261 C 
BRANCH   4   5
ATOM      5  O   UNL A   1      31.705  24.891  25.666  1.00  0.00    -0.459 OA
BRANCH   5   6
ATOM      6  C   UNL A   1      32.876  24.743  24.977  1.00  0.00     0.364 C 
ATOM      7  O   UNL A   1      33.580  25.684  24.622  1.00  0.00    -0.245 OA
BRANCH   6   8
ATOM      8  C   UNL A   1      33.248  23.266  24.722  1.00  0.00     0.294 C 
BRANCH   8   9
ATOM      9  N   UNL A   1      33.872  22.542  25.875  1.00  0.00    -0.323 N 
ATOM     10  H   UNL A   1      33.077  22.688  26.498  1.00  0.00     0.348 HD
BRANCH   9  11
ATOM     11  C   UNL A   1      33.971  21.079  25.995  1.00  0.00     0.262 C 
BRANCH  11  12
ATOM     12  C   UNL A   1      34.080  19.951  24.937  1.00  0.00     0.058 C 
ATOM     13  C   UNL A   1      32.907  19.156  24.428  1.00  0.00     0.010 C 
ENDBRANCH  11  12
ENDBRANCH   9  11
BRANCH   9  14
ATOM     14  C   UNL A   1      35.173  23.168  26.304  1.00  0.00     0.266 C 
BRANCH  14  15
ATOM     15  C   UNL A   1      36.444  23.461  25.411  1.00  0.00     0.055 C 
ATOM     16  C   UNL A   1      36.870  22.351  24.438  1.00  0.00     0.071 C 
ATOM     17  C   UNL A   1      37.701  24.103  26.013  1.00  0.00     0.071 C 
ATOM     18  C   UNL A   1      37.927  21.389  24.958  1.00  0.00     0.261 C 
ATOM     19  C   UNL A   1      38.707  23.107  26.573  1.00  0.00     0.261 C 
ATOM     20  N   UNL A   1      39.044  22.017  25.661  1.00  0.00    -0.346 N 
ATOM     21  H   UNL A   1      39.685  22.386  24.959  1.00  0.00     0.346 HD
ATOM     22  H   UNL A   1      39.440  21.284  26.250  1.00  0.00     0.346 HD
ENDBRANCH  14  15
ENDBRANCH   9  14
ENDBRANCH   8   9
BRANCH   8  23
ATOM     23  C   UNL A   1      32.199  22.641  23.809  1.00  0.00     0.074 C 
ATOM     24  C   UNL A   1      32.534  22.322  22.376  1.00  0.00     0.011 C 
ENDBRANCH   8  23
ENDBRANCH   6   8
ENDBRANCH   5   6
ENDBRANCH   4   5
ENDBRANCH   3   4
ENDBRANCH   2   3
ENDBRANCH   1   2
BRANCH   1  25
ATOM     25  C   UNL A   1      30.626  30.029  24.368  1.00  0.00     0.188 C 
BRANCH  25  26
ATOM     26  O   UNL A   1      31.785  29.995  25.184  1.00  0.00    -0.376 OA
BRANCH  26  27
ATOM     27  C   UNL A   1      31.673  30.601  26.463  1.00  0.00     0.202 C 
BRANCH  27  28
ATOM     28  C   UNL A   1      32.967  30.988  27.196  1.00  0.00     0.261 C 
BRANCH  28  29
ATOM     29  O   UNL A   1      34.176  30.453  26.621  1.00  0.00    -0.460 OA
BRANCH  29  30
ATOM     30  C   UNL A   1      34.587  29.251  27.106  1.00  0.00     0.338 C 
ATOM     31  O   UNL A   1      34.118  28.151  26.841  1.00  0.00    -0.246 OA
BRANCH  30  32
ATOM     32  C   UNL A   1      35.859  29.428  27.839  1.00  0.00     0.060 A 
ATOM     33  C   UNL A   1      37.049  29.669  27.127  1.00  0.00     0.016 A 
ATOM     34  C   UNL A   1      35.881  29.306  29.225  1.00  0.00     0.016 A 
ATOM     35  C   UNL A   1      38.262  29.801  27.802  1.00  0.00     0.010 A 
ATOM     36  C   UNL A   1      37.103  29.388  29.895  1.00  0.00     0.010 A 
ATOM     37  C   UNL A   1      38.299  29.617  29.187  1.00  0.00    -0.014 A 
BRANCH  37  38
ATOM     38  C   UNL A   1      39.593  29.451  29.884  1.00  0.00     0.031 A 
ATOM     39  C   UNL A   1      40.518  28.371  29.401  1.00  0.00     0.074 A 
ATOM     40  C   UNL A   1      39.920  30.214  30.942  1.00  0.00     0.049 A 
ATOM     41  N   UNL A   1      41.610  27.907  29.946  1.00  0.00    -0.248 NA
ATOM     42  C   UNL A   1      40.152  27.719  28.131  1.00  0.00     0.031 C 
ATOM     43  C   UNL A   1      39.133  31.332  31.455  1.00  0.00     0.029 A 
ATOM     44  N   UNL A   1      40.994  30.135  31.793  1.00  0.00    -0.354 N 
ATOM     45  C   UNL A   1      42.050  26.894  29.101  1.00  0.00     0.074 A 
ATOM     46  C   UNL A   1      41.099  26.802  28.015  1.00  0.00     0.031 C 
ATOM     47  C   UNL A   1      39.733  31.815  32.557  1.00  0.00     0.029 A 
ATOM     48  C   UNL A   1      40.917  31.009  32.851  1.00  0.00     0.049 A 
ATOM     49  H   UNL A   1      41.746  29.514  31.659  1.00  0.00     0.167 HD
ATOM     50  C   UNL A   1      43.147  26.111  29.227  1.00  0.00     0.037 A 
ATOM     51  C   UNL A   1      41.690  31.111  33.952  1.00  0.00     0.037 A 
ATOM     52  C   UNL A   1      44.079  26.212  30.319  1.00  0.00     0.049 A 
ATOM     53  C   UNL A   1      42.855  30.166  34.118  1.00  0.00     0.074 A 
ATOM     54  C   UNL A   1      45.232  25.481  30.536  1.00  0.00     0.029 A 
ATOM     55  N   UNL A   1      43.956  27.093  31.385  1.00  0.00    -0.354 N 
ATOM     56  N   UNL A   1      43.275  29.218  33.312  1.00  0.00    -0.248 NA
ATOM     57  C   UNL A   1      43.648  30.298  35.348  1.00  0.00     0.031 C 
ATOM     58  C   UNL A   1      45.774  25.876  31.763  1.00  0.00     0.029 A 
ATOM     59  C   UNL A   1      44.994  26.898  32.282  1.00  0.00     0.049 A 
ATOM     60  H   UNL A   1      43.237  27.757  31.489  1.00  0.00     0.167 HD
ATOM     61  C   UNL A   1      44.390  28.658  33.927  1.00  0.00     0.074 A 
ATOM     62  C   UNL A   1      44.592  29.386  35.163  1.00  0.00     0.031 C 
ATOM     63  C   UNL A   1      45.176  27.634  33.510  1.00  0.00     0.037 A 
BRANCH  50  64
ATOM     64  C   UNL A   1      43.373  25.053  28.182  1.00  0.00     0.058 A 
ATOM     65  C   UNL A   1      44.135  25.298  27.028  1.00  0.00     0.135 A 
ATOM     66  C   UNL A   1      42.840  23.764  28.353  1.00  0.00     0.135 A 
ATOM     67  F   UNL A   1      44.649  26.517  26.803  1.00  0.00    -0.206 F 
ATOM     68  C   UNL A   1      44.340  24.310  26.070  1.00  0.00     0.059 A 
ATOM     69  C   UNL A   1      43.058  22.754  27.422  1.00  0.00     0.059 A 
ATOM     70  F   UNL A   1      42.097  23.478  29.433  1.00  0.00    -0.206 F 
ATOM     71  C   UNL A   1      43.801  23.040  26.278  1.00  0.00     0.060 A 
BRANCH  71  72
ATOM     72  S   UNL A   1      44.091  21.766  25.031  1.00  0.00     0.124 S 
ATOM     73  O   UNL A   1      43.776  22.486  23.801  1.00  0.00    -0.237 OA
ATOM     74  O   UNL A   1      45.501  21.448  25.236  1.00  0.00    -0.237 OA
ATOM     75  O   UNL A   1      43.152  20.710  25.397  1.00  0.00    -0.744 OA
ENDBRANCH  71  72
ENDBRANCH  50  64
BRANCH  51  76
ATOM     76  C   UNL A   1      41.371  32.119  34.999  1.00  0.00     0.058 A 
ATOM     77  C   UNL A   1      40.428  31.849  36.000  1.00  0.00     0.135 A 
ATOM     78  C   UNL A   1      41.999  33.375  35.018  1.00  0.00     0.135 A 
ATOM     79  F   UNL A   1      39.785  30.670  36.017  1.00  0.00    -0.206 F 
ATOM     80  C   UNL A   1      40.109  32.788  36.976  1.00  0.00     0.059 A 
ATOM     81  C   UNL A   1      41.720  34.320  36.002  1.00  0.00     0.059 A 
ATOM     82  F   UNL A   1      42.912  33.686  34.085  1.00  0.00    -0.206 F 
ATOM     83  C   UNL A   1      40.766  34.020  36.972  1.00  0.00     0.060 A 
BRANCH  83  84
ATOM     84  S   UNL A   1      40.382  35.209  38.277  1.00  0.00     0.124 S 
ATOM     85  O   UNL A   1      40.066  34.328  39.395  1.00  0.00    -0.237 OA
ATOM     86  O   UNL A   1      41.631  35.957  38.386  1.00  0.00    -0.237 OA
ATOM     87  O   UNL A   1      39.257  35.961  37.728  1.00  0.00    -0.744 OA
ENDBRANCH  83  84
ENDBRANCH  51  76
BRANCH  63  88
ATOM     88  C   UNL A   1      46.341  27.248  34.384  1.00  0.00     0.058 A 
ATOM     89  C   UNL A   1      47.596  27.862  34.253  1.00  0.00     0.135 A 
ATOM     90  C   UNL A   1      46.180  26.298  35.407  1.00  0.00     0.135 A 
ATOM     91  F   UNL A   1      47.807  28.772  33.288  1.00  0.00    -0.206 F 
ATOM     92  C   UNL A   1      48.658  27.531  35.089  1.00  0.00     0.059 A 
ATOM     93  C   UNL A   1      47.219  25.977  36.275  1.00  0.00     0.059 A 
ATOM     94  F   UNL A   1      44.998  25.689  35.586  1.00  0.00    -0.206 F 
ATOM     95  C   UNL A   1      48.458  26.591  36.101  1.00  0.00     0.060 A 
BRANCH  95  96
ATOM     96  S   UNL A   1      49.834  26.202  37.204  1.00  0.00     0.124 S 
ATOM     97  O   UNL A   1      49.392  26.811  38.454  1.00  0.00    -0.237 OA
ATOM     98  O   UNL A   1      49.849  24.742  37.180  1.00  0.00    -0.237 OA
ATOM     99  O   UNL A   1      50.978  26.844  36.563  1.00  0.00    -0.744 OA
ENDBRANCH  95  96
ENDBRANCH  63  88
ENDBRANCH  37  38
ENDBRANCH  30  32
ENDBRANCH  29  30
ENDBRANCH  28  29
ENDBRANCH  27  28
ENDBRANCH  26  27
ENDBRANCH  25  26
ENDBRANCH   1  25
TORSDOF 26
ENDMDL
MODEL 3
REMARK VINA RESULT:      -8.3      2.547      9.114
REMARK SMILES CCC[N@@H+](CC1CC[NH2+]CC1)[C@@H](CC)C(=O)OCCOCCOCCOC(=O)c1ccc(-c2c3nc(c(-c4c(F)cc(S(=O)(=O)[O-])cc4F)c4ccc([nH]4)c(-c4c(F)cc(S(=O)(=O)[O-])cc4F)c4nc(c(-c5c(F)cc(S(=O)(=O)[O-])cc5F)c5ccc2[nH]5)C=C4)C=C3)cc1
REMARK SMILES IDX 21 1 20 2 19 3 18 4 17 5 15 6 16 7 12 8 4 9 3 11 2 12 1 13
REMARK SMILES IDX 5 14 6 15 7 16 11 17 8 18 10 19 9 20 13 23 14 24 22 25 23 26
REMARK SMILES IDX 24 27 25 28 26 29 27 30 28 31 29 32 30 33 94 34 31 35 93 36
REMARK SMILES IDX 32 37 33 38 34 39 87 40 35 41 92 42 86 43 88 44 36 45 91 46
REMARK SMILES IDX 85 47 84 48 37 50 71 51 50 52 70 53 51 54 54 55 69 56 89 57
REMARK SMILES IDX 52 58 53 59 68 61 90 62 55 63 38 64 39 65 48 66 40 67 41 68
REMARK SMILES IDX 47 69 49 70 42 71 43 72 44 73 45 74 46 75 72 76 73 77 82 78
REMARK SMILES IDX 74 79 75 80 81 81 83 82 76 83 77 84 78 85 79 86 80 87 56 88
REMARK SMILES IDX 57 89 66 90 58 91 59 92 65 93 67 94 60 95 61 96 62 97 63 98
REMARK SMILES IDX 64 99
REMARK H PARENT 4 10 9 21 9 22 88 49 54 60
REMARK Flexibility Score: inf
ROOT
ATOM      1  C   UNL A   1      39.666  22.468  26.435  1.00  0.00     0.188 C 
ENDROOT
BRANCH   1   2
ATOM      2  O   UNL A   1      38.717  21.630  25.793  1.00  0.00    -0.376 OA
BRANCH   2   3
ATOM      3  C   UNL A   1      37.403  22.190  25.608  1.00  0.00     0.202 C 
BRANCH   3   4
ATOM      4  C   UNL A   1      36.775  22.265  24.193  1.00  0.00     0.261 C 
BRANCH   4   5
ATOM      5  O   UNL A   1      35.756  23.279  24.037  1.00  0.00    -0.459 OA
BRANCH   5   6
ATOM      6  C   UNL A   1      34.465  22.890  24.253  1.00  0.00     0.364 C 
ATOM      7  O   UNL A   1      33.918  21.975  23.644  1.00  0.00    -0.245 OA
BRANCH   6   8
ATOM      8  C   UNL A   1      33.767  23.692  25.374  1.00  0.00     0.294 C 
BRANCH   8   9
ATOM      9  N   UNL A   1      33.091  24.958  24.946  1.00  0.00    -0.323 N 
ATOM     10  H   UNL A   1      33.829  25.223  24.293  1.00  0.00     0.348 HD
BRANCH   9  11
ATOM     11  C   UNL A   1      31.950  25.031  24.021  1.00  0.00     0.262 C 
BRANCH  11  12
ATOM     12  C   UNL A   1      30.734  25.989  23.939  1.00  0.00     0.058 C 
ATOM     13  C   UNL A   1      29.654  26.073  24.985  1.00  0.00     0.010 C 
ENDBRANCH  11  12
ENDBRANCH   9  11
BRANCH   9  14
ATOM     14  C   UNL A   1      32.860  25.899  26.099  1.00  0.00     0.266 C 
BRANCH  14  15
ATOM     15  C   UNL A   1      33.374  27.387  26.248  1.00  0.00     0.055 C 
ATOM     16  C   UNL A   1      32.367  28.409  26.798  1.00  0.00     0.071 C 
ATOM     17  C   UNL A   1      34.201  28.051  25.140  1.00  0.00     0.071 C 
ATOM     18  C   UNL A   1      31.581  29.186  25.754  1.00  0.00     0.261 C 
ATOM     19  C   UNL A   1      33.371  28.770  24.084  1.00  0.00     0.261 C 
ATOM     20  N   UNL A   1      32.369  29.683  24.628  1.00  0.00    -0.346 N 
ATOM     21  H   UNL A   1      32.851  30.527  24.934  1.00  0.00     0.346 HD
ATOM     22  H   UNL A   1      31.699  29.830  23.872  1.00  0.00     0.346 HD
ENDBRANCH  14  15
ENDBRANCH   9  14
ENDBRANCH   8   9
BRANCH   8  23
ATOM     23  C   UNL A   1      33.162  22.718  26.378  1.00  0.00     0.074 C 
ATOM     24  C   UNL A   1      33.868  22.432  27.677  1.00  0.00     0.011 C 
ENDBRANCH   8  23
ENDBRANCH   6   8
ENDBRANCH   5   6
ENDBRANCH   4   5
ENDBRANCH   3   4
ENDBRANCH   2   3
ENDBRANCH   1   2
BRANCH   1  25
ATOM     25  C   UNL A   1      40.527  21.954  27.587  1.00  0.00     0.188 C 
BRANCH  25  26
ATOM     26  O   UNL A   1      41.697  21.213  27.288  1.00  0.00    -0.376 OA
BRANCH  26  27
ATOM     27  C   UNL A   1      41.550  19.803  27.222  1.00  0.00     0.202 C 
BRANCH  27  28
ATOM     28  C   UNL A   1      42.455  19.025  26.253  1.00  0.00     0.261 C 
BRANCH  28  29
ATOM     29  O   UNL A   1      42.880  19.766  25.091  1.00  0.00    -0.460 OA
BRANCH  29  30
ATOM     30  C   UNL A   1      44.220  19.810  24.867  1.00  0.00     0.338 C 
ATOM     31  O   UNL A   1      44.914  18.928  24.376  1.00  0.00    -0.246 OA
BRANCH  30  32
ATOM     32  C   UNL A   1      44.708  21.188  25.088  1.00  0.00     0.060 A 
ATOM     33  C   UNL A   1      45.079  21.601  26.382  1.00  0.00     0.016 A 
ATOM     34  C   UNL A   1      44.750  22.086  24.025  1.00  0.00     0.016 A 
ATOM     35  C   UNL A   1      45.505  22.908  26.612  1.00  0.00     0.010 A 
ATOM     36  C   UNL A   1      45.129  23.407  24.266  1.00  0.00     0.010 A 
ATOM     37  C   UNL A   1      45.489  23.829  25.561  1.00  0.00    -0.014 A 
BRANCH  37  38
ATOM     38  C   UNL A   1      45.642  25.275  25.832  1.00  0.00     0.031 A 
ATOM     39  C   UNL A   1      47.022  25.863  25.746  1.00  0.00     0.074 A 
ATOM     40  C   UNL A   1      44.592  26.036  26.184  1.00  0.00     0.049 A 
ATOM     41  N   UNL A   1      47.447  27.043  26.111  1.00  0.00    -0.248 NA
ATOM     42  C   UNL A   1      48.067  24.994  25.177  1.00  0.00     0.031 C 
ATOM     43  C   UNL A   1      43.201  25.589  26.235  1.00  0.00     0.029 A 
ATOM     44  N   UNL A   1      44.543  27.344  26.597  1.00  0.00    -0.354 N 
ATOM     45  C   UNL A   1      48.810  27.051  25.840  1.00  0.00     0.074 A 
ATOM     46  C   UNL A   1      49.144  25.754  25.293  1.00  0.00     0.031 C 
ATOM     47  C   UNL A   1      42.438  26.598  26.690  1.00  0.00     0.029 A 
ATOM     48  C   UNL A   1      43.293  27.742  27.007  1.00  0.00     0.049 A 
ATOM     49  H   UNL A   1      45.327  27.940  26.599  1.00  0.00     0.167 HD
ATOM     50  C   UNL A   1      49.700  28.051  26.035  1.00  0.00     0.037 A 
ATOM     51  C   UNL A   1      42.898  28.880  27.611  1.00  0.00     0.037 A 
ATOM     52  C   UNL A   1      49.352  29.334  26.587  1.00  0.00     0.049 A 
ATOM     53  C   UNL A   1      43.924  29.948  27.905  1.00  0.00     0.074 A 
ATOM     54  C   UNL A   1      50.170  30.425  26.812  1.00  0.00     0.029 A 
ATOM     55  N   UNL A   1      48.080  29.693  27.013  1.00  0.00    -0.354 N 
ATOM     56  N   UNL A   1      45.210  29.957  27.636  1.00  0.00    -0.248 NA
ATOM     57  C   UNL A   1      43.449  31.157  28.591  1.00  0.00     0.031 C 
ATOM     58  C   UNL A   1      49.409  31.422  27.430  1.00  0.00     0.029 A 
ATOM     59  C   UNL A   1      48.100  30.976  27.534  1.00  0.00     0.049 A 
ATOM     60  H   UNL A   1      47.282  29.119  26.955  1.00  0.00     0.167 HD
ATOM     61  C   UNL A   1      45.690  31.177  28.101  1.00  0.00     0.074 A 
ATOM     62  C   UNL A   1      44.554  31.889  28.650  1.00  0.00     0.031 C 
ATOM     63  C   UNL A   1      46.955  31.667  28.077  1.00  0.00     0.037 A 
BRANCH  50  64
ATOM     64  C   UNL A   1      51.139  27.783  25.689  1.00  0.00     0.058 A 
ATOM     65  C   UNL A   1      51.648  28.003  24.399  1.00  0.00     0.135 A 
ATOM     66  C   UNL A   1      52.030  27.323  26.673  1.00  0.00     0.135 A 
ATOM     67  F   UNL A   1      50.836  28.421  23.414  1.00  0.00    -0.206 F 
ATOM     68  C   UNL A   1      52.981  27.755  24.091  1.00  0.00     0.059 A 
ATOM     69  C   UNL A   1      53.374  27.097  26.395  1.00  0.00     0.059 A 
ATOM     70  F   UNL A   1      51.596  27.088  27.921  1.00  0.00    -0.206 F 
ATOM     71  C   UNL A   1      53.838  27.305  25.097  1.00  0.00     0.060 A 
BRANCH  71  72
ATOM     72  S   UNL A   1      55.569  27.004  24.683  1.00  0.00     0.124 S 
ATOM     73  O   UNL A   1      55.692  27.710  23.411  1.00  0.00    -0.237 OA
ATOM     74  O   UNL A   1      56.268  27.607  25.813  1.00  0.00    -0.237 OA
ATOM     75  O   UNL A   1      55.652  25.548  24.601  1.00  0.00    -0.744 OA
ENDBRANCH  71  72
ENDBRANCH  50  64
BRANCH  51  76
ATOM     76  C   UNL A   1      41.476  29.061  28.012  1.00  0.00     0.058 A 
ATOM     77  C   UNL A   1      40.477  29.290  27.055  1.00  0.00     0.135 A 
ATOM     78  C   UNL A   1      41.086  29.012  29.361  1.00  0.00     0.135 A 
ATOM     79  F   UNL A   1      40.800  29.363  25.754  1.00  0.00    -0.206 F 
ATOM     80  C   UNL A   1      39.147  29.474  27.417  1.00  0.00     0.059 A 
ATOM     81  C   UNL A   1      39.757  29.164  29.746  1.00  0.00     0.059 A 
ATOM     82  F   UNL A   1      42.000  28.794  30.318  1.00  0.00    -0.206 F 
ATOM     83  C   UNL A   1      38.795  29.404  28.767  1.00  0.00     0.060 A 
BRANCH  83  84
ATOM     84  S   UNL A   1      37.056  29.592  29.218  1.00  0.00     0.124 S 
ATOM     85  O   UNL A   1      36.913  31.043  29.244  1.00  0.00    -0.237 OA
ATOM     86  O   UNL A   1      36.380  28.902  28.124  1.00  0.00    -0.237 OA
ATOM     87  O   UNL A   1      36.971  28.926  30.515  1.00  0.00    -0.744 OA
ENDBRANCH  83  84
ENDBRANCH  51  76
BRANCH  63  88
ATOM     88  C   UNL A   1      47.180  33.044  28.643  1.00  0.00     0.058 A 
ATOM     89  C   UNL A   1      47.562  33.239  29.980  1.00  0.00     0.135 A 
ATOM     90  C   UNL A   1      47.073  34.179  27.822  1.00  0.00     0.135 A 
ATOM     91  F   UNL A   1      47.673  32.190  30.812  1.00  0.00    -0.206 F 
ATOM     92  C   UNL A   1      47.808  34.511  30.488  1.00  0.00     0.059 A 
ATOM     93  C   UNL A   1      47.347  35.457  28.300  1.00  0.00     0.059 A 
ATOM     94  F   UNL A   1      46.723  34.051  26.532  1.00  0.00    -0.206 F 
ATOM     95  C   UNL A   1      47.702  35.614  29.639  1.00  0.00     0.060 A 
BRANCH  95  96
ATOM     96  S   UNL A   1      48.064  37.254  30.303  1.00  0.00     0.124 S 
ATOM     97  O   UNL A   1      46.797  37.946  30.084  1.00  0.00    -0.237 OA
ATOM     98  O   UNL A   1      48.394  36.960  31.694  1.00  0.00    -0.237 OA
ATOM     99  O   UNL A   1      49.180  37.716  29.484  1.00  0.00    -0.744 OA
ENDBRANCH  95  96
ENDBRANCH  63  88
ENDBRANCH  37  38
ENDBRANCH  30  32
ENDBRANCH  29  30
ENDBRANCH  28  29
ENDBRANCH  27  28
ENDBRANCH  26  27
ENDBRANCH  25  26
ENDBRANCH   1  25
TORSDOF 26
ENDMDL
