MODEL 1
REMARK VINA RESULT:     -10.6      0.000      0.000
REMARK SMILES CS(=O)(=O)c1ccc(/C=C(/C(=O)OCCOCCOCCOC(=O)c2ccc(-c3c4nc(c(-c5c(F)cc(S(=O)(=O)[O-])cc5F)c5ccc([nH]5)c(-c5c(F)cc(S(=O)(=O)[O-])cc5F)c5nc(c(-c6c(F)cc(S(=O)(=O)[O-])cc6F)c6ccc3[nH]6)C=C5)C=C4)cc2)c2ccc(O)cc2)cc1
REMARK SMILES IDX 18 1 17 2 16 3 15 4 14 5 13 6 11 7 12 8 10 9 9 10 8 11 5 12
REMARK SMILES IDX 6 13 99 14 7 15 98 16 2 17 1 18 3 19 4 20 91 21 92 22 97 23
REMARK SMILES IDX 93 24 96 25 94 26 95 27 19 29 20 30 21 31 22 32 23 33 24 34
REMARK SMILES IDX 25 35 26 36 90 37 27 38 89 39 28 40 29 41 30 42 83 43 31 44
REMARK SMILES IDX 88 45 82 46 84 47 32 48 87 49 81 50 80 51 33 53 67 54 46 55
REMARK SMILES IDX 66 56 47 57 50 58 65 59 85 60 48 61 49 62 64 64 86 65 51 66
REMARK SMILES IDX 34 67 35 68 44 69 36 70 37 71 43 72 45 73 38 74 39 75 40 76
REMARK SMILES IDX 41 77 42 78 68 79 69 80 78 81 70 82 71 83 77 84 79 85 72 86
REMARK SMILES IDX 73 87 74 88 75 89 76 90 52 91 53 92 62 93 54 94 55 95 61 96
REMARK SMILES IDX 63 97 56 98 57 99 58 100 59 101 60 102
REMARK H PARENT 95 28 84 52 50 63
REMARK Flexibility Score: inf
ROOT
ATOM      1  C   UNL A   1      31.501  27.133  26.531  1.00  0.00     0.188 C 
ENDROOT
BRANCH   1   2
ATOM      2  C   UNL A   1      31.157  25.847  25.748  1.00  0.00     0.188 C 
BRANCH   2   3
ATOM      3  O   UNL A   1      29.899  25.918  25.112  1.00  0.00    -0.376 OA
BRANCH   3   4
ATOM      4  C   UNL A   1      29.878  26.214  23.728  1.00  0.00     0.202 C 
BRANCH   4   5
ATOM      5  C   UNL A   1      31.177  26.416  22.917  1.00  0.00     0.261 C 
BRANCH   5   6
ATOM      6  O   UNL A   1      31.656  25.308  22.138  1.00  0.00    -0.460 OA
BRANCH   6   7
ATOM      7  C   UNL A   1      32.979  25.009  22.211  1.00  0.00     0.338 C 
ATOM      8  O   UNL A   1      33.883  25.745  21.847  1.00  0.00    -0.246 OA
BRANCH   7   9
ATOM      9  C   UNL A   1      33.199  23.689  22.902  1.00  0.00     0.067 C 
ATOM     10  C   UNL A   1      32.259  22.715  22.794  1.00  0.00     0.024 C 
BRANCH  10  11
ATOM     11  C   UNL A   1      32.331  21.299  23.243  1.00  0.00    -0.025 A 
ATOM     12  C   UNL A   1      32.940  18.606  23.757  1.00  0.00     0.067 A 
ATOM     13  C   UNL A   1      33.109  19.556  24.760  1.00  0.00     0.021 A 
ATOM     14  C   UNL A   1      32.352  18.962  22.542  1.00  0.00     0.021 A 
ATOM     15  C   UNL A   1      32.760  20.887  24.512  1.00  0.00     0.009 A 
ATOM     16  C   UNL A   1      32.044  20.304  22.294  1.00  0.00     0.009 A 
BRANCH  12  17
ATOM     17  S   UNL A   1      33.610  16.972  23.955  1.00  0.00     0.175 S 
ATOM     18  C   UNL A   1      35.120  17.217  24.841  1.00  0.00     0.163 C 
ATOM     19  O   UNL A   1      33.951  16.464  22.641  1.00  0.00    -0.224 OA
ATOM     20  O   UNL A   1      32.698  16.246  24.820  1.00  0.00    -0.224 OA
ENDBRANCH  12  17
ENDBRANCH  10  11
BRANCH   9  21
ATOM     21  C   UNL A   1      34.444  23.518  23.681  1.00  0.00    -0.011 A 
ATOM     22  C   UNL A   1      35.549  22.900  23.070  1.00  0.00     0.013 A 
ATOM     23  C   UNL A   1      34.603  24.081  24.954  1.00  0.00     0.013 A 
ATOM     24  C   UNL A   1      36.794  22.894  23.693  1.00  0.00     0.047 A 
ATOM     25  C   UNL A   1      35.859  24.084  25.574  1.00  0.00     0.047 A 
ATOM     26  C   UNL A   1      36.945  23.502  24.929  1.00  0.00     0.115 A 
BRANCH  26  27
ATOM     27  O   UNL A   1      38.199  23.531  25.456  1.00  0.00    -0.508 OA
ATOM     28  H   UNL A   1      38.478  22.852  26.039  1.00  0.00     0.293 HD
ENDBRANCH  26  27
ENDBRANCH   9  21
ENDBRANCH   7   9
ENDBRANCH   6   7
ENDBRANCH   5   6
ENDBRANCH   4   5
ENDBRANCH   3   4
ENDBRANCH   2   3
ENDBRANCH   1   2
BRANCH   1  29
ATOM     29  O   UNL A   1      31.247  28.409  25.959  1.00  0.00    -0.376 OA
BRANCH  29  30
ATOM     30  C   UNL A   1      31.816  29.563  26.560  1.00  0.00     0.202 C 
BRANCH  30  31
ATOM     31  C   UNL A   1      33.342  29.782  26.572  1.00  0.00     0.261 C 
BRANCH  31  32
ATOM     32  O   UNL A   1      34.041  29.453  27.783  1.00  0.00    -0.460 OA
BRANCH  32  33
ATOM     33  C   UNL A   1      34.822  30.434  28.295  1.00  0.00     0.338 C 
ATOM     34  O   UNL A   1      34.448  31.516  28.735  1.00  0.00    -0.246 OA
BRANCH  33  35
ATOM     35  C   UNL A   1      36.211  29.949  28.433  1.00  0.00     0.060 A 
ATOM     36  C   UNL A   1      36.628  29.456  29.677  1.00  0.00     0.016 A 
ATOM     37  C   UNL A   1      37.112  30.020  27.368  1.00  0.00     0.016 A 
ATOM     38  C   UNL A   1      37.949  29.048  29.867  1.00  0.00     0.010 A 
ATOM     39  C   UNL A   1      38.444  29.635  27.568  1.00  0.00     0.010 A 
ATOM     40  C   UNL A   1      38.876  29.170  28.824  1.00  0.00    -0.014 A 
BRANCH  40  41
ATOM     41  C   UNL A   1      40.321  28.974  29.104  1.00  0.00     0.031 A 
ATOM     42  C   UNL A   1      40.956  27.661  28.732  1.00  0.00     0.074 A 
ATOM     43  C   UNL A   1      41.068  29.952  29.649  1.00  0.00     0.049 A 
ATOM     44  N   UNL A   1      42.190  27.262  28.889  1.00  0.00    -0.248 NA
ATOM     45  C   UNL A   1      40.075  26.664  28.103  1.00  0.00     0.031 C 
ATOM     46  C   UNL A   1      40.578  31.277  30.023  1.00  0.00     0.029 A 
ATOM     47  N   UNL A   1      42.401  29.980  29.979  1.00  0.00    -0.354 N 
ATOM     48  C   UNL A   1      42.237  25.969  28.383  1.00  0.00     0.074 A 
ATOM     49  C   UNL A   1      40.899  25.639  27.942  1.00  0.00     0.031 C 
ATOM     50  C   UNL A   1      41.601  31.993  30.522  1.00  0.00     0.029 A 
ATOM     51  C   UNL A   1      42.805  31.165  30.547  1.00  0.00     0.049 A 
ATOM     52  H   UNL A   1      43.009  29.222  29.824  1.00  0.00     0.167 HD
ATOM     53  C   UNL A   1      43.298  25.131  28.294  1.00  0.00     0.037 A 
ATOM     54  C   UNL A   1      44.003  31.529  31.050  1.00  0.00     0.037 A 
ATOM     55  C   UNL A   1      44.625  25.457  28.750  1.00  0.00     0.049 A 
ATOM     56  C   UNL A   1      45.154  30.554  31.003  1.00  0.00     0.074 A 
ATOM     57  C   UNL A   1      45.767  24.676  28.698  1.00  0.00     0.029 A 
ATOM     58  N   UNL A   1      44.987  26.653  29.355  1.00  0.00    -0.354 N 
ATOM     59  N   UNL A   1      45.191  29.341  30.502  1.00  0.00    -0.248 NA
ATOM     60  C   UNL A   1      46.427  30.995  31.592  1.00  0.00     0.031 C 
ATOM     61  C   UNL A   1      46.803  25.375  29.326  1.00  0.00     0.029 A 
ATOM     62  C   UNL A   1      46.327  26.619  29.706  1.00  0.00     0.049 A 
ATOM     63  H   UNL A   1      44.381  27.412  29.512  1.00  0.00     0.167 HD
ATOM     64  C   UNL A   1      46.495  28.889  30.686  1.00  0.00     0.074 A 
ATOM     65  C   UNL A   1      47.219  29.962  31.336  1.00  0.00     0.031 C 
ATOM     66  C   UNL A   1      47.044  27.697  30.344  1.00  0.00     0.037 A 
BRANCH  53  67
ATOM     67  C   UNL A   1      43.058  23.764  27.715  1.00  0.00     0.058 A 
ATOM     68  C   UNL A   1      42.707  22.668  28.519  1.00  0.00     0.135 A 
ATOM     69  C   UNL A   1      43.154  23.553  26.329  1.00  0.00     0.135 A 
ATOM     70  F   UNL A   1      42.619  22.807  29.852  1.00  0.00    -0.206 F 
ATOM     71  C   UNL A   1      42.489  21.406  27.976  1.00  0.00     0.059 A 
ATOM     72  C   UNL A   1      42.909  22.307  25.760  1.00  0.00     0.059 A 
ATOM     73  F   UNL A   1      43.489  24.564  25.513  1.00  0.00    -0.206 F 
ATOM     74  C   UNL A   1      42.592  21.236  26.593  1.00  0.00     0.060 A 
BRANCH  74  75
ATOM     75  S   UNL A   1      42.305  19.593  25.903  1.00  0.00     0.124 S 
ATOM     76  O   UNL A   1      43.298  19.549  24.834  1.00  0.00    -0.237 OA
ATOM     77  O   UNL A   1      42.568  18.725  27.047  1.00  0.00    -0.237 OA
ATOM     78  O   UNL A   1      40.915  19.645  25.465  1.00  0.00    -0.744 OA
ENDBRANCH  74  75
ENDBRANCH  53  67
BRANCH  54  79
ATOM     79  C   UNL A   1      44.178  32.877  31.662  1.00  0.00     0.058 A 
ATOM     80  C   UNL A   1      43.925  33.098  33.025  1.00  0.00     0.135 A 
ATOM     81  C   UNL A   1      44.584  33.977  30.891  1.00  0.00     0.135 A 
ATOM     82  F   UNL A   1      43.515  32.085  33.804  1.00  0.00    -0.206 F 
ATOM     83  C   UNL A   1      44.052  34.360  33.596  1.00  0.00     0.059 A 
ATOM     84  C   UNL A   1      44.750  35.242  31.445  1.00  0.00     0.059 A 
ATOM     85  F   UNL A   1      44.842  33.823  29.582  1.00  0.00    -0.206 F 
ATOM     86  C   UNL A   1      44.471  35.427  32.798  1.00  0.00     0.060 A 
BRANCH  86  87
ATOM     87  S   UNL A   1      44.675  37.052  33.560  1.00  0.00     0.124 S 
ATOM     88  O   UNL A   1      44.342  37.941  32.454  1.00  0.00    -0.237 OA
ATOM     89  O   UNL A   1      43.708  37.000  34.651  1.00  0.00    -0.237 OA
ATOM     90  O   UNL A   1      46.075  37.056  33.973  1.00  0.00    -0.744 OA
ENDBRANCH  86  87
ENDBRANCH  54  79
BRANCH  66  91
ATOM     91  C   UNL A   1      48.513  27.494  30.616  1.00  0.00     0.058 A 
ATOM     92  C   UNL A   1      49.502  27.865  29.692  1.00  0.00     0.135 A 
ATOM     93  C   UNL A   1      48.938  26.976  31.852  1.00  0.00     0.135 A 
ATOM     94  F   UNL A   1      49.155  28.361  28.493  1.00  0.00    -0.206 F 
ATOM     95  C   UNL A   1      50.856  27.709  29.972  1.00  0.00     0.059 A 
ATOM     96  C   UNL A   1      50.287  26.842  32.166  1.00  0.00     0.059 A 
ATOM     97  F   UNL A   1      48.037  26.616  32.779  1.00  0.00    -0.206 F 
ATOM     98  C   UNL A   1      51.240  27.200  31.215  1.00  0.00     0.060 A 
BRANCH  98  99
ATOM     99  S   UNL A   1      53.001  27.038  31.580  1.00  0.00     0.124 S 
ATOM    100  O   UNL A   1      53.064  27.529  32.953  1.00  0.00    -0.237 OA
ATOM    101  O   UNL A   1      53.225  25.607  31.407  1.00  0.00    -0.237 OA
ATOM    102  O   UNL A   1      53.637  27.891  30.580  1.00  0.00    -0.744 OA
ENDBRANCH  98  99
ENDBRANCH  66  91
ENDBRANCH  40  41
ENDBRANCH  33  35
ENDBRANCH  32  33
ENDBRANCH  31  32
ENDBRANCH  30  31
ENDBRANCH  29  30
ENDBRANCH   1  29
TORSDOF 24
ENDMDL
MODEL 2
REMARK VINA RESULT:     -10.6      2.771      8.173
REMARK SMILES CS(=O)(=O)c1ccc(/C=C(/C(=O)OCCOCCOCCOC(=O)c2ccc(-c3c4nc(c(-c5c(F)cc(S(=O)(=O)[O-])cc5F)c5ccc([nH]5)c(-c5c(F)cc(S(=O)(=O)[O-])cc5F)c5nc(c(-c6c(F)cc(S(=O)(=O)[O-])cc6F)c6ccc3[nH]6)C=C5)C=C4)cc2)c2ccc(O)cc2)cc1
REMARK SMILES IDX 18 1 17 2 16 3 15 4 14 5 13 6 11 7 12 8 10 9 9 10 8 11 5 12
REMARK SMILES IDX 6 13 99 14 7 15 98 16 2 17 1 18 3 19 4 20 91 21 92 22 97 23
REMARK SMILES IDX 93 24 96 25 94 26 95 27 19 29 20 30 21 31 22 32 23 33 24 34
REMARK SMILES IDX 25 35 26 36 90 37 27 38 89 39 28 40 29 41 30 42 83 43 31 44
REMARK SMILES IDX 88 45 82 46 84 47 32 48 87 49 81 50 80 51 33 53 67 54 46 55
REMARK SMILES IDX 66 56 47 57 50 58 65 59 85 60 48 61 49 62 64 64 86 65 51 66
REMARK SMILES IDX 34 67 35 68 44 69 36 70 37 71 43 72 45 73 38 74 39 75 40 76
REMARK SMILES IDX 41 77 42 78 68 79 69 80 78 81 70 82 71 83 77 84 79 85 72 86
REMARK SMILES IDX 73 87 74 88 75 89 76 90 52 91 53 92 62 93 54 94 55 95 61 96
REMARK SMILES IDX 63 97 56 98 57 99 58 100 59 101 60 102
REMARK H PARENT 95 28 84 52 50 63
REMARK Flexibility Score: inf
ROOT
ATOM      1  C   UNL A   1      31.423  27.829  26.669  1.00  0.00     0.188 C 
ENDROOT
BRANCH   1   2
ATOM      2  C   UNL A   1      31.473  26.362  26.191  1.00  0.00     0.188 C 
BRANCH   2   3
ATOM      3  O   UNL A   1      30.193  25.838  25.908  1.00  0.00    -0.376 OA
BRANCH   3   4
ATOM      4  C   UNL A   1      29.776  25.817  24.556  1.00  0.00     0.202 C 
BRANCH   4   5
ATOM      5  C   UNL A   1      30.658  26.383  23.420  1.00  0.00     0.261 C 
BRANCH   5   6
ATOM      6  O   UNL A   1      31.460  25.455  22.673  1.00  0.00    -0.460 OA
BRANCH   6   7
ATOM      7  C   UNL A   1      32.779  25.365  22.987  1.00  0.00     0.338 C 
ATOM      8  O   UNL A   1      33.572  26.292  22.946  1.00  0.00    -0.246 OA
BRANCH   7   9
ATOM      9  C   UNL A   1      33.122  23.991  23.498  1.00  0.00     0.067 C 
ATOM     10  C   UNL A   1      32.146  23.050  23.587  1.00  0.00     0.024 C 
BRANCH  10  11
ATOM     11  C   UNL A   1      32.276  21.602  23.900  1.00  0.00    -0.025 A 
ATOM     12  C   UNL A   1      33.025  18.912  24.207  1.00  0.00     0.067 A 
ATOM     13  C   UNL A   1      33.031  19.760  25.310  1.00  0.00     0.021 A 
ATOM     14  C   UNL A   1      32.531  19.356  22.980  1.00  0.00     0.021 A 
ATOM     15  C   UNL A   1      32.612  21.086  25.160  1.00  0.00     0.009 A 
ATOM     16  C   UNL A   1      32.152  20.695  22.835  1.00  0.00     0.009 A 
BRANCH  12  17
ATOM     17  S   UNL A   1      33.788  17.311  24.311  1.00  0.00     0.175 S 
ATOM     18  C   UNL A   1      33.025  16.546  25.711  1.00  0.00     0.163 C 
ATOM     19  O   UNL A   1      35.190  17.499  24.627  1.00  0.00    -0.224 OA
ATOM     20  O   UNL A   1      33.384  16.575  23.126  1.00  0.00    -0.224 OA
ENDBRANCH  12  17
ENDBRANCH  10  11
BRANCH   9  21
ATOM     21  C   UNL A   1      34.524  23.730  23.889  1.00  0.00    -0.011 A 
ATOM     22  C   UNL A   1      34.947  24.082  25.182  1.00  0.00     0.013 A 
ATOM     23  C   UNL A   1      35.400  23.012  23.063  1.00  0.00     0.013 A 
ATOM     24  C   UNL A   1      36.193  23.680  25.656  1.00  0.00     0.047 A 
ATOM     25  C   UNL A   1      36.648  22.599  23.546  1.00  0.00     0.047 A 
ATOM     26  C   UNL A   1      37.025  22.925  24.843  1.00  0.00     0.115 A 
BRANCH  26  27
ATOM     27  O   UNL A   1      38.197  22.498  25.385  1.00  0.00    -0.508 OA
ATOM     28  H   UNL A   1      38.934  23.075  25.422  1.00  0.00     0.293 HD
ENDBRANCH  26  27
ENDBRANCH   9  21
ENDBRANCH   7   9
ENDBRANCH   6   7
ENDBRANCH   5   6
ENDBRANCH   4   5
ENDBRANCH   3   4
ENDBRANCH   2   3
ENDBRANCH   1   2
BRANCH   1  29
ATOM     29  O   UNL A   1      31.099  28.869  25.756  1.00  0.00    -0.376 OA
BRANCH  29  30
ATOM     30  C   UNL A   1      31.791  30.107  25.842  1.00  0.00     0.202 C 
BRANCH  30  31
ATOM     31  C   UNL A   1      33.269  30.162  26.277  1.00  0.00     0.261 C 
BRANCH  31  32
ATOM     32  O   UNL A   1      33.539  30.568  27.628  1.00  0.00    -0.460 OA
BRANCH  32  33
ATOM     33  C   UNL A   1      34.448  31.562  27.771  1.00  0.00     0.338 C 
ATOM     34  O   UNL A   1      34.232  32.768  27.726  1.00  0.00    -0.246 OA
BRANCH  33  35
ATOM     35  C   UNL A   1      35.748  30.995  28.186  1.00  0.00     0.060 A 
ATOM     36  C   UNL A   1      35.773  29.704  28.733  1.00  0.00     0.016 A 
ATOM     37  C   UNL A   1      36.927  31.738  28.087  1.00  0.00     0.016 A 
ATOM     38  C   UNL A   1      36.970  29.158  29.196  1.00  0.00     0.010 A 
ATOM     39  C   UNL A   1      38.123  31.198  28.577  1.00  0.00     0.010 A 
ATOM     40  C   UNL A   1      38.147  29.916  29.156  1.00  0.00    -0.014 A 
BRANCH  40  41
ATOM     41  C   UNL A   1      39.354  29.431  29.873  1.00  0.00     0.031 A 
ATOM     42  C   UNL A   1      39.733  30.088  31.173  1.00  0.00     0.074 A 
ATOM     43  C   UNL A   1      40.085  28.405  29.400  1.00  0.00     0.049 A 
ATOM     44  N   UNL A   1      40.743  29.842  31.964  1.00  0.00    -0.248 NA
ATOM     45  C   UNL A   1      38.855  31.175  31.636  1.00  0.00     0.031 C 
ATOM     46  C   UNL A   1      39.803  27.665  28.172  1.00  0.00     0.029 A 
ATOM     47  N   UNL A   1      41.214  27.806  29.902  1.00  0.00    -0.354 N 
ATOM     48  C   UNL A   1      40.627  30.741  33.017  1.00  0.00     0.074 A 
ATOM     49  C   UNL A   1      39.464  31.559  32.747  1.00  0.00     0.031 C 
ATOM     50  C   UNL A   1      40.730  26.703  28.021  1.00  0.00     0.029 A 
ATOM     51  C   UNL A   1      41.697  26.788  29.115  1.00  0.00     0.049 A 
ATOM     52  H   UNL A   1      41.639  28.081  30.747  1.00  0.00     0.167 HD
ATOM     53  C   UNL A   1      41.417  30.874  34.110  1.00  0.00     0.037 A 
ATOM     54  C   UNL A   1      42.804  26.027  29.250  1.00  0.00     0.037 A 
ATOM     55  C   UNL A   1      42.584  30.068  34.366  1.00  0.00     0.049 A 
ATOM     56  C   UNL A   1      43.708  26.240  30.440  1.00  0.00     0.074 A 
ATOM     57  C   UNL A   1      43.445  30.123  35.448  1.00  0.00     0.029 A 
ATOM     58  N   UNL A   1      43.062  29.072  33.526  1.00  0.00    -0.354 N 
ATOM     59  N   UNL A   1      43.575  27.080  31.440  1.00  0.00    -0.248 NA
ATOM     60  C   UNL A   1      44.914  25.403  30.518  1.00  0.00     0.031 C 
ATOM     61  C   UNL A   1      44.477  29.205  35.233  1.00  0.00     0.029 A 
ATOM     62  C   UNL A   1      44.222  28.526  34.052  1.00  0.00     0.049 A 
ATOM     63  H   UNL A   1      42.640  28.795  32.681  1.00  0.00     0.167 HD
ATOM     64  C   UNL A   1      44.660  26.848  32.282  1.00  0.00     0.074 A 
ATOM     65  C   UNL A   1      45.436  25.785  31.677  1.00  0.00     0.031 C 
ATOM     66  C   UNL A   1      44.983  27.458  33.449  1.00  0.00     0.037 A 
BRANCH  53  67
ATOM     67  C   UNL A   1      41.068  31.957  35.093  1.00  0.00     0.058 A 
ATOM     68  C   UNL A   1      40.100  31.768  36.093  1.00  0.00     0.135 A 
ATOM     69  C   UNL A   1      41.730  33.195  35.052  1.00  0.00     0.135 A 
ATOM     70  F   UNL A   1      39.422  30.611  36.169  1.00  0.00    -0.206 F 
ATOM     71  C   UNL A   1      39.781  32.775  36.998  1.00  0.00     0.059 A 
ATOM     72  C   UNL A   1      41.449  34.206  35.966  1.00  0.00     0.059 A 
ATOM     73  F   UNL A   1      42.662  33.432  34.115  1.00  0.00    -0.206 F 
ATOM     74  C   UNL A   1      40.462  33.992  36.925  1.00  0.00     0.060 A 
BRANCH  74  75
ATOM     75  S   UNL A   1      40.037  35.290  38.106  1.00  0.00     0.124 S 
ATOM     76  O   UNL A   1      38.867  34.713  38.763  1.00  0.00    -0.237 OA
ATOM     77  O   UNL A   1      41.243  35.375  38.922  1.00  0.00    -0.237 OA
ATOM     78  O   UNL A   1      39.772  36.448  37.260  1.00  0.00    -0.744 OA
ENDBRANCH  74  75
ENDBRANCH  53  67
BRANCH  54  79
ATOM     79  C   UNL A   1      43.136  25.002  28.220  1.00  0.00     0.058 A 
ATOM     80  C   UNL A   1      43.824  25.345  27.045  1.00  0.00     0.135 A 
ATOM     81  C   UNL A   1      42.756  23.661  28.382  1.00  0.00     0.135 A 
ATOM     82  F   UNL A   1      44.194  26.616  26.830  1.00  0.00    -0.206 F 
ATOM     83  C   UNL A   1      44.108  24.400  26.063  1.00  0.00     0.059 A 
ATOM     84  C   UNL A   1      43.056  22.692  27.430  1.00  0.00     0.059 A 
ATOM     85  F   UNL A   1      42.098  23.277  29.489  1.00  0.00    -0.206 F 
ATOM     86  C   UNL A   1      43.724  23.073  26.268  1.00  0.00     0.060 A 
BRANCH  86  87
ATOM     87  S   UNL A   1      44.136  21.847  25.007  1.00  0.00     0.124 S 
ATOM     88  O   UNL A   1      45.519  21.531  25.343  1.00  0.00    -0.237 OA
ATOM     89  O   UNL A   1      43.159  20.797  25.272  1.00  0.00    -0.237 OA
ATOM     90  O   UNL A   1      43.941  22.573  23.756  1.00  0.00    -0.744 OA
ENDBRANCH  86  87
ENDBRANCH  54  79
BRANCH  66  91
ATOM     91  C   UNL A   1      46.201  26.965  34.189  1.00  0.00     0.058 A 
ATOM     92  C   UNL A   1      46.136  25.917  35.120  1.00  0.00     0.135 A 
ATOM     93  C   UNL A   1      47.466  27.511  33.910  1.00  0.00     0.135 A 
ATOM     94  F   UNL A   1      44.954  25.360  35.429  1.00  0.00    -0.206 F 
ATOM     95  C   UNL A   1      47.275  25.445  35.766  1.00  0.00     0.059 A 
ATOM     96  C   UNL A   1      48.622  27.033  34.519  1.00  0.00     0.059 A 
ATOM     97  F   UNL A   1      47.591  28.507  33.018  1.00  0.00    -0.206 F 
ATOM     98  C   UNL A   1      48.516  26.006  35.455  1.00  0.00     0.060 A 
BRANCH  98  99
ATOM     99  S   UNL A   1      49.990  25.358  36.273  1.00  0.00     0.124 S 
ATOM    100  O   UNL A   1      50.507  26.550  36.936  1.00  0.00    -0.237 OA
ATOM    101  O   UNL A   1      49.434  24.334  37.151  1.00  0.00    -0.237 OA
ATOM    102  O   UNL A   1      50.800  24.855  35.167  1.00  0.00    -0.744 OA
ENDBRANCH  98  99
ENDBRANCH  66  91
ENDBRANCH  40  41
ENDBRANCH  33  35
ENDBRANCH  32  33
ENDBRANCH  31  32
ENDBRANCH  30  31
ENDBRANCH  29  30
ENDBRANCH   1  29
TORSDOF 24
ENDMDL
MODEL 3
REMARK VINA RESULT:     -10.1      2.338      2.863
REMARK SMILES CS(=O)(=O)c1ccc(/C=C(/C(=O)OCCOCCOCCOC(=O)c2ccc(-c3c4nc(c(-c5c(F)cc(S(=O)(=O)[O-])cc5F)c5ccc([nH]5)c(-c5c(F)cc(S(=O)(=O)[O-])cc5F)c5nc(c(-c6c(F)cc(S(=O)(=O)[O-])cc6F)c6ccc3[nH]6)C=C5)C=C4)cc2)c2ccc(O)cc2)cc1
REMARK SMILES IDX 18 1 17 2 16 3 15 4 14 5 13 6 11 7 12 8 10 9 9 10 8 11 5 12
REMARK SMILES IDX 6 13 99 14 7 15 98 16 2 17 1 18 3 19 4 20 91 21 92 22 97 23
REMARK SMILES IDX 93 24 96 25 94 26 95 27 19 29 20 30 21 31 22 32 23 33 24 34
REMARK SMILES IDX 25 35 26 36 90 37 27 38 89 39 28 40 29 41 30 42 83 43 31 44
REMARK SMILES IDX 88 45 82 46 84 47 32 48 87 49 81 50 80 51 33 53 67 54 46 55
REMARK SMILES IDX 66 56 47 57 50 58 65 59 85 60 48 61 49 62 64 64 86 65 51 66
REMARK SMILES IDX 34 67 35 68 44 69 36 70 37 71 43 72 45 73 38 74 39 75 40 76
REMARK SMILES IDX 41 77 42 78 68 79 69 80 78 81 70 82 71 83 77 84 79 85 72 86
REMARK SMILES IDX 73 87 74 88 75 89 76 90 52 91 53 92 62 93 54 94 55 95 61 96
REMARK SMILES IDX 63 97 56 98 57 99 58 100 59 101 60 102
REMARK H PARENT 95 28 84 52 50 63
REMARK Flexibility Score: inf
ROOT
ATOM      1  C   UNL A   1      31.217  27.274  26.119  1.00  0.00     0.188 C 
ENDROOT
BRANCH   1   2
ATOM      2  C   UNL A   1      30.671  26.115  25.257  1.00  0.00     0.188 C 
BRANCH   2   3
ATOM      3  O   UNL A   1      29.579  26.503  24.452  1.00  0.00    -0.376 OA
BRANCH   3   4
ATOM      4  C   UNL A   1      29.865  27.144  23.222  1.00  0.00     0.202 C 
BRANCH   4   5
ATOM      5  C   UNL A   1      31.269  27.092  22.581  1.00  0.00     0.261 C 
BRANCH   5   6
ATOM      6  O   UNL A   1      31.689  25.850  21.993  1.00  0.00    -0.460 OA
BRANCH   6   7
ATOM      7  C   UNL A   1      32.996  25.501  22.121  1.00  0.00     0.338 C 
ATOM      8  O   UNL A   1      33.941  26.196  21.785  1.00  0.00    -0.246 OA
BRANCH   7   9
ATOM      9  C   UNL A   1      33.137  24.182  22.833  1.00  0.00     0.067 C 
ATOM     10  C   UNL A   1      32.142  23.262  22.736  1.00  0.00     0.024 C 
BRANCH  10  11
ATOM     11  C   UNL A   1      32.130  21.851  23.208  1.00  0.00    -0.025 A 
ATOM     12  C   UNL A   1      32.632  19.164  23.851  1.00  0.00     0.067 A 
ATOM     13  C   UNL A   1      32.629  20.125  24.857  1.00  0.00     0.021 A 
ATOM     14  C   UNL A   1      32.265  19.506  22.549  1.00  0.00     0.021 A 
ATOM     15  C   UNL A   1      32.332  21.454  24.537  1.00  0.00     0.009 A 
ATOM     16  C   UNL A   1      32.008  20.845  22.236  1.00  0.00     0.009 A 
BRANCH  12  17
ATOM     17  S   UNL A   1      33.252  17.532  24.181  1.00  0.00     0.175 S 
ATOM     18  C   UNL A   1      34.977  17.767  24.491  1.00  0.00     0.163 C 
ATOM     19  O   UNL A   1      33.129  16.750  22.967  1.00  0.00    -0.224 OA
ATOM     20  O   UNL A   1      32.633  17.089  25.417  1.00  0.00    -0.224 OA
ENDBRANCH  12  17
ENDBRANCH  10  11
BRANCH   9  21
ATOM     21  C   UNL A   1      34.368  23.950  23.620  1.00  0.00    -0.011 A 
ATOM     22  C   UNL A   1      34.440  24.445  24.933  1.00  0.00     0.013 A 
ATOM     23  C   UNL A   1      35.402  23.130  23.149  1.00  0.00     0.013 A 
ATOM     24  C   UNL A   1      35.491  24.085  25.771  1.00  0.00     0.047 A 
ATOM     25  C   UNL A   1      36.453  22.760  23.997  1.00  0.00     0.047 A 
ATOM     26  C   UNL A   1      36.478  23.231  25.305  1.00  0.00     0.115 A 
BRANCH  26  27
ATOM     27  O   UNL A   1      37.439  22.854  26.190  1.00  0.00    -0.508 OA
ATOM     28  H   UNL A   1      37.455  21.976  26.519  1.00  0.00     0.293 HD
ENDBRANCH  26  27
ENDBRANCH   9  21
ENDBRANCH   7   9
ENDBRANCH   6   7
ENDBRANCH   5   6
ENDBRANCH   4   5
ENDBRANCH   3   4
ENDBRANCH   2   3
ENDBRANCH   1   2
BRANCH   1  29
ATOM     29  O   UNL A   1      31.072  28.619  25.684  1.00  0.00    -0.376 OA
BRANCH  29  30
ATOM     30  C   UNL A   1      31.772  29.648  26.370  1.00  0.00     0.202 C 
BRANCH  30  31
ATOM     31  C   UNL A   1      33.290  29.835  26.185  1.00  0.00     0.261 C 
BRANCH  31  32
ATOM     32  O   UNL A   1      34.124  29.594  27.329  1.00  0.00    -0.460 OA
BRANCH  32  33
ATOM     33  C   UNL A   1      34.890  30.638  27.727  1.00  0.00     0.338 C 
ATOM     34  O   UNL A   1      34.546  31.812  27.812  1.00  0.00    -0.246 OA
BRANCH  33  35
ATOM     35  C   UNL A   1      36.184  30.142  28.241  1.00  0.00     0.060 A 
ATOM     36  C   UNL A   1      36.200  29.449  29.460  1.00  0.00     0.016 A 
ATOM     37  C   UNL A   1      37.378  30.394  27.562  1.00  0.00     0.016 A 
ATOM     38  C   UNL A   1      37.408  29.021  30.011  1.00  0.00     0.010 A 
ATOM     39  C   UNL A   1      38.592  29.987  28.130  1.00  0.00     0.010 A 
ATOM     40  C   UNL A   1      38.616  29.320  29.369  1.00  0.00    -0.014 A 
BRANCH  40  41
ATOM     41  C   UNL A   1      39.899  29.086  30.079  1.00  0.00     0.031 A 
ATOM     42  C   UNL A   1      40.814  28.002  29.576  1.00  0.00     0.074 A 
ATOM     43  C   UNL A   1      40.265  29.841  31.131  1.00  0.00     0.049 A 
ATOM     44  N   UNL A   1      41.973  27.613  30.039  1.00  0.00    -0.248 NA
ATOM     45  C   UNL A   1      40.354  27.254  28.395  1.00  0.00     0.031 C 
ATOM     46  C   UNL A   1      39.483  30.940  31.692  1.00  0.00     0.029 A 
ATOM     47  N   UNL A   1      41.393  29.796  31.914  1.00  0.00    -0.354 N 
ATOM     48  C   UNL A   1      42.381  26.574  29.211  1.00  0.00     0.074 A 
ATOM     49  C   UNL A   1      41.331  26.374  28.236  1.00  0.00     0.031 C 
ATOM     50  C   UNL A   1      40.160  31.473  32.724  1.00  0.00     0.029 A 
ATOM     51  C   UNL A   1      41.400  30.726  32.927  1.00  0.00     0.049 A 
ATOM     52  H   UNL A   1      42.126  29.157  31.764  1.00  0.00     0.167 HD
ATOM     53  C   UNL A   1      43.527  25.853  29.259  1.00  0.00     0.037 A 
ATOM     54  C   UNL A   1      42.294  30.934  33.917  1.00  0.00     0.037 A 
ATOM     55  C   UNL A   1      44.562  26.044  30.242  1.00  0.00     0.049 A 
ATOM     56  C   UNL A   1      43.530  30.071  33.991  1.00  0.00     0.074 A 
ATOM     57  C   UNL A   1      45.762  25.366  30.370  1.00  0.00     0.029 A 
ATOM     58  N   UNL A   1      44.516  26.970  31.275  1.00  0.00    -0.354 N 
ATOM     59  N   UNL A   1      43.915  29.105  33.189  1.00  0.00    -0.248 NA
ATOM     60  C   UNL A   1      44.453  30.323  35.108  1.00  0.00     0.031 C 
ATOM     61  C   UNL A   1      46.412  25.839  31.513  1.00  0.00     0.029 A 
ATOM     62  C   UNL A   1      45.653  26.861  32.060  1.00  0.00     0.049 A 
ATOM     63  H   UNL A   1      43.784  27.610  31.428  1.00  0.00     0.167 HD
ATOM     64  C   UNL A   1      45.138  28.661  33.684  1.00  0.00     0.074 A 
ATOM     65  C   UNL A   1      45.433  29.467  34.850  1.00  0.00     0.031 C 
ATOM     66  C   UNL A   1      45.945  27.676  33.215  1.00  0.00     0.037 A 
BRANCH  53  67
ATOM     67  C   UNL A   1      43.703  24.761  28.240  1.00  0.00     0.058 A 
ATOM     68  C   UNL A   1      43.124  23.492  28.402  1.00  0.00     0.135 A 
ATOM     69  C   UNL A   1      44.442  24.996  27.068  1.00  0.00     0.135 A 
ATOM     70  F   UNL A   1      42.423  23.205  29.512  1.00  0.00    -0.206 F 
ATOM     71  C   UNL A   1      43.294  22.487  27.456  1.00  0.00     0.059 A 
ATOM     72  C   UNL A   1      44.599  24.016  26.093  1.00  0.00     0.059 A 
ATOM     73  F   UNL A   1      45.020  26.190  26.862  1.00  0.00    -0.206 F 
ATOM     74  C   UNL A   1      44.034  22.759  26.303  1.00  0.00     0.060 A 
BRANCH  74  75
ATOM     75  S   UNL A   1      44.246  21.445  25.084  1.00  0.00     0.124 S 
ATOM     76  O   UNL A   1      43.201  20.507  25.483  1.00  0.00    -0.237 OA
ATOM     77  O   UNL A   1      44.018  22.148  23.826  1.00  0.00    -0.237 OA
ATOM     78  O   UNL A   1      45.614  20.990  25.306  1.00  0.00    -0.744 OA
ENDBRANCH  74  75
ENDBRANCH  53  67
BRANCH  54  79
ATOM     79  C   UNL A   1      42.048  31.994  34.935  1.00  0.00     0.058 A 
ATOM     80  C   UNL A   1      41.220  31.762  36.044  1.00  0.00     0.135 A 
ATOM     81  C   UNL A   1      42.622  33.268  34.809  1.00  0.00     0.135 A 
ATOM     82  F   UNL A   1      40.630  30.567  36.204  1.00  0.00    -0.206 F 
ATOM     83  C   UNL A   1      40.958  32.757  36.981  1.00  0.00     0.059 A 
ATOM     84  C   UNL A   1      42.402  34.270  35.749  1.00  0.00     0.059 A 
ATOM     85  F   UNL A   1      43.425  33.544  33.768  1.00  0.00    -0.206 F 
ATOM     86  C   UNL A   1      41.559  34.008  36.827  1.00  0.00     0.060 A 
BRANCH  86  87
ATOM     87  S   UNL A   1      41.246  35.279  38.073  1.00  0.00     0.124 S 
ATOM     88  O   UNL A   1      41.807  36.463  37.433  1.00  0.00    -0.237 OA
ATOM     89  O   UNL A   1      39.792  35.243  38.186  1.00  0.00    -0.237 OA
ATOM     90  O   UNL A   1      41.971  34.790  39.241  1.00  0.00    -0.744 OA
ENDBRANCH  86  87
ENDBRANCH  54  79
BRANCH  66  91
ATOM     91  C   UNL A   1      47.254  27.439  33.924  1.00  0.00     0.058 A 
ATOM     92  C   UNL A   1      48.424  28.134  33.583  1.00  0.00     0.135 A 
ATOM     93  C   UNL A   1      47.319  26.545  35.007  1.00  0.00     0.135 A 
ATOM     94  F   UNL A   1      48.423  28.997  32.554  1.00  0.00    -0.206 F 
ATOM     95  C   UNL A   1      49.617  27.934  34.273  1.00  0.00     0.059 A 
ATOM     96  C   UNL A   1      48.491  26.354  35.731  1.00  0.00     0.059 A 
ATOM     97  F   UNL A   1      46.226  25.862  35.386  1.00  0.00    -0.206 F 
ATOM     98  C   UNL A   1      49.640  27.045  35.350  1.00  0.00     0.060 A 
BRANCH  98  99
ATOM     99  S   UNL A   1      51.184  26.824  36.259  1.00  0.00     0.124 S 
ATOM    100  O   UNL A   1      50.700  26.340  37.548  1.00  0.00    -0.237 OA
ATOM    101  O   UNL A   1      51.892  25.847  35.439  1.00  0.00    -0.237 OA
ATOM    102  O   UNL A   1      51.767  28.162  36.272  1.00  0.00    -0.744 OA
ENDBRANCH  98  99
ENDBRANCH  66  91
ENDBRANCH  40  41
ENDBRANCH  33  35
ENDBRANCH  32  33
ENDBRANCH  31  32
ENDBRANCH  30  31
ENDBRANCH  29  30
ENDBRANCH   1  29
TORSDOF 24
ENDMDL
