MODEL 1
REMARK VINA RESULT:     -10.5      0.000      0.000
REMARK SMILES Cc1c(Br)c(C)c2c(c1Br)O[C@H](C(F)(F)F)C(C(=O)OCCOCCOCCOC(=O)c1ccc(-c3c4nc(c(-c5c(F)cc(S(=O)(=O)[O-])cc5F)c5ccc([nH]5)c(-c5c(F)cc(S(=O)(=O)[O-])cc5F)c5nc(c(-c6c(F)cc(S(=O)(=O)[O-])cc6F)c6ccc3[nH]6)C=C5)C=C4)cc1)=C2
REMARK SMILES IDX 25 1 24 2 23 3 22 4 21 5 20 6 18 7 19 8 17 9 1 10 2 11 3 12
REMARK SMILES IDX 9 13 4 14 5 15 8 16 10 17 6 18 7 19 11 20 98 21 12 22 13 23
REMARK SMILES IDX 14 24 15 25 16 26 26 27 27 28 28 29 29 30 30 31 31 32 32 33
REMARK SMILES IDX 33 34 97 35 34 36 96 37 35 38 36 39 37 40 90 41 38 42 95 43
REMARK SMILES IDX 89 44 91 45 39 46 94 47 88 48 87 49 40 51 74 52 53 53 73 54
REMARK SMILES IDX 54 55 57 56 72 57 92 58 55 59 56 60 71 62 93 63 58 64 41 65
REMARK SMILES IDX 42 66 51 67 43 68 44 69 50 70 52 71 45 72 46 73 47 74 48 75
REMARK SMILES IDX 49 76 75 77 76 78 85 79 77 80 78 81 84 82 86 83 79 84 80 85
REMARK SMILES IDX 81 86 82 87 83 88 59 89 60 90 69 91 61 92 62 93 68 94 70 95
REMARK SMILES IDX 63 96 64 97 65 98 66 99 67 100
REMARK H PARENT 91 50 57 61
REMARK Flexibility Score: inf
ROOT
ATOM      1  C   UNL A   1      45.915  40.712  26.925  1.00  0.00     0.188 C 
ENDROOT
BRANCH   1   2
ATOM      2  C   UNL A   1      44.970  40.197  25.819  1.00  0.00     0.188 C 
BRANCH   2   3
ATOM      3  O   UNL A   1      44.185  41.093  25.059  1.00  0.00    -0.376 OA
BRANCH   3   4
ATOM      4  C   UNL A   1      44.373  42.495  25.136  1.00  0.00     0.202 C 
BRANCH   4   5
ATOM      5  C   UNL A   1      43.755  43.472  24.133  1.00  0.00     0.261 C 
BRANCH   5   6
ATOM      6  O   UNL A   1      44.680  44.041  23.202  1.00  0.00    -0.460 OA
BRANCH   6   7
ATOM      7  C   UNL A   1      44.930  43.278  22.112  1.00  0.00     0.338 C 
ATOM      8  O   UNL A   1      45.300  42.114  22.101  1.00  0.00    -0.246 OA
BRANCH   7   9
ATOM      9  C   UNL A   1      44.579  44.026  20.893  1.00  0.00     0.087 C 
ATOM     10  C   UNL A   1      42.958  48.613  16.546  1.00  0.00     0.047 C 
ATOM     11  C   UNL A   1      43.606  47.713  17.575  1.00  0.00    -0.019 A 
ATOM     12  C   UNL A   1      44.532  48.243  18.509  1.00  0.00     0.025 A 
ATOM     13  C   UNL A   1      43.255  46.353  17.688  1.00  0.00     0.064 A 
ATOM     14  Br  UNL A   1      44.951  50.117  18.436  1.00  0.00    -0.050 Br
ATOM     15  C   UNL A   1      45.109  47.438  19.522  1.00  0.00    -0.026 A 
ATOM     16  C   UNL A   1      43.784  45.551  18.716  1.00  0.00     0.142 A 
ATOM     17  Br  UNL A   1      41.992  45.548  16.488  1.00  0.00    -0.046 Br
ATOM     18  C   UNL A   1      46.151  47.974  20.483  1.00  0.00     0.046 C 
ATOM     19  C   UNL A   1      44.673  46.096  19.653  1.00  0.00     0.022 A 
ATOM     20  O   UNL A   1      43.386  44.238  18.739  1.00  0.00    -0.474 OA
ATOM     21  C   UNL A   1      45.063  45.269  20.794  1.00  0.00     0.027 C 
ATOM     22  C   UNL A   1      43.709  43.384  19.861  1.00  0.00     0.316 C 
BRANCH  22  23
ATOM     23  C   UNL A   1      42.398  42.835  20.444  1.00  0.00     0.430 C 
ATOM     24  F   UNL A   1      42.569  41.590  20.948  1.00  0.00    -0.167 F 
ATOM     25  F   UNL A   1      41.941  43.602  21.463  1.00  0.00    -0.167 F 
ATOM     26  F   UNL A   1      41.416  42.768  19.518  1.00  0.00    -0.167 F 
ENDBRANCH  22  23
ENDBRANCH   7   9
ENDBRANCH   6   7
ENDBRANCH   5   6
ENDBRANCH   4   5
ENDBRANCH   3   4
ENDBRANCH   2   3
ENDBRANCH   1   2
BRANCH   1  27
ATOM     27  O   UNL A   1      45.885  40.162  28.228  1.00  0.00    -0.376 OA
BRANCH  27  28
ATOM     28  C   UNL A   1      46.264  38.807  28.419  1.00  0.00     0.202 C 
BRANCH  28  29
ATOM     29  C   UNL A   1      47.738  38.393  28.470  1.00  0.00     0.261 C 
BRANCH  29  30
ATOM     30  O   UNL A   1      48.097  37.363  27.539  1.00  0.00    -0.460 OA
BRANCH  30  31
ATOM     31  C   UNL A   1      48.805  36.335  28.070  1.00  0.00     0.338 C 
ATOM     32  O   UNL A   1      49.875  36.397  28.649  1.00  0.00    -0.246 OA
BRANCH  31  33
ATOM     33  C   UNL A   1      47.990  35.108  28.025  1.00  0.00     0.060 A 
ATOM     34  C   UNL A   1      48.009  34.262  29.142  1.00  0.00     0.016 A 
ATOM     35  C   UNL A   1      47.257  34.769  26.886  1.00  0.00     0.016 A 
ATOM     36  C   UNL A   1      47.306  33.059  29.117  1.00  0.00     0.010 A 
ATOM     37  C   UNL A   1      46.579  33.548  26.852  1.00  0.00     0.010 A 
ATOM     38  C   UNL A   1      46.622  32.678  27.956  1.00  0.00    -0.014 A 
BRANCH  38  39
ATOM     39  C   UNL A   1      46.115  31.291  27.835  1.00  0.00     0.031 A 
ATOM     40  C   UNL A   1      47.075  30.215  27.408  1.00  0.00     0.074 A 
ATOM     41  C   UNL A   1      44.839  30.987  28.134  1.00  0.00     0.049 A 
ATOM     42  N   UNL A   1      46.858  28.942  27.212  1.00  0.00    -0.248 NA
ATOM     43  C   UNL A   1      48.471  30.631  27.180  1.00  0.00     0.031 C 
ATOM     44  C   UNL A   1      43.831  31.933  28.606  1.00  0.00     0.029 A 
ATOM     45  N   UNL A   1      44.175  29.787  28.077  1.00  0.00    -0.354 N 
ATOM     46  C   UNL A   1      48.085  28.401  26.849  1.00  0.00     0.074 A 
ATOM     47  C   UNL A   1      49.039  29.488  26.823  1.00  0.00     0.031 C 
ATOM     48  C   UNL A   1      42.670  31.278  28.785  1.00  0.00     0.029 A 
ATOM     49  C   UNL A   1      42.846  29.875  28.413  1.00  0.00     0.049 A 
ATOM     50  H   UNL A   1      44.611  28.943  27.819  1.00  0.00     0.167 HD
ATOM     51  C   UNL A   1      48.391  27.114  26.570  1.00  0.00     0.037 A 
ATOM     52  C   UNL A   1      41.881  28.933  28.400  1.00  0.00     0.037 A 
ATOM     53  C   UNL A   1      47.438  26.037  26.580  1.00  0.00     0.049 A 
ATOM     54  C   UNL A   1      42.227  27.523  27.986  1.00  0.00     0.074 A 
ATOM     55  C   UNL A   1      47.653  24.698  26.305  1.00  0.00     0.029 A 
ATOM     56  N   UNL A   1      46.091  26.175  26.873  1.00  0.00    -0.354 N 
ATOM     57  N   UNL A   1      43.393  27.024  27.653  1.00  0.00    -0.248 NA
ATOM     58  C   UNL A   1      41.124  26.551  27.942  1.00  0.00     0.031 C 
ATOM     59  C   UNL A   1      46.426  24.034  26.386  1.00  0.00     0.029 A 
ATOM     60  C   UNL A   1      45.455  24.950  26.761  1.00  0.00     0.049 A 
ATOM     61  H   UNL A   1      45.651  27.019  27.124  1.00  0.00     0.167 HD
ATOM     62  C   UNL A   1      43.168  25.677  27.383  1.00  0.00     0.074 A 
ATOM     63  C   UNL A   1      41.758  25.436  27.601  1.00  0.00     0.031 C 
ATOM     64  C   UNL A   1      44.050  24.724  26.989  1.00  0.00     0.037 A 
BRANCH  51  65
ATOM     65  C   UNL A   1      49.816  26.797  26.217  1.00  0.00     0.058 A 
ATOM     66  C   UNL A   1      50.729  26.360  27.187  1.00  0.00     0.135 A 
ATOM     67  C   UNL A   1      50.254  26.872  24.885  1.00  0.00     0.135 A 
ATOM     68  F   UNL A   1      50.366  26.294  28.478  1.00  0.00    -0.206 F 
ATOM     69  C   UNL A   1      52.034  26.015  26.851  1.00  0.00     0.059 A 
ATOM     70  C   UNL A   1      51.547  26.512  24.523  1.00  0.00     0.059 A 
ATOM     71  F   UNL A   1      49.419  27.294  23.922  1.00  0.00    -0.206 F 
ATOM     72  C   UNL A   1      52.431  26.088  25.514  1.00  0.00     0.060 A 
BRANCH  72  73
ATOM     73  S   UNL A   1      54.119  25.604  25.093  1.00  0.00     0.124 S 
ATOM     74  O   UNL A   1      53.999  24.151  25.034  1.00  0.00    -0.237 OA
ATOM     75  O   UNL A   1      54.323  26.276  23.813  1.00  0.00    -0.237 OA
ATOM     76  O   UNL A   1      54.910  26.123  26.204  1.00  0.00    -0.744 OA
ENDBRANCH  72  73
ENDBRANCH  51  65
BRANCH  52  77
ATOM     77  C   UNL A   1      40.485  29.286  28.773  1.00  0.00     0.058 A 
ATOM     78  C   UNL A   1      40.096  29.373  30.118  1.00  0.00     0.135 A 
ATOM     79  C   UNL A   1      39.509  29.526  27.794  1.00  0.00     0.135 A 
ATOM     80  F   UNL A   1      40.989  29.139  31.091  1.00  0.00    -0.206 F 
ATOM     81  C   UNL A   1      38.785  29.673  30.480  1.00  0.00     0.059 A 
ATOM     82  C   UNL A   1      38.198  29.850  28.129  1.00  0.00     0.059 A 
ATOM     83  F   UNL A   1      39.832  29.460  26.493  1.00  0.00    -0.206 F 
ATOM     84  C   UNL A   1      37.844  29.911  29.477  1.00  0.00     0.060 A 
BRANCH  84  85
ATOM     85  S   UNL A   1      36.155  30.337  29.958  1.00  0.00     0.124 S 
ATOM     86  O   UNL A   1      36.155  29.978  31.371  1.00  0.00    -0.237 OA
ATOM     87  O   UNL A   1      36.105  31.765  29.661  1.00  0.00    -0.237 OA
ATOM     88  O   UNL A   1      35.336  29.494  29.092  1.00  0.00    -0.744 OA
ENDBRANCH  84  85
ENDBRANCH  52  77
BRANCH  64  89
ATOM     89  C   UNL A   1      43.535  23.326  26.789  1.00  0.00     0.058 A 
ATOM     90  C   UNL A   1      43.306  22.805  25.507  1.00  0.00     0.135 A 
ATOM     91  C   UNL A   1      43.353  22.469  27.887  1.00  0.00     0.135 A 
ATOM     92  F   UNL A   1      43.461  23.582  24.423  1.00  0.00    -0.206 F 
ATOM     93  C   UNL A   1      42.906  21.485  25.320  1.00  0.00     0.059 A 
ATOM     94  C   UNL A   1      42.979  21.139  27.723  1.00  0.00     0.059 A 
ATOM     95  F   UNL A   1      43.569  22.915  29.135  1.00  0.00    -0.206 F 
ATOM     96  C   UNL A   1      42.752  20.658  26.434  1.00  0.00     0.060 A 
BRANCH  96  97
ATOM     97  S   UNL A   1      42.285  18.933  26.171  1.00  0.00     0.124 S 
ATOM     98  O   UNL A   1      43.289  18.500  25.205  1.00  0.00    -0.237 OA
ATOM     99  O   UNL A   1      42.411  18.370  27.512  1.00  0.00    -0.237 OA
ATOM    100  O   UNL A   1      40.920  19.025  25.661  1.00  0.00    -0.744 OA
ENDBRANCH  96  97
ENDBRANCH  64  89
ENDBRANCH  38  39
ENDBRANCH  31  33
ENDBRANCH  30  31
ENDBRANCH  29  30
ENDBRANCH  28  29
ENDBRANCH  27  28
ENDBRANCH   1  27
TORSDOF 21
ENDMDL
MODEL 2
REMARK VINA RESULT:     -10.0      8.452     15.278
REMARK SMILES Cc1c(Br)c(C)c2c(c1Br)O[C@H](C(F)(F)F)C(C(=O)OCCOCCOCCOC(=O)c1ccc(-c3c4nc(c(-c5c(F)cc(S(=O)(=O)[O-])cc5F)c5ccc([nH]5)c(-c5c(F)cc(S(=O)(=O)[O-])cc5F)c5nc(c(-c6c(F)cc(S(=O)(=O)[O-])cc6F)c6ccc3[nH]6)C=C5)C=C4)cc1)=C2
REMARK SMILES IDX 25 1 24 2 23 3 22 4 21 5 20 6 18 7 19 8 17 9 1 10 2 11 3 12
REMARK SMILES IDX 9 13 4 14 5 15 8 16 10 17 6 18 7 19 11 20 98 21 12 22 13 23
REMARK SMILES IDX 14 24 15 25 16 26 26 27 27 28 28 29 29 30 30 31 31 32 32 33
REMARK SMILES IDX 33 34 97 35 34 36 96 37 35 38 36 39 37 40 90 41 38 42 95 43
REMARK SMILES IDX 89 44 91 45 39 46 94 47 88 48 87 49 40 51 74 52 53 53 73 54
REMARK SMILES IDX 54 55 57 56 72 57 92 58 55 59 56 60 71 62 93 63 58 64 41 65
REMARK SMILES IDX 42 66 51 67 43 68 44 69 50 70 52 71 45 72 46 73 47 74 48 75
REMARK SMILES IDX 49 76 75 77 76 78 85 79 77 80 78 81 84 82 86 83 79 84 80 85
REMARK SMILES IDX 81 86 82 87 83 88 59 89 60 90 69 91 61 92 62 93 68 94 70 95
REMARK SMILES IDX 63 96 64 97 65 98 66 99 67 100
REMARK H PARENT 91 50 57 61
REMARK Flexibility Score: inf
ROOT
ATOM      1  C   UNL A   1      31.551  31.846  27.094  1.00  0.00     0.188 C 
ENDROOT
BRANCH   1   2
ATOM      2  C   UNL A   1      31.330  31.173  25.723  1.00  0.00     0.188 C 
BRANCH   2   3
ATOM      3  O   UNL A   1      31.776  29.855  25.480  1.00  0.00    -0.376 OA
BRANCH   3   4
ATOM      4  C   UNL A   1      31.275  28.753  26.216  1.00  0.00     0.202 C 
BRANCH   4   5
ATOM      5  C   UNL A   1      31.775  27.321  26.010  1.00  0.00     0.261 C 
BRANCH   5   6
ATOM      6  O   UNL A   1      33.144  27.216  25.608  1.00  0.00    -0.460 OA
BRANCH   6   7
ATOM      7  C   UNL A   1      33.340  26.606  24.415  1.00  0.00     0.338 C 
ATOM      8  O   UNL A   1      33.522  27.149  23.336  1.00  0.00    -0.246 OA
BRANCH   7   9
ATOM      9  C   UNL A   1      33.418  25.149  24.611  1.00  0.00     0.087 C 
ATOM     10  C   UNL A   1      35.167  18.864  24.626  1.00  0.00     0.047 C 
ATOM     11  C   UNL A   1      35.020  20.359  24.805  1.00  0.00    -0.019 A 
ATOM     12  C   UNL A   1      36.165  21.176  24.984  1.00  0.00     0.025 A 
ATOM     13  C   UNL A   1      33.762  20.988  24.723  1.00  0.00     0.064 A 
ATOM     14  Br  UNL A   1      37.899  20.349  25.001  1.00  0.00    -0.050 Br
ATOM     15  C   UNL A   1      36.062  22.585  25.094  1.00  0.00    -0.026 A 
ATOM     16  C   UNL A   1      33.647  22.390  24.785  1.00  0.00     0.142 A 
ATOM     17  Br  UNL A   1      32.156  19.972  24.458  1.00  0.00    -0.046 Br
ATOM     18  C   UNL A   1      37.270  23.464  25.354  1.00  0.00     0.046 C 
ATOM     19  C   UNL A   1      34.791  23.188  24.928  1.00  0.00     0.022 A 
ATOM     20  O   UNL A   1      32.380  22.908  24.701  1.00  0.00    -0.474 OA
ATOM     21  C   UNL A   1      34.636  24.638  24.820  1.00  0.00     0.027 C 
ATOM     22  C   UNL A   1      32.168  24.331  24.552  1.00  0.00     0.316 C 
BRANCH  22  23
ATOM     23  C   UNL A   1      31.360  24.569  23.268  1.00  0.00     0.430 C 
ATOM     24  F   UNL A   1      30.635  25.710  23.348  1.00  0.00    -0.167 F 
ATOM     25  F   UNL A   1      32.164  24.702  22.185  1.00  0.00    -0.167 F 
ATOM     26  F   UNL A   1      30.501  23.558  23.010  1.00  0.00    -0.167 F 
ENDBRANCH  22  23
ENDBRANCH   7   9
ENDBRANCH   6   7
ENDBRANCH   5   6
ENDBRANCH   4   5
ENDBRANCH   3   4
ENDBRANCH   2   3
ENDBRANCH   1   2
BRANCH   1  27
ATOM     27  O   UNL A   1      32.174  33.112  27.196  1.00  0.00    -0.376 OA
BRANCH  27  28
ATOM     28  C   UNL A   1      33.419  33.221  27.868  1.00  0.00     0.202 C 
BRANCH  28  29
ATOM     29  C   UNL A   1      34.117  31.991  28.455  1.00  0.00     0.261 C 
BRANCH  29  30
ATOM     30  O   UNL A   1      34.568  31.043  27.479  1.00  0.00    -0.460 OA
BRANCH  30  31
ATOM     31  C   UNL A   1      34.852  29.809  27.969  1.00  0.00     0.338 C 
ATOM     32  O   UNL A   1      34.115  28.839  27.998  1.00  0.00    -0.246 OA
BRANCH  31  33
ATOM     33  C   UNL A   1      36.286  29.735  28.301  1.00  0.00     0.060 A 
ATOM     34  C   UNL A   1      37.213  30.028  27.291  1.00  0.00     0.016 A 
ATOM     35  C   UNL A   1      36.714  29.338  29.569  1.00  0.00     0.016 A 
ATOM     36  C   UNL A   1      38.578  29.906  27.542  1.00  0.00     0.010 A 
ATOM     37  C   UNL A   1      38.083  29.187  29.809  1.00  0.00     0.010 A 
ATOM     38  C   UNL A   1      39.017  29.446  28.790  1.00  0.00    -0.014 A 
BRANCH  38  39
ATOM     39  C   UNL A   1      40.436  29.056  28.960  1.00  0.00     0.031 A 
ATOM     40  C   UNL A   1      41.394  30.075  29.514  1.00  0.00     0.074 A 
ATOM     41  C   UNL A   1      40.858  27.814  28.666  1.00  0.00     0.049 A 
ATOM     42  N   UNL A   1      42.679  29.973  29.729  1.00  0.00    -0.248 NA
ATOM     43  C   UNL A   1      40.823  31.383  29.882  1.00  0.00     0.031 C 
ATOM     44  C   UNL A   1      40.015  26.727  28.172  1.00  0.00     0.029 A 
ATOM     45  N   UNL A   1      42.112  27.261  28.738  1.00  0.00    -0.354 N 
ATOM     46  C   UNL A   1      43.070  31.193  30.265  1.00  0.00     0.074 A 
ATOM     47  C   UNL A   1      41.893  32.033  30.318  1.00  0.00     0.031 C 
ATOM     48  C   UNL A   1      40.779  25.639  27.973  1.00  0.00     0.029 A 
ATOM     49  C   UNL A   1      42.168  25.960  28.298  1.00  0.00     0.049 A 
ATOM     50  H   UNL A   1      42.898  27.751  29.072  1.00  0.00     0.167 HD
ATOM     51  C   UNL A   1      44.297  31.576  30.685  1.00  0.00     0.037 A 
ATOM     52  C   UNL A   1      43.225  25.135  28.155  1.00  0.00     0.037 A 
ATOM     53  C   UNL A   1      45.469  30.746  30.617  1.00  0.00     0.049 A 
ATOM     54  C   UNL A   1      44.602  25.621  28.535  1.00  0.00     0.074 A 
ATOM     55  C   UNL A   1      46.760  31.050  31.013  1.00  0.00     0.029 A 
ATOM     56  N   UNL A   1      45.497  29.454  30.116  1.00  0.00    -0.354 N 
ATOM     57  N   UNL A   1      44.957  26.775  29.049  1.00  0.00    -0.248 NA
ATOM     58  C   UNL A   1      45.723  24.696  28.311  1.00  0.00     0.031 C 
ATOM     59  C   UNL A   1      47.578  29.957  30.708  1.00  0.00     0.029 A 
ATOM     60  C   UNL A   1      46.787  28.955  30.169  1.00  0.00     0.049 A 
ATOM     61  H   UNL A   1      44.714  28.965  29.774  1.00  0.00     0.167 HD
ATOM     62  C   UNL A   1      46.336  26.704  29.231  1.00  0.00     0.074 A 
ATOM     63  C   UNL A   1      46.750  25.392  28.782  1.00  0.00     0.031 C 
ATOM     64  C   UNL A   1      47.183  27.642  29.725  1.00  0.00     0.037 A 
BRANCH  51  65
ATOM     65  C   UNL A   1      44.441  32.962  31.245  1.00  0.00     0.058 A 
ATOM     66  C   UNL A   1      44.780  34.050  30.427  1.00  0.00     0.135 A 
ATOM     67  C   UNL A   1      44.179  33.213  32.601  1.00  0.00     0.135 A 
ATOM     68  F   UNL A   1      45.063  33.858  29.128  1.00  0.00    -0.206 F 
ATOM     69  C   UNL A   1      44.861  35.341  30.935  1.00  0.00     0.059 A 
ATOM     70  C   UNL A   1      44.233  34.500  33.127  1.00  0.00     0.059 A 
ATOM     71  F   UNL A   1      43.861  32.204  33.427  1.00  0.00    -0.206 F 
ATOM     72  C   UNL A   1      44.579  35.557  32.286  1.00  0.00     0.060 A 
BRANCH  72  73
ATOM     73  S   UNL A   1      44.657  37.246  32.920  1.00  0.00     0.124 S 
ATOM     74  O   UNL A   1      45.730  37.138  33.904  1.00  0.00    -0.237 OA
ATOM     75  O   UNL A   1      44.973  38.013  31.719  1.00  0.00    -0.237 OA
ATOM     76  O   UNL A   1      43.323  37.466  33.469  1.00  0.00    -0.744 OA
ENDBRANCH  72  73
ENDBRANCH  51  65
BRANCH  52  77
ATOM     77  C   UNL A   1      43.036  23.763  27.612  1.00  0.00     0.058 A 
ATOM     78  C   UNL A   1      43.098  23.516  26.233  1.00  0.00     0.135 A 
ATOM     79  C   UNL A   1      42.770  22.676  28.459  1.00  0.00     0.135 A 
ATOM     80  F   UNL A   1      43.334  24.525  25.381  1.00  0.00    -0.206 F 
ATOM     81  C   UNL A   1      42.891  22.242  25.710  1.00  0.00     0.059 A 
ATOM     82  C   UNL A   1      42.583  21.389  27.964  1.00  0.00     0.059 A 
ATOM     83  F   UNL A   1      42.705  22.859  29.787  1.00  0.00    -0.206 F 
ATOM     84  C   UNL A   1      42.636  21.185  26.585  1.00  0.00     0.060 A 
BRANCH  84  85
ATOM     85  S   UNL A   1      42.408  19.529  25.899  1.00  0.00     0.124 S 
ATOM     86  O   UNL A   1      43.430  19.500  24.860  1.00  0.00    -0.237 OA
ATOM     87  O   UNL A   1      42.653  18.681  27.061  1.00  0.00    -0.237 OA
ATOM     88  O   UNL A   1      41.027  19.550  25.425  1.00  0.00    -0.744 OA
ENDBRANCH  84  85
ENDBRANCH  52  77
BRANCH  64  89
ATOM     89  C   UNL A   1      48.640  27.287  29.833  1.00  0.00     0.058 A 
ATOM     90  C   UNL A   1      49.574  27.722  28.882  1.00  0.00     0.135 A 
ATOM     91  C   UNL A   1      49.120  26.582  30.949  1.00  0.00     0.135 A 
ATOM     92  F   UNL A   1      49.167  28.397  27.795  1.00  0.00    -0.206 F 
ATOM     93  C   UNL A   1      50.933  27.462  29.026  1.00  0.00     0.059 A 
ATOM     94  C   UNL A   1      50.477  26.332  31.128  1.00  0.00     0.059 A 
ATOM     95  F   UNL A   1      48.269  26.152  31.895  1.00  0.00    -0.206 F 
ATOM     96  C   UNL A   1      51.376  26.772  30.157  1.00  0.00     0.060 A 
BRANCH  96  97
ATOM     97  S   UNL A   1      53.149  26.489  30.357  1.00  0.00     0.124 S 
ATOM     98  O   UNL A   1      53.513  25.962  29.046  1.00  0.00    -0.237 OA
ATOM     99  O   UNL A   1      53.644  27.828  30.662  1.00  0.00    -0.237 OA
ATOM    100  O   UNL A   1      53.219  25.535  31.459  1.00  0.00    -0.744 OA
ENDBRANCH  96  97
ENDBRANCH  64  89
ENDBRANCH  38  39
ENDBRANCH  31  33
ENDBRANCH  30  31
ENDBRANCH  29  30
ENDBRANCH  28  29
ENDBRANCH  27  28
ENDBRANCH   1  27
TORSDOF 21
ENDMDL
MODEL 3
REMARK VINA RESULT:      -9.9      7.287     13.800
REMARK SMILES Cc1c(Br)c(C)c2c(c1Br)O[C@H](C(F)(F)F)C(C(=O)OCCOCCOCCOC(=O)c1ccc(-c3c4nc(c(-c5c(F)cc(S(=O)(=O)[O-])cc5F)c5ccc([nH]5)c(-c5c(F)cc(S(=O)(=O)[O-])cc5F)c5nc(c(-c6c(F)cc(S(=O)(=O)[O-])cc6F)c6ccc3[nH]6)C=C5)C=C4)cc1)=C2
REMARK SMILES IDX 25 1 24 2 23 3 22 4 21 5 20 6 18 7 19 8 17 9 1 10 2 11 3 12
REMARK SMILES IDX 9 13 4 14 5 15 8 16 10 17 6 18 7 19 11 20 98 21 12 22 13 23
REMARK SMILES IDX 14 24 15 25 16 26 26 27 27 28 28 29 29 30 30 31 31 32 32 33
REMARK SMILES IDX 33 34 97 35 34 36 96 37 35 38 36 39 37 40 90 41 38 42 95 43
REMARK SMILES IDX 89 44 91 45 39 46 94 47 88 48 87 49 40 51 74 52 53 53 73 54
REMARK SMILES IDX 54 55 57 56 72 57 92 58 55 59 56 60 71 62 93 63 58 64 41 65
REMARK SMILES IDX 42 66 51 67 43 68 44 69 50 70 52 71 45 72 46 73 47 74 48 75
REMARK SMILES IDX 49 76 75 77 76 78 85 79 77 80 78 81 84 82 86 83 79 84 80 85
REMARK SMILES IDX 81 86 82 87 83 88 59 89 60 90 69 91 61 92 62 93 68 94 70 95
REMARK SMILES IDX 63 96 64 97 65 98 66 99 67 100
REMARK H PARENT 91 50 57 61
REMARK Flexibility Score: inf
ROOT
ATOM      1  C   UNL A   1      36.675  33.072  33.069  1.00  0.00     0.188 C 
ENDROOT
BRANCH   1   2
ATOM      2  C   UNL A   1      36.759  33.630  34.505  1.00  0.00     0.188 C 
BRANCH   2   3
ATOM      3  O   UNL A   1      37.807  33.251  35.373  1.00  0.00    -0.376 OA
BRANCH   3   4
ATOM      4  C   UNL A   1      37.841  31.973  35.983  1.00  0.00     0.202 C 
BRANCH   4   5
ATOM      5  C   UNL A   1      38.425  30.738  35.291  1.00  0.00     0.261 C 
BRANCH   5   6
ATOM      6  O   UNL A   1      39.693  30.947  34.662  1.00  0.00    -0.460 OA
BRANCH   6   7
ATOM      7  C   UNL A   1      40.758  30.510  35.374  1.00  0.00     0.338 C 
ATOM      8  O   UNL A   1      41.049  30.815  36.520  1.00  0.00    -0.246 OA
BRANCH   7   9
ATOM      9  C   UNL A   1      41.489  29.494  34.597  1.00  0.00     0.087 C 
ATOM     10  C   UNL A   1      45.186  24.483  32.655  1.00  0.00     0.047 C 
ATOM     11  C   UNL A   1      44.143  25.417  33.226  1.00  0.00    -0.019 A 
ATOM     12  C   UNL A   1      43.416  25.055  34.390  1.00  0.00     0.025 A 
ATOM     13  C   UNL A   1      43.917  26.693  32.674  1.00  0.00     0.064 A 
ATOM     14  Br  UNL A   1      43.779  23.358  35.216  1.00  0.00    -0.050 Br
ATOM     15  C   UNL A   1      42.476  25.934  34.981  1.00  0.00    -0.026 A 
ATOM     16  C   UNL A   1      43.021  27.596  33.276  1.00  0.00     0.142 A 
ATOM     17  Br  UNL A   1      44.868  27.286  31.116  1.00  0.00    -0.046 Br
ATOM     18  C   UNL A   1      41.644  25.534  36.184  1.00  0.00     0.046 C 
ATOM     19  C   UNL A   1      42.334  27.237  34.445  1.00  0.00     0.022 A 
ATOM     20  O   UNL A   1      42.865  28.812  32.662  1.00  0.00    -0.474 OA
ATOM     21  C   UNL A   1      41.544  28.265  35.122  1.00  0.00     0.027 C 
ATOM     22  C   UNL A   1      42.129  29.879  33.302  1.00  0.00     0.316 C 
BRANCH  22  23
ATOM     23  C   UNL A   1      43.056  31.096  33.434  1.00  0.00     0.430 C 
ATOM     24  F   UNL A   1      43.723  31.080  34.613  1.00  0.00    -0.167 F 
ATOM     25  F   UNL A   1      43.998  31.120  32.461  1.00  0.00    -0.167 F 
ATOM     26  F   UNL A   1      42.378  32.264  33.368  1.00  0.00    -0.167 F 
ENDBRANCH  22  23
ENDBRANCH   7   9
ENDBRANCH   6   7
ENDBRANCH   5   6
ENDBRANCH   4   5
ENDBRANCH   3   4
ENDBRANCH   2   3
ENDBRANCH   1   2
BRANCH   1  27
ATOM     27  O   UNL A   1      35.959  33.754  32.059  1.00  0.00    -0.376 OA
BRANCH  27  28
ATOM     28  C   UNL A   1      35.188  33.009  31.128  1.00  0.00     0.202 C 
BRANCH  28  29
ATOM     29  C   UNL A   1      35.738  32.657  29.743  1.00  0.00     0.261 C 
BRANCH  29  30
ATOM     30  O   UNL A   1      35.780  31.252  29.461  1.00  0.00    -0.460 OA
BRANCH  30  31
ATOM     31  C   UNL A   1      36.412  30.500  30.398  1.00  0.00     0.338 C 
ATOM     32  O   UNL A   1      35.904  29.898  31.327  1.00  0.00    -0.246 OA
BRANCH  31  33
ATOM     33  C   UNL A   1      37.829  30.343  30.021  1.00  0.00     0.060 A 
ATOM     34  C   UNL A   1      38.132  30.140  28.668  1.00  0.00     0.016 A 
ATOM     35  C   UNL A   1      38.837  30.347  30.985  1.00  0.00     0.016 A 
ATOM     36  C   UNL A   1      39.451  29.920  28.275  1.00  0.00     0.010 A 
ATOM     37  C   UNL A   1      40.155  30.095  30.594  1.00  0.00     0.010 A 
ATOM     38  C   UNL A   1      40.463  29.856  29.242  1.00  0.00    -0.014 A 
BRANCH  38  39
ATOM     39  C   UNL A   1      41.802  29.353  28.858  1.00  0.00     0.031 A 
ATOM     40  C   UNL A   1      42.958  30.315  28.876  1.00  0.00     0.074 A 
ATOM     41  C   UNL A   1      41.995  28.061  28.536  1.00  0.00     0.049 A 
ATOM     42  N   UNL A   1      44.209  30.112  28.560  1.00  0.00    -0.248 NA
ATOM     43  C   UNL A   1      42.663  31.690  29.319  1.00  0.00     0.031 C 
ATOM     44  C   UNL A   1      40.964  27.026  28.532  1.00  0.00     0.029 A 
ATOM     45  N   UNL A   1      43.135  27.404  28.145  1.00  0.00    -0.354 N 
ATOM     46  C   UNL A   1      44.854  31.323  28.774  1.00  0.00     0.074 A 
ATOM     47  C   UNL A   1      43.852  32.267  29.219  1.00  0.00     0.031 C 
ATOM     48  C   UNL A   1      41.517  25.863  28.144  1.00  0.00     0.029 A 
ATOM     49  C   UNL A   1      42.932  26.079  27.846  1.00  0.00     0.049 A 
ATOM     50  H   UNL A   1      44.014  27.842  28.084  1.00  0.00     0.167 HD
ATOM     51  C   UNL A   1      46.164  31.621  28.621  1.00  0.00     0.037 A 
ATOM     52  C   UNL A   1      43.789  25.154  27.365  1.00  0.00     0.037 A 
ATOM     53  C   UNL A   1      47.156  30.687  28.162  1.00  0.00     0.049 A 
ATOM     54  C   UNL A   1      45.225  25.539  27.105  1.00  0.00     0.074 A 
ATOM     55  C   UNL A   1      48.510  30.898  27.969  1.00  0.00     0.029 A 
ATOM     56  N   UNL A   1      46.903  29.368  27.817  1.00  0.00    -0.354 N 
ATOM     57  N   UNL A   1      45.823  26.686  27.319  1.00  0.00    -0.248 NA
ATOM     58  C   UNL A   1      46.101  24.504  26.534  1.00  0.00     0.031 C 
ATOM     59  C   UNL A   1      49.067  29.719  27.464  1.00  0.00     0.029 A 
ATOM     60  C   UNL A   1      48.070  28.760  27.389  1.00  0.00     0.049 A 
ATOM     61  H   UNL A   1      46.023  28.930  27.870  1.00  0.00     0.167 HD
ATOM     62  C   UNL A   1      47.148  26.504  26.932  1.00  0.00     0.074 A 
ATOM     63  C   UNL A   1      47.267  25.134  26.480  1.00  0.00     0.031 C 
ATOM     64  C   UNL A   1      48.174  27.391  26.949  1.00  0.00     0.037 A 
BRANCH  51  65
ATOM     65  C   UNL A   1      46.603  33.021  28.941  1.00  0.00     0.058 A 
ATOM     66  C   UNL A   1      46.635  34.020  27.957  1.00  0.00     0.135 A 
ATOM     67  C   UNL A   1      46.937  33.380  30.256  1.00  0.00     0.135 A 
ATOM     68  F   UNL A   1      46.348  33.721  26.679  1.00  0.00    -0.206 F 
ATOM     69  C   UNL A   1      46.990  35.329  28.264  1.00  0.00     0.059 A 
ATOM     70  C   UNL A   1      47.274  34.688  30.591  1.00  0.00     0.059 A 
ATOM     71  F   UNL A   1      46.930  32.458  31.232  1.00  0.00    -0.206 F 
ATOM     72  C   UNL A   1      47.302  35.654  29.586  1.00  0.00     0.060 A 
BRANCH  72  73
ATOM     73  S   UNL A   1      47.728  37.366  29.971  1.00  0.00     0.124 S 
ATOM     74  O   UNL A   1      48.679  37.676  28.908  1.00  0.00    -0.237 OA
ATOM     75  O   UNL A   1      46.434  38.035  29.880  1.00  0.00    -0.237 OA
ATOM     76  O   UNL A   1      48.296  37.282  31.313  1.00  0.00    -0.744 OA
ENDBRANCH  72  73
ENDBRANCH  51  65
BRANCH  52  77
ATOM     77  C   UNL A   1      43.316  23.773  27.077  1.00  0.00     0.058 A 
ATOM     78  C   UNL A   1      43.123  22.845  28.110  1.00  0.00     0.135 A 
ATOM     79  C   UNL A   1      43.066  23.349  25.763  1.00  0.00     0.135 A 
ATOM     80  F   UNL A   1      43.362  23.198  29.383  1.00  0.00    -0.206 F 
ATOM     81  C   UNL A   1      42.710  21.541  27.852  1.00  0.00     0.059 A 
ATOM     82  C   UNL A   1      42.631  22.059  25.479  1.00  0.00     0.059 A 
ATOM     83  F   UNL A   1      43.231  24.201  24.739  1.00  0.00    -0.206 F 
ATOM     84  C   UNL A   1      42.465  21.158  26.531  1.00  0.00     0.060 A 
BRANCH  84  85
ATOM     85  S   UNL A   1      41.894  19.475  26.211  1.00  0.00     0.124 S 
ATOM     86  O   UNL A   1      42.266  18.798  27.448  1.00  0.00    -0.237 OA
ATOM     87  O   UNL A   1      40.463  19.675  25.997  1.00  0.00    -0.237 OA
ATOM     88  O   UNL A   1      42.650  19.083  25.025  1.00  0.00    -0.744 OA
ENDBRANCH  84  85
ENDBRANCH  52  77
BRANCH  64  89
ATOM     89  C   UNL A   1      49.524  26.915  26.489  1.00  0.00     0.058 A 
ATOM     90  C   UNL A   1      50.372  26.185  27.335  1.00  0.00     0.135 A 
ATOM     91  C   UNL A   1      49.936  27.115  25.161  1.00  0.00     0.135 A 
ATOM     92  F   UNL A   1      50.028  25.969  28.614  1.00  0.00    -0.206 F 
ATOM     93  C   UNL A   1      51.586  25.676  26.884  1.00  0.00     0.059 A 
ATOM     94  C   UNL A   1      51.134  26.594  24.681  1.00  0.00     0.059 A 
ATOM     95  F   UNL A   1      49.157  27.798  24.307  1.00  0.00    -0.206 F 
ATOM     96  C   UNL A   1      51.955  25.880  25.552  1.00  0.00     0.060 A 
BRANCH  96  97
ATOM     97  S   UNL A   1      53.508  25.167  24.968  1.00  0.00     0.124 S 
ATOM     98  O   UNL A   1      53.358  23.770  25.361  1.00  0.00    -0.237 OA
ATOM     99  O   UNL A   1      53.451  25.432  23.534  1.00  0.00    -0.237 OA
ATOM    100  O   UNL A   1      54.524  25.920  25.699  1.00  0.00    -0.744 OA
ENDBRANCH  96  97
ENDBRANCH  64  89
ENDBRANCH  38  39
ENDBRANCH  31  33
ENDBRANCH  30  31
ENDBRANCH  29  30
ENDBRANCH  28  29
ENDBRANCH  27  28
ENDBRANCH   1  27
TORSDOF 21
ENDMDL
