MODEL 1
REMARK VINA RESULT:      -9.8      0.000      0.000
REMARK SMILES O=C(Cc1ccn(-c2ccccc2F)c1)OCCOCCOCCOC(=O)c1ccc(-c2c3nc(c(-c4c(F)cc(S(=O)(=O)[O-])cc4F)c4ccc([nH]4)c(-c4c(F)cc(S(=O)(=O)[O-])cc4F)c4nc(c(-c5c(F)cc(S(=O)(=O)[O-])cc5F)c5ccc2[nH]5)C=C4)C=C3)cc1
REMARK SMILES IDX 21 1 20 2 19 3 18 4 17 5 16 6 2 7 1 8 3 9 4 10 5 11 15 12
REMARK SMILES IDX 6 13 7 14 8 15 9 16 13 17 10 18 12 19 14 20 11 21 22 22
REMARK SMILES IDX 23 23 24 24 25 25 26 26 27 27 28 28 29 29 93 30 30 31 92 32
REMARK SMILES IDX 31 33 32 34 33 35 86 36 34 37 91 38 85 39 87 40 35 41 90 42
REMARK SMILES IDX 84 43 83 44 36 46 70 47 49 48 69 49 50 50 53 51 68 52 88 53
REMARK SMILES IDX 51 54 52 55 67 57 89 58 54 59 37 60 38 61 47 62 39 63 40 64
REMARK SMILES IDX 46 65 48 66 41 67 42 68 43 69 44 70 45 71 71 72 72 73 81 74
REMARK SMILES IDX 73 75 74 76 80 77 82 78 75 79 76 80 77 81 78 82 79 83 55 84
REMARK SMILES IDX 56 85 65 86 57 87 58 88 64 89 66 90 59 91 60 92 61 93 62 94
REMARK SMILES IDX 63 95
REMARK H PARENT 87 45 53 56
REMARK Flexibility Score: inf
ROOT
ATOM      1  C   UNL A   1      31.226  29.408  24.661  1.00  0.00     0.188 C 
ENDROOT
BRANCH   1   2
ATOM      2  C   UNL A   1      32.003  28.435  23.753  1.00  0.00     0.188 C 
BRANCH   2   3
ATOM      3  O   UNL A   1      31.339  27.220  23.452  1.00  0.00    -0.376 OA
BRANCH   3   4
ATOM      4  C   UNL A   1      32.156  26.089  23.199  1.00  0.00     0.202 C 
BRANCH   4   5
ATOM      5  C   UNL A   1      31.394  24.838  22.770  1.00  0.00     0.261 C 
BRANCH   5   6
ATOM      6  O   UNL A   1      30.842  24.021  23.828  1.00  0.00    -0.463 OA
BRANCH   6   7
ATOM      7  C   UNL A   1      31.457  23.392  24.851  1.00  0.00     0.310 C 
ATOM      8  O   UNL A   1      31.394  23.882  25.980  1.00  0.00    -0.252 OA
BRANCH   7   9
ATOM      9  C   UNL A   1      32.303  22.171  24.602  1.00  0.00     0.159 C 
BRANCH   9  10
ATOM     10  C   UNL A   1      33.755  22.424  24.384  1.00  0.00    -0.019 A 
ATOM     11  C   UNL A   1      34.401  22.812  23.185  1.00  0.00     0.024 A 
ATOM     12  C   UNL A   1      34.747  22.310  25.342  1.00  0.00     0.095 A 
ATOM     13  C   UNL A   1      35.728  23.023  23.483  1.00  0.00     0.091 A 
ATOM     14  N   UNL A   1      35.959  22.682  24.801  1.00  0.00    -0.321 N 
BRANCH  14  15
ATOM     15  C   UNL A   1      37.210  22.722  25.466  1.00  0.00     0.081 A 
ATOM     16  C   UNL A   1      37.602  23.881  26.151  1.00  0.00     0.030 A 
ATOM     17  C   UNL A   1      38.076  21.623  25.437  1.00  0.00     0.147 A 
ATOM     18  C   UNL A   1      38.842  23.932  26.791  1.00  0.00     0.002 A 
ATOM     19  C   UNL A   1      39.323  21.686  26.056  1.00  0.00     0.041 A 
ATOM     20  F   UNL A   1      37.778  20.506  24.757  1.00  0.00    -0.205 F 
ATOM     21  C   UNL A   1      39.708  22.840  26.734  1.00  0.00     0.003 A 
ENDBRANCH  14  15
ENDBRANCH   9  10
ENDBRANCH   7   9
ENDBRANCH   6   7
ENDBRANCH   5   6
ENDBRANCH   4   5
ENDBRANCH   3   4
ENDBRANCH   2   3
ENDBRANCH   1   2
BRANCH   1  22
ATOM     22  O   UNL A   1      31.763  29.977  25.852  1.00  0.00    -0.376 OA
BRANCH  22  23
ATOM     23  C   UNL A   1      32.047  29.192  26.994  1.00  0.00     0.202 C 
BRANCH  23  24
ATOM     24  C   UNL A   1      33.526  28.937  27.279  1.00  0.00     0.261 C 
BRANCH  24  25
ATOM     25  O   UNL A   1      34.399  30.025  26.982  1.00  0.00    -0.460 OA
BRANCH  25  26
ATOM     26  C   UNL A   1      34.949  30.588  28.071  1.00  0.00     0.338 C 
ATOM     27  O   UNL A   1      34.544  31.570  28.700  1.00  0.00    -0.246 OA
BRANCH  26  28
ATOM     28  C   UNL A   1      36.200  29.926  28.418  1.00  0.00     0.060 A 
ATOM     29  C   UNL A   1      36.323  29.379  29.701  1.00  0.00     0.016 A 
ATOM     30  C   UNL A   1      37.307  30.097  27.577  1.00  0.00     0.016 A 
ATOM     31  C   UNL A   1      37.584  29.105  30.195  1.00  0.00     0.010 A 
ATOM     32  C   UNL A   1      38.570  29.864  28.089  1.00  0.00     0.010 A 
ATOM     33  C   UNL A   1      38.701  29.414  29.410  1.00  0.00    -0.014 A 
BRANCH  33  34
ATOM     34  C   UNL A   1      40.042  29.309  30.011  1.00  0.00     0.031 A 
ATOM     35  C   UNL A   1      40.830  28.108  29.509  1.00  0.00     0.074 A 
ATOM     36  C   UNL A   1      40.353  30.282  30.919  1.00  0.00     0.049 A 
ATOM     37  N   UNL A   1      41.839  27.502  30.053  1.00  0.00    -0.248 NA
ATOM     38  C   UNL A   1      40.397  27.429  28.257  1.00  0.00     0.031 C 
ATOM     39  C   UNL A   1      39.437  31.377  31.302  1.00  0.00     0.029 A 
ATOM     40  N   UNL A   1      41.458  30.566  31.696  1.00  0.00    -0.354 N 
ATOM     41  C   UNL A   1      42.276  26.525  29.141  1.00  0.00     0.074 A 
ATOM     42  C   UNL A   1      41.288  26.448  28.108  1.00  0.00     0.031 C 
ATOM     43  C   UNL A   1      39.978  32.141  32.270  1.00  0.00     0.029 A 
ATOM     44  C   UNL A   1      41.305  31.658  32.591  1.00  0.00     0.049 A 
ATOM     45  H   UNL A   1      42.293  30.049  31.634  1.00  0.00     0.167 HD
ATOM     46  C   UNL A   1      43.488  25.912  29.223  1.00  0.00     0.037 A 
ATOM     47  C   UNL A   1      42.167  32.126  33.548  1.00  0.00     0.037 A 
ATOM     48  C   UNL A   1      44.219  26.382  30.351  1.00  0.00     0.049 A 
ATOM     49  C   UNL A   1      43.421  31.369  33.358  1.00  0.00     0.074 A 
ATOM     50  C   UNL A   1      44.126  26.118  31.691  1.00  0.00     0.029 A 
ATOM     51  N   UNL A   1      45.003  27.497  30.168  1.00  0.00    -0.354 N 
ATOM     52  N   UNL A   1      44.242  31.515  32.361  1.00  0.00    -0.248 NA
ATOM     53  C   UNL A   1      43.750  30.304  34.315  1.00  0.00     0.031 C 
ATOM     54  C   UNL A   1      44.560  27.304  32.317  1.00  0.00     0.029 A 
ATOM     55  C   UNL A   1      44.993  28.213  31.343  1.00  0.00     0.049 A 
ATOM     56  H   UNL A   1      45.484  27.740  29.345  1.00  0.00     0.167 HD
ATOM     57  C   UNL A   1      44.986  30.358  32.405  1.00  0.00     0.074 A 
ATOM     58  C   UNL A   1      44.858  29.838  33.746  1.00  0.00     0.031 C 
ATOM     59  C   UNL A   1      45.194  29.646  31.268  1.00  0.00     0.037 A 
BRANCH  46  60
ATOM     60  C   UNL A   1      44.201  25.027  28.249  1.00  0.00     0.058 A 
ATOM     61  C   UNL A   1      44.142  23.628  28.295  1.00  0.00     0.135 A 
ATOM     62  C   UNL A   1      44.677  25.603  27.049  1.00  0.00     0.135 A 
ATOM     63  F   UNL A   1      43.700  22.993  29.388  1.00  0.00    -0.206 F 
ATOM     64  C   UNL A   1      44.455  22.845  27.182  1.00  0.00     0.059 A 
ATOM     65  C   UNL A   1      44.961  24.844  25.918  1.00  0.00     0.059 A 
ATOM     66  F   UNL A   1      44.812  26.935  26.935  1.00  0.00    -0.206 F 
ATOM     67  C   UNL A   1      44.821  23.464  25.987  1.00  0.00     0.060 A 
BRANCH  67  68
ATOM     68  S   UNL A   1      44.989  22.469  24.489  1.00  0.00     0.124 S 
ATOM     69  O   UNL A   1      45.660  21.279  25.000  1.00  0.00    -0.237 OA
ATOM     70  O   UNL A   1      43.602  22.289  24.075  1.00  0.00    -0.237 OA
ATOM     71  O   UNL A   1      45.793  23.314  23.610  1.00  0.00    -0.744 OA
ENDBRANCH  67  68
ENDBRANCH  46  60
BRANCH  47  72
ATOM     72  C   UNL A   1      42.099  33.060  34.745  1.00  0.00     0.058 A 
ATOM     73  C   UNL A   1      41.298  32.704  35.868  1.00  0.00     0.135 A 
ATOM     74  C   UNL A   1      42.641  34.351  34.831  1.00  0.00     0.135 A 
ATOM     75  F   UNL A   1      40.854  31.451  36.048  1.00  0.00    -0.206 F 
ATOM     76  C   UNL A   1      40.877  33.605  36.844  1.00  0.00     0.059 A 
ATOM     77  C   UNL A   1      42.272  35.268  35.833  1.00  0.00     0.059 A 
ATOM     78  F   UNL A   1      43.550  34.790  33.956  1.00  0.00    -0.206 F 
ATOM     79  C   UNL A   1      41.327  34.909  36.786  1.00  0.00     0.060 A 
BRANCH  79  80
ATOM     80  S   UNL A   1      40.658  36.110  37.952  1.00  0.00     0.124 S 
ATOM     81  O   UNL A   1      41.838  36.922  38.237  1.00  0.00    -0.237 OA
ATOM     82  O   UNL A   1      39.613  36.771  37.176  1.00  0.00    -0.237 OA
ATOM     83  O   UNL A   1      40.183  35.278  39.053  1.00  0.00    -0.744 OA
ENDBRANCH  79  80
ENDBRANCH  47  72
BRANCH  59  84
ATOM     84  C   UNL A   1      45.188  30.479  30.004  1.00  0.00     0.058 A 
ATOM     85  C   UNL A   1      44.132  30.481  29.077  1.00  0.00     0.135 A 
ATOM     86  C   UNL A   1      46.238  31.374  29.749  1.00  0.00     0.135 A 
ATOM     87  F   UNL A   1      43.078  29.685  29.253  1.00  0.00    -0.206 F 
ATOM     88  C   UNL A   1      44.119  31.300  27.947  1.00  0.00     0.059 A 
ATOM     89  C   UNL A   1      46.246  32.216  28.631  1.00  0.00     0.059 A 
ATOM     90  F   UNL A   1      47.280  31.437  30.592  1.00  0.00    -0.206 F 
ATOM     91  C   UNL A   1      45.181  32.171  27.733  1.00  0.00     0.060 A 
BRANCH  91  92
ATOM     92  S   UNL A   1      45.159  33.214  26.257  1.00  0.00     0.124 S 
ATOM     93  O   UNL A   1      44.712  34.497  26.790  1.00  0.00    -0.237 OA
ATOM     94  O   UNL A   1      46.551  33.168  25.821  1.00  0.00    -0.237 OA
ATOM     95  O   UNL A   1      44.206  32.542  25.376  1.00  0.00    -0.744 OA
ENDBRANCH  91  92
ENDBRANCH  59  84
ENDBRANCH  33  34
ENDBRANCH  26  28
ENDBRANCH  25  26
ENDBRANCH  24  25
ENDBRANCH  23  24
ENDBRANCH  22  23
ENDBRANCH   1  22
TORSDOF 22
ENDMDL
MODEL 2
REMARK VINA RESULT:      -9.7      1.404      2.223
REMARK SMILES O=C(Cc1ccn(-c2ccccc2F)c1)OCCOCCOCCOC(=O)c1ccc(-c2c3nc(c(-c4c(F)cc(S(=O)(=O)[O-])cc4F)c4ccc([nH]4)c(-c4c(F)cc(S(=O)(=O)[O-])cc4F)c4nc(c(-c5c(F)cc(S(=O)(=O)[O-])cc5F)c5ccc2[nH]5)C=C4)C=C3)cc1
REMARK SMILES IDX 21 1 20 2 19 3 18 4 17 5 16 6 2 7 1 8 3 9 4 10 5 11 15 12
REMARK SMILES IDX 6 13 7 14 8 15 9 16 13 17 10 18 12 19 14 20 11 21 22 22
REMARK SMILES IDX 23 23 24 24 25 25 26 26 27 27 28 28 29 29 93 30 30 31 92 32
REMARK SMILES IDX 31 33 32 34 33 35 86 36 34 37 91 38 85 39 87 40 35 41 90 42
REMARK SMILES IDX 84 43 83 44 36 46 70 47 49 48 69 49 50 50 53 51 68 52 88 53
REMARK SMILES IDX 51 54 52 55 67 57 89 58 54 59 37 60 38 61 47 62 39 63 40 64
REMARK SMILES IDX 46 65 48 66 41 67 42 68 43 69 44 70 45 71 71 72 72 73 81 74
REMARK SMILES IDX 73 75 74 76 80 77 82 78 75 79 76 80 77 81 78 82 79 83 55 84
REMARK SMILES IDX 56 85 65 86 57 87 58 88 64 89 66 90 59 91 60 92 61 93 62 94
REMARK SMILES IDX 63 95
REMARK H PARENT 87 45 53 56
REMARK Flexibility Score: inf
ROOT
ATOM      1  C   UNL A   1      31.076  29.160  24.236  1.00  0.00     0.188 C 
ENDROOT
BRANCH   1   2
ATOM      2  C   UNL A   1      31.385  27.797  23.585  1.00  0.00     0.188 C 
BRANCH   2   3
ATOM      3  O   UNL A   1      30.454  26.765  23.861  1.00  0.00    -0.376 OA
BRANCH   3   4
ATOM      4  C   UNL A   1      30.983  25.465  24.064  1.00  0.00     0.202 C 
BRANCH   4   5
ATOM      5  C   UNL A   1      32.077  25.384  25.125  1.00  0.00     0.261 C 
BRANCH   5   6
ATOM      6  O   UNL A   1      33.418  25.719  24.701  1.00  0.00    -0.463 OA
BRANCH   6   7
ATOM      7  C   UNL A   1      34.307  25.001  23.984  1.00  0.00     0.310 C 
ATOM      8  O   UNL A   1      34.209  24.979  22.756  1.00  0.00    -0.252 OA
BRANCH   7   9
ATOM      9  C   UNL A   1      35.338  24.148  24.675  1.00  0.00     0.159 C 
BRANCH   9  10
ATOM     10  C   UNL A   1      34.854  22.834  25.184  1.00  0.00    -0.019 A 
ATOM     11  C   UNL A   1      34.431  22.510  26.496  1.00  0.00     0.024 A 
ATOM     12  C   UNL A   1      34.738  21.673  24.441  1.00  0.00     0.095 A 
ATOM     13  C   UNL A   1      33.979  21.210  26.474  1.00  0.00     0.091 A 
ATOM     14  N   UNL A   1      34.197  20.673  25.221  1.00  0.00    -0.321 N 
BRANCH  14  15
ATOM     15  C   UNL A   1      33.904  19.346  24.818  1.00  0.00     0.081 A 
ATOM     16  C   UNL A   1      32.571  18.928  24.700  1.00  0.00     0.030 A 
ATOM     17  C   UNL A   1      34.930  18.432  24.553  1.00  0.00     0.147 A 
ATOM     18  C   UNL A   1      32.278  17.615  24.324  1.00  0.00     0.002 A 
ATOM     19  C   UNL A   1      34.635  17.116  24.201  1.00  0.00     0.041 A 
ATOM     20  F   UNL A   1      36.222  18.759  24.696  1.00  0.00    -0.205 F 
ATOM     21  C   UNL A   1      33.309  16.706  24.086  1.00  0.00     0.003 A 
ENDBRANCH  14  15
ENDBRANCH   9  10
ENDBRANCH   7   9
ENDBRANCH   6   7
ENDBRANCH   5   6
ENDBRANCH   4   5
ENDBRANCH   3   4
ENDBRANCH   2   3
ENDBRANCH   1   2
BRANCH   1  22
ATOM     22  O   UNL A   1      31.794  29.683  25.352  1.00  0.00    -0.376 OA
BRANCH  22  23
ATOM     23  C   UNL A   1      32.107  28.888  26.478  1.00  0.00     0.202 C 
BRANCH  23  24
ATOM     24  C   UNL A   1      33.584  28.831  26.866  1.00  0.00     0.261 C 
BRANCH  24  25
ATOM     25  O   UNL A   1      34.307  30.048  26.687  1.00  0.00    -0.460 OA
BRANCH  25  26
ATOM     26  C   UNL A   1      34.792  30.559  27.831  1.00  0.00     0.338 C 
ATOM     27  O   UNL A   1      34.348  31.509  28.482  1.00  0.00    -0.246 OA
BRANCH  26  28
ATOM     28  C   UNL A   1      36.026  29.885  28.216  1.00  0.00     0.060 A 
ATOM     29  C   UNL A   1      36.116  29.368  29.513  1.00  0.00     0.016 A 
ATOM     30  C   UNL A   1      37.150  30.017  27.391  1.00  0.00     0.016 A 
ATOM     31  C   UNL A   1      37.364  29.084  30.036  1.00  0.00     0.010 A 
ATOM     32  C   UNL A   1      38.399  29.777  27.931  1.00  0.00     0.010 A 
ATOM     33  C   UNL A   1      38.500  29.356  29.264  1.00  0.00    -0.014 A 
BRANCH  33  34
ATOM     34  C   UNL A   1      39.828  29.243  29.891  1.00  0.00     0.031 A 
ATOM     35  C   UNL A   1      40.633  28.057  29.380  1.00  0.00     0.074 A 
ATOM     36  C   UNL A   1      40.115  30.197  30.827  1.00  0.00     0.049 A 
ATOM     37  N   UNL A   1      41.632  27.443  29.932  1.00  0.00    -0.248 NA
ATOM     38  C   UNL A   1      40.229  27.405  28.105  1.00  0.00     0.031 C 
ATOM     39  C   UNL A   1      39.186  31.280  31.214  1.00  0.00     0.029 A 
ATOM     40  N   UNL A   1      41.202  30.468  31.634  1.00  0.00    -0.354 N 
ATOM     41  C   UNL A   1      42.093  26.488  29.008  1.00  0.00     0.074 A 
ATOM     42  C   UNL A   1      41.128  26.431  27.952  1.00  0.00     0.031 C 
ATOM     43  C   UNL A   1      39.702  32.024  32.211  1.00  0.00     0.029 A 
ATOM     44  C   UNL A   1      41.024  31.539  32.550  1.00  0.00     0.049 A 
ATOM     45  H   UNL A   1      42.041  29.956  31.579  1.00  0.00     0.167 HD
ATOM     46  C   UNL A   1      43.306  25.879  29.103  1.00  0.00     0.037 A 
ATOM     47  C   UNL A   1      41.864  31.989  33.535  1.00  0.00     0.037 A 
ATOM     48  C   UNL A   1      44.011  26.327  30.256  1.00  0.00     0.049 A 
ATOM     49  C   UNL A   1      43.124  31.243  33.356  1.00  0.00     0.074 A 
ATOM     50  C   UNL A   1      43.890  26.033  31.588  1.00  0.00     0.029 A 
ATOM     51  N   UNL A   1      44.793  27.449  30.115  1.00  0.00    -0.354 N 
ATOM     52  N   UNL A   1      43.966  31.414  32.379  1.00  0.00    -0.248 NA
ATOM     53  C   UNL A   1      43.438  30.158  34.295  1.00  0.00     0.031 C 
ATOM     54  C   UNL A   1      44.305  27.207  32.249  1.00  0.00     0.029 A 
ATOM     55  C   UNL A   1      44.754  28.139  31.306  1.00  0.00     0.049 A 
ATOM     56  H   UNL A   1      45.290  27.712  29.308  1.00  0.00     0.167 HD
ATOM     57  C   UNL A   1      44.714  30.259  32.414  1.00  0.00     0.074 A 
ATOM     58  C   UNL A   1      44.560  29.709  33.740  1.00  0.00     0.031 C 
ATOM     59  C   UNL A   1      44.950  29.574  31.266  1.00  0.00     0.037 A 
BRANCH  46  60
ATOM     60  C   UNL A   1      44.044  25.019  28.125  1.00  0.00     0.058 A 
ATOM     61  C   UNL A   1      43.978  23.620  28.128  1.00  0.00     0.135 A 
ATOM     62  C   UNL A   1      44.558  25.628  26.956  1.00  0.00     0.135 A 
ATOM     63  F   UNL A   1      43.501  22.955  29.189  1.00  0.00    -0.206 F 
ATOM     64  C   UNL A   1      44.320  22.868  27.003  1.00  0.00     0.059 A 
ATOM     65  C   UNL A   1      44.872  24.900  25.813  1.00  0.00     0.059 A 
ATOM     66  F   UNL A   1      44.702  26.961  26.886  1.00  0.00    -0.206 F 
ATOM     67  C   UNL A   1      44.725  23.519  25.838  1.00  0.00     0.060 A 
BRANCH  67  68
ATOM     68  S   UNL A   1      44.932  22.567  24.317  1.00  0.00     0.124 S 
ATOM     69  O   UNL A   1      45.925  23.363  23.605  1.00  0.00    -0.237 OA
ATOM     70  O   UNL A   1      45.391  21.275  24.816  1.00  0.00    -0.237 OA
ATOM     71  O   UNL A   1      43.594  22.566  23.734  1.00  0.00    -0.744 OA
ENDBRANCH  67  68
ENDBRANCH  46  60
BRANCH  47  72
ATOM     72  C   UNL A   1      41.766  32.897  34.750  1.00  0.00     0.058 A 
ATOM     73  C   UNL A   1      41.052  32.453  35.901  1.00  0.00     0.135 A 
ATOM     74  C   UNL A   1      42.191  34.231  34.836  1.00  0.00     0.135 A 
ATOM     75  F   UNL A   1      40.732  31.163  36.077  1.00  0.00    -0.206 F 
ATOM     76  C   UNL A   1      40.596  33.298  36.910  1.00  0.00     0.059 A 
ATOM     77  C   UNL A   1      41.787  35.095  35.870  1.00  0.00     0.059 A 
ATOM     78  F   UNL A   1      43.017  34.763  33.931  1.00  0.00    -0.206 F 
ATOM     79  C   UNL A   1      40.923  34.638  36.857  1.00  0.00     0.060 A 
BRANCH  79  80
ATOM     80  S   UNL A   1      40.201  35.756  38.072  1.00  0.00     0.124 S 
ATOM     81  O   UNL A   1      39.810  36.883  37.230  1.00  0.00    -0.237 OA
ATOM     82  O   UNL A   1      39.100  34.973  38.624  1.00  0.00    -0.237 OA
ATOM     83  O   UNL A   1      41.306  36.010  38.992  1.00  0.00    -0.744 OA
ENDBRANCH  79  80
ENDBRANCH  47  72
BRANCH  59  84
ATOM     84  C   UNL A   1      44.967  30.434  30.021  1.00  0.00     0.058 A 
ATOM     85  C   UNL A   1      43.900  30.508  29.110  1.00  0.00     0.135 A 
ATOM     86  C   UNL A   1      46.056  31.284  29.770  1.00  0.00     0.135 A 
ATOM     87  F   UNL A   1      42.811  29.760  29.284  1.00  0.00    -0.206 F 
ATOM     88  C   UNL A   1      43.912  31.353  27.998  1.00  0.00     0.059 A 
ATOM     89  C   UNL A   1      46.090  32.150  28.672  1.00  0.00     0.059 A 
ATOM     90  F   UNL A   1      47.112  31.278  30.600  1.00  0.00    -0.206 F 
ATOM     91  C   UNL A   1      45.012  32.176  27.788  1.00  0.00     0.060 A 
BRANCH  91  92
ATOM     92  S   UNL A   1      45.020  33.253  26.336  1.00  0.00     0.124 S 
ATOM     93  O   UNL A   1      44.575  34.527  26.892  1.00  0.00    -0.237 OA
ATOM     94  O   UNL A   1      46.418  33.205  25.920  1.00  0.00    -0.237 OA
ATOM     95  O   UNL A   1      44.075  32.608  25.427  1.00  0.00    -0.744 OA
ENDBRANCH  91  92
ENDBRANCH  59  84
ENDBRANCH  33  34
ENDBRANCH  26  28
ENDBRANCH  25  26
ENDBRANCH  24  25
ENDBRANCH  23  24
ENDBRANCH  22  23
ENDBRANCH   1  22
TORSDOF 22
ENDMDL
MODEL 3
REMARK VINA RESULT:      -9.7      3.748      6.972
REMARK SMILES O=C(Cc1ccn(-c2ccccc2F)c1)OCCOCCOCCOC(=O)c1ccc(-c2c3nc(c(-c4c(F)cc(S(=O)(=O)[O-])cc4F)c4ccc([nH]4)c(-c4c(F)cc(S(=O)(=O)[O-])cc4F)c4nc(c(-c5c(F)cc(S(=O)(=O)[O-])cc5F)c5ccc2[nH]5)C=C4)C=C3)cc1
REMARK SMILES IDX 21 1 20 2 19 3 18 4 17 5 16 6 2 7 1 8 3 9 4 10 5 11 15 12
REMARK SMILES IDX 6 13 7 14 8 15 9 16 13 17 10 18 12 19 14 20 11 21 22 22
REMARK SMILES IDX 23 23 24 24 25 25 26 26 27 27 28 28 29 29 93 30 30 31 92 32
REMARK SMILES IDX 31 33 32 34 33 35 86 36 34 37 91 38 85 39 87 40 35 41 90 42
REMARK SMILES IDX 84 43 83 44 36 46 70 47 49 48 69 49 50 50 53 51 68 52 88 53
REMARK SMILES IDX 51 54 52 55 67 57 89 58 54 59 37 60 38 61 47 62 39 63 40 64
REMARK SMILES IDX 46 65 48 66 41 67 42 68 43 69 44 70 45 71 71 72 72 73 81 74
REMARK SMILES IDX 73 75 74 76 80 77 82 78 75 79 76 80 77 81 78 82 79 83 55 84
REMARK SMILES IDX 56 85 65 86 57 87 58 88 64 89 66 90 59 91 60 92 61 93 62 94
REMARK SMILES IDX 63 95
REMARK H PARENT 87 45 53 56
REMARK Flexibility Score: inf
ROOT
ATOM      1  C   UNL A   1      36.434  22.984  23.601  1.00  0.00     0.188 C 
ENDROOT
BRANCH   1   2
ATOM      2  C   UNL A   1      35.051  23.654  23.719  1.00  0.00     0.188 C 
BRANCH   2   3
ATOM      3  O   UNL A   1      34.072  23.197  22.801  1.00  0.00    -0.376 OA
BRANCH   3   4
ATOM      4  C   UNL A   1      32.876  23.953  22.713  1.00  0.00     0.202 C 
BRANCH   4   5
ATOM      5  C   UNL A   1      32.949  25.333  23.359  1.00  0.00     0.261 C 
BRANCH   5   6
ATOM      6  O   UNL A   1      32.540  25.425  24.743  1.00  0.00    -0.463 OA
BRANCH   6   7
ATOM      7  C   UNL A   1      31.335  25.209  25.309  1.00  0.00     0.310 C 
ATOM      8  O   UNL A   1      30.399  25.959  25.028  1.00  0.00    -0.252 OA
BRANCH   7   9
ATOM      9  C   UNL A   1      31.160  24.139  26.353  1.00  0.00     0.159 C 
BRANCH   9  10
ATOM     10  C   UNL A   1      32.002  22.922  26.179  1.00  0.00    -0.019 A 
ATOM     11  C   UNL A   1      33.274  22.656  26.743  1.00  0.00     0.024 A 
ATOM     12  C   UNL A   1      31.679  21.819  25.410  1.00  0.00     0.095 A 
ATOM     13  C   UNL A   1      33.621  21.372  26.387  1.00  0.00     0.091 A 
ATOM     14  N   UNL A   1      32.662  20.860  25.535  1.00  0.00    -0.321 N 
BRANCH  14  15
ATOM     15  C   UNL A   1      32.687  19.583  24.920  1.00  0.00     0.081 A 
ATOM     16  C   UNL A   1      32.895  18.436  25.699  1.00  0.00     0.030 A 
ATOM     17  C   UNL A   1      32.525  19.447  23.537  1.00  0.00     0.147 A 
ATOM     18  C   UNL A   1      32.942  17.178  25.095  1.00  0.00     0.002 A 
ATOM     19  C   UNL A   1      32.595  18.193  22.935  1.00  0.00     0.041 A 
ATOM     20  F   UNL A   1      32.372  20.512  22.736  1.00  0.00    -0.205 F 
ATOM     21  C   UNL A   1      32.803  17.056  23.712  1.00  0.00     0.003 A 
ENDBRANCH  14  15
ENDBRANCH   9  10
ENDBRANCH   7   9
ENDBRANCH   6   7
ENDBRANCH   5   6
ENDBRANCH   4   5
ENDBRANCH   3   4
ENDBRANCH   2   3
ENDBRANCH   1   2
BRANCH   1  22
ATOM     22  O   UNL A   1      36.746  21.712  24.163  1.00  0.00    -0.376 OA
BRANCH  22  23
ATOM     23  C   UNL A   1      37.779  21.548  25.115  1.00  0.00     0.202 C 
BRANCH  23  24
ATOM     24  C   UNL A   1      38.256  22.823  25.809  1.00  0.00     0.261 C 
BRANCH  24  25
ATOM     25  O   UNL A   1      39.304  22.642  26.759  1.00  0.00    -0.460 OA
BRANCH  25  26
ATOM     26  C   UNL A   1      40.346  23.471  26.577  1.00  0.00     0.338 C 
ATOM     27  O   UNL A   1      41.450  23.202  26.093  1.00  0.00    -0.246 OA
BRANCH  26  28
ATOM     28  C   UNL A   1      40.053  24.795  27.112  1.00  0.00     0.060 A 
ATOM     29  C   UNL A   1      40.712  25.894  26.549  1.00  0.00     0.016 A 
ATOM     30  C   UNL A   1      39.351  24.891  28.320  1.00  0.00     0.016 A 
ATOM     31  C   UNL A   1      40.768  27.078  27.260  1.00  0.00     0.010 A 
ATOM     32  C   UNL A   1      39.447  26.061  29.050  1.00  0.00     0.010 A 
ATOM     33  C   UNL A   1      40.193  27.130  28.536  1.00  0.00    -0.014 A 
BRANCH  33  34
ATOM     34  C   UNL A   1      40.425  28.322  29.370  1.00  0.00     0.031 A 
ATOM     35  C   UNL A   1      41.660  28.205  30.250  1.00  0.00     0.074 A 
ATOM     36  C   UNL A   1      39.500  29.319  29.234  1.00  0.00     0.049 A 
ATOM     37  N   UNL A   1      41.962  28.851  31.334  1.00  0.00    -0.248 NA
ATOM     38  C   UNL A   1      42.683  27.172  29.930  1.00  0.00     0.031 C 
ATOM     39  C   UNL A   1      38.334  29.245  28.328  1.00  0.00     0.029 A 
ATOM     40  N   UNL A   1      39.329  30.568  29.797  1.00  0.00    -0.354 N 
ATOM     41  C   UNL A   1      43.261  28.459  31.702  1.00  0.00     0.074 A 
ATOM     42  C   UNL A   1      43.611  27.346  30.872  1.00  0.00     0.031 C 
ATOM     43  C   UNL A   1      37.554  30.335  28.457  1.00  0.00     0.029 A 
ATOM     44  C   UNL A   1      38.141  31.246  29.418  1.00  0.00     0.049 A 
ATOM     45  H   UNL A   1      39.986  30.961  30.416  1.00  0.00     0.167 HD
ATOM     46  C   UNL A   1      44.026  29.146  32.592  1.00  0.00     0.037 A 
ATOM     47  C   UNL A   1      37.641  32.441  29.867  1.00  0.00     0.037 A 
ATOM     48  C   UNL A   1      43.327  30.280  33.095  1.00  0.00     0.049 A 
ATOM     49  C   UNL A   1      38.694  33.015  30.727  1.00  0.00     0.074 A 
ATOM     50  C   UNL A   1      42.331  30.416  34.024  1.00  0.00     0.029 A 
ATOM     51  N   UNL A   1      43.436  31.449  32.380  1.00  0.00    -0.354 N 
ATOM     52  N   UNL A   1      39.826  33.498  30.307  1.00  0.00    -0.248 NA
ATOM     53  C   UNL A   1      38.509  32.978  32.184  1.00  0.00     0.031 C 
ATOM     54  C   UNL A   1      41.608  31.551  33.604  1.00  0.00     0.029 A 
ATOM     55  C   UNL A   1      42.240  32.122  32.493  1.00  0.00     0.049 A 
ATOM     56  H   UNL A   1      44.227  31.752  31.879  1.00  0.00     0.167 HD
ATOM     57  C   UNL A   1      40.596  33.511  31.447  1.00  0.00     0.074 A 
ATOM     58  C   UNL A   1      39.678  33.486  32.563  1.00  0.00     0.031 C 
ATOM     59  C   UNL A   1      41.858  33.012  31.416  1.00  0.00     0.037 A 
BRANCH  46  60
ATOM     60  C   UNL A   1      45.476  29.010  32.941  1.00  0.00     0.058 A 
ATOM     61  C   UNL A   1      46.508  29.535  32.153  1.00  0.00     0.135 A 
ATOM     62  C   UNL A   1      45.812  28.637  34.262  1.00  0.00     0.135 A 
ATOM     63  F   UNL A   1      46.284  29.921  30.890  1.00  0.00    -0.206 F 
ATOM     64  C   UNL A   1      47.785  29.760  32.674  1.00  0.00     0.059 A 
ATOM     65  C   UNL A   1      47.066  28.884  34.811  1.00  0.00     0.059 A 
ATOM     66  F   UNL A   1      44.895  28.080  35.071  1.00  0.00    -0.206 F 
ATOM     67  C   UNL A   1      48.041  29.471  34.014  1.00  0.00     0.060 A 
BRANCH  67  68
ATOM     68  S   UNL A   1      49.610  29.985  34.747  1.00  0.00     0.124 S 
ATOM     69  O   UNL A   1      49.236  30.166  36.144  1.00  0.00    -0.237 OA
ATOM     70  O   UNL A   1      50.477  28.848  34.461  1.00  0.00    -0.237 OA
ATOM     71  O   UNL A   1      49.936  31.210  34.021  1.00  0.00    -0.744 OA
ENDBRANCH  67  68
ENDBRANCH  46  60
BRANCH  47  72
ATOM     72  C   UNL A   1      36.317  33.185  29.806  1.00  0.00     0.058 A 
ATOM     73  C   UNL A   1      35.869  33.718  28.563  1.00  0.00     0.135 A 
ATOM     74  C   UNL A   1      35.509  33.548  30.894  1.00  0.00     0.135 A 
ATOM     75  F   UNL A   1      36.402  33.329  27.396  1.00  0.00    -0.206 F 
ATOM     76  C   UNL A   1      34.885  34.697  28.443  1.00  0.00     0.059 A 
ATOM     77  C   UNL A   1      34.477  34.498  30.794  1.00  0.00     0.059 A 
ATOM     78  F   UNL A   1      35.677  33.005  32.103  1.00  0.00    -0.206 F 
ATOM     79  C   UNL A   1      34.228  35.126  29.580  1.00  0.00     0.060 A 
BRANCH  79  80
ATOM     80  S   UNL A   1      33.072  36.502  29.447  1.00  0.00     0.124 S 
ATOM     81  O   UNL A   1      33.901  37.511  28.791  1.00  0.00    -0.237 OA
ATOM     82  O   UNL A   1      31.995  35.948  28.632  1.00  0.00    -0.237 OA
ATOM     83  O   UNL A   1      32.721  36.780  30.836  1.00  0.00    -0.744 OA
ENDBRANCH  79  80
ENDBRANCH  47  72
BRANCH  59  84
ATOM     84  C   UNL A   1      42.531  33.110  30.063  1.00  0.00     0.058 A 
ATOM     85  C   UNL A   1      43.005  34.314  29.514  1.00  0.00     0.135 A 
ATOM     86  C   UNL A   1      42.790  31.947  29.322  1.00  0.00     0.135 A 
ATOM     87  F   UNL A   1      42.831  35.466  30.162  1.00  0.00    -0.206 F 
ATOM     88  C   UNL A   1      43.676  34.374  28.291  1.00  0.00     0.059 A 
ATOM     89  C   UNL A   1      43.470  31.976  28.100  1.00  0.00     0.059 A 
ATOM     90  F   UNL A   1      42.375  30.756  29.783  1.00  0.00    -0.206 F 
ATOM     91  C   UNL A   1      43.909  33.197  27.590  1.00  0.00     0.060 A 
BRANCH  91  92
ATOM     92  S   UNL A   1      44.764  33.294  26.001  1.00  0.00     0.124 S 
ATOM     93  O   UNL A   1      43.893  32.509  25.131  1.00  0.00    -0.237 OA
ATOM     94  O   UNL A   1      44.777  34.730  25.741  1.00  0.00    -0.237 OA
ATOM     95  O   UNL A   1      46.068  32.697  26.276  1.00  0.00    -0.744 OA
ENDBRANCH  91  92
ENDBRANCH  59  84
ENDBRANCH  33  34
ENDBRANCH  26  28
ENDBRANCH  25  26
ENDBRANCH  24  25
ENDBRANCH  23  24
ENDBRANCH  22  23
ENDBRANCH   1  22
TORSDOF 22
ENDMDL
