MODEL 1
REMARK VINA RESULT:     -13.8      0.000      0.000
REMARK SMILES Cc1c(NC(=O)[C@@H]2CC=CC[C@@H]2C(=O)OCCOCCOCCOC(=O)c2ccc(-c3c4nc(c(-c5c(F)cc(S(=O)(=O)[O-])cc5F)c5ccc([nH]5)c(-c5c(F)cc(S(=O)(=O)[O-])cc5F)c5nc(c(-c6c(F)cc(S(=O)(=O)[O-])cc6F)c6ccc3[nH]6)C=C5)C=C4)cc2)cccc1C(=O)N1CCOCC1
REMARK SMILES IDX 19 1 18 2 17 3 16 4 15 5 13 6 14 7 12 8 7 9 8 10 9 11 11 12
REMARK SMILES IDX 10 13 5 14 4 15 6 17 3 18 1 19 2 20 96 21 93 22 95 23 94 24
REMARK SMILES IDX 97 25 98 26 99 27 100 28 104 29 101 30 103 31 102 32 20 33
REMARK SMILES IDX 21 34 22 35 23 36 24 37 25 38 26 39 27 40 28 41 92 42 29 43
REMARK SMILES IDX 91 44 30 45 31 46 32 47 85 48 33 49 90 50 84 51 86 52 34 53
REMARK SMILES IDX 89 54 83 55 82 56 35 58 69 59 48 60 68 61 49 62 52 63 67 64
REMARK SMILES IDX 87 65 50 66 51 67 66 69 88 70 53 71 36 72 37 73 46 74 38 75
REMARK SMILES IDX 39 76 45 77 47 78 40 79 41 80 42 81 43 82 44 83 70 84 71 85
REMARK SMILES IDX 80 86 72 87 73 88 79 89 81 90 74 91 75 92 76 93 77 94 78 95
REMARK SMILES IDX 54 96 55 97 64 98 56 99 57 100 63 101 65 102 58 103 59 104
REMARK SMILES IDX 60 105 61 106 62 107
REMARK H PARENT 4 16 86 57 52 68
REMARK Flexibility Score: inf
ROOT
ATOM      1  C   UNL A   1      30.166  28.305  24.316  1.00  0.00     0.188 C 
ENDROOT
BRANCH   1   2
ATOM      2  O   UNL A   1      30.555  27.346  23.306  1.00  0.00    -0.376 OA
BRANCH   2   3
ATOM      3  C   UNL A   1      30.077  25.988  23.239  1.00  0.00     0.202 C 
BRANCH   3   4
ATOM      4  C   UNL A   1      30.880  24.626  23.831  1.00  0.00     0.261 C 
BRANCH   4   5
ATOM      5  O   UNL A   1      32.391  23.802  23.319  1.00  0.00    -0.463 OA
BRANCH   5   6
ATOM      6  C   UNL A   1      33.820  24.007  23.155  1.00  0.00     0.310 C 
ATOM      7  O   UNL A   1      34.613  23.358  22.462  1.00  0.00    -0.252 OA
BRANCH   6   8
ATOM      8  C   UNL A   1      34.628  25.099  23.825  1.00  0.00     0.116 C 
ATOM      9  C   UNL A   1      35.057  24.884  25.238  1.00  0.00     0.097 C 
ATOM     10  C   UNL A   1      33.938  25.244  26.184  1.00  0.00     0.041 C 
ATOM     11  C   UNL A   1      33.452  26.645  25.878  1.00  0.00    -0.030 C 
ATOM     12  C   UNL A   1      34.215  26.538  23.504  1.00  0.00     0.043 C 
ATOM     13  C   UNL A   1      33.599  27.230  24.677  1.00  0.00    -0.030 C 
BRANCH   9  14
ATOM     14  C   UNL A   1      35.599  23.482  25.214  1.00  0.00     0.228 C 
ATOM     15  N   UNL A   1      35.201  22.736  26.329  1.00  0.00    -0.326 N 
ATOM     16  H   UNL A   1      35.747  22.657  27.143  1.00  0.00     0.169 HD
ATOM     17  O   UNL A   1      36.447  23.084  24.425  1.00  0.00    -0.274 OA
BRANCH  15  18
ATOM     18  C   UNL A   1      33.946  22.109  26.183  1.00  0.00     0.044 A 
ATOM     19  C   UNL A   1      35.139  20.552  24.625  1.00  0.00     0.047 C 
ATOM     20  C   UNL A   1      33.864  21.076  25.239  1.00  0.00    -0.015 A 
ATOM     21  C   UNL A   1      32.581  20.656  24.855  1.00  0.00     0.045 A 
ATOM     22  C   UNL A   1      32.806  22.670  26.770  1.00  0.00     0.026 A 
ATOM     23  C   UNL A   1      31.436  21.309  25.343  1.00  0.00     0.014 A 
ATOM     24  C   UNL A   1      31.546  22.299  26.317  1.00  0.00     0.003 A 
BRANCH  21  25
ATOM     25  C   UNL A   1      32.395  19.653  23.786  1.00  0.00     0.254 C 
ATOM     26  O   UNL A   1      32.102  20.065  22.665  1.00  0.00    -0.269 OA
ATOM     27  N   UNL A   1      32.633  18.317  24.073  1.00  0.00    -0.334 N 
ATOM     28  C   UNL A   1      32.518  17.668  25.392  1.00  0.00     0.148 C 
ATOM     29  C   UNL A   1      32.934  17.414  22.966  1.00  0.00     0.148 C 
ATOM     30  C   UNL A   1      33.631  16.631  25.636  1.00  0.00     0.181 C 
ATOM     31  C   UNL A   1      34.108  16.505  23.333  1.00  0.00     0.181 C 
ATOM     32  O   UNL A   1      33.780  15.753  24.511  1.00  0.00    -0.378 OA
ENDBRANCH  21  25
ENDBRANCH  15  18
ENDBRANCH   9  14
ENDBRANCH   6   8
ENDBRANCH   5   6
ENDBRANCH   4   5
ENDBRANCH   3   4
ENDBRANCH   2   3
ENDBRANCH   1   2
BRANCH   1  33
ATOM     33  C   UNL A   1      30.679  29.750  24.334  1.00  0.00     0.188 C 
BRANCH  33  34
ATOM     34  O   UNL A   1      31.957  29.806  24.935  1.00  0.00    -0.376 OA
BRANCH  34  35
ATOM     35  C   UNL A   1      32.042  30.341  26.237  1.00  0.00     0.202 C 
BRANCH  35  36
ATOM     36  C   UNL A   1      33.468  30.740  26.660  1.00  0.00     0.261 C 
BRANCH  36  37
ATOM     37  O   UNL A   1      33.734  30.606  28.082  1.00  0.00    -0.460 OA
BRANCH  37  38
ATOM     38  C   UNL A   1      34.860  31.210  28.625  1.00  0.00     0.338 C 
ATOM     39  O   UNL A   1      34.798  32.284  29.191  1.00  0.00    -0.246 OA
BRANCH  38  40
ATOM     40  C   UNL A   1      36.008  30.251  28.724  1.00  0.00     0.060 A 
ATOM     41  C   UNL A   1      36.560  29.543  29.799  1.00  0.00     0.016 A 
ATOM     42  C   UNL A   1      36.609  30.016  27.549  1.00  0.00     0.016 A 
ATOM     43  C   UNL A   1      37.835  28.797  29.716  1.00  0.00     0.010 A 
ATOM     44  C   UNL A   1      37.869  29.441  27.558  1.00  0.00     0.010 A 
ATOM     45  C   UNL A   1      38.625  28.756  28.561  1.00  0.00    -0.014 A 
BRANCH  45  46
ATOM     46  C   UNL A   1      40.213  28.077  28.412  1.00  0.00     0.031 A 
ATOM     47  C   UNL A   1      40.847  26.499  27.863  1.00  0.00     0.074 A 
ATOM     48  C   UNL A   1      41.202  28.827  28.944  1.00  0.00     0.049 A 
ATOM     49  N   UNL A   1      41.854  25.851  28.423  1.00  0.00    -0.248 NA
ATOM     50  C   UNL A   1      40.334  25.544  26.775  1.00  0.00     0.031 C 
ATOM     51  C   UNL A   1      42.639  28.586  28.879  1.00  0.00     0.029 A 
ATOM     52  N   UNL A   1      41.076  29.926  29.801  1.00  0.00    -0.354 N 
ATOM     53  C   UNL A   1      42.097  24.645  27.729  1.00  0.00     0.074 A 
ATOM     54  C   UNL A   1      41.084  24.467  26.774  1.00  0.00     0.031 C 
ATOM     55  C   UNL A   1      43.231  29.282  29.863  1.00  0.00     0.029 A 
ATOM     56  C   UNL A   1      42.178  29.886  30.661  1.00  0.00     0.049 A 
ATOM     57  H   UNL A   1      40.355  30.595  29.798  1.00  0.00     0.167 HD
ATOM     58  C   UNL A   1      43.214  23.878  27.817  1.00  0.00     0.037 A 
ATOM     59  C   UNL A   1      42.023  29.785  32.010  1.00  0.00     0.037 A 
ATOM     60  C   UNL A   1      44.118  24.480  28.742  1.00  0.00     0.049 A 
ATOM     61  C   UNL A   1      42.766  28.602  32.582  1.00  0.00     0.074 A 
ATOM     62  C   UNL A   1      45.062  25.473  28.565  1.00  0.00     0.029 A 
ATOM     63  N   UNL A   1      43.790  24.452  30.083  1.00  0.00    -0.354 N 
ATOM     64  N   UNL A   1      43.151  27.573  31.875  1.00  0.00    -0.248 NA
ATOM     65  C   UNL A   1      43.175  28.495  33.978  1.00  0.00     0.031 C 
ATOM     66  C   UNL A   1      45.251  26.105  29.814  1.00  0.00     0.029 A 
ATOM     67  C   UNL A   1      44.474  25.446  30.749  1.00  0.00     0.049 A 
ATOM     68  H   UNL A   1      43.162  23.819  30.500  1.00  0.00     0.167 HD
ATOM     69  C   UNL A   1      43.839  26.695  32.672  1.00  0.00     0.074 A 
ATOM     70  C   UNL A   1      43.831  27.320  33.979  1.00  0.00     0.031 C 
ATOM     71  C   UNL A   1      44.374  25.536  32.190  1.00  0.00     0.037 A 
BRANCH  58  72
ATOM     72  C   UNL A   1      43.536  22.860  26.731  1.00  0.00     0.058 A 
ATOM     73  C   UNL A   1      43.008  21.559  26.808  1.00  0.00     0.135 A 
ATOM     74  C   UNL A   1      44.488  23.062  25.701  1.00  0.00     0.135 A 
ATOM     75  F   UNL A   1      42.088  21.241  27.729  1.00  0.00    -0.206 F 
ATOM     76  C   UNL A   1      43.446  20.511  25.992  1.00  0.00     0.059 A 
ATOM     77  C   UNL A   1      44.973  22.016  24.895  1.00  0.00     0.059 A 
ATOM     78  F   UNL A   1      45.043  24.272  25.510  1.00  0.00    -0.206 F 
ATOM     79  C   UNL A   1      44.449  20.737  25.058  1.00  0.00     0.060 A 
BRANCH  79  80
ATOM     80  S   UNL A   1      45.102  19.324  24.134  1.00  0.00     0.124 S 
ATOM     81  O   UNL A   1      44.594  18.187  24.898  1.00  0.00    -0.237 OA
ATOM     82  O   UNL A   1      44.504  19.521  22.819  1.00  0.00    -0.237 OA
ATOM     83  O   UNL A   1      46.548  19.514  24.207  1.00  0.00    -0.744 OA
ENDBRANCH  79  80
ENDBRANCH  58  72
BRANCH  59  84
ATOM     84  C   UNL A   1      40.791  30.449  32.539  1.00  0.00     0.058 A 
ATOM     85  C   UNL A   1      40.722  31.859  32.456  1.00  0.00     0.135 A 
ATOM     86  C   UNL A   1      39.589  29.779  32.804  1.00  0.00     0.135 A 
ATOM     87  F   UNL A   1      41.835  32.572  32.216  1.00  0.00    -0.206 F 
ATOM     88  C   UNL A   1      39.518  32.557  32.499  1.00  0.00     0.059 A 
ATOM     89  C   UNL A   1      38.361  30.465  32.871  1.00  0.00     0.059 A 
ATOM     90  F   UNL A   1      39.566  28.440  32.874  1.00  0.00    -0.206 F 
ATOM     91  C   UNL A   1      38.335  31.848  32.671  1.00  0.00     0.060 A 
BRANCH  91  92
ATOM     92  S   UNL A   1      36.782  32.767  32.461  1.00  0.00     0.124 S 
ATOM     93  O   UNL A   1      35.806  31.692  32.327  1.00  0.00    -0.237 OA
ATOM     94  O   UNL A   1      36.714  33.524  33.710  1.00  0.00    -0.237 OA
ATOM     95  O   UNL A   1      37.025  33.556  31.259  1.00  0.00    -0.744 OA
ENDBRANCH  91  92
ENDBRANCH  59  84
BRANCH  71  96
ATOM     96  C   UNL A   1      44.932  24.376  32.982  1.00  0.00     0.058 A 
ATOM     97  C   UNL A   1      46.158  24.409  33.658  1.00  0.00     0.135 A 
ATOM     98  C   UNL A   1      44.123  23.235  33.241  1.00  0.00     0.135 A 
ATOM     99  F   UNL A   1      46.970  25.472  33.578  1.00  0.00    -0.206 F 
ATOM    100  C   UNL A   1      46.579  23.367  34.487  1.00  0.00     0.059 A 
ATOM    101  C   UNL A   1      44.490  22.223  34.117  1.00  0.00     0.059 A 
ATOM    102  F   UNL A   1      42.924  23.069  32.661  1.00  0.00    -0.206 F 
ATOM    103  C   UNL A   1      45.736  22.282  34.713  1.00  0.00     0.060 A 
BRANCH 103 104
ATOM    104  S   UNL A   1      46.241  20.953  35.815  1.00  0.00     0.124 S 
ATOM    105  O   UNL A   1      45.528  19.818  35.244  1.00  0.00    -0.237 OA
ATOM    106  O   UNL A   1      47.691  20.932  35.662  1.00  0.00    -0.237 OA
ATOM    107  O   UNL A   1      45.764  21.411  37.120  1.00  0.00    -0.744 OA
ENDBRANCH 103 104
ENDBRANCH  71  96
ENDBRANCH  45  46
ENDBRANCH  38  40
ENDBRANCH  37  38
ENDBRANCH  36  37
ENDBRANCH  35  36
ENDBRANCH  34  35
ENDBRANCH  33  34
ENDBRANCH   1  33
TORSDOF 23
ENDMDL
MODEL 2
REMARK VINA RESULT:     -13.8      2.796      4.973
REMARK SMILES Cc1c(NC(=O)[C@@H]2CC=CC[C@@H]2C(=O)OCCOCCOCCOC(=O)c2ccc(-c3c4nc(c(-c5c(F)cc(S(=O)(=O)[O-])cc5F)c5ccc([nH]5)c(-c5c(F)cc(S(=O)(=O)[O-])cc5F)c5nc(c(-c6c(F)cc(S(=O)(=O)[O-])cc6F)c6ccc3[nH]6)C=C5)C=C4)cc2)cccc1C(=O)N1CCOCC1
REMARK SMILES IDX 19 1 18 2 17 3 16 4 15 5 13 6 14 7 12 8 7 9 8 10 9 11 11 12
REMARK SMILES IDX 10 13 5 14 4 15 6 17 3 18 1 19 2 20 96 21 93 22 95 23 94 24
REMARK SMILES IDX 97 25 98 26 99 27 100 28 104 29 101 30 103 31 102 32 20 33
REMARK SMILES IDX 21 34 22 35 23 36 24 37 25 38 26 39 27 40 28 41 92 42 29 43
REMARK SMILES IDX 91 44 30 45 31 46 32 47 85 48 33 49 90 50 84 51 86 52 34 53
REMARK SMILES IDX 89 54 83 55 82 56 35 58 69 59 48 60 68 61 49 62 52 63 67 64
REMARK SMILES IDX 87 65 50 66 51 67 66 69 88 70 53 71 36 72 37 73 46 74 38 75
REMARK SMILES IDX 39 76 45 77 47 78 40 79 41 80 42 81 43 82 44 83 70 84 71 85
REMARK SMILES IDX 80 86 72 87 73 88 79 89 81 90 74 91 75 92 76 93 77 94 78 95
REMARK SMILES IDX 54 96 55 97 64 98 56 99 57 100 63 101 65 102 58 103 59 104
REMARK SMILES IDX 60 105 61 106 62 107
REMARK H PARENT 4 16 86 57 52 68
REMARK Flexibility Score: inf
ROOT
ATOM      1  C   UNL A   1      28.940  27.466  23.740  1.00  0.00     0.188 C 
ENDROOT
BRANCH   1   2
ATOM      2  O   UNL A   1      29.165  26.044  23.601  1.00  0.00    -0.376 OA
BRANCH   2   3
ATOM      3  C   UNL A   1      30.388  25.370  23.963  1.00  0.00     0.202 C 
BRANCH   3   4
ATOM      4  C   UNL A   1      30.669  23.709  23.863  1.00  0.00     0.261 C 
BRANCH   4   5
ATOM      5  O   UNL A   1      32.096  22.702  24.280  1.00  0.00    -0.463 OA
BRANCH   5   6
ATOM      6  C   UNL A   1      33.512  22.533  23.997  1.00  0.00     0.310 C 
ATOM      7  O   UNL A   1      34.129  21.483  23.779  1.00  0.00    -0.252 OA
BRANCH   6   8
ATOM      8  C   UNL A   1      34.526  23.654  23.910  1.00  0.00     0.116 C 
ATOM      9  C   UNL A   1      35.103  24.175  25.184  1.00  0.00     0.097 C 
ATOM     10  C   UNL A   1      34.167  25.180  25.809  1.00  0.00     0.041 C 
ATOM     11  C   UNL A   1      33.820  26.245  24.791  1.00  0.00    -0.030 C 
ATOM     12  C   UNL A   1      34.253  24.730  22.855  1.00  0.00     0.043 C 
ATOM     13  C   UNL A   1      33.882  26.045  23.464  1.00  0.00    -0.030 C 
BRANCH   9  14
ATOM     14  C   UNL A   1      35.463  22.919  25.928  1.00  0.00     0.228 C 
ATOM     15  N   UNL A   1      36.575  22.273  25.380  1.00  0.00    -0.326 N 
ATOM     16  H   UNL A   1      36.502  21.550  24.717  1.00  0.00     0.169 HD
ATOM     17  O   UNL A   1      34.760  22.403  26.789  1.00  0.00    -0.274 OA
BRANCH  15  18
ATOM     18  C   UNL A   1      37.813  22.750  25.861  1.00  0.00     0.044 A 
ATOM     19  C   UNL A   1      38.644  20.430  25.412  1.00  0.00     0.047 C 
ATOM     20  C   UNL A   1      38.841  21.807  25.996  1.00  0.00    -0.015 A 
ATOM     21  C   UNL A   1      39.962  22.182  26.753  1.00  0.00     0.045 A 
ATOM     22  C   UNL A   1      37.908  24.035  26.406  1.00  0.00     0.026 A 
ATOM     23  C   UNL A   1      40.000  23.423  27.413  1.00  0.00     0.014 A 
ATOM     24  C   UNL A   1      38.986  24.359  27.220  1.00  0.00     0.003 A 
BRANCH  21  25
ATOM     25  C   UNL A   1      41.044  21.218  27.044  1.00  0.00     0.254 C 
ATOM     26  O   UNL A   1      40.808  20.328  27.859  1.00  0.00    -0.269 OA
ATOM     27  N   UNL A   1      42.232  21.312  26.334  1.00  0.00    -0.334 N 
ATOM     28  C   UNL A   1      42.798  22.531  25.727  1.00  0.00     0.148 C 
ATOM     29  C   UNL A   1      43.079  20.127  26.244  1.00  0.00     0.148 C 
ATOM     30  C   UNL A   1      43.451  22.258  24.359  1.00  0.00     0.181 C 
ATOM     31  C   UNL A   1      43.584  19.950  24.810  1.00  0.00     0.181 C 
ATOM     32  O   UNL A   1      44.320  21.117  24.415  1.00  0.00    -0.378 OA
ENDBRANCH  21  25
ENDBRANCH  15  18
ENDBRANCH   9  14
ENDBRANCH   6   8
ENDBRANCH   5   6
ENDBRANCH   4   5
ENDBRANCH   3   4
ENDBRANCH   2   3
ENDBRANCH   1   2
BRANCH   1  33
ATOM     33  C   UNL A   1      29.522  28.499  22.767  1.00  0.00     0.188 C 
BRANCH  33  34
ATOM     34  O   UNL A   1      30.417  29.357  23.446  1.00  0.00    -0.376 OA
BRANCH  34  35
ATOM     35  C   UNL A   1      31.001  28.880  24.638  1.00  0.00     0.202 C 
BRANCH  35  36
ATOM     36  C   UNL A   1      32.275  29.634  25.059  1.00  0.00     0.261 C 
BRANCH  36  37
ATOM     37  O   UNL A   1      32.390  29.871  26.487  1.00  0.00    -0.460 OA
BRANCH  37  38
ATOM     38  C   UNL A   1      32.669  31.151  26.946  1.00  0.00     0.338 C 
ATOM     39  O   UNL A   1      31.799  31.994  27.055  1.00  0.00    -0.246 OA
BRANCH  38  40
ATOM     40  C   UNL A   1      34.024  31.228  27.583  1.00  0.00     0.060 A 
ATOM     41  C   UNL A   1      34.819  32.307  27.989  1.00  0.00     0.016 A 
ATOM     42  C   UNL A   1      34.569  30.027  27.822  1.00  0.00     0.016 A 
ATOM     43  C   UNL A   1      36.229  32.166  28.415  1.00  0.00     0.010 A 
ATOM     44  C   UNL A   1      35.929  29.960  28.076  1.00  0.00     0.010 A 
ATOM     45  C   UNL A   1      36.910  30.942  28.421  1.00  0.00    -0.014 A 
BRANCH  45  46
ATOM     46  C   UNL A   1      38.600  30.696  28.716  1.00  0.00     0.031 A 
ATOM     47  C   UNL A   1      39.735  29.349  28.411  1.00  0.00     0.074 A 
ATOM     48  C   UNL A   1      39.192  31.656  29.458  1.00  0.00     0.049 A 
ATOM     49  N   UNL A   1      40.690  28.962  29.238  1.00  0.00    -0.248 NA
ATOM     50  C   UNL A   1      39.782  28.329  27.264  1.00  0.00     0.031 C 
ATOM     51  C   UNL A   1      40.608  31.792  29.779  1.00  0.00     0.029 A 
ATOM     52  N   UNL A   1      38.571  32.660  30.211  1.00  0.00    -0.354 N 
ATOM     53  C   UNL A   1      41.404  27.879  28.676  1.00  0.00     0.074 A 
ATOM     54  C   UNL A   1      40.755  27.479  27.498  1.00  0.00     0.031 C 
ATOM     55  C   UNL A   1      40.727  32.584  30.856  1.00  0.00     0.029 A 
ATOM     56  C   UNL A   1      39.384  32.875  31.329  1.00  0.00     0.049 A 
ATOM     57  H   UNL A   1      37.731  33.123  29.996  1.00  0.00     0.167 HD
ATOM     58  C   UNL A   1      42.616  27.420  29.081  1.00  0.00     0.037 A 
ATOM     59  C   UNL A   1      38.913  32.696  32.594  1.00  0.00     0.037 A 
ATOM     60  C   UNL A   1      43.064  28.204  30.186  1.00  0.00     0.049 A 
ATOM     61  C   UNL A   1      39.756  31.725  33.384  1.00  0.00     0.074 A 
ATOM     62  C   UNL A   1      43.737  29.410  30.222  1.00  0.00     0.029 A 
ATOM     63  N   UNL A   1      42.416  28.052  31.396  1.00  0.00    -0.354 N 
ATOM     64  N   UNL A   1      40.560  30.850  32.841  1.00  0.00    -0.248 NA
ATOM     65  C   UNL A   1      39.800  31.682  34.841  1.00  0.00     0.031 C 
ATOM     66  C   UNL A   1      43.427  30.030  31.454  1.00  0.00     0.029 A 
ATOM     67  C   UNL A   1      42.627  29.166  32.179  1.00  0.00     0.049 A 
ATOM     68  H   UNL A   1      41.883  27.267  31.659  1.00  0.00     0.167 HD
ATOM     69  C   UNL A   1      41.216  30.152  33.822  1.00  0.00     0.074 A 
ATOM     70  C   UNL A   1      40.709  30.713  35.057  1.00  0.00     0.031 C 
ATOM     71  C   UNL A   1      42.135  29.183  33.539  1.00  0.00     0.037 A 
BRANCH  58  72
ATOM     72  C   UNL A   1      43.458  26.552  28.155  1.00  0.00     0.058 A 
ATOM     73  C   UNL A   1      43.751  25.223  28.511  1.00  0.00     0.135 A 
ATOM     74  C   UNL A   1      44.136  27.030  27.005  1.00  0.00     0.135 A 
ATOM     75  F   UNL A   1      43.165  24.647  29.569  1.00  0.00    -0.206 F 
ATOM     76  C   UNL A   1      44.704  24.450  27.842  1.00  0.00     0.059 A 
ATOM     77  C   UNL A   1      45.128  26.285  26.340  1.00  0.00     0.059 A 
ATOM     78  F   UNL A   1      43.916  28.276  26.551  1.00  0.00    -0.206 F 
ATOM     79  C   UNL A   1      45.411  24.995  26.776  1.00  0.00     0.060 A 
BRANCH  79  80
ATOM     80  S   UNL A   1      46.749  24.022  26.040  1.00  0.00     0.124 S 
ATOM     81  O   UNL A   1      46.740  24.475  24.651  1.00  0.00    -0.237 OA
ATOM     82  O   UNL A   1      47.897  24.440  26.835  1.00  0.00    -0.237 OA
ATOM     83  O   UNL A   1      46.310  22.644  26.238  1.00  0.00    -0.744 OA
ENDBRANCH  79  80
ENDBRANCH  58  72
BRANCH  59  84
ATOM     84  C   UNL A   1      37.459  33.008  32.759  1.00  0.00     0.058 A 
ATOM     85  C   UNL A   1      37.116  34.294  33.238  1.00  0.00     0.135 A 
ATOM     86  C   UNL A   1      36.425  32.261  32.180  1.00  0.00     0.135 A 
ATOM     87  F   UNL A   1      38.052  35.065  33.816  1.00  0.00    -0.206 F 
ATOM     88  C   UNL A   1      35.861  34.861  33.038  1.00  0.00     0.059 A 
ATOM     89  C   UNL A   1      35.141  32.806  31.983  1.00  0.00     0.059 A 
ATOM     90  F   UNL A   1      36.673  31.041  31.679  1.00  0.00    -0.206 F 
ATOM     91  C   UNL A   1      34.886  34.122  32.376  1.00  0.00     0.060 A 
BRANCH  91  92
ATOM     92  S   UNL A   1      33.362  34.994  31.912  1.00  0.00     0.124 S 
ATOM     93  O   UNL A   1      32.400  34.459  32.869  1.00  0.00    -0.237 OA
ATOM     94  O   UNL A   1      33.744  36.390  32.119  1.00  0.00    -0.237 OA
ATOM     95  O   UNL A   1      33.162  34.595  30.524  1.00  0.00    -0.744 OA
ENDBRANCH  91  92
ENDBRANCH  59  84
BRANCH  71  96
ATOM     96  C   UNL A   1      42.742  28.180  34.493  1.00  0.00     0.058 A 
ATOM     97  C   UNL A   1      42.124  26.977  34.859  1.00  0.00     0.135 A 
ATOM     98  C   UNL A   1      44.089  28.330  34.923  1.00  0.00     0.135 A 
ATOM     99  F   UNL A   1      40.892  26.669  34.434  1.00  0.00    -0.206 F 
ATOM    100  C   UNL A   1      42.772  26.016  35.639  1.00  0.00     0.059 A 
ATOM    101  C   UNL A   1      44.774  27.356  35.636  1.00  0.00     0.059 A 
ATOM    102  F   UNL A   1      44.804  29.433  34.647  1.00  0.00    -0.206 F 
ATOM    103  C   UNL A   1      44.097  26.213  36.018  1.00  0.00     0.060 A 
BRANCH 103 104
ATOM    104  S   UNL A   1      44.962  24.965  36.981  1.00  0.00     0.124 S 
ATOM    105  O   UNL A   1      46.271  25.584  37.145  1.00  0.00    -0.237 OA
ATOM    106  O   UNL A   1      44.153  24.864  38.190  1.00  0.00    -0.237 OA
ATOM    107  O   UNL A   1      44.920  23.791  36.110  1.00  0.00    -0.744 OA
ENDBRANCH 103 104
ENDBRANCH  71  96
ENDBRANCH  45  46
ENDBRANCH  38  40
ENDBRANCH  37  38
ENDBRANCH  36  37
ENDBRANCH  35  36
ENDBRANCH  34  35
ENDBRANCH  33  34
ENDBRANCH   1  33
TORSDOF 23
ENDMDL
MODEL 3
REMARK VINA RESULT:     -12.8      2.055      3.690
REMARK SMILES Cc1c(NC(=O)[C@@H]2CC=CC[C@@H]2C(=O)OCCOCCOCCOC(=O)c2ccc(-c3c4nc(c(-c5c(F)cc(S(=O)(=O)[O-])cc5F)c5ccc([nH]5)c(-c5c(F)cc(S(=O)(=O)[O-])cc5F)c5nc(c(-c6c(F)cc(S(=O)(=O)[O-])cc6F)c6ccc3[nH]6)C=C5)C=C4)cc2)cccc1C(=O)N1CCOCC1
REMARK SMILES IDX 19 1 18 2 17 3 16 4 15 5 13 6 14 7 12 8 7 9 8 10 9 11 11 12
REMARK SMILES IDX 10 13 5 14 4 15 6 17 3 18 1 19 2 20 96 21 93 22 95 23 94 24
REMARK SMILES IDX 97 25 98 26 99 27 100 28 104 29 101 30 103 31 102 32 20 33
REMARK SMILES IDX 21 34 22 35 23 36 24 37 25 38 26 39 27 40 28 41 92 42 29 43
REMARK SMILES IDX 91 44 30 45 31 46 32 47 85 48 33 49 90 50 84 51 86 52 34 53
REMARK SMILES IDX 89 54 83 55 82 56 35 58 69 59 48 60 68 61 49 62 52 63 67 64
REMARK SMILES IDX 87 65 50 66 51 67 66 69 88 70 53 71 36 72 37 73 46 74 38 75
REMARK SMILES IDX 39 76 45 77 47 78 40 79 41 80 42 81 43 82 44 83 70 84 71 85
REMARK SMILES IDX 80 86 72 87 73 88 79 89 81 90 74 91 75 92 76 93 77 94 78 95
REMARK SMILES IDX 54 96 55 97 64 98 56 99 57 100 63 101 65 102 58 103 59 104
REMARK SMILES IDX 60 105 61 106 62 107
REMARK H PARENT 4 16 86 57 52 68
REMARK Flexibility Score: inf
ROOT
ATOM      1  C   UNL A   1      35.215  30.814  28.153  1.00  0.00     0.188 C 
ENDROOT
BRANCH   1   2
ATOM      2  O   UNL A   1      34.646  29.615  27.578  1.00  0.00    -0.376 OA
BRANCH   2   3
ATOM      3  C   UNL A   1      33.376  29.557  26.897  1.00  0.00     0.202 C 
BRANCH   3   4
ATOM      4  C   UNL A   1      32.545  28.151  26.471  1.00  0.00     0.261 C 
BRANCH   4   5
ATOM      5  O   UNL A   1      31.077  27.876  25.474  1.00  0.00    -0.463 OA
BRANCH   5   6
ATOM      6  C   UNL A   1      30.523  28.097  24.149  1.00  0.00     0.310 C 
ATOM      7  O   UNL A   1      29.435  28.605  23.849  1.00  0.00    -0.252 OA
BRANCH   6   8
ATOM      8  C   UNL A   1      31.205  27.739  22.845  1.00  0.00     0.116 C 
ATOM      9  C   UNL A   1      31.698  26.340  22.677  1.00  0.00     0.097 C 
ATOM     10  C   UNL A   1      33.048  26.180  23.333  1.00  0.00     0.041 C 
ATOM     11  C   UNL A   1      33.988  27.247  22.816  1.00  0.00    -0.030 C 
ATOM     12  C   UNL A   1      32.124  28.807  22.248  1.00  0.00     0.043 C 
ATOM     13  C   UNL A   1      33.567  28.418  22.309  1.00  0.00    -0.030 C 
BRANCH   9  14
ATOM     14  C   UNL A   1      30.532  25.514  23.146  1.00  0.00     0.228 C 
ATOM     15  N   UNL A   1      30.837  24.151  23.216  1.00  0.00    -0.326 N 
ATOM     16  H   UNL A   1      30.653  23.523  22.482  1.00  0.00     0.169 HD
ATOM     17  O   UNL A   1      29.390  25.941  23.266  1.00  0.00    -0.274 OA
BRANCH  15  18
ATOM     18  C   UNL A   1      31.431  23.756  24.433  1.00  0.00     0.044 A 
ATOM     19  C   UNL A   1      33.093  22.559  22.991  1.00  0.00     0.047 C 
ATOM     20  C   UNL A   1      32.503  22.857  24.347  1.00  0.00    -0.015 A 
ATOM     21  C   UNL A   1      32.901  22.216  25.530  1.00  0.00     0.045 A 
ATOM     22  C   UNL A   1      30.810  24.056  25.650  1.00  0.00     0.026 A 
ATOM     23  C   UNL A   1      32.191  22.414  26.728  1.00  0.00     0.014 A 
ATOM     24  C   UNL A   1      31.162  23.351  26.795  1.00  0.00     0.003 A 
BRANCH  21  25
ATOM     25  C   UNL A   1      33.945  21.170  25.518  1.00  0.00     0.254 C 
ATOM     26  O   UNL A   1      33.589  20.014  25.297  1.00  0.00    -0.269 OA
ATOM     27  N   UNL A   1      35.271  21.546  25.674  1.00  0.00    -0.334 N 
ATOM     28  C   UNL A   1      35.767  22.740  26.386  1.00  0.00     0.148 C 
ATOM     29  C   UNL A   1      36.309  20.645  25.185  1.00  0.00     0.148 C 
ATOM     30  C   UNL A   1      36.963  23.395  25.671  1.00  0.00     0.181 C 
ATOM     31  C   UNL A   1      37.380  21.436  24.432  1.00  0.00     0.181 C 
ATOM     32  O   UNL A   1      37.951  22.420  25.306  1.00  0.00    -0.378 OA
ENDBRANCH  21  25
ENDBRANCH  15  18
ENDBRANCH   9  14
ENDBRANCH   6   8
ENDBRANCH   5   6
ENDBRANCH   4   5
ENDBRANCH   3   4
ENDBRANCH   2   3
ENDBRANCH   1   2
BRANCH   1  33
ATOM     33  C   UNL A   1      34.614  32.208  27.932  1.00  0.00     0.188 C 
BRANCH  33  34
ATOM     34  O   UNL A   1      35.632  33.188  27.967  1.00  0.00    -0.376 OA
BRANCH  34  35
ATOM     35  C   UNL A   1      35.414  34.325  28.773  1.00  0.00     0.202 C 
BRANCH  35  36
ATOM     36  C   UNL A   1      34.523  34.061  30.001  1.00  0.00     0.261 C 
BRANCH  36  37
ATOM     37  O   UNL A   1      35.122  33.201  31.007  1.00  0.00    -0.460 OA
BRANCH  37  38
ATOM     38  C   UNL A   1      36.401  33.479  31.469  1.00  0.00     0.338 C 
ATOM     39  O   UNL A   1      36.620  34.406  32.224  1.00  0.00    -0.246 OA
BRANCH  38  40
ATOM     40  C   UNL A   1      37.342  32.341  31.209  1.00  0.00     0.060 A 
ATOM     41  C   UNL A   1      37.490  31.081  31.803  1.00  0.00     0.016 A 
ATOM     42  C   UNL A   1      38.195  32.574  30.202  1.00  0.00     0.016 A 
ATOM     43  C   UNL A   1      38.629  30.178  31.527  1.00  0.00     0.010 A 
ATOM     44  C   UNL A   1      39.318  31.771  30.092  1.00  0.00     0.010 A 
ATOM     45  C   UNL A   1      39.683  30.514  30.669  1.00  0.00    -0.014 A 
BRANCH  45  46
ATOM     46  C   UNL A   1      41.147  29.619  30.423  1.00  0.00     0.031 A 
ATOM     47  C   UNL A   1      41.555  28.109  29.560  1.00  0.00     0.074 A 
ATOM     48  C   UNL A   1      42.206  30.059  31.137  1.00  0.00     0.049 A 
ATOM     49  N   UNL A   1      42.404  27.193  29.994  1.00  0.00    -0.248 NA
ATOM     50  C   UNL A   1      40.968  27.508  28.273  1.00  0.00     0.031 C 
ATOM     51  C   UNL A   1      43.587  29.593  31.065  1.00  0.00     0.029 A 
ATOM     52  N   UNL A   1      42.201  30.956  32.210  1.00  0.00    -0.354 N 
ATOM     53  C   UNL A   1      42.495  26.138  29.059  1.00  0.00     0.074 A 
ATOM     54  C   UNL A   1      41.533  26.344  28.058  1.00  0.00     0.031 C 
ATOM     55  C   UNL A   1      44.216  29.953  32.195  1.00  0.00     0.029 A 
ATOM     56  C   UNL A   1      43.223  30.545  33.074  1.00  0.00     0.049 A 
ATOM     57  H   UNL A   1      41.599  31.724  32.333  1.00  0.00     0.167 HD
ATOM     58  C   UNL A   1      43.465  25.189  29.010  1.00  0.00     0.037 A 
ATOM     59  C   UNL A   1      42.963  30.189  34.362  1.00  0.00     0.037 A 
ATOM     60  C   UNL A   1      44.391  25.418  30.072  1.00  0.00     0.049 A 
ATOM     61  C   UNL A   1      43.465  28.803  34.682  1.00  0.00     0.074 A 
ATOM     62  C   UNL A   1      45.492  26.249  30.147  1.00  0.00     0.029 A 
ATOM     63  N   UNL A   1      43.973  25.163  31.364  1.00  0.00    -0.354 N 
ATOM     64  N   UNL A   1      43.726  27.896  33.778  1.00  0.00    -0.248 NA
ATOM     65  C   UNL A   1      43.757  28.333  36.032  1.00  0.00     0.031 C 
ATOM     66  C   UNL A   1      45.696  26.559  31.510  1.00  0.00     0.029 A 
ATOM     67  C   UNL A   1      44.762  25.861  32.253  1.00  0.00     0.049 A 
ATOM     68  H   UNL A   1      43.225  24.573  31.612  1.00  0.00     0.167 HD
ATOM     69  C   UNL A   1      44.209  26.764  34.383  1.00  0.00     0.074 A 
ATOM     70  C   UNL A   1      44.214  27.090  35.795  1.00  0.00     0.031 C 
ATOM     71  C   UNL A   1      44.582  25.659  33.674  1.00  0.00     0.037 A 
BRANCH  58  72
ATOM     72  C   UNL A   1      43.691  24.385  27.737  1.00  0.00     0.058 A 
ATOM     73  C   UNL A   1      43.129  23.102  27.607  1.00  0.00     0.135 A 
ATOM     74  C   UNL A   1      44.587  24.756  26.703  1.00  0.00     0.135 A 
ATOM     75  F   UNL A   1      42.256  22.637  28.510  1.00  0.00    -0.206 F 
ATOM     76  C   UNL A   1      43.486  22.217  26.586  1.00  0.00     0.059 A 
ATOM     77  C   UNL A   1      44.991  23.869  25.689  1.00  0.00     0.059 A 
ATOM     78  F   UNL A   1      45.166  25.970  26.703  1.00  0.00    -0.206 F 
ATOM     79  C   UNL A   1      44.439  22.593  25.647  1.00  0.00     0.060 A 
BRANCH  79  80
ATOM     80  S   UNL A   1      44.993  21.363  24.439  1.00  0.00     0.124 S 
ATOM     81  O   UNL A   1      44.665  22.001  23.167  1.00  0.00    -0.237 OA
ATOM     82  O   UNL A   1      46.414  21.258  24.747  1.00  0.00    -0.237 OA
ATOM     83  O   UNL A   1      44.187  20.189  24.761  1.00  0.00    -0.744 OA
ENDBRANCH  79  80
ENDBRANCH  58  72
BRANCH  59  84
ATOM     84  C   UNL A   1      41.822  30.928  34.986  1.00  0.00     0.058 A 
ATOM     85  C   UNL A   1      42.103  32.175  35.592  1.00  0.00     0.135 A 
ATOM     86  C   UNL A   1      40.472  30.645  34.737  1.00  0.00     0.135 A 
ATOM     87  F   UNL A   1      43.372  32.513  35.872  1.00  0.00    -0.206 F 
ATOM     88  C   UNL A   1      41.124  33.140  35.816  1.00  0.00     0.059 A 
ATOM     89  C   UNL A   1      39.462  31.597  34.973  1.00  0.00     0.059 A 
ATOM     90  F   UNL A   1      40.124  29.493  34.143  1.00  0.00    -0.206 F 
ATOM     91  C   UNL A   1      39.808  32.857  35.470  1.00  0.00     0.060 A 
BRANCH  91  92
ATOM     92  S   UNL A   1      38.622  34.230  35.538  1.00  0.00     0.124 S 
ATOM     93  O   UNL A   1      38.898  34.809  36.848  1.00  0.00    -0.237 OA
ATOM     94  O   UNL A   1      39.039  35.040  34.394  1.00  0.00    -0.237 OA
ATOM     95  O   UNL A   1      37.333  33.562  35.400  1.00  0.00    -0.744 OA
ENDBRANCH  91  92
ENDBRANCH  59  84
BRANCH  71  96
ATOM     96  C   UNL A   1      44.890  24.280  34.208  1.00  0.00     0.058 A 
ATOM     97  C   UNL A   1      43.924  23.287  34.414  1.00  0.00     0.135 A 
ATOM     98  C   UNL A   1      46.241  23.856  34.350  1.00  0.00     0.135 A 
ATOM     99  F   UNL A   1      42.622  23.530  34.216  1.00  0.00    -0.206 F 
ATOM    100  C   UNL A   1      44.264  21.984  34.785  1.00  0.00     0.059 A 
ATOM    101  C   UNL A   1      46.602  22.549  34.647  1.00  0.00     0.059 A 
ATOM    102  F   UNL A   1      47.271  24.701  34.185  1.00  0.00    -0.206 F 
ATOM    103  C   UNL A   1      45.605  21.625  34.894  1.00  0.00     0.060 A 
BRANCH 103 104
ATOM    104  S   UNL A   1      46.062  19.939  35.324  1.00  0.00     0.124 S 
ATOM    105  O   UNL A   1      44.803  19.237  35.115  1.00  0.00    -0.237 OA
ATOM    106  O   UNL A   1      47.124  19.634  34.372  1.00  0.00    -0.237 OA
ATOM    107  O   UNL A   1      46.497  20.063  36.715  1.00  0.00    -0.744 OA
ENDBRANCH 103 104
ENDBRANCH  71  96
ENDBRANCH  45  46
ENDBRANCH  38  40
ENDBRANCH  37  38
ENDBRANCH  36  37
ENDBRANCH  35  36
ENDBRANCH  34  35
ENDBRANCH  33  34
ENDBRANCH   1  33
TORSDOF 23
ENDMDL
