MODEL 1
REMARK VINA RESULT:     -11.1      0.000      0.000
REMARK SMILES Cc1ccc(NC(=O)C[C@H]2SC[C@H](C(=O)OCCOCCOCCOC(=O)c3ccc(-c4c5nc(c(-c6c(F)cc(S(=O)(=O)[O-])cc6F)c6ccc([nH]6)c(-c6c(F)cc(S(=O)(=O)[O-])cc6F)c6nc(c(-c7c(F)cc(S(=O)(=O)[O-])cc7F)c7ccc4[nH]7)C=C6)C=C5)cc3)NC2=O)cc1
REMARK SMILES IDX 20 1 19 2 18 3 17 4 16 5 14 6 15 7 13 8 10 9 11 10 95 11
REMARK SMILES IDX 12 12 94 13 96 14 9 16 7 17 6 18 8 20 5 21 1 22 2 23 3 24
REMARK SMILES IDX 98 25 4 26 97 27 21 28 22 29 23 30 24 31 25 32 26 33 27 34
REMARK SMILES IDX 28 35 29 36 93 37 30 38 92 39 31 40 32 41 33 42 86 43 34 44
REMARK SMILES IDX 91 45 85 46 87 47 35 48 90 49 84 50 83 51 36 53 70 54 49 55
REMARK SMILES IDX 69 56 50 57 53 58 68 59 88 60 51 61 52 62 67 64 89 65 54 66
REMARK SMILES IDX 37 67 38 68 47 69 39 70 40 71 46 72 48 73 41 74 42 75 43 76
REMARK SMILES IDX 44 77 45 78 71 79 72 80 81 81 73 82 74 83 80 84 82 85 75 86
REMARK SMILES IDX 76 87 77 88 78 89 79 90 55 91 56 92 65 93 57 94 58 95 64 96
REMARK SMILES IDX 66 97 59 98 60 99 61 100 62 101 63 102
REMARK H PARENT 94 15 6 19 87 52 53 63
REMARK Flexibility Score: inf
ROOT
ATOM      1  C   UNL A   1      44.795  19.010  24.764  1.00  0.00     0.188 C 
ENDROOT
BRANCH   1   2
ATOM      2  O   UNL A   1      43.386  18.905  24.656  1.00  0.00    -0.376 OA
BRANCH   2   3
ATOM      3  C   UNL A   1      42.725  19.079  25.899  1.00  0.00     0.202 C 
BRANCH   3   4
ATOM      4  C   UNL A   1      42.248  20.485  26.345  1.00  0.00     0.261 C 
BRANCH   4   5
ATOM      5  O   UNL A   1      40.697  20.968  26.178  1.00  0.00    -0.462 OA
BRANCH   5   6
ATOM      6  C   UNL A   1      39.633  21.894  26.308  1.00  0.00     0.329 C 
ATOM      7  O   UNL A   1      39.879  22.656  27.233  1.00  0.00    -0.250 OA
BRANCH   6   8
ATOM      8  C   UNL A   1      38.050  22.125  25.734  1.00  0.00     0.202 C 
ATOM      9  C   UNL A   1      35.105  22.414  24.612  1.00  0.00     0.145 C 
ATOM     10  S   UNL A   1      35.756  23.786  25.620  1.00  0.00    -0.145 SA
ATOM     11  C   UNL A   1      35.797  21.070  24.990  1.00  0.00     0.234 C 
ATOM     12  C   UNL A   1      37.500  23.495  25.292  1.00  0.00     0.107 C 
ATOM     13  N   UNL A   1      37.192  21.032  25.147  1.00  0.00    -0.341 N 
ATOM     14  O   UNL A   1      35.169  20.010  25.008  1.00  0.00    -0.274 OA
ATOM     15  H   UNL A   1      37.653  20.216  24.846  1.00  0.00     0.164 HD
BRANCH   9  16
ATOM     16  C   UNL A   1      33.578  22.635  24.671  1.00  0.00     0.124 C 
BRANCH  16  17
ATOM     17  C   UNL A   1      32.818  23.152  23.483  1.00  0.00     0.226 C 
ATOM     18  N   UNL A   1      32.376  24.427  23.405  1.00  0.00    -0.326 N 
ATOM     19  H   UNL A   1      32.072  24.689  22.506  1.00  0.00     0.169 HD
ATOM     20  O   UNL A   1      32.547  22.387  22.548  1.00  0.00    -0.275 OA
BRANCH  18  21
ATOM     21  C   UNL A   1      32.268  25.444  24.354  1.00  0.00     0.041 A 
ATOM     22  C   UNL A   1      31.776  28.201  27.621  1.00  0.00     0.044 C 
ATOM     23  C   UNL A   1      31.929  27.282  26.446  1.00  0.00    -0.051 A 
ATOM     24  C   UNL A   1      33.094  27.298  25.668  1.00  0.00     0.005 A 
ATOM     25  C   UNL A   1      30.929  26.353  26.156  1.00  0.00     0.005 A 
ATOM     26  C   UNL A   1      33.262  26.384  24.619  1.00  0.00     0.026 A 
ATOM     27  C   UNL A   1      31.110  25.428  25.133  1.00  0.00     0.026 A 
ENDBRANCH  18  21
ENDBRANCH  16  17
ENDBRANCH   9  16
ENDBRANCH   6   8
ENDBRANCH   5   6
ENDBRANCH   4   5
ENDBRANCH   3   4
ENDBRANCH   2   3
ENDBRANCH   1   2
BRANCH   1  28
ATOM     28  C   UNL A   1      45.239  20.461  24.532  1.00  0.00     0.188 C 
BRANCH  28  29
ATOM     29  O   UNL A   1      44.522  21.151  23.511  1.00  0.00    -0.376 OA
BRANCH  29  30
ATOM     30  C   UNL A   1      44.587  22.576  23.499  1.00  0.00     0.202 C 
BRANCH  30  31
ATOM     31  C   UNL A   1      44.963  23.073  24.898  1.00  0.00     0.261 C 
BRANCH  31  32
ATOM     32  O   UNL A   1      43.958  23.995  25.390  1.00  0.00    -0.460 OA
BRANCH  32  33
ATOM     33  C   UNL A   1      44.461  25.073  26.036  1.00  0.00     0.338 C 
ATOM     34  O   UNL A   1      44.877  26.091  25.495  1.00  0.00    -0.246 OA
BRANCH  33  35
ATOM     35  C   UNL A   1      44.711  24.688  27.445  1.00  0.00     0.060 A 
ATOM     36  C   UNL A   1      43.633  24.136  28.061  1.00  0.00     0.016 A 
ATOM     37  C   UNL A   1      45.755  25.149  28.257  1.00  0.00     0.016 A 
ATOM     38  C   UNL A   1      43.554  24.255  29.454  1.00  0.00     0.010 A 
ATOM     39  C   UNL A   1      45.658  25.149  29.692  1.00  0.00     0.010 A 
ATOM     40  C   UNL A   1      44.512  24.719  30.389  1.00  0.00    -0.014 A 
BRANCH  40  41
ATOM     41  C   UNL A   1      44.417  24.951  31.997  1.00  0.00     0.031 A 
ATOM     42  C   UNL A   1      44.045  26.353  32.412  1.00  0.00     0.074 A 
ATOM     43  C   UNL A   1      44.601  24.225  33.195  1.00  0.00     0.049 A 
ATOM     44  N   UNL A   1      43.823  26.723  33.634  1.00  0.00    -0.248 NA
ATOM     45  C   UNL A   1      43.953  27.469  31.480  1.00  0.00     0.031 C 
ATOM     46  C   UNL A   1      43.543  24.230  34.261  1.00  0.00     0.029 A 
ATOM     47  N   UNL A   1      45.324  23.119  33.687  1.00  0.00    -0.354 N 
ATOM     48  C   UNL A   1      43.107  27.881  33.578  1.00  0.00     0.074 A 
ATOM     49  C   UNL A   1      43.409  28.401  32.268  1.00  0.00     0.031 C 
ATOM     50  C   UNL A   1      43.828  23.357  35.243  1.00  0.00     0.029 A 
ATOM     51  C   UNL A   1      45.124  22.765  34.996  1.00  0.00     0.049 A 
ATOM     52  H   UNL A   1      45.948  22.620  33.110  1.00  0.00     0.167 HD
ATOM     53  C   UNL A   1      42.188  28.132  34.555  1.00  0.00     0.037 A 
ATOM     54  C   UNL A   1      46.089  22.308  35.855  1.00  0.00     0.037 A 
ATOM     55  C   UNL A   1      42.345  27.261  35.741  1.00  0.00     0.049 A 
ATOM     56  C   UNL A   1      46.100  23.246  37.035  1.00  0.00     0.074 A 
ATOM     57  C   UNL A   1      41.540  26.335  36.386  1.00  0.00     0.029 A 
ATOM     58  N   UNL A   1      43.580  27.181  36.384  1.00  0.00    -0.354 N 
ATOM     59  N   UNL A   1      45.162  24.134  37.187  1.00  0.00    -0.248 NA
ATOM     60  C   UNL A   1      47.142  23.390  38.046  1.00  0.00     0.031 C 
ATOM     61  C   UNL A   1      42.292  25.735  37.441  1.00  0.00     0.029 A 
ATOM     62  C   UNL A   1      43.553  26.306  37.461  1.00  0.00     0.049 A 
ATOM     63  H   UNL A   1      44.379  27.687  36.106  1.00  0.00     0.167 HD
ATOM     64  C   UNL A   1      45.503  25.037  38.129  1.00  0.00     0.074 A 
ATOM     65  C   UNL A   1      46.745  24.515  38.677  1.00  0.00     0.031 C 
ATOM     66  C   UNL A   1      44.732  26.143  38.315  1.00  0.00     0.037 A 
BRANCH  53  67
ATOM     67  C   UNL A   1      41.011  29.086  34.380  1.00  0.00     0.058 A 
ATOM     68  C   UNL A   1      40.157  28.983  33.259  1.00  0.00     0.135 A 
ATOM     69  C   UNL A   1      40.709  30.174  35.234  1.00  0.00     0.135 A 
ATOM     70  F   UNL A   1      40.350  28.044  32.321  1.00  0.00    -0.206 F 
ATOM     71  C   UNL A   1      39.080  29.850  33.033  1.00  0.00     0.059 A 
ATOM     72  C   UNL A   1      39.600  31.002  35.070  1.00  0.00     0.059 A 
ATOM     73  F   UNL A   1      41.502  30.542  36.244  1.00  0.00    -0.206 F 
ATOM     74  C   UNL A   1      38.795  30.845  33.958  1.00  0.00     0.060 A 
BRANCH  74  75
ATOM     75  S   UNL A   1      37.383  31.934  33.714  1.00  0.00     0.124 S 
ATOM     76  O   UNL A   1      36.440  31.050  33.039  1.00  0.00    -0.237 OA
ATOM     77  O   UNL A   1      37.041  32.317  35.079  1.00  0.00    -0.237 OA
ATOM     78  O   UNL A   1      37.930  33.010  32.890  1.00  0.00    -0.744 OA
ENDBRANCH  74  75
ENDBRANCH  53  67
BRANCH  54  79
ATOM     79  C   UNL A   1      47.260  21.525  35.304  1.00  0.00     0.058 A 
ATOM     80  C   UNL A   1      48.351  22.254  34.773  1.00  0.00     0.135 A 
ATOM     81  C   UNL A   1      47.495  20.154  35.523  1.00  0.00     0.135 A 
ATOM     82  F   UNL A   1      48.195  23.554  34.472  1.00  0.00    -0.206 F 
ATOM     83  C   UNL A   1      49.646  21.724  34.672  1.00  0.00     0.059 A 
ATOM     84  C   UNL A   1      48.788  19.582  35.408  1.00  0.00     0.059 A 
ATOM     85  F   UNL A   1      46.521  19.387  36.037  1.00  0.00    -0.206 F 
ATOM     86  C   UNL A   1      49.879  20.412  35.090  1.00  0.00     0.060 A 
BRANCH  86  87
ATOM     87  S   UNL A   1      51.545  20.067  35.864  1.00  0.00     0.124 S 
ATOM     88  O   UNL A   1      51.737  18.655  35.556  1.00  0.00    -0.237 OA
ATOM     89  O   UNL A   1      52.446  20.981  35.153  1.00  0.00    -0.237 OA
ATOM     90  O   UNL A   1      51.370  20.376  37.283  1.00  0.00    -0.744 OA
ENDBRANCH  86  87
ENDBRANCH  54  79
BRANCH  66  91
ATOM     91  C   UNL A   1      45.040  27.150  39.367  1.00  0.00     0.058 A 
ATOM     92  C   UNL A   1      44.731  26.934  40.719  1.00  0.00     0.135 A 
ATOM     93  C   UNL A   1      45.567  28.410  39.026  1.00  0.00     0.135 A 
ATOM     94  F   UNL A   1      44.141  25.795  41.120  1.00  0.00    -0.206 F 
ATOM     95  C   UNL A   1      45.006  27.884  41.694  1.00  0.00     0.059 A 
ATOM     96  C   UNL A   1      45.795  29.396  39.975  1.00  0.00     0.059 A 
ATOM     97  F   UNL A   1      45.904  28.711  37.763  1.00  0.00    -0.206 F 
ATOM     98  C   UNL A   1      45.546  29.110  41.311  1.00  0.00     0.060 A 
BRANCH  98  99
ATOM     99  S   UNL A   1      45.919  30.335  42.572  1.00  0.00     0.124 S 
ATOM    100  O   UNL A   1      47.308  30.679  42.279  1.00  0.00    -0.237 OA
ATOM    101  O   UNL A   1      44.934  31.368  42.267  1.00  0.00    -0.237 OA
ATOM    102  O   UNL A   1      45.709  29.610  43.820  1.00  0.00    -0.744 OA
ENDBRANCH  98  99
ENDBRANCH  66  91
ENDBRANCH  40  41
ENDBRANCH  33  35
ENDBRANCH  32  33
ENDBRANCH  31  32
ENDBRANCH  30  31
ENDBRANCH  29  30
ENDBRANCH  28  29
ENDBRANCH   1  28
TORSDOF 23
ENDMDL
MODEL 2
REMARK VINA RESULT:     -11.1      8.211     14.176
REMARK SMILES Cc1ccc(NC(=O)C[C@H]2SC[C@H](C(=O)OCCOCCOCCOC(=O)c3ccc(-c4c5nc(c(-c6c(F)cc(S(=O)(=O)[O-])cc6F)c6ccc([nH]6)c(-c6c(F)cc(S(=O)(=O)[O-])cc6F)c6nc(c(-c7c(F)cc(S(=O)(=O)[O-])cc7F)c7ccc4[nH]7)C=C6)C=C5)cc3)NC2=O)cc1
REMARK SMILES IDX 20 1 19 2 18 3 17 4 16 5 14 6 15 7 13 8 10 9 11 10 95 11
REMARK SMILES IDX 12 12 94 13 96 14 9 16 7 17 6 18 8 20 5 21 1 22 2 23 3 24
REMARK SMILES IDX 98 25 4 26 97 27 21 28 22 29 23 30 24 31 25 32 26 33 27 34
REMARK SMILES IDX 28 35 29 36 93 37 30 38 92 39 31 40 32 41 33 42 86 43 34 44
REMARK SMILES IDX 91 45 85 46 87 47 35 48 90 49 84 50 83 51 36 53 70 54 49 55
REMARK SMILES IDX 69 56 50 57 53 58 68 59 88 60 51 61 52 62 67 64 89 65 54 66
REMARK SMILES IDX 37 67 38 68 47 69 39 70 40 71 46 72 48 73 41 74 42 75 43 76
REMARK SMILES IDX 44 77 45 78 71 79 72 80 81 81 73 82 74 83 80 84 82 85 75 86
REMARK SMILES IDX 76 87 77 88 78 89 79 90 55 91 56 92 65 93 57 94 58 95 64 96
REMARK SMILES IDX 66 97 59 98 60 99 61 100 62 101 63 102
REMARK H PARENT 94 15 6 19 87 52 53 63
REMARK Flexibility Score: inf
ROOT
ATOM      1  C   UNL A   1      33.306  34.746  29.380  1.00  0.00     0.188 C 
ENDROOT
BRANCH   1   2
ATOM      2  O   UNL A   1      34.065  33.753  30.048  1.00  0.00    -0.376 OA
BRANCH   2   3
ATOM      3  C   UNL A   1      34.456  32.691  29.192  1.00  0.00     0.202 C 
BRANCH   3   4
ATOM      4  C   UNL A   1      33.718  32.452  27.849  1.00  0.00     0.261 C 
BRANCH   4   5
ATOM      5  O   UNL A   1      33.807  31.029  27.053  1.00  0.00    -0.462 OA
BRANCH   5   6
ATOM      6  C   UNL A   1      33.447  29.680  26.816  1.00  0.00     0.329 C 
ATOM      7  O   UNL A   1      33.492  29.065  27.873  1.00  0.00    -0.250 OA
BRANCH   6   8
ATOM      8  C   UNL A   1      33.195  28.626  25.508  1.00  0.00     0.202 C 
ATOM      9  C   UNL A   1      32.763  26.546  23.161  1.00  0.00     0.145 C 
ATOM     10  S   UNL A   1      32.284  28.277  22.846  1.00  0.00    -0.145 SA
ATOM     11  C   UNL A   1      32.686  26.217  24.682  1.00  0.00     0.234 C 
ATOM     12  C   UNL A   1      33.399  29.036  24.036  1.00  0.00     0.107 C 
ATOM     13  N   UNL A   1      33.223  27.121  25.613  1.00  0.00    -0.341 N 
ATOM     14  O   UNL A   1      32.300  25.116  25.079  1.00  0.00    -0.274 OA
ATOM     15  H   UNL A   1      33.659  26.737  26.408  1.00  0.00     0.164 HD
BRANCH   9  16
ATOM     16  C   UNL A   1      31.985  25.769  22.078  1.00  0.00     0.124 C 
BRANCH  16  17
ATOM     17  C   UNL A   1      32.701  25.006  20.999  1.00  0.00     0.226 C 
ATOM     18  N   UNL A   1      33.121  23.733  21.170  1.00  0.00    -0.326 N 
ATOM     19  H   UNL A   1      33.394  23.289  20.335  1.00  0.00     0.169 HD
ATOM     20  O   UNL A   1      32.955  25.561  19.922  1.00  0.00    -0.275 OA
BRANCH  18  21
ATOM     21  C   UNL A   1      33.244  22.927  22.303  1.00  0.00     0.041 A 
ATOM     22  C   UNL A   1      33.533  20.026  25.468  1.00  0.00     0.044 C 
ATOM     23  C   UNL A   1      33.407  21.074  24.403  1.00  0.00    -0.051 A 
ATOM     24  C   UNL A   1      34.376  22.077  24.262  1.00  0.00     0.005 A 
ATOM     25  C   UNL A   1      32.348  21.019  23.495  1.00  0.00     0.005 A 
ATOM     26  C   UNL A   1      34.292  23.006  23.217  1.00  0.00     0.026 A 
ATOM     27  C   UNL A   1      32.282  21.925  22.442  1.00  0.00     0.026 A 
ENDBRANCH  18  21
ENDBRANCH  16  17
ENDBRANCH   9  16
ENDBRANCH   6   8
ENDBRANCH   5   6
ENDBRANCH   4   5
ENDBRANCH   3   4
ENDBRANCH   2   3
ENDBRANCH   1   2
BRANCH   1  28
ATOM     28  C   UNL A   1      33.058  35.941  30.312  1.00  0.00     0.188 C 
BRANCH  28  29
ATOM     29  O   UNL A   1      33.120  35.639  31.704  1.00  0.00    -0.376 OA
BRANCH  29  30
ATOM     30  C   UNL A   1      33.853  36.528  32.546  1.00  0.00     0.202 C 
BRANCH  30  31
ATOM     31  C   UNL A   1      34.753  35.711  33.477  1.00  0.00     0.261 C 
BRANCH  31  32
ATOM     32  O   UNL A   1      35.898  35.201  32.748  1.00  0.00    -0.460 OA
BRANCH  32  33
ATOM     33  C   UNL A   1      36.014  33.852  32.767  1.00  0.00     0.338 C 
ATOM     34  O   UNL A   1      35.257  33.085  33.351  1.00  0.00    -0.246 OA
BRANCH  33  35
ATOM     35  C   UNL A   1      37.355  33.500  32.243  1.00  0.00     0.060 A 
ATOM     36  C   UNL A   1      38.375  34.135  32.878  1.00  0.00     0.016 A 
ATOM     37  C   UNL A   1      37.631  32.911  31.003  1.00  0.00     0.016 A 
ATOM     38  C   UNL A   1      39.561  34.330  32.160  1.00  0.00     0.010 A 
ATOM     39  C   UNL A   1      38.908  33.059  30.359  1.00  0.00     0.010 A 
ATOM     40  C   UNL A   1      39.962  33.820  30.900  1.00  0.00    -0.014 A 
BRANCH  40  41
ATOM     41  C   UNL A   1      41.292  34.100  30.004  1.00  0.00     0.031 A 
ATOM     42  C   UNL A   1      42.237  32.929  29.893  1.00  0.00     0.074 A 
ATOM     43  C   UNL A   1      41.888  35.153  29.274  1.00  0.00     0.049 A 
ATOM     44  N   UNL A   1      43.299  32.909  29.152  1.00  0.00    -0.248 NA
ATOM     45  C   UNL A   1      42.087  31.700  30.661  1.00  0.00     0.031 C 
ATOM     46  C   UNL A   1      42.346  34.936  27.861  1.00  0.00     0.029 A 
ATOM     47  N   UNL A   1      41.921  36.562  29.244  1.00  0.00    -0.354 N 
ATOM     48  C   UNL A   1      43.631  31.601  28.961  1.00  0.00     0.074 A 
ATOM     49  C   UNL A   1      43.007  30.930  30.072  1.00  0.00     0.031 C 
ATOM     50  C   UNL A   1      42.732  36.089  27.286  1.00  0.00     0.029 A 
ATOM     51  C   UNL A   1      42.671  37.155  28.261  1.00  0.00     0.049 A 
ATOM     52  H   UNL A   1      41.425  37.097  29.904  1.00  0.00     0.167 HD
ATOM     53  C   UNL A   1      44.202  31.235  27.777  1.00  0.00     0.037 A 
ATOM     54  C   UNL A   1      43.419  38.294  28.406  1.00  0.00     0.037 A 
ATOM     55  C   UNL A   1      44.701  32.385  26.990  1.00  0.00     0.049 A 
ATOM     56  C   UNL A   1      44.835  37.933  28.036  1.00  0.00     0.074 A 
ATOM     57  C   UNL A   1      44.423  32.904  25.735  1.00  0.00     0.029 A 
ATOM     58  N   UNL A   1      45.579  33.297  27.576  1.00  0.00    -0.354 N 
ATOM     59  N   UNL A   1      45.106  36.790  27.479  1.00  0.00    -0.248 NA
ATOM     60  C   UNL A   1      46.050  38.684  28.333  1.00  0.00     0.031 C 
ATOM     61  C   UNL A   1      45.172  34.107  25.564  1.00  0.00     0.029 A 
ATOM     62  C   UNL A   1      45.929  34.318  26.704  1.00  0.00     0.049 A 
ATOM     63  H   UNL A   1      45.912  33.225  28.500  1.00  0.00     0.167 HD
ATOM     64  C   UNL A   1      46.433  36.553  27.487  1.00  0.00     0.074 A 
ATOM     65  C   UNL A   1      47.003  37.788  28.001  1.00  0.00     0.031 C 
ATOM     66  C   UNL A   1      46.905  35.335  27.105  1.00  0.00     0.037 A 
BRANCH  53  67
ATOM     67  C   UNL A   1      44.174  29.811  27.233  1.00  0.00     0.058 A 
ATOM     68  C   UNL A   1      45.360  29.048  27.143  1.00  0.00     0.135 A 
ATOM     69  C   UNL A   1      43.031  29.158  26.713  1.00  0.00     0.135 A 
ATOM     70  F   UNL A   1      46.541  29.548  27.534  1.00  0.00    -0.206 F 
ATOM     71  C   UNL A   1      45.397  27.747  26.626  1.00  0.00     0.059 A 
ATOM     72  C   UNL A   1      43.029  27.839  26.264  1.00  0.00     0.059 A 
ATOM     73  F   UNL A   1      41.858  29.777  26.549  1.00  0.00    -0.206 F 
ATOM     74  C   UNL A   1      44.220  27.140  26.208  1.00  0.00     0.060 A 
BRANCH  74  75
ATOM     75  S   UNL A   1      44.238  25.449  25.592  1.00  0.00     0.124 S 
ATOM     76  O   UNL A   1      42.914  25.340  24.991  1.00  0.00    -0.237 OA
ATOM     77  O   UNL A   1      45.364  25.464  24.666  1.00  0.00    -0.237 OA
ATOM     78  O   UNL A   1      44.442  24.655  26.802  1.00  0.00    -0.744 OA
ENDBRANCH  74  75
ENDBRANCH  53  67
BRANCH  54  79
ATOM     79  C   UNL A   1      42.977  39.348  29.397  1.00  0.00     0.058 A 
ATOM     80  C   UNL A   1      43.565  39.332  30.685  1.00  0.00     0.135 A 
ATOM     81  C   UNL A   1      42.252  40.511  29.075  1.00  0.00     0.135 A 
ATOM     82  F   UNL A   1      44.221  38.236  31.100  1.00  0.00    -0.206 F 
ATOM     83  C   UNL A   1      43.623  40.464  31.512  1.00  0.00     0.059 A 
ATOM     84  C   UNL A   1      42.271  41.665  29.900  1.00  0.00     0.059 A 
ATOM     85  F   UNL A   1      41.672  40.620  27.870  1.00  0.00    -0.206 F 
ATOM     86  C   UNL A   1      43.060  41.662  31.065  1.00  0.00     0.060 A 
BRANCH  86  87
ATOM     87  S   UNL A   1      43.924  43.235  31.587  1.00  0.00     0.124 S 
ATOM     88  O   UNL A   1      43.145  44.254  30.896  1.00  0.00    -0.237 OA
ATOM     89  O   UNL A   1      43.779  43.233  33.047  1.00  0.00    -0.237 OA
ATOM     90  O   UNL A   1      45.301  43.079  31.119  1.00  0.00    -0.744 OA
ENDBRANCH  86  87
ENDBRANCH  54  79
BRANCH  66  91
ATOM     91  C   UNL A   1      48.362  35.034  27.057  1.00  0.00     0.058 A 
ATOM     92  C   UNL A   1      49.111  34.794  28.219  1.00  0.00     0.135 A 
ATOM     93  C   UNL A   1      49.068  35.080  25.840  1.00  0.00     0.135 A 
ATOM     94  F   UNL A   1      48.534  34.823  29.433  1.00  0.00    -0.206 F 
ATOM     95  C   UNL A   1      50.474  34.530  28.171  1.00  0.00     0.059 A 
ATOM     96  C   UNL A   1      50.439  34.877  25.774  1.00  0.00     0.059 A 
ATOM     97  F   UNL A   1      48.442  35.293  24.674  1.00  0.00    -0.206 F 
ATOM     98  C   UNL A   1      51.127  34.566  26.940  1.00  0.00     0.060 A 
BRANCH  98  99
ATOM     99  S   UNL A   1      52.886  34.208  26.871  1.00  0.00     0.124 S 
ATOM    100  O   UNL A   1      53.329  35.005  25.731  1.00  0.00    -0.237 OA
ATOM    101  O   UNL A   1      53.325  34.679  28.182  1.00  0.00    -0.237 OA
ATOM    102  O   UNL A   1      52.929  32.763  26.674  1.00  0.00    -0.744 OA
ENDBRANCH  98  99
ENDBRANCH  66  91
ENDBRANCH  40  41
ENDBRANCH  33  35
ENDBRANCH  32  33
ENDBRANCH  31  32
ENDBRANCH  30  31
ENDBRANCH  29  30
ENDBRANCH  28  29
ENDBRANCH   1  28
TORSDOF 23
ENDMDL
MODEL 3
REMARK VINA RESULT:     -11.0      1.556      2.941
REMARK SMILES Cc1ccc(NC(=O)C[C@H]2SC[C@H](C(=O)OCCOCCOCCOC(=O)c3ccc(-c4c5nc(c(-c6c(F)cc(S(=O)(=O)[O-])cc6F)c6ccc([nH]6)c(-c6c(F)cc(S(=O)(=O)[O-])cc6F)c6nc(c(-c7c(F)cc(S(=O)(=O)[O-])cc7F)c7ccc4[nH]7)C=C6)C=C5)cc3)NC2=O)cc1
REMARK SMILES IDX 20 1 19 2 18 3 17 4 16 5 14 6 15 7 13 8 10 9 11 10 95 11
REMARK SMILES IDX 12 12 94 13 96 14 9 16 7 17 6 18 8 20 5 21 1 22 2 23 3 24
REMARK SMILES IDX 98 25 4 26 97 27 21 28 22 29 23 30 24 31 25 32 26 33 27 34
REMARK SMILES IDX 28 35 29 36 93 37 30 38 92 39 31 40 32 41 33 42 86 43 34 44
REMARK SMILES IDX 91 45 85 46 87 47 35 48 90 49 84 50 83 51 36 53 70 54 49 55
REMARK SMILES IDX 69 56 50 57 53 58 68 59 88 60 51 61 52 62 67 64 89 65 54 66
REMARK SMILES IDX 37 67 38 68 47 69 39 70 40 71 46 72 48 73 41 74 42 75 43 76
REMARK SMILES IDX 44 77 45 78 71 79 72 80 81 81 73 82 74 83 80 84 82 85 75 86
REMARK SMILES IDX 76 87 77 88 78 89 79 90 55 91 56 92 65 93 57 94 58 95 64 96
REMARK SMILES IDX 66 97 59 98 60 99 61 100 62 101 63 102
REMARK H PARENT 94 15 6 19 87 52 53 63
REMARK Flexibility Score: inf
ROOT
ATOM      1  C   UNL A   1      43.837  19.107  25.025  1.00  0.00     0.188 C 
ENDROOT
BRANCH   1   2
ATOM      2  O   UNL A   1      42.570  19.724  25.170  1.00  0.00    -0.376 OA
BRANCH   2   3
ATOM      3  C   UNL A   1      42.164  19.836  26.525  1.00  0.00     0.202 C 
BRANCH   3   4
ATOM      4  C   UNL A   1      42.072  21.225  27.206  1.00  0.00     0.261 C 
BRANCH   4   5
ATOM      5  O   UNL A   1      41.001  22.359  26.721  1.00  0.00    -0.462 OA
BRANCH   5   6
ATOM      6  C   UNL A   1      39.743  23.009  26.738  1.00  0.00     0.329 C 
ATOM      7  O   UNL A   1      39.701  23.772  27.694  1.00  0.00    -0.250 OA
BRANCH   6   8
ATOM      8  C   UNL A   1      38.223  22.892  25.987  1.00  0.00     0.202 C 
ATOM      9  C   UNL A   1      35.337  22.765  24.694  1.00  0.00     0.145 C 
ATOM     10  S   UNL A   1      36.702  21.979  23.776  1.00  0.00    -0.145 SA
ATOM     11  C   UNL A   1      35.868  23.915  25.601  1.00  0.00     0.234 C 
ATOM     12  C   UNL A   1      37.764  21.654  25.191  1.00  0.00     0.107 C 
ATOM     13  N   UNL A   1      37.015  23.705  26.383  1.00  0.00    -0.341 N 
ATOM     14  O   UNL A   1      35.222  24.952  25.763  1.00  0.00    -0.274 OA
ATOM     15  H   UNL A   1      37.034  24.127  27.272  1.00  0.00     0.164 HD
BRANCH   9  16
ATOM     16  C   UNL A   1      34.258  22.962  23.608  1.00  0.00     0.124 C 
BRANCH  16  17
ATOM     17  C   UNL A   1      32.794  22.898  23.942  1.00  0.00     0.226 C 
ATOM     18  N   UNL A   1      32.157  21.732  24.189  1.00  0.00    -0.326 N 
ATOM     19  H   UNL A   1      31.262  21.843  24.583  1.00  0.00     0.169 HD
ATOM     20  O   UNL A   1      32.125  23.940  23.961  1.00  0.00    -0.275 OA
BRANCH  18  21
ATOM     21  C   UNL A   1      32.524  20.400  23.992  1.00  0.00     0.041 A 
ATOM     22  C   UNL A   1      33.457  16.201  23.873  1.00  0.00     0.044 C 
ATOM     23  C   UNL A   1      33.181  17.675  23.884  1.00  0.00    -0.051 A 
ATOM     24  C   UNL A   1      32.532  18.294  22.807  1.00  0.00     0.005 A 
ATOM     25  C   UNL A   1      33.514  18.437  25.006  1.00  0.00     0.005 A 
ATOM     26  C   UNL A   1      32.209  19.655  22.857  1.00  0.00     0.026 A 
ATOM     27  C   UNL A   1      33.167  19.782  25.065  1.00  0.00     0.026 A 
ENDBRANCH  18  21
ENDBRANCH  16  17
ENDBRANCH   9  16
ENDBRANCH   6   8
ENDBRANCH   5   6
ENDBRANCH   4   5
ENDBRANCH   3   4
ENDBRANCH   2   3
ENDBRANCH   1   2
BRANCH   1  28
ATOM     28  C   UNL A   1      44.901  20.155  24.668  1.00  0.00     0.188 C 
BRANCH  28  29
ATOM     29  O   UNL A   1      44.502  21.100  23.677  1.00  0.00    -0.376 OA
BRANCH  29  30
ATOM     30  C   UNL A   1      44.213  22.430  24.104  1.00  0.00     0.202 C 
BRANCH  30  31
ATOM     31  C   UNL A   1      45.526  23.154  24.414  1.00  0.00     0.261 C 
BRANCH  31  32
ATOM     32  O   UNL A   1      45.280  24.293  25.277  1.00  0.00    -0.460 OA
BRANCH  32  33
ATOM     33  C   UNL A   1      46.175  24.432  26.283  1.00  0.00     0.338 C 
ATOM     34  O   UNL A   1      47.347  24.078  26.241  1.00  0.00    -0.246 OA
BRANCH  33  35
ATOM     35  C   UNL A   1      45.429  24.783  27.515  1.00  0.00     0.060 A 
ATOM     36  C   UNL A   1      45.813  25.962  28.070  1.00  0.00     0.016 A 
ATOM     37  C   UNL A   1      44.687  23.903  28.312  1.00  0.00     0.016 A 
ATOM     38  C   UNL A   1      45.618  26.122  29.447  1.00  0.00     0.010 A 
ATOM     39  C   UNL A   1      44.428  24.171  29.701  1.00  0.00     0.010 A 
ATOM     40  C   UNL A   1      44.916  25.309  30.372  1.00  0.00    -0.014 A 
BRANCH  40  41
ATOM     41  C   UNL A   1      44.749  25.421  31.987  1.00  0.00     0.031 A 
ATOM     42  C   UNL A   1      44.340  26.785  32.487  1.00  0.00     0.074 A 
ATOM     43  C   UNL A   1      44.892  24.612  33.137  1.00  0.00     0.049 A 
ATOM     44  N   UNL A   1      44.060  27.063  33.721  1.00  0.00    -0.248 NA
ATOM     45  C   UNL A   1      44.271  27.966  31.635  1.00  0.00     0.031 C 
ATOM     46  C   UNL A   1      43.790  24.528  34.153  1.00  0.00     0.029 A 
ATOM     47  N   UNL A   1      45.610  23.481  33.578  1.00  0.00    -0.354 N 
ATOM     48  C   UNL A   1      43.330  28.213  33.717  1.00  0.00     0.074 A 
ATOM     49  C   UNL A   1      43.680  28.831  32.464  1.00  0.00     0.031 C 
ATOM     50  C   UNL A   1      44.046  23.588  35.081  1.00  0.00     0.029 A 
ATOM     51  C   UNL A   1      45.359  23.030  34.848  1.00  0.00     0.049 A 
ATOM     52  H   UNL A   1      46.264  23.033  32.995  1.00  0.00     0.167 HD
ATOM     53  C   UNL A   1      42.367  28.382  34.670  1.00  0.00     0.037 A 
ATOM     54  C   UNL A   1      46.293  22.523  35.713  1.00  0.00     0.037 A 
ATOM     55  C   UNL A   1      42.486  27.428  35.795  1.00  0.00     0.049 A 
ATOM     56  C   UNL A   1      46.240  23.373  36.957  1.00  0.00     0.074 A 
ATOM     57  C   UNL A   1      41.668  26.449  36.336  1.00  0.00     0.029 A 
ATOM     58  N   UNL A   1      43.694  27.316  36.484  1.00  0.00    -0.354 N 
ATOM     59  N   UNL A   1      45.284  24.236  37.132  1.00  0.00    -0.248 NA
ATOM     60  C   UNL A   1      47.236  23.454  38.021  1.00  0.00     0.031 C 
ATOM     61  C   UNL A   1      42.383  25.782  37.376  1.00  0.00     0.029 A 
ATOM     62  C   UNL A   1      43.633  26.364  37.492  1.00  0.00     0.049 A 
ATOM     63  H   UNL A   1      44.497  27.849  36.279  1.00  0.00     0.167 HD
ATOM     64  C   UNL A   1      45.571  25.072  38.151  1.00  0.00     0.074 A 
ATOM     65  C   UNL A   1      46.796  24.525  38.713  1.00  0.00     0.031 C 
ATOM     66  C   UNL A   1      44.777  26.153  38.383  1.00  0.00     0.037 A 
BRANCH  53  67
ATOM     67  C   UNL A   1      41.185  29.333  34.513  1.00  0.00     0.058 A 
ATOM     68  C   UNL A   1      41.091  30.504  35.298  1.00  0.00     0.135 A 
ATOM     69  C   UNL A   1      40.073  29.119  33.665  1.00  0.00     0.135 A 
ATOM     70  F   UNL A   1      42.033  30.816  36.199  1.00  0.00    -0.206 F 
ATOM     71  C   UNL A   1      40.014  31.397  35.216  1.00  0.00     0.059 A 
ATOM     72  C   UNL A   1      39.029  30.029  33.511  1.00  0.00     0.059 A 
ATOM     73  F   UNL A   1      39.895  27.987  32.979  1.00  0.00    -0.206 F 
ATOM     74  C   UNL A   1      38.996  31.163  34.302  1.00  0.00     0.060 A 
BRANCH  74  75
ATOM     75  S   UNL A   1      37.632  32.326  34.142  1.00  0.00     0.124 S 
ATOM     76  O   UNL A   1      38.333  33.554  33.784  1.00  0.00    -0.237 OA
ATOM     77  O   UNL A   1      36.822  31.720  33.092  1.00  0.00    -0.237 OA
ATOM     78  O   UNL A   1      37.028  32.317  35.472  1.00  0.00    -0.744 OA
ENDBRANCH  74  75
ENDBRANCH  53  67
BRANCH  54  79
ATOM     79  C   UNL A   1      47.497  21.796  35.158  1.00  0.00     0.058 A 
ATOM     80  C   UNL A   1      48.695  22.532  34.991  1.00  0.00     0.135 A 
ATOM     81  C   UNL A   1      47.625  20.397  35.057  1.00  0.00     0.135 A 
ATOM     82  F   UNL A   1      48.655  23.874  35.008  1.00  0.00    -0.206 F 
ATOM     83  C   UNL A   1      49.962  21.930  34.949  1.00  0.00     0.059 A 
ATOM     84  C   UNL A   1      48.890  19.758  34.990  1.00  0.00     0.059 A 
ATOM     85  F   UNL A   1      46.545  19.618  35.215  1.00  0.00    -0.206 F 
ATOM     86  C   UNL A   1      50.058  20.540  35.053  1.00  0.00     0.060 A 
BRANCH  86  87
ATOM     87  S   UNL A   1      51.557  19.874  35.947  1.00  0.00     0.124 S 
ATOM     88  O   UNL A   1      50.955  19.208  37.096  1.00  0.00    -0.237 OA
ATOM     89  O   UNL A   1      52.168  18.973  34.964  1.00  0.00    -0.237 OA
ATOM     90  O   UNL A   1      52.361  21.055  36.262  1.00  0.00    -0.744 OA
ENDBRANCH  86  87
ENDBRANCH  54  79
BRANCH  66  91
ATOM     91  C   UNL A   1      45.026  27.083  39.517  1.00  0.00     0.058 A 
ATOM     92  C   UNL A   1      45.653  28.325  39.338  1.00  0.00     0.135 A 
ATOM     93  C   UNL A   1      44.727  26.703  40.840  1.00  0.00     0.135 A 
ATOM     94  F   UNL A   1      46.056  28.727  38.120  1.00  0.00    -0.206 F 
ATOM     95  C   UNL A   1      45.898  29.183  40.403  1.00  0.00     0.059 A 
ATOM     96  C   UNL A   1      45.016  27.519  41.925  1.00  0.00     0.059 A 
ATOM     97  F   UNL A   1      44.119  25.541  41.115  1.00  0.00    -0.206 F 
ATOM     98  C   UNL A   1      45.567  28.772  41.693  1.00  0.00     0.060 A 
BRANCH  98  99
ATOM     99  S   UNL A   1      45.866  29.887  43.070  1.00  0.00     0.124 S 
ATOM    100  O   UNL A   1      44.979  31.007  42.771  1.00  0.00    -0.237 OA
ATOM    101  O   UNL A   1      45.471  29.053  44.202  1.00  0.00    -0.237 OA
ATOM    102  O   UNL A   1      47.291  30.177  42.967  1.00  0.00    -0.744 OA
ENDBRANCH  98  99
ENDBRANCH  66  91
ENDBRANCH  40  41
ENDBRANCH  33  35
ENDBRANCH  32  33
ENDBRANCH  31  32
ENDBRANCH  30  31
ENDBRANCH  29  30
ENDBRANCH  28  29
ENDBRANCH   1  28
TORSDOF 23
ENDMDL
