MODEL 1
REMARK VINA RESULT:      -7.0      0.000      0.000
REMARK SMILES CCC(CC)(NC(=O)N[C@H](C)C1CC1)C(=O)OCCOCCOCCOC(=O)c1ccc(-c2c3nc(c(-c4c(F)cc(S(=O)(=O)[O-])cc4F)c4ccc([nH]4)c(-c4c(F)cc(S(=O)(=O)[O-])cc4F)c4nc(c(-c5c(F)cc(S(=O)(=O)[O-])cc5F)c5ccc2[nH]5)C=C4)C=C3)cc1
REMARK SMILES IDX 21 1 20 2 19 3 18 4 17 5 15 6 16 7 3 8 2 9 1 10 4 11 5 12
REMARK SMILES IDX 6 13 7 14 8 16 9 17 10 19 11 20 12 21 13 22 14 23 22 24
REMARK SMILES IDX 23 25 24 26 25 27 26 28 27 29 28 30 29 31 30 32 94 33 31 34
REMARK SMILES IDX 93 35 32 36 33 37 34 38 87 39 35 40 92 41 86 42 88 43 36 44
REMARK SMILES IDX 91 45 85 46 84 47 37 49 71 50 50 51 70 52 51 53 54 54 69 55
REMARK SMILES IDX 89 56 52 57 53 58 68 60 90 61 55 62 38 63 39 64 48 65 40 66
REMARK SMILES IDX 41 67 47 68 49 69 42 70 43 71 44 72 45 73 46 74 72 75 73 76
REMARK SMILES IDX 82 77 74 78 75 79 81 80 83 81 76 82 77 83 78 84 79 85 80 86
REMARK SMILES IDX 56 87 57 88 66 89 58 90 59 91 65 92 67 93 60 94 61 95 62 96
REMARK SMILES IDX 63 97 64 98
REMARK H PARENT 6 15 9 18 88 48 54 59
REMARK Flexibility Score: inf
ROOT
ATOM      1  C   UNL A   1      39.745  31.114  34.906  1.00  0.00     0.188 C 
ENDROOT
BRANCH   1   2
ATOM      2  O   UNL A   1      40.567  30.371  35.836  1.00  0.00    -0.376 OA
BRANCH   2   3
ATOM      3  C   UNL A   1      41.540  29.440  35.316  1.00  0.00     0.202 C 
BRANCH   3   4
ATOM      4  C   UNL A   1      41.883  28.219  36.259  1.00  0.00     0.261 C 
BRANCH   4   5
ATOM      5  O   UNL A   1      43.211  27.688  36.089  1.00  0.00    -0.461 OA
BRANCH   5   6
ATOM      6  C   UNL A   1      44.003  27.941  35.035  1.00  0.00     0.331 C 
ATOM      7  O   UNL A   1      44.740  28.921  34.998  1.00  0.00    -0.249 OA
BRANCH   6   8
ATOM      8  C   UNL A   1      44.053  26.711  34.003  1.00  0.00     0.139 C 
BRANCH   8   9
ATOM      9  C   UNL A   1      43.694  27.248  32.541  1.00  0.00     0.037 C 
ATOM     10  C   UNL A   1      42.210  27.556  32.304  1.00  0.00     0.007 C 
ENDBRANCH   8   9
BRANCH   8  11
ATOM     11  C   UNL A   1      42.841  25.789  34.467  1.00  0.00     0.037 C 
ATOM     12  C   UNL A   1      43.192  24.442  35.109  1.00  0.00     0.007 C 
ENDBRANCH   8  11
BRANCH   8  13
ATOM     13  N   UNL A   1      45.306  25.704  34.034  1.00  0.00    -0.322 N 
ATOM     14  C   UNL A   1      46.508  25.261  33.593  1.00  0.00     0.315 C 
ATOM     15  H   UNL A   1      45.080  25.076  34.758  1.00  0.00     0.166 HD
ATOM     16  O   UNL A   1      46.883  24.184  34.076  1.00  0.00    -0.249 OA
ATOM     17  N   UNL A   1      47.360  25.843  32.706  1.00  0.00    -0.335 N 
ATOM     18  H   UNL A   1      48.279  25.492  32.663  1.00  0.00     0.165 HD
BRANCH  17  19
ATOM     19  C   UNL A   1      47.026  26.920  31.835  1.00  0.00     0.083 C 
ATOM     20  C   UNL A   1      47.293  26.378  30.444  1.00  0.00     0.031 C 
BRANCH  19  21
ATOM     21  C   UNL A   1      47.130  28.421  32.134  1.00  0.00     0.011 C 
ATOM     22  C   UNL A   1      47.760  29.502  31.296  1.00  0.00     0.006 C 
ATOM     23  C   UNL A   1      46.355  29.691  31.783  1.00  0.00     0.006 C 
ENDBRANCH  19  21
ENDBRANCH  17  19
ENDBRANCH   8  13
ENDBRANCH   6   8
ENDBRANCH   5   6
ENDBRANCH   4   5
ENDBRANCH   3   4
ENDBRANCH   2   3
ENDBRANCH   1   2
BRANCH   1  24
ATOM     24  C   UNL A   1      38.087  31.013  34.869  1.00  0.00     0.188 C 
BRANCH  24  25
ATOM     25  O   UNL A   1      37.130  32.067  34.698  1.00  0.00    -0.376 OA
BRANCH  25  26
ATOM     26  C   UNL A   1      36.501  32.580  33.518  1.00  0.00     0.202 C 
BRANCH  26  27
ATOM     27  C   UNL A   1      35.924  31.609  32.475  1.00  0.00     0.261 C 
BRANCH  27  28
ATOM     28  O   UNL A   1      36.758  31.469  31.331  1.00  0.00    -0.460 OA
BRANCH  28  29
ATOM     29  C   UNL A   1      37.011  30.160  31.046  1.00  0.00     0.338 C 
ATOM     30  O   UNL A   1      36.207  29.274  31.012  1.00  0.00    -0.246 OA
BRANCH  29  31
ATOM     31  C   UNL A   1      38.382  30.127  30.478  1.00  0.00     0.060 A 
ATOM     32  C   UNL A   1      38.511  29.997  29.091  1.00  0.00     0.016 A 
ATOM     33  C   UNL A   1      39.502  30.348  31.293  1.00  0.00     0.016 A 
ATOM     34  C   UNL A   1      39.779  29.971  28.526  1.00  0.00     0.010 A 
ATOM     35  C   UNL A   1      40.767  30.346  30.730  1.00  0.00     0.010 A 
ATOM     36  C   UNL A   1      40.900  30.069  29.361  1.00  0.00    -0.014 A 
BRANCH  36  37
ATOM     37  C   UNL A   1      42.170  29.475  28.914  1.00  0.00     0.031 A 
ATOM     38  C   UNL A   1      43.344  30.412  28.830  1.00  0.00     0.074 A 
ATOM     39  C   UNL A   1      42.271  28.179  28.594  1.00  0.00     0.049 A 
ATOM     40  N   UNL A   1      44.561  30.185  28.420  1.00  0.00    -0.248 NA
ATOM     41  C   UNL A   1      43.104  31.807  29.251  1.00  0.00     0.031 C 
ATOM     42  C   UNL A   1      41.193  27.194  28.669  1.00  0.00     0.029 A 
ATOM     43  N   UNL A   1      43.348  27.474  28.129  1.00  0.00    -0.354 N 
ATOM     44  C   UNL A   1      45.222  31.401  28.537  1.00  0.00     0.074 A 
ATOM     45  C   UNL A   1      44.267  32.378  28.998  1.00  0.00     0.031 C 
ATOM     46  C   UNL A   1      41.667  26.005  28.253  1.00  0.00     0.029 A 
ATOM     47  C   UNL A   1      43.069  26.158  27.865  1.00  0.00     0.049 A 
ATOM     48  H   UNL A   1      44.237  27.874  27.998  1.00  0.00     0.167 HD
ATOM     49  C   UNL A   1      46.523  31.677  28.299  1.00  0.00     0.037 A 
ATOM     50  C   UNL A   1      43.867  25.202  27.355  1.00  0.00     0.037 A 
ATOM     51  C   UNL A   1      47.459  30.698  27.833  1.00  0.00     0.049 A 
ATOM     52  C   UNL A   1      45.299  25.546  27.030  1.00  0.00     0.074 A 
ATOM     53  C   UNL A   1      48.804  30.854  27.561  1.00  0.00     0.029 A 
ATOM     54  N   UNL A   1      47.138  29.376  27.558  1.00  0.00    -0.354 N 
ATOM     55  N   UNL A   1      45.929  26.689  27.177  1.00  0.00    -0.248 NA
ATOM     56  C   UNL A   1      46.130  24.469  26.474  1.00  0.00     0.031 C 
ATOM     57  C   UNL A   1      49.287  29.635  27.074  1.00  0.00     0.029 A 
ATOM     58  C   UNL A   1      48.255  28.708  27.094  1.00  0.00     0.049 A 
ATOM     59  H   UNL A   1      46.247  28.974  27.676  1.00  0.00     0.167 HD
ATOM     60  C   UNL A   1      47.238  26.460  26.761  1.00  0.00     0.074 A 
ATOM     61  C   UNL A   1      47.308  25.069  26.363  1.00  0.00     0.031 C 
ATOM     62  C   UNL A   1      48.290  27.317  26.715  1.00  0.00     0.037 A 
BRANCH  49  63
ATOM     63  C   UNL A   1      46.972  33.091  28.516  1.00  0.00     0.058 A 
ATOM     64  C   UNL A   1      47.068  34.007  27.455  1.00  0.00     0.135 A 
ATOM     65  C   UNL A   1      47.344  33.528  29.797  1.00  0.00     0.135 A 
ATOM     66  F   UNL A   1      46.759  33.629  26.204  1.00  0.00    -0.206 F 
ATOM     67  C   UNL A   1      47.547  35.297  27.651  1.00  0.00     0.059 A 
ATOM     68  C   UNL A   1      47.798  34.823  30.020  1.00  0.00     0.059 A 
ATOM     69  F   UNL A   1      47.289  32.686  30.840  1.00  0.00    -0.206 F 
ATOM     70  C   UNL A   1      47.912  35.695  28.938  1.00  0.00     0.060 A 
BRANCH  70  71
ATOM     71  S   UNL A   1      48.539  37.370  29.179  1.00  0.00     0.124 S 
ATOM     72  O   UNL A   1      49.913  37.237  28.703  1.00  0.00    -0.237 OA
ATOM     73  O   UNL A   1      47.650  38.160  28.333  1.00  0.00    -0.237 OA
ATOM     74  O   UNL A   1      48.391  37.585  30.614  1.00  0.00    -0.744 OA
ENDBRANCH  70  71
ENDBRANCH  49  63
BRANCH  50  75
ATOM     75  C   UNL A   1      43.334  23.833  27.129  1.00  0.00     0.058 A 
ATOM     76  C   UNL A   1      42.989  23.397  25.841  1.00  0.00     0.135 A 
ATOM     77  C   UNL A   1      43.162  22.934  28.193  1.00  0.00     0.135 A 
ATOM     78  F   UNL A   1      43.129  24.223  24.794  1.00  0.00    -0.206 F 
ATOM     79  C   UNL A   1      42.475  22.123  25.618  1.00  0.00     0.059 A 
ATOM     80  C   UNL A   1      42.672  21.648  27.990  1.00  0.00     0.059 A 
ATOM     81  F   UNL A   1      43.492  23.299  29.442  1.00  0.00    -0.206 F 
ATOM     82  C   UNL A   1      42.322  21.256  26.700  1.00  0.00     0.060 A 
BRANCH  82  83
ATOM     83  S   UNL A   1      41.695  19.590  26.392  1.00  0.00     0.124 S 
ATOM     84  O   UNL A   1      42.434  19.216  25.192  1.00  0.00    -0.237 OA
ATOM     85  O   UNL A   1      42.069  18.892  27.618  1.00  0.00    -0.237 OA
ATOM     86  O   UNL A   1      40.261  19.800  26.212  1.00  0.00    -0.744 OA
ENDBRANCH  82  83
ENDBRANCH  50  75
BRANCH  62  87
ATOM     87  C   UNL A   1      49.612  26.771  26.253  1.00  0.00     0.058 A 
ATOM     88  C   UNL A   1      50.046  26.917  24.928  1.00  0.00     0.135 A 
ATOM     89  C   UNL A   1      50.486  26.168  27.171  1.00  0.00     0.135 A 
ATOM     90  F   UNL A   1      49.246  27.485  24.012  1.00  0.00    -0.206 F 
ATOM     91  C   UNL A   1      51.298  26.465  24.523  1.00  0.00     0.059 A 
ATOM     92  C   UNL A   1      51.753  25.736  26.796  1.00  0.00     0.059 A 
ATOM     93  F   UNL A   1      50.124  26.021  28.456  1.00  0.00    -0.206 F 
ATOM     94  C   UNL A   1      52.146  25.880  25.466  1.00  0.00     0.060 A 
BRANCH  94  95
ATOM     95  S   UNL A   1      53.783  25.338  24.937  1.00  0.00     0.124 S 
ATOM     96  O   UNL A   1      53.943  26.068  23.684  1.00  0.00    -0.237 OA
ATOM     97  O   UNL A   1      54.631  25.779  26.042  1.00  0.00    -0.237 OA
ATOM     98  O   UNL A   1      53.638  23.891  24.808  1.00  0.00    -0.744 OA
ENDBRANCH  94  95
ENDBRANCH  62  87
ENDBRANCH  36  37
ENDBRANCH  29  31
ENDBRANCH  28  29
ENDBRANCH  27  28
ENDBRANCH  26  27
ENDBRANCH  25  26
ENDBRANCH  24  25
ENDBRANCH   1  24
TORSDOF 25
ENDMDL
MODEL 2
REMARK VINA RESULT:      -6.8      7.665     14.895
REMARK SMILES CCC(CC)(NC(=O)N[C@H](C)C1CC1)C(=O)OCCOCCOCCOC(=O)c1ccc(-c2c3nc(c(-c4c(F)cc(S(=O)(=O)[O-])cc4F)c4ccc([nH]4)c(-c4c(F)cc(S(=O)(=O)[O-])cc4F)c4nc(c(-c5c(F)cc(S(=O)(=O)[O-])cc5F)c5ccc2[nH]5)C=C4)C=C3)cc1
REMARK SMILES IDX 21 1 20 2 19 3 18 4 17 5 15 6 16 7 3 8 2 9 1 10 4 11 5 12
REMARK SMILES IDX 6 13 7 14 8 16 9 17 10 19 11 20 12 21 13 22 14 23 22 24
REMARK SMILES IDX 23 25 24 26 25 27 26 28 27 29 28 30 29 31 30 32 94 33 31 34
REMARK SMILES IDX 93 35 32 36 33 37 34 38 87 39 35 40 92 41 86 42 88 43 36 44
REMARK SMILES IDX 91 45 85 46 84 47 37 49 71 50 50 51 70 52 51 53 54 54 69 55
REMARK SMILES IDX 89 56 52 57 53 58 68 60 90 61 55 62 38 63 39 64 48 65 40 66
REMARK SMILES IDX 41 67 47 68 49 69 42 70 43 71 44 72 45 73 46 74 72 75 73 76
REMARK SMILES IDX 82 77 74 78 75 79 81 80 83 81 76 82 77 83 78 84 79 85 80 86
REMARK SMILES IDX 56 87 57 88 66 89 58 90 59 91 65 92 67 93 60 94 61 95 62 96
REMARK SMILES IDX 63 97 64 98
REMARK H PARENT 6 15 9 18 88 48 54 59
REMARK Flexibility Score: inf
ROOT
ATOM      1  C   UNL A   1      33.189  31.044  27.251  1.00  0.00     0.188 C 
ENDROOT
BRANCH   1   2
ATOM      2  O   UNL A   1      33.257  29.756  26.594  1.00  0.00    -0.376 OA
BRANCH   2   3
ATOM      3  C   UNL A   1      32.690  28.606  27.258  1.00  0.00     0.202 C 
BRANCH   3   4
ATOM      4  C   UNL A   1      31.349  28.053  26.631  1.00  0.00     0.261 C 
BRANCH   4   5
ATOM      5  O   UNL A   1      31.142  26.639  26.817  1.00  0.00    -0.461 OA
BRANCH   5   6
ATOM      6  C   UNL A   1      30.723  25.798  25.859  1.00  0.00     0.331 C 
ATOM      7  O   UNL A   1      29.727  26.031  25.183  1.00  0.00    -0.249 OA
BRANCH   6   8
ATOM      8  C   UNL A   1      31.798  24.645  25.549  1.00  0.00     0.139 C 
BRANCH   8   9
ATOM      9  C   UNL A   1      32.976  25.260  24.662  1.00  0.00     0.037 C 
ATOM     10  C   UNL A   1      34.160  25.831  25.454  1.00  0.00     0.007 C 
ENDBRANCH   8   9
BRANCH   8  11
ATOM     11  C   UNL A   1      30.997  23.633  24.618  1.00  0.00     0.037 C 
ATOM     12  C   UNL A   1      31.548  23.392  23.207  1.00  0.00     0.007 C 
ENDBRANCH   8  11
BRANCH   8  13
ATOM     13  N   UNL A   1      32.313  23.703  26.747  1.00  0.00    -0.322 N 
ATOM     14  C   UNL A   1      33.094  22.721  27.257  1.00  0.00     0.315 C 
ATOM     15  H   UNL A   1      31.775  23.995  27.518  1.00  0.00     0.166 HD
ATOM     16  O   UNL A   1      32.825  22.382  28.417  1.00  0.00    -0.249 OA
ATOM     17  N   UNL A   1      34.138  22.069  26.676  1.00  0.00    -0.335 N 
ATOM     18  H   UNL A   1      34.724  21.538  27.262  1.00  0.00     0.165 HD
BRANCH  17  19
ATOM     19  C   UNL A   1      34.447  22.096  25.285  1.00  0.00     0.083 C 
ATOM     20  C   UNL A   1      33.782  20.852  24.726  1.00  0.00     0.031 C 
BRANCH  19  21
ATOM     21  C   UNL A   1      35.696  22.691  24.624  1.00  0.00     0.011 C 
ATOM     22  C   UNL A   1      36.945  21.982  24.171  1.00  0.00     0.006 C 
ATOM     23  C   UNL A   1      36.232  22.880  23.205  1.00  0.00     0.006 C 
ENDBRANCH  19  21
ENDBRANCH  17  19
ENDBRANCH   8  13
ENDBRANCH   6   8
ENDBRANCH   5   6
ENDBRANCH   4   5
ENDBRANCH   3   4
ENDBRANCH   2   3
ENDBRANCH   1   2
BRANCH   1  24
ATOM     24  C   UNL A   1      34.493  31.763  27.988  1.00  0.00     0.188 C 
BRANCH  24  25
ATOM     25  O   UNL A   1      34.622  32.202  29.347  1.00  0.00    -0.376 OA
BRANCH  25  26
ATOM     26  C   UNL A   1      35.277  33.347  29.903  1.00  0.00     0.202 C 
BRANCH  26  27
ATOM     27  C   UNL A   1      34.537  34.235  30.916  1.00  0.00     0.261 C 
BRANCH  27  28
ATOM     28  O   UNL A   1      34.847  33.909  32.266  1.00  0.00    -0.460 OA
BRANCH  28  29
ATOM     29  C   UNL A   1      35.449  34.948  32.912  1.00  0.00     0.338 C 
ATOM     30  O   UNL A   1      34.973  36.029  33.113  1.00  0.00    -0.246 OA
BRANCH  29  31
ATOM     31  C   UNL A   1      36.640  34.372  33.585  1.00  0.00     0.060 A 
ATOM     32  C   UNL A   1      36.427  33.548  34.697  1.00  0.00     0.016 A 
ATOM     33  C   UNL A   1      37.922  34.544  33.045  1.00  0.00     0.016 A 
ATOM     34  C   UNL A   1      37.518  32.986  35.345  1.00  0.00     0.010 A 
ATOM     35  C   UNL A   1      39.011  33.965  33.675  1.00  0.00     0.010 A 
ATOM     36  C   UNL A   1      38.808  33.263  34.872  1.00  0.00    -0.014 A 
BRANCH  36  37
ATOM     37  C   UNL A   1      39.937  33.199  35.815  1.00  0.00     0.031 A 
ATOM     38  C   UNL A   1      40.791  31.963  35.740  1.00  0.00     0.074 A 
ATOM     39  C   UNL A   1      40.182  34.180  36.693  1.00  0.00     0.049 A 
ATOM     40  N   UNL A   1      41.808  31.610  36.475  1.00  0.00    -0.248 NA
ATOM     41  C   UNL A   1      40.433  30.978  34.699  1.00  0.00     0.031 C 
ATOM     42  C   UNL A   1      39.421  35.422  36.819  1.00  0.00     0.029 A 
ATOM     43  N   UNL A   1      41.149  34.270  37.656  1.00  0.00    -0.354 N 
ATOM     44  C   UNL A   1      42.207  30.373  35.984  1.00  0.00     0.074 A 
ATOM     45  C   UNL A   1      41.293  30.004  34.931  1.00  0.00     0.031 C 
ATOM     46  C   UNL A   1      39.953  36.152  37.817  1.00  0.00     0.029 A 
ATOM     47  C   UNL A   1      41.070  35.414  38.407  1.00  0.00     0.049 A 
ATOM     48  H   UNL A   1      41.836  33.579  37.795  1.00  0.00     0.167 HD
ATOM     49  C   UNL A   1      43.258  29.616  36.365  1.00  0.00     0.037 A 
ATOM     50  C   UNL A   1      41.818  35.800  39.457  1.00  0.00     0.037 A 
ATOM     51  C   UNL A   1      44.153  29.991  37.420  1.00  0.00     0.049 A 
ATOM     52  C   UNL A   1      42.946  34.908  39.914  1.00  0.00     0.074 A 
ATOM     53  C   UNL A   1      45.257  29.312  37.894  1.00  0.00     0.029 A 
ATOM     54  N   UNL A   1      44.032  31.151  38.173  1.00  0.00    -0.354 N 
ATOM     55  N   UNL A   1      43.341  33.756  39.422  1.00  0.00    -0.248 NA
ATOM     56  C   UNL A   1      43.732  35.371  41.065  1.00  0.00     0.031 C 
ATOM     57  C   UNL A   1      45.779  30.039  38.969  1.00  0.00     0.029 A 
ATOM     58  C   UNL A   1      45.029  31.196  39.128  1.00  0.00     0.049 A 
ATOM     59  H   UNL A   1      43.340  31.839  38.045  1.00  0.00     0.167 HD
ATOM     60  C   UNL A   1      44.441  33.372  40.184  1.00  0.00     0.074 A 
ATOM     61  C   UNL A   1      44.650  34.419  41.165  1.00  0.00     0.031 C 
ATOM     62  C   UNL A   1      45.213  32.261  40.083  1.00  0.00     0.037 A 
BRANCH  49  63
ATOM     63  C   UNL A   1      43.456  28.313  35.651  1.00  0.00     0.058 A 
ATOM     64  C   UNL A   1      42.917  27.112  36.141  1.00  0.00     0.135 A 
ATOM     65  C   UNL A   1      44.225  28.258  34.478  1.00  0.00     0.135 A 
ATOM     66  F   UNL A   1      42.205  27.104  37.279  1.00  0.00    -0.206 F 
ATOM     67  C   UNL A   1      43.159  25.896  35.510  1.00  0.00     0.059 A 
ATOM     68  C   UNL A   1      44.455  27.057  33.815  1.00  0.00     0.059 A 
ATOM     69  F   UNL A   1      44.778  29.374  33.979  1.00  0.00    -0.206 F 
ATOM     70  C   UNL A   1      43.931  25.880  34.348  1.00  0.00     0.060 A 
BRANCH  70  71
ATOM     71  S   UNL A   1      44.244  24.296  33.542  1.00  0.00     0.124 S 
ATOM     72  O   UNL A   1      44.268  24.685  32.135  1.00  0.00    -0.237 OA
ATOM     73  O   UNL A   1      45.529  23.904  34.113  1.00  0.00    -0.237 OA
ATOM     74  O   UNL A   1      43.105  23.478  33.947  1.00  0.00    -0.744 OA
ENDBRANCH  70  71
ENDBRANCH  49  63
BRANCH  50  75
ATOM     75  C   UNL A   1      41.531  37.088  40.140  1.00  0.00     0.058 A 
ATOM     76  C   UNL A   1      42.139  38.280  39.719  1.00  0.00     0.135 A 
ATOM     77  C   UNL A   1      40.642  37.154  41.225  1.00  0.00     0.135 A 
ATOM     78  F   UNL A   1      43.001  38.266  38.692  1.00  0.00    -0.206 F 
ATOM     79  C   UNL A   1      41.890  39.490  40.360  1.00  0.00     0.059 A 
ATOM     80  C   UNL A   1      40.360  38.356  41.866  1.00  0.00     0.059 A 
ATOM     81  F   UNL A   1      40.024  36.043  41.656  1.00  0.00    -0.206 F 
ATOM     82  C   UNL A   1      40.997  39.517  41.432  1.00  0.00     0.060 A 
BRANCH  82  83
ATOM     83  S   UNL A   1      40.648  41.100  42.228  1.00  0.00     0.124 S 
ATOM     84  O   UNL A   1      39.444  41.523  41.524  1.00  0.00    -0.237 OA
ATOM     85  O   UNL A   1      40.470  40.707  43.623  1.00  0.00    -0.237 OA
ATOM     86  O   UNL A   1      41.850  41.884  41.954  1.00  0.00    -0.744 OA
ENDBRANCH  82  83
ENDBRANCH  50  75
BRANCH  62  87
ATOM     87  C   UNL A   1      46.374  32.132  41.030  1.00  0.00     0.058 A 
ATOM     88  C   UNL A   1      46.256  31.454  42.251  1.00  0.00     0.135 A 
ATOM     89  C   UNL A   1      47.638  32.624  40.667  1.00  0.00     0.135 A 
ATOM     90  F   UNL A   1      45.068  30.967  42.644  1.00  0.00    -0.206 F 
ATOM     91  C   UNL A   1      47.351  31.285  43.094  1.00  0.00     0.059 A 
ATOM     92  C   UNL A   1      48.752  32.440  41.479  1.00  0.00     0.059 A 
ATOM     93  F   UNL A   1      47.806  33.265  39.500  1.00  0.00    -0.206 F 
ATOM     94  C   UNL A   1      48.596  31.778  42.695  1.00  0.00     0.060 A 
BRANCH  94  95
ATOM     95  S   UNL A   1      50.016  31.512  43.776  1.00  0.00     0.124 S 
ATOM     96  O   UNL A   1      51.103  31.400  42.809  1.00  0.00    -0.237 OA
ATOM     97  O   UNL A   1      50.016  32.721  44.594  1.00  0.00    -0.237 OA
ATOM     98  O   UNL A   1      49.677  30.283  44.487  1.00  0.00    -0.744 OA
ENDBRANCH  94  95
ENDBRANCH  62  87
ENDBRANCH  36  37
ENDBRANCH  29  31
ENDBRANCH  28  29
ENDBRANCH  27  28
ENDBRANCH  26  27
ENDBRANCH  25  26
ENDBRANCH  24  25
ENDBRANCH   1  24
TORSDOF 25
ENDMDL
MODEL 3
REMARK VINA RESULT:      -6.8      6.014     11.691
REMARK SMILES CCC(CC)(NC(=O)N[C@H](C)C1CC1)C(=O)OCCOCCOCCOC(=O)c1ccc(-c2c3nc(c(-c4c(F)cc(S(=O)(=O)[O-])cc4F)c4ccc([nH]4)c(-c4c(F)cc(S(=O)(=O)[O-])cc4F)c4nc(c(-c5c(F)cc(S(=O)(=O)[O-])cc5F)c5ccc2[nH]5)C=C4)C=C3)cc1
REMARK SMILES IDX 21 1 20 2 19 3 18 4 17 5 15 6 16 7 3 8 2 9 1 10 4 11 5 12
REMARK SMILES IDX 6 13 7 14 8 16 9 17 10 19 11 20 12 21 13 22 14 23 22 24
REMARK SMILES IDX 23 25 24 26 25 27 26 28 27 29 28 30 29 31 30 32 94 33 31 34
REMARK SMILES IDX 93 35 32 36 33 37 34 38 87 39 35 40 92 41 86 42 88 43 36 44
REMARK SMILES IDX 91 45 85 46 84 47 37 49 71 50 50 51 70 52 51 53 54 54 69 55
REMARK SMILES IDX 89 56 52 57 53 58 68 60 90 61 55 62 38 63 39 64 48 65 40 66
REMARK SMILES IDX 41 67 47 68 49 69 42 70 43 71 44 72 45 73 46 74 72 75 73 76
REMARK SMILES IDX 82 77 74 78 75 79 81 80 83 81 76 82 77 83 78 84 79 85 80 86
REMARK SMILES IDX 56 87 57 88 66 89 58 90 59 91 65 92 67 93 60 94 61 95 62 96
REMARK SMILES IDX 63 97 64 98
REMARK H PARENT 6 15 9 18 88 48 54 59
REMARK Flexibility Score: inf
ROOT
ATOM      1  C   UNL A   1      35.870  21.759  26.082  1.00  0.00     0.188 C 
ENDROOT
BRANCH   1   2
ATOM      2  O   UNL A   1      34.645  22.095  25.390  1.00  0.00    -0.376 OA
BRANCH   2   3
ATOM      3  C   UNL A   1      34.352  21.443  24.135  1.00  0.00     0.202 C 
BRANCH   3   4
ATOM      4  C   UNL A   1      32.823  21.383  23.741  1.00  0.00     0.261 C 
BRANCH   4   5
ATOM      5  O   UNL A   1      32.309  22.597  23.161  1.00  0.00    -0.461 OA
BRANCH   5   6
ATOM      6  C   UNL A   1      33.069  23.593  22.681  1.00  0.00     0.331 C 
ATOM      7  O   UNL A   1      33.666  23.497  21.614  1.00  0.00    -0.249 OA
BRANCH   6   8
ATOM      8  C   UNL A   1      32.884  24.956  23.514  1.00  0.00     0.139 C 
BRANCH   8   9
ATOM      9  C   UNL A   1      32.714  26.169  22.488  1.00  0.00     0.037 C 
ATOM     10  C   UNL A   1      31.664  25.954  21.390  1.00  0.00     0.007 C 
ENDBRANCH   8   9
BRANCH   8  11
ATOM     11  C   UNL A   1      34.294  25.147  24.227  1.00  0.00     0.037 C 
ATOM     12  C   UNL A   1      34.289  25.732  25.645  1.00  0.00     0.007 C 
ENDBRANCH   8  11
BRANCH   8  13
ATOM     13  N   UNL A   1      31.849  24.995  24.743  1.00  0.00    -0.322 N 
ATOM     14  C   UNL A   1      30.943  25.616  25.537  1.00  0.00     0.315 C 
ATOM     15  H   UNL A   1      31.900  24.086  25.118  1.00  0.00     0.166 HD
ATOM     16  O   UNL A   1      30.580  24.970  26.529  1.00  0.00    -0.249 OA
ATOM     17  N   UNL A   1      30.371  26.841  25.386  1.00  0.00    -0.335 N 
ATOM     18  H   UNL A   1      29.581  27.045  25.936  1.00  0.00     0.165 HD
BRANCH  17  19
ATOM     19  C   UNL A   1      30.829  27.853  24.492  1.00  0.00     0.083 C 
ATOM     20  C   UNL A   1      31.933  28.560  25.255  1.00  0.00     0.031 C 
BRANCH  19  21
ATOM     21  C   UNL A   1      30.008  28.589  23.425  1.00  0.00     0.011 C 
ATOM     22  C   UNL A   1      29.581  30.033  23.402  1.00  0.00     0.006 C 
ATOM     23  C   UNL A   1      30.285  29.467  22.205  1.00  0.00     0.006 C 
ENDBRANCH  19  21
ENDBRANCH  17  19
ENDBRANCH   8  13
ENDBRANCH   6   8
ENDBRANCH   5   6
ENDBRANCH   4   5
ENDBRANCH   3   4
ENDBRANCH   2   3
ENDBRANCH   1   2
BRANCH   1  24
ATOM     24  C   UNL A   1      37.208  21.134  25.321  1.00  0.00     0.188 C 
BRANCH  24  25
ATOM     25  O   UNL A   1      38.592  21.407  25.577  1.00  0.00    -0.376 OA
BRANCH  25  26
ATOM     26  C   UNL A   1      39.689  20.524  25.836  1.00  0.00     0.202 C 
BRANCH  26  27
ATOM     27  C   UNL A   1      41.062  21.100  26.216  1.00  0.00     0.261 C 
BRANCH  27  28
ATOM     28  O   UNL A   1      41.188  22.481  25.896  1.00  0.00    -0.460 OA
BRANCH  28  29
ATOM     29  C   UNL A   1      42.490  22.845  25.726  1.00  0.00     0.338 C 
ATOM     30  O   UNL A   1      43.057  22.986  24.680  1.00  0.00    -0.246 OA
BRANCH  29  31
ATOM     31  C   UNL A   1      42.949  23.338  27.049  1.00  0.00     0.060 A 
ATOM     32  C   UNL A   1      41.988  23.866  27.918  1.00  0.00     0.016 A 
ATOM     33  C   UNL A   1      44.278  23.160  27.459  1.00  0.00     0.016 A 
ATOM     34  C   UNL A   1      42.382  24.329  29.166  1.00  0.00     0.010 A 
ATOM     35  C   UNL A   1      44.670  23.598  28.713  1.00  0.00     0.010 A 
ATOM     36  C   UNL A   1      43.735  24.260  29.522  1.00  0.00    -0.014 A 
BRANCH  36  37
ATOM     37  C   UNL A   1      44.258  25.222  30.506  1.00  0.00     0.031 A 
ATOM     38  C   UNL A   1      44.455  26.630  30.014  1.00  0.00     0.074 A 
ATOM     39  C   UNL A   1      44.548  24.861  31.763  1.00  0.00     0.049 A 
ATOM     40  N   UNL A   1      44.948  27.666  30.634  1.00  0.00    -0.248 NA
ATOM     41  C   UNL A   1      44.058  26.900  28.618  1.00  0.00     0.031 C 
ATOM     42  C   UNL A   1      44.365  23.527  32.332  1.00  0.00     0.029 A 
ATOM     43  N   UNL A   1      45.070  25.603  32.787  1.00  0.00    -0.354 N 
ATOM     44  C   UNL A   1      44.915  28.700  29.708  1.00  0.00     0.074 A 
ATOM     45  C   UNL A   1      44.413  28.163  28.467  1.00  0.00     0.031 C 
ATOM     46  C   UNL A   1      44.780  23.545  33.612  1.00  0.00     0.029 A 
ATOM     47  C   UNL A   1      45.276  24.883  33.936  1.00  0.00     0.049 A 
ATOM     48  H   UNL A   1      45.279  26.562  32.707  1.00  0.00     0.167 HD
ATOM     49  C   UNL A   1      45.257  29.996  29.882  1.00  0.00     0.037 A 
ATOM     50  C   UNL A   1      45.815  25.275  35.104  1.00  0.00     0.037 A 
ATOM     51  C   UNL A   1      45.763  30.514  31.117  1.00  0.00     0.049 A 
ATOM     52  C   UNL A   1      46.256  26.710  35.257  1.00  0.00     0.074 A 
ATOM     53  C   UNL A   1      46.137  31.808  31.419  1.00  0.00     0.029 A 
ATOM     54  N   UNL A   1      45.975  29.751  32.258  1.00  0.00    -0.354 N 
ATOM     55  N   UNL A   1      46.189  27.693  34.389  1.00  0.00    -0.248 NA
ATOM     56  C   UNL A   1      46.840  27.089  36.551  1.00  0.00     0.031 C 
ATOM     57  C   UNL A   1      46.624  31.819  32.730  1.00  0.00     0.029 A 
ATOM     58  C   UNL A   1      46.501  30.543  33.260  1.00  0.00     0.049 A 
ATOM     59  H   UNL A   1      45.780  28.790  32.339  1.00  0.00     0.167 HD
ATOM     60  C   UNL A   1      46.693  28.815  35.042  1.00  0.00     0.074 A 
ATOM     61  C   UNL A   1      47.056  28.387  36.379  1.00  0.00     0.031 C 
ATOM     62  C   UNL A   1      46.841  30.084  34.585  1.00  0.00     0.037 A 
BRANCH  49  63
ATOM     63  C   UNL A   1      45.114  30.904  28.697  1.00  0.00     0.058 A 
ATOM     64  C   UNL A   1      46.109  30.993  27.709  1.00  0.00     0.135 A 
ATOM     65  C   UNL A   1      43.983  31.724  28.565  1.00  0.00     0.135 A 
ATOM     66  F   UNL A   1      47.229  30.257  27.808  1.00  0.00    -0.206 F 
ATOM     67  C   UNL A   1      46.002  31.884  26.648  1.00  0.00     0.059 A 
ATOM     68  C   UNL A   1      43.842  32.601  27.495  1.00  0.00     0.059 A 
ATOM     69  F   UNL A   1      43.012  31.691  29.491  1.00  0.00    -0.206 F 
ATOM     70  C   UNL A   1      44.864  32.686  26.552  1.00  0.00     0.060 A 
BRANCH  70  71
ATOM     71  S   UNL A   1      44.739  33.845  25.174  1.00  0.00     0.124 S 
ATOM     72  O   UNL A   1      43.792  34.823  25.701  1.00  0.00    -0.237 OA
ATOM     73  O   UNL A   1      46.116  34.309  25.031  1.00  0.00    -0.237 OA
ATOM     74  O   UNL A   1      44.243  33.018  24.079  1.00  0.00    -0.744 OA
ENDBRANCH  70  71
ENDBRANCH  49  63
BRANCH  50  75
ATOM     75  C   UNL A   1      45.962  24.303  36.218  1.00  0.00     0.058 A 
ATOM     76  C   UNL A   1      47.025  23.388  36.241  1.00  0.00     0.135 A 
ATOM     77  C   UNL A   1      45.046  24.269  37.281  1.00  0.00     0.135 A 
ATOM     78  F   UNL A   1      47.922  23.376  35.244  1.00  0.00    -0.206 F 
ATOM     79  C   UNL A   1      47.166  22.462  37.271  1.00  0.00     0.059 A 
ATOM     80  C   UNL A   1      45.180  23.368  38.332  1.00  0.00     0.059 A 
ATOM     81  F   UNL A   1      44.020  25.134  37.312  1.00  0.00    -0.206 F 
ATOM     82  C   UNL A   1      46.238  22.462  38.312  1.00  0.00     0.060 A 
BRANCH  82  83
ATOM     83  S   UNL A   1      46.455  21.284  39.665  1.00  0.00     0.124 S 
ATOM     84  O   UNL A   1      46.181  20.017  38.998  1.00  0.00    -0.237 OA
ATOM     85  O   UNL A   1      47.842  21.517  40.053  1.00  0.00    -0.237 OA
ATOM     86  O   UNL A   1      45.458  21.712  40.644  1.00  0.00    -0.744 OA
ENDBRANCH  82  83
ENDBRANCH  50  75
BRANCH  62  87
ATOM     87  C   UNL A   1      47.385  31.109  35.541  1.00  0.00     0.058 A 
ATOM     88  C   UNL A   1      46.546  31.832  36.400  1.00  0.00     0.135 A 
ATOM     89  C   UNL A   1      48.770  31.306  35.651  1.00  0.00     0.135 A 
ATOM     90  F   UNL A   1      45.213  31.680  36.332  1.00  0.00    -0.206 F 
ATOM     91  C   UNL A   1      47.061  32.733  37.326  1.00  0.00     0.059 A 
ATOM     92  C   UNL A   1      49.310  32.179  36.589  1.00  0.00     0.059 A 
ATOM     93  F   UNL A   1      49.617  30.624  34.863  1.00  0.00    -0.206 F 
ATOM     94  C   UNL A   1      48.446  32.896  37.415  1.00  0.00     0.060 A 
BRANCH  94  95
ATOM     95  S   UNL A   1      49.104  34.035  38.650  1.00  0.00     0.124 S 
ATOM     96  O   UNL A   1      50.102  33.203  39.313  1.00  0.00    -0.237 OA
ATOM     97  O   UNL A   1      49.627  35.121  37.827  1.00  0.00    -0.237 OA
ATOM     98  O   UNL A   1      47.935  34.376  39.456  1.00  0.00    -0.744 OA
ENDBRANCH  94  95
ENDBRANCH  62  87
ENDBRANCH  36  37
ENDBRANCH  29  31
ENDBRANCH  28  29
ENDBRANCH  27  28
ENDBRANCH  26  27
ENDBRANCH  25  26
ENDBRANCH  24  25
ENDBRANCH   1  24
TORSDOF 25
ENDMDL
