MODEL 1
REMARK VINA RESULT:      -7.8      0.000      0.000
REMARK SMILES C=CCOc1cccc(NS(=O)(=O)c2c[nH]c(C(=O)OCCOCCOCCOC(=O)c3ccc(-c4c5nc(c(-c6c(F)cc(S(=O)(=O)[O-])cc6F)c6ccc([nH]6)c(-c6c(F)cc(S(=O)(=O)[O-])cc6F)c6nc(c(-c7c(F)cc(S(=O)(=O)[O-])cc7F)c7ccc4[nH]7)C=C6)C=C5)cc3)c2)c1
REMARK SMILES IDX 23 1 22 2 21 3 20 4 18 5 19 6 17 7 14 8 15 9 98 10 16 11
REMARK SMILES IDX 11 13 12 14 13 15 10 16 9 18 5 19 6 20 99 21 7 22 8 23 4 24
REMARK SMILES IDX 3 25 2 26 1 27 24 28 25 29 26 30 27 31 28 32 29 33 30 34
REMARK SMILES IDX 31 35 32 36 33 37 97 38 34 39 96 40 35 41 36 42 37 43 90 44
REMARK SMILES IDX 38 45 95 46 89 47 91 48 39 49 94 50 88 51 87 52 40 54 74 55
REMARK SMILES IDX 53 56 73 57 54 58 57 59 72 60 92 61 55 62 56 63 71 65 93 66
REMARK SMILES IDX 58 67 41 68 42 69 51 70 43 71 44 72 50 73 52 74 45 75 46 76
REMARK SMILES IDX 47 77 48 78 49 79 75 80 76 81 85 82 77 83 78 84 84 85 86 86
REMARK SMILES IDX 79 87 80 88 81 89 82 90 83 91 59 92 60 93 69 94 61 95 62 96
REMARK SMILES IDX 68 97 70 98 63 99 64 100 65 101 66 102 67 103
REMARK H PARENT 16 12 10 17 91 53 57 64
REMARK Flexibility Score: inf
ROOT
ATOM      1  O   UNL A   1      39.360  29.241  26.936  1.00  0.00    -0.376 OA
ENDROOT
BRANCH   1   2
ATOM      2  C   UNL A   1      40.735  28.930  26.797  1.00  0.00     0.202 C 
BRANCH   2   3
ATOM      3  C   UNL A   1      41.149  27.587  26.167  1.00  0.00     0.261 C 
BRANCH   3   4
ATOM      4  O   UNL A   1      42.087  27.655  25.081  1.00  0.00    -0.459 OA
BRANCH   4   5
ATOM      5  C   UNL A   1      43.398  27.722  25.449  1.00  0.00     0.354 C 
ATOM      6  O   UNL A   1      43.948  28.691  25.925  1.00  0.00    -0.244 OA
BRANCH   5   7
ATOM      7  C   UNL A   1      44.039  26.424  25.317  1.00  0.00     0.126 A 
ATOM      8  C   UNL A   1      44.690  24.255  25.067  1.00  0.00     0.106 A 
ATOM      9  C   UNL A   1      45.816  25.030  25.262  1.00  0.00     0.105 A 
ATOM     10  C   UNL A   1      43.567  25.136  25.108  1.00  0.00     0.057 A 
ATOM     11  N   UNL A   1      45.412  26.325  25.426  1.00  0.00    -0.354 N 
ATOM     12  H   UNL A   1      46.016  27.084  25.598  1.00  0.00     0.166 HD
BRANCH   8  13
ATOM     13  S   UNL A   1      44.676  22.562  24.710  1.00  0.00     0.263 S 
ATOM     14  O   UNL A   1      46.083  22.228  24.622  1.00  0.00    -0.201 OA
ATOM     15  O   UNL A   1      43.826  22.443  23.545  1.00  0.00    -0.201 OA
BRANCH  13  16
ATOM     16  N   UNL A   1      44.026  21.546  25.889  1.00  0.00    -0.279 N 
ATOM     17  H   UNL A   1      44.413  20.645  25.980  1.00  0.00     0.180 HD
BRANCH  16  18
ATOM     18  C   UNL A   1      42.951  21.901  26.765  1.00  0.00     0.052 A 
ATOM     19  C   UNL A   1      40.556  22.271  27.015  1.00  0.00     0.121 A 
ATOM     20  C   UNL A   1      40.784  22.983  28.189  1.00  0.00     0.046 A 
ATOM     21  C   UNL A   1      41.635  21.729  26.308  1.00  0.00     0.073 A 
ATOM     22  C   UNL A   1      42.089  23.184  28.636  1.00  0.00     0.006 A 
ATOM     23  C   UNL A   1      43.166  22.682  27.901  1.00  0.00     0.027 A 
BRANCH  19  24
ATOM     24  O   UNL A   1      39.288  22.330  26.501  1.00  0.00    -0.489 OA
BRANCH  24  25
ATOM     25  C   UNL A   1      38.955  21.313  25.555  1.00  0.00     0.257 C 
BRANCH  25  26
ATOM     26  C   UNL A   1      37.611  21.578  24.942  1.00  0.00     0.006 C 
ATOM     27  C   UNL A   1      36.525  20.824  25.156  1.00  0.00     0.007 C 
ENDBRANCH  25  26
ENDBRANCH  24  25
ENDBRANCH  19  24
ENDBRANCH  16  18
ENDBRANCH  13  16
ENDBRANCH   8  13
ENDBRANCH   5   7
ENDBRANCH   4   5
ENDBRANCH   3   4
ENDBRANCH   2   3
ENDBRANCH   1   2
BRANCH   1  28
ATOM     28  C   UNL A   1      38.590  28.683  27.994  1.00  0.00     0.188 C 
BRANCH  28  29
ATOM     29  C   UNL A   1      37.229  29.270  28.425  1.00  0.00     0.188 C 
BRANCH  29  30
ATOM     30  O   UNL A   1      36.581  30.078  27.459  1.00  0.00    -0.376 OA
BRANCH  30  31
ATOM     31  C   UNL A   1      35.174  30.249  27.579  1.00  0.00     0.202 C 
BRANCH  31  32
ATOM     32  C   UNL A   1      34.674  31.690  27.732  1.00  0.00     0.261 C 
BRANCH  32  33
ATOM     33  O   UNL A   1      34.103  32.011  28.996  1.00  0.00    -0.460 OA
BRANCH  33  34
ATOM     34  C   UNL A   1      34.813  32.921  29.685  1.00  0.00     0.338 C 
ATOM     35  O   UNL A   1      34.555  34.097  29.871  1.00  0.00    -0.246 OA
BRANCH  34  36
ATOM     36  C   UNL A   1      36.063  32.335  30.125  1.00  0.00     0.060 A 
ATOM     37  C   UNL A   1      35.998  31.449  31.204  1.00  0.00     0.016 A 
ATOM     38  C   UNL A   1      37.226  33.012  29.747  1.00  0.00     0.016 A 
ATOM     39  C   UNL A   1      37.092  31.365  32.029  1.00  0.00     0.010 A 
ATOM     40  C   UNL A   1      38.298  32.968  30.602  1.00  0.00     0.010 A 
ATOM     41  C   UNL A   1      38.200  32.177  31.754  1.00  0.00    -0.014 A 
BRANCH  41  42
ATOM     42  C   UNL A   1      39.344  32.094  32.659  1.00  0.00     0.031 A 
ATOM     43  C   UNL A   1      40.262  30.926  32.222  1.00  0.00     0.074 A 
ATOM     44  C   UNL A   1      39.323  33.020  33.670  1.00  0.00     0.049 A 
ATOM     45  N   UNL A   1      41.116  30.219  32.897  1.00  0.00    -0.248 NA
ATOM     46  C   UNL A   1      40.156  30.411  30.818  1.00  0.00     0.031 C 
ATOM     47  C   UNL A   1      38.295  34.083  33.862  1.00  0.00     0.029 A 
ATOM     48  N   UNL A   1      40.141  33.267  34.744  1.00  0.00    -0.354 N 
ATOM     49  C   UNL A   1      41.804  29.396  31.971  1.00  0.00     0.074 A 
ATOM     50  C   UNL A   1      41.083  29.458  30.743  1.00  0.00     0.031 C 
ATOM     51  C   UNL A   1      38.507  34.772  35.007  1.00  0.00     0.029 A 
ATOM     52  C   UNL A   1      39.691  34.259  35.665  1.00  0.00     0.049 A 
ATOM     53  H   UNL A   1      40.991  32.787  34.872  1.00  0.00     0.167 HD
ATOM     54  C   UNL A   1      43.017  28.827  32.229  1.00  0.00     0.037 A 
ATOM     55  C   UNL A   1      40.225  34.580  36.888  1.00  0.00     0.037 A 
ATOM     56  C   UNL A   1      43.421  29.135  33.556  1.00  0.00     0.049 A 
ATOM     57  C   UNL A   1      41.439  33.755  36.948  1.00  0.00     0.074 A 
ATOM     58  C   UNL A   1      43.095  28.609  34.773  1.00  0.00     0.029 A 
ATOM     59  N   UNL A   1      44.068  30.331  33.741  1.00  0.00    -0.354 N 
ATOM     60  N   UNL A   1      42.515  33.968  36.253  1.00  0.00    -0.248 NA
ATOM     61  C   UNL A   1      41.400  32.523  37.740  1.00  0.00     0.031 C 
ATOM     62  C   UNL A   1      43.202  29.701  35.660  1.00  0.00     0.029 A 
ATOM     63  C   UNL A   1      43.694  30.816  34.972  1.00  0.00     0.049 A 
ATOM     64  H   UNL A   1      44.688  30.763  33.109  1.00  0.00     0.167 HD
ATOM     65  C   UNL A   1      43.143  32.748  36.280  1.00  0.00     0.074 A 
ATOM     66  C   UNL A   1      42.586  32.027  37.404  1.00  0.00     0.031 C 
ATOM     67  C   UNL A   1      43.723  32.250  35.158  1.00  0.00     0.037 A 
BRANCH  54  68
ATOM     68  C   UNL A   1      44.048  28.184  31.340  1.00  0.00     0.058 A 
ATOM     69  C   UNL A   1      44.557  26.924  31.741  1.00  0.00     0.135 A 
ATOM     70  C   UNL A   1      44.804  28.881  30.385  1.00  0.00     0.135 A 
ATOM     71  F   UNL A   1      43.860  26.136  32.576  1.00  0.00    -0.206 F 
ATOM     72  C   UNL A   1      45.819  26.475  31.371  1.00  0.00     0.059 A 
ATOM     73  C   UNL A   1      46.055  28.422  29.959  1.00  0.00     0.059 A 
ATOM     74  F   UNL A   1      44.391  30.063  29.905  1.00  0.00    -0.206 F 
ATOM     75  C   UNL A   1      46.581  27.256  30.514  1.00  0.00     0.060 A 
BRANCH  75  76
ATOM     76  S   UNL A   1      48.280  26.741  30.182  1.00  0.00     0.124 S 
ATOM     77  O   UNL A   1      48.194  26.315  28.790  1.00  0.00    -0.237 OA
ATOM     78  O   UNL A   1      49.030  27.972  30.420  1.00  0.00    -0.237 OA
ATOM     79  O   UNL A   1      48.506  25.682  31.160  1.00  0.00    -0.744 OA
ENDBRANCH  75  76
ENDBRANCH  54  68
BRANCH  55  80
ATOM     80  C   UNL A   1      39.887  35.348  38.155  1.00  0.00     0.058 A 
ATOM     81  C   UNL A   1      38.984  34.967  39.155  1.00  0.00     0.135 A 
ATOM     82  C   UNL A   1      40.655  36.507  38.486  1.00  0.00     0.135 A 
ATOM     83  F   UNL A   1      38.095  33.988  38.941  1.00  0.00    -0.206 F 
ATOM     84  C   UNL A   1      38.973  35.570  40.433  1.00  0.00     0.059 A 
ATOM     85  C   UNL A   1      40.706  37.081  39.753  1.00  0.00     0.059 A 
ATOM     86  F   UNL A   1      41.444  37.111  37.584  1.00  0.00    -0.206 F 
ATOM     87  C   UNL A   1      39.886  36.581  40.742  1.00  0.00     0.060 A 
BRANCH  87  88
ATOM     88  S   UNL A   1      40.123  37.151  42.443  1.00  0.00     0.124 S 
ATOM     89  O   UNL A   1      41.533  36.861  42.671  1.00  0.00    -0.237 OA
ATOM     90  O   UNL A   1      39.768  38.564  42.356  1.00  0.00    -0.237 OA
ATOM     91  O   UNL A   1      39.180  36.332  43.203  1.00  0.00    -0.744 OA
ENDBRANCH  87  88
ENDBRANCH  55  80
BRANCH  67  92
ATOM     92  C   UNL A   1      43.984  33.290  34.068  1.00  0.00     0.058 A 
ATOM     93  C   UNL A   1      44.972  34.270  34.240  1.00  0.00     0.135 A 
ATOM     94  C   UNL A   1      43.216  33.409  32.894  1.00  0.00     0.135 A 
ATOM     95  F   UNL A   1      45.756  34.242  35.329  1.00  0.00    -0.206 F 
ATOM     96  C   UNL A   1      45.184  35.293  33.306  1.00  0.00     0.059 A 
ATOM     97  C   UNL A   1      43.405  34.413  31.942  1.00  0.00     0.059 A 
ATOM     98  F   UNL A   1      42.249  32.534  32.630  1.00  0.00    -0.206 F 
ATOM     99  C   UNL A   1      44.396  35.358  32.155  1.00  0.00     0.060 A 
BRANCH  99 100
ATOM    100  S   UNL A   1      44.695  36.666  30.943  1.00  0.00     0.124 S 
ATOM    101  O   UNL A   1      43.728  36.351  29.895  1.00  0.00    -0.237 OA
ATOM    102  O   UNL A   1      44.415  37.870  31.719  1.00  0.00    -0.237 OA
ATOM    103  O   UNL A   1      46.095  36.480  30.568  1.00  0.00    -0.744 OA
ENDBRANCH  99 100
ENDBRANCH  67  92
ENDBRANCH  41  42
ENDBRANCH  34  36
ENDBRANCH  33  34
ENDBRANCH  32  33
ENDBRANCH  31  32
ENDBRANCH  30  31
ENDBRANCH  29  30
ENDBRANCH  28  29
ENDBRANCH   1  28
TORSDOF 26
ENDMDL
MODEL 2
REMARK VINA RESULT:      -7.8      7.288     13.200
REMARK SMILES C=CCOc1cccc(NS(=O)(=O)c2c[nH]c(C(=O)OCCOCCOCCOC(=O)c3ccc(-c4c5nc(c(-c6c(F)cc(S(=O)(=O)[O-])cc6F)c6ccc([nH]6)c(-c6c(F)cc(S(=O)(=O)[O-])cc6F)c6nc(c(-c7c(F)cc(S(=O)(=O)[O-])cc7F)c7ccc4[nH]7)C=C6)C=C5)cc3)c2)c1
REMARK SMILES IDX 23 1 22 2 21 3 20 4 18 5 19 6 17 7 14 8 15 9 98 10 16 11
REMARK SMILES IDX 11 13 12 14 13 15 10 16 9 18 5 19 6 20 99 21 7 22 8 23 4 24
REMARK SMILES IDX 3 25 2 26 1 27 24 28 25 29 26 30 27 31 28 32 29 33 30 34
REMARK SMILES IDX 31 35 32 36 33 37 97 38 34 39 96 40 35 41 36 42 37 43 90 44
REMARK SMILES IDX 38 45 95 46 89 47 91 48 39 49 94 50 88 51 87 52 40 54 74 55
REMARK SMILES IDX 53 56 73 57 54 58 57 59 72 60 92 61 55 62 56 63 71 65 93 66
REMARK SMILES IDX 58 67 41 68 42 69 51 70 43 71 44 72 50 73 52 74 45 75 46 76
REMARK SMILES IDX 47 77 48 78 49 79 75 80 76 81 85 82 77 83 78 84 84 85 86 86
REMARK SMILES IDX 79 87 80 88 81 89 82 90 83 91 59 92 60 93 69 94 61 95 62 96
REMARK SMILES IDX 68 97 70 98 63 99 64 100 65 101 66 102 67 103
REMARK H PARENT 16 12 10 17 91 53 57 64
REMARK Flexibility Score: inf
ROOT
ATOM      1  O   UNL A   1      50.531  42.874  30.065  1.00  0.00    -0.376 OA
ENDROOT
BRANCH   1   2
ATOM      2  C   UNL A   1      51.299  43.776  29.289  1.00  0.00     0.202 C 
BRANCH   2   3
ATOM      3  C   UNL A   1      50.731  44.305  27.959  1.00  0.00     0.261 C 
BRANCH   3   4
ATOM      4  O   UNL A   1      50.745  45.732  27.784  1.00  0.00    -0.459 OA
BRANCH   4   5
ATOM      5  C   UNL A   1      49.606  46.375  28.167  1.00  0.00     0.354 C 
ATOM      6  O   UNL A   1      49.549  47.308  28.936  1.00  0.00    -0.244 OA
BRANCH   5   7
ATOM      7  C   UNL A   1      48.457  45.878  27.427  1.00  0.00     0.126 A 
ATOM      8  C   UNL A   1      46.882  45.130  25.960  1.00  0.00     0.106 A 
ATOM      9  C   UNL A   1      46.332  45.140  27.227  1.00  0.00     0.105 A 
ATOM     10  C   UNL A   1      48.224  45.603  26.087  1.00  0.00     0.057 A 
ATOM     11  N   UNL A   1      47.280  45.604  28.094  1.00  0.00    -0.354 N 
ATOM     12  H   UNL A   1      47.143  45.726  29.062  1.00  0.00     0.166 HD
BRANCH   8  13
ATOM     13  S   UNL A   1      46.117  44.531  24.529  1.00  0.00     0.263 S 
ATOM     14  O   UNL A   1      44.709  44.556  24.867  1.00  0.00    -0.201 OA
ATOM     15  O   UNL A   1      46.780  43.271  24.263  1.00  0.00    -0.201 OA
BRANCH  13  16
ATOM     16  N   UNL A   1      46.281  45.467  23.135  1.00  0.00    -0.279 N 
ATOM     17  H   UNL A   1      46.560  46.405  23.244  1.00  0.00     0.180 HD
BRANCH  16  18
ATOM     18  C   UNL A   1      46.042  44.992  21.805  1.00  0.00     0.052 A 
ATOM     19  C   UNL A   1      44.460  43.993  20.246  1.00  0.00     0.121 A 
ATOM     20  C   UNL A   1      45.510  43.627  19.408  1.00  0.00     0.046 A 
ATOM     21  C   UNL A   1      44.725  44.676  21.438  1.00  0.00     0.073 A 
ATOM     22  C   UNL A   1      46.823  43.912  19.778  1.00  0.00     0.006 A 
ATOM     23  C   UNL A   1      47.086  44.551  20.992  1.00  0.00     0.027 A 
BRANCH  19  24
ATOM     24  O   UNL A   1      43.231  43.463  19.952  1.00  0.00    -0.489 OA
BRANCH  24  25
ATOM     25  C   UNL A   1      42.801  42.392  20.794  1.00  0.00     0.257 C 
BRANCH  25  26
ATOM     26  C   UNL A   1      41.675  42.834  21.682  1.00  0.00     0.006 C 
ATOM     27  C   UNL A   1      41.720  42.814  23.021  1.00  0.00     0.007 C 
ENDBRANCH  25  26
ENDBRANCH  24  25
ENDBRANCH  19  24
ENDBRANCH  16  18
ENDBRANCH  13  16
ENDBRANCH   8  13
ENDBRANCH   5   7
ENDBRANCH   4   5
ENDBRANCH   3   4
ENDBRANCH   2   3
ENDBRANCH   1   2
BRANCH   1  28
ATOM     28  C   UNL A   1      49.877  41.764  29.459  1.00  0.00     0.188 C 
BRANCH  28  29
ATOM     29  C   UNL A   1      50.139  40.309  29.901  1.00  0.00     0.188 C 
BRANCH  29  30
ATOM     30  O   UNL A   1      49.006  39.604  30.377  1.00  0.00    -0.376 OA
BRANCH  30  31
ATOM     31  C   UNL A   1      47.860  39.554  29.538  1.00  0.00     0.202 C 
BRANCH  31  32
ATOM     32  C   UNL A   1      46.629  38.838  30.107  1.00  0.00     0.261 C 
BRANCH  32  33
ATOM     33  O   UNL A   1      46.378  37.537  29.582  1.00  0.00    -0.460 OA
BRANCH  33  34
ATOM     34  C   UNL A   1      46.379  36.576  30.522  1.00  0.00     0.338 C 
ATOM     35  O   UNL A   1      47.321  36.156  31.172  1.00  0.00    -0.246 OA
BRANCH  34  36
ATOM     36  C   UNL A   1      45.062  35.980  30.614  1.00  0.00     0.060 A 
ATOM     37  C   UNL A   1      44.865  35.039  31.627  1.00  0.00     0.016 A 
ATOM     38  C   UNL A   1      44.272  36.057  29.462  1.00  0.00     0.016 A 
ATOM     39  C   UNL A   1      43.950  34.040  31.403  1.00  0.00     0.010 A 
ATOM     40  C   UNL A   1      43.399  35.028  29.217  1.00  0.00     0.010 A 
ATOM     41  C   UNL A   1      43.281  34.011  30.173  1.00  0.00    -0.014 A 
BRANCH  41  42
ATOM     42  C   UNL A   1      42.332  32.924  29.942  1.00  0.00     0.031 A 
ATOM     43  C   UNL A   1      43.011  31.817  29.099  1.00  0.00     0.074 A 
ATOM     44  C   UNL A   1      41.090  33.145  30.481  1.00  0.00     0.049 A 
ATOM     45  N   UNL A   1      42.504  30.909  28.323  1.00  0.00    -0.248 NA
ATOM     46  C   UNL A   1      44.508  31.759  29.058  1.00  0.00     0.031 C 
ATOM     47  C   UNL A   1      40.687  34.331  31.290  1.00  0.00     0.029 A 
ATOM     48  N   UNL A   1      39.913  32.440  30.466  1.00  0.00    -0.354 N 
ATOM     49  C   UNL A   1      43.562  30.051  27.934  1.00  0.00     0.074 A 
ATOM     50  C   UNL A   1      44.779  30.697  28.301  1.00  0.00     0.031 C 
ATOM     51  C   UNL A   1      39.367  34.294  31.593  1.00  0.00     0.029 A 
ATOM     52  C   UNL A   1      38.782  33.089  31.044  1.00  0.00     0.049 A 
ATOM     53  H   UNL A   1      39.852  31.537  30.079  1.00  0.00     0.167 HD
ATOM     54  C   UNL A   1      43.369  28.784  27.465  1.00  0.00     0.037 A 
ATOM     55  C   UNL A   1      37.470  32.684  31.015  1.00  0.00     0.037 A 
ATOM     56  C   UNL A   1      41.976  28.512  27.375  1.00  0.00     0.049 A 
ATOM     57  C   UNL A   1      37.543  31.366  30.371  1.00  0.00     0.074 A 
ATOM     58  C   UNL A   1      41.025  28.829  26.447  1.00  0.00     0.029 A 
ATOM     59  N   UNL A   1      41.360  28.064  28.517  1.00  0.00    -0.354 N 
ATOM     60  N   UNL A   1      38.019  30.294  30.927  1.00  0.00    -0.248 NA
ATOM     61  C   UNL A   1      37.183  31.268  28.953  1.00  0.00     0.031 C 
ATOM     62  C   UNL A   1      39.837  28.941  27.199  1.00  0.00     0.029 A 
ATOM     63  C   UNL A   1      40.087  28.581  28.528  1.00  0.00     0.049 A 
ATOM     64  H   UNL A   1      41.758  27.479  29.202  1.00  0.00     0.167 HD
ATOM     65  C   UNL A   1      38.308  29.493  29.850  1.00  0.00     0.074 A 
ATOM     66  C   UNL A   1      37.529  30.003  28.742  1.00  0.00     0.031 C 
ATOM     67  C   UNL A   1      39.462  28.778  29.817  1.00  0.00     0.037 A 
BRANCH  54  68
ATOM     68  C   UNL A   1      44.299  27.616  27.276  1.00  0.00     0.058 A 
ATOM     69  C   UNL A   1      45.132  27.264  28.367  1.00  0.00     0.135 A 
ATOM     70  C   UNL A   1      44.675  27.109  26.023  1.00  0.00     0.135 A 
ATOM     71  F   UNL A   1      44.806  27.618  29.621  1.00  0.00    -0.206 F 
ATOM     72  C   UNL A   1      46.352  26.622  28.200  1.00  0.00     0.059 A 
ATOM     73  C   UNL A   1      45.876  26.414  25.840  1.00  0.00     0.059 A 
ATOM     74  F   UNL A   1      43.934  27.346  24.931  1.00  0.00    -0.206 F 
ATOM     75  C   UNL A   1      46.737  26.240  26.922  1.00  0.00     0.060 A 
BRANCH  75  76
ATOM     76  S   UNL A   1      48.397  25.563  26.704  1.00  0.00     0.124 S 
ATOM     77  O   UNL A   1      49.208  26.521  27.446  1.00  0.00    -0.237 OA
ATOM     78  O   UNL A   1      48.274  24.239  27.307  1.00  0.00    -0.237 OA
ATOM     79  O   UNL A   1      48.572  25.567  25.255  1.00  0.00    -0.744 OA
ENDBRANCH  75  76
ENDBRANCH  54  68
BRANCH  55  80
ATOM     80  C   UNL A   1      36.070  33.210  31.285  1.00  0.00     0.058 A 
ATOM     81  C   UNL A   1      35.354  33.121  32.485  1.00  0.00     0.135 A 
ATOM     82  C   UNL A   1      35.435  34.023  30.296  1.00  0.00     0.135 A 
ATOM     83  F   UNL A   1      35.744  32.286  33.457  1.00  0.00    -0.206 F 
ATOM     84  C   UNL A   1      34.210  33.910  32.742  1.00  0.00     0.059 A 
ATOM     85  C   UNL A   1      34.345  34.854  30.543  1.00  0.00     0.059 A 
ATOM     86  F   UNL A   1      35.891  34.085  29.035  1.00  0.00    -0.206 F 
ATOM     87  C   UNL A   1      33.755  34.822  31.788  1.00  0.00     0.060 A 
BRANCH  87  88
ATOM     88  S   UNL A   1      32.506  36.068  32.193  1.00  0.00     0.124 S 
ATOM     89  O   UNL A   1      31.367  35.246  32.581  1.00  0.00    -0.237 OA
ATOM     90  O   UNL A   1      33.146  36.821  33.267  1.00  0.00    -0.237 OA
ATOM     91  O   UNL A   1      32.354  36.804  30.939  1.00  0.00    -0.744 OA
ENDBRANCH  87  88
ENDBRANCH  55  80
BRANCH  67  92
ATOM     92  C   UNL A   1      40.139  28.610  31.177  1.00  0.00     0.058 A 
ATOM     93  C   UNL A   1      39.555  27.810  32.170  1.00  0.00     0.135 A 
ATOM     94  C   UNL A   1      41.304  29.299  31.567  1.00  0.00     0.135 A 
ATOM     95  F   UNL A   1      38.441  27.113  31.895  1.00  0.00    -0.206 F 
ATOM     96  C   UNL A   1      40.097  27.699  33.458  1.00  0.00     0.059 A 
ATOM     97  C   UNL A   1      41.871  29.206  32.840  1.00  0.00     0.059 A 
ATOM     98  F   UNL A   1      41.938  30.089  30.705  1.00  0.00    -0.206 F 
ATOM     99  C   UNL A   1      41.259  28.399  33.786  1.00  0.00     0.060 A 
BRANCH  99 100
ATOM    100  S   UNL A   1      41.965  28.230  35.442  1.00  0.00     0.124 S 
ATOM    101  O   UNL A   1      42.093  26.782  35.582  1.00  0.00    -0.237 OA
ATOM    102  O   UNL A   1      43.219  28.966  35.316  1.00  0.00    -0.237 OA
ATOM    103  O   UNL A   1      40.966  28.849  36.310  1.00  0.00    -0.744 OA
ENDBRANCH  99 100
ENDBRANCH  67  92
ENDBRANCH  41  42
ENDBRANCH  34  36
ENDBRANCH  33  34
ENDBRANCH  32  33
ENDBRANCH  31  32
ENDBRANCH  30  31
ENDBRANCH  29  30
ENDBRANCH  28  29
ENDBRANCH   1  28
TORSDOF 26
ENDMDL
MODEL 3
REMARK VINA RESULT:      -7.2      4.919     10.560
REMARK SMILES C=CCOc1cccc(NS(=O)(=O)c2c[nH]c(C(=O)OCCOCCOCCOC(=O)c3ccc(-c4c5nc(c(-c6c(F)cc(S(=O)(=O)[O-])cc6F)c6ccc([nH]6)c(-c6c(F)cc(S(=O)(=O)[O-])cc6F)c6nc(c(-c7c(F)cc(S(=O)(=O)[O-])cc7F)c7ccc4[nH]7)C=C6)C=C5)cc3)c2)c1
REMARK SMILES IDX 23 1 22 2 21 3 20 4 18 5 19 6 17 7 14 8 15 9 98 10 16 11
REMARK SMILES IDX 11 13 12 14 13 15 10 16 9 18 5 19 6 20 99 21 7 22 8 23 4 24
REMARK SMILES IDX 3 25 2 26 1 27 24 28 25 29 26 30 27 31 28 32 29 33 30 34
REMARK SMILES IDX 31 35 32 36 33 37 97 38 34 39 96 40 35 41 36 42 37 43 90 44
REMARK SMILES IDX 38 45 95 46 89 47 91 48 39 49 94 50 88 51 87 52 40 54 74 55
REMARK SMILES IDX 53 56 73 57 54 58 57 59 72 60 92 61 55 62 56 63 71 65 93 66
REMARK SMILES IDX 58 67 41 68 42 69 51 70 43 71 44 72 50 73 52 74 45 75 46 76
REMARK SMILES IDX 47 77 48 78 49 79 75 80 76 81 85 82 77 83 78 84 84 85 86 86
REMARK SMILES IDX 79 87 80 88 81 89 82 90 83 91 59 92 60 93 69 94 61 95 62 96
REMARK SMILES IDX 68 97 70 98 63 99 64 100 65 101 66 102 67 103
REMARK H PARENT 16 12 10 17 91 53 57 64
REMARK Flexibility Score: inf
ROOT
ATOM      1  O   UNL A   1      46.359  25.597  25.916  1.00  0.00    -0.376 OA
ENDROOT
BRANCH   1   2
ATOM      2  C   UNL A   1      46.928  24.321  25.681  1.00  0.00     0.202 C 
BRANCH   2   3
ATOM      3  C   UNL A   1      46.817  23.688  24.281  1.00  0.00     0.261 C 
BRANCH   3   4
ATOM      4  O   UNL A   1      45.491  23.360  23.834  1.00  0.00    -0.459 OA
BRANCH   4   5
ATOM      5  C   UNL A   1      45.021  22.150  24.248  1.00  0.00     0.354 C 
ATOM      6  O   UNL A   1      45.492  21.073  23.955  1.00  0.00    -0.244 OA
BRANCH   5   7
ATOM      7  C   UNL A   1      43.940  22.315  25.206  1.00  0.00     0.126 A 
ATOM      8  C   UNL A   1      42.147  22.874  26.496  1.00  0.00     0.106 A 
ATOM      9  C   UNL A   1      42.752  21.761  27.045  1.00  0.00     0.105 A 
ATOM     10  C   UNL A   1      42.902  23.227  25.336  1.00  0.00     0.057 A 
ATOM     11  N   UNL A   1      43.833  21.444  26.272  1.00  0.00    -0.354 N 
ATOM     12  H   UNL A   1      44.451  20.699  26.451  1.00  0.00     0.166 HD
BRANCH   8  13
ATOM     13  S   UNL A   1      40.679  23.604  27.047  1.00  0.00     0.263 S 
ATOM     14  O   UNL A   1      41.005  24.037  28.391  1.00  0.00    -0.201 OA
ATOM     15  O   UNL A   1      39.667  22.591  26.835  1.00  0.00    -0.201 OA
BRANCH  13  16
ATOM     16  N   UNL A   1      40.163  24.983  26.223  1.00  0.00    -0.279 N 
ATOM     17  H   UNL A   1      39.400  24.889  25.608  1.00  0.00     0.180 HD
BRANCH  16  18
ATOM     18  C   UNL A   1      40.758  26.279  26.355  1.00  0.00     0.052 A 
ATOM     19  C   UNL A   1      40.525  28.560  27.174  1.00  0.00     0.121 A 
ATOM     20  C   UNL A   1      41.556  28.972  26.335  1.00  0.00     0.046 A 
ATOM     21  C   UNL A   1      40.130  27.218  27.187  1.00  0.00     0.073 A 
ATOM     22  C   UNL A   1      42.167  28.052  25.484  1.00  0.00     0.006 A 
ATOM     23  C   UNL A   1      41.737  26.723  25.466  1.00  0.00     0.027 A 
BRANCH  19  24
ATOM     24  O   UNL A   1      39.804  29.551  27.788  1.00  0.00    -0.489 OA
BRANCH  24  25
ATOM     25  C   UNL A   1      39.107  29.165  28.973  1.00  0.00     0.257 C 
BRANCH  25  26
ATOM     26  C   UNL A   1      38.008  30.139  29.283  1.00  0.00     0.006 C 
ATOM     27  C   UNL A   1      36.731  29.791  29.492  1.00  0.00     0.007 C 
ENDBRANCH  25  26
ENDBRANCH  24  25
ENDBRANCH  19  24
ENDBRANCH  16  18
ENDBRANCH  13  16
ENDBRANCH   8  13
ENDBRANCH   5   7
ENDBRANCH   4   5
ENDBRANCH   3   4
ENDBRANCH   2   3
ENDBRANCH   1   2
BRANCH   1  28
ATOM     28  C   UNL A   1      45.161  25.732  26.671  1.00  0.00     0.188 C 
BRANCH  28  29
ATOM     29  C   UNL A   1      44.894  24.913  27.952  1.00  0.00     0.188 C 
BRANCH  29  30
ATOM     30  O   UNL A   1      44.055  25.535  28.910  1.00  0.00    -0.376 OA
BRANCH  30  31
ATOM     31  C   UNL A   1      44.079  25.026  30.237  1.00  0.00     0.202 C 
BRANCH  31  32
ATOM     32  C   UNL A   1      45.040  25.714  31.213  1.00  0.00     0.261 C 
BRANCH  32  33
ATOM     33  O   UNL A   1      45.449  27.029  30.849  1.00  0.00    -0.460 OA
BRANCH  33  34
ATOM     34  C   UNL A   1      46.695  27.078  30.347  1.00  0.00     0.338 C 
ATOM     35  O   UNL A   1      47.541  26.201  30.340  1.00  0.00    -0.246 OA
BRANCH  34  36
ATOM     36  C   UNL A   1      46.979  28.417  29.874  1.00  0.00     0.060 A 
ATOM     37  C   UNL A   1      47.317  29.368  30.840  1.00  0.00     0.016 A 
ATOM     38  C   UNL A   1      46.480  28.740  28.608  1.00  0.00     0.016 A 
ATOM     39  C   UNL A   1      46.991  30.679  30.589  1.00  0.00     0.010 A 
ATOM     40  C   UNL A   1      46.105  30.040  28.382  1.00  0.00     0.010 A 
ATOM     41  C   UNL A   1      46.328  30.984  29.393  1.00  0.00    -0.014 A 
BRANCH  41  42
ATOM     42  C   UNL A   1      45.964  32.379  29.156  1.00  0.00     0.031 A 
ATOM     43  C   UNL A   1      44.443  32.561  29.385  1.00  0.00     0.074 A 
ATOM     44  C   UNL A   1      47.015  33.171  28.767  1.00  0.00     0.049 A 
ATOM     45  N   UNL A   1      43.615  33.447  28.924  1.00  0.00    -0.248 NA
ATOM     46  C   UNL A   1      43.711  31.543  30.206  1.00  0.00     0.031 C 
ATOM     47  C   UNL A   1      48.435  32.735  28.634  1.00  0.00     0.029 A 
ATOM     48  N   UNL A   1      47.122  34.488  28.401  1.00  0.00    -0.354 N 
ATOM     49  C   UNL A   1      42.378  33.250  29.586  1.00  0.00     0.074 A 
ATOM     50  C   UNL A   1      42.458  31.993  30.253  1.00  0.00     0.031 C 
ATOM     51  C   UNL A   1      49.210  33.729  28.139  1.00  0.00     0.029 A 
ATOM     52  C   UNL A   1      48.398  34.909  27.923  1.00  0.00     0.049 A 
ATOM     53  H   UNL A   1      46.361  35.110  28.465  1.00  0.00     0.167 HD
ATOM     54  C   UNL A   1      41.410  34.208  29.669  1.00  0.00     0.037 A 
ATOM     55  C   UNL A   1      48.730  36.110  27.347  1.00  0.00     0.037 A 
ATOM     56  C   UNL A   1      41.814  35.365  28.949  1.00  0.00     0.049 A 
ATOM     57  C   UNL A   1      47.494  36.893  27.472  1.00  0.00     0.074 A 
ATOM     58  C   UNL A   1      41.795  35.688  27.622  1.00  0.00     0.029 A 
ATOM     59  N   UNL A   1      42.604  36.264  29.620  1.00  0.00    -0.354 N 
ATOM     60  N   UNL A   1      47.034  37.381  28.584  1.00  0.00    -0.248 NA
ATOM     61  C   UNL A   1      46.636  37.024  26.291  1.00  0.00     0.031 C 
ATOM     62  C   UNL A   1      42.902  36.547  27.462  1.00  0.00     0.029 A 
ATOM     63  C   UNL A   1      43.483  36.800  28.709  1.00  0.00     0.049 A 
ATOM     64  H   UNL A   1      42.551  36.485  30.578  1.00  0.00     0.167 HD
ATOM     65  C   UNL A   1      45.708  37.592  28.301  1.00  0.00     0.074 A 
ATOM     66  C   UNL A   1      45.601  37.635  26.858  1.00  0.00     0.031 C 
ATOM     67  C   UNL A   1      44.753  37.275  29.212  1.00  0.00     0.037 A 
BRANCH  54  68
ATOM     68  C   UNL A   1      40.185  34.343  30.534  1.00  0.00     0.058 A 
ATOM     69  C   UNL A   1      40.383  34.417  31.934  1.00  0.00     0.135 A 
ATOM     70  C   UNL A   1      38.887  34.022  30.109  1.00  0.00     0.135 A 
ATOM     71  F   UNL A   1      41.563  34.811  32.441  1.00  0.00    -0.206 F 
ATOM     72  C   UNL A   1      39.418  34.014  32.849  1.00  0.00     0.059 A 
ATOM     73  C   UNL A   1      37.883  33.662  31.015  1.00  0.00     0.059 A 
ATOM     74  F   UNL A   1      38.580  33.967  28.805  1.00  0.00    -0.206 F 
ATOM     75  C   UNL A   1      38.183  33.593  32.375  1.00  0.00     0.060 A 
BRANCH  75  76
ATOM     76  S   UNL A   1      37.006  32.913  33.563  1.00  0.00     0.124 S 
ATOM     77  O   UNL A   1      36.957  33.968  34.569  1.00  0.00    -0.237 OA
ATOM     78  O   UNL A   1      35.801  32.757  32.753  1.00  0.00    -0.237 OA
ATOM     79  O   UNL A   1      37.635  31.664  33.981  1.00  0.00    -0.744 OA
ENDBRANCH  75  76
ENDBRANCH  54  68
BRANCH  55  80
ATOM     80  C   UNL A   1      49.846  36.764  26.550  1.00  0.00     0.058 A 
ATOM     81  C   UNL A   1      50.787  37.688  27.020  1.00  0.00     0.135 A 
ATOM     82  C   UNL A   1      50.104  36.307  25.220  1.00  0.00     0.135 A 
ATOM     83  F   UNL A   1      50.609  38.315  28.190  1.00  0.00    -0.206 F 
ATOM     84  C   UNL A   1      51.970  37.991  26.308  1.00  0.00     0.059 A 
ATOM     85  C   UNL A   1      51.287  36.543  24.523  1.00  0.00     0.059 A 
ATOM     86  F   UNL A   1      49.220  35.554  24.550  1.00  0.00    -0.206 F 
ATOM     87  C   UNL A   1      52.241  37.360  25.091  1.00  0.00     0.060 A 
BRANCH  87  88
ATOM     88  S   UNL A   1      53.870  37.471  24.312  1.00  0.00     0.124 S 
ATOM     89  O   UNL A   1      53.825  36.379  23.347  1.00  0.00    -0.237 OA
ATOM     90  O   UNL A   1      53.862  38.818  23.751  1.00  0.00    -0.237 OA
ATOM     91  O   UNL A   1      54.788  37.283  25.434  1.00  0.00    -0.744 OA
ENDBRANCH  87  88
ENDBRANCH  55  80
BRANCH  67  92
ATOM     92  C   UNL A   1      45.275  37.099  30.638  1.00  0.00     0.058 A 
ATOM     93  C   UNL A   1      45.321  35.827  31.228  1.00  0.00     0.135 A 
ATOM     94  C   UNL A   1      45.643  38.166  31.479  1.00  0.00     0.135 A 
ATOM     95  F   UNL A   1      44.989  34.745  30.507  1.00  0.00    -0.206 F 
ATOM     96  C   UNL A   1      45.710  35.633  32.561  1.00  0.00     0.059 A 
ATOM     97  C   UNL A   1      46.040  38.006  32.809  1.00  0.00     0.059 A 
ATOM     98  F   UNL A   1      45.634  39.417  31.024  1.00  0.00    -0.206 F 
ATOM     99  C   UNL A   1      46.071  36.729  33.347  1.00  0.00     0.060 A 
BRANCH  99 100
ATOM    100  S   UNL A   1      46.596  36.466  35.056  1.00  0.00     0.124 S 
ATOM    101  O   UNL A   1      46.159  37.695  35.713  1.00  0.00    -0.237 OA
ATOM    102  O   UNL A   1      45.860  35.260  35.419  1.00  0.00    -0.237 OA
ATOM    103  O   UNL A   1      48.045  36.303  34.954  1.00  0.00    -0.744 OA
ENDBRANCH  99 100
ENDBRANCH  67  92
ENDBRANCH  41  42
ENDBRANCH  34  36
ENDBRANCH  33  34
ENDBRANCH  32  33
ENDBRANCH  31  32
ENDBRANCH  30  31
ENDBRANCH  29  30
ENDBRANCH  28  29
ENDBRANCH   1  28
TORSDOF 26
ENDMDL
