MODEL 1
REMARK VINA RESULT:     -10.0      0.000      0.000
REMARK SMILES CCC1(CC)CCN(c2ccc(/C=C/C(=O)OCCOCCOCCOC(=O)c3ccc(-c4c5nc(c(-c6c(F)cc(S(=O)(=O)[O-])cc6F)c6ccc([nH]6)c(-c6c(F)cc(S(=O)(=O)[O-])cc6F)c6nc(c(-c7c(F)cc(S(=O)(=O)[O-])cc7F)c7ccc4[nH]7)C=C6)C=C5)cc3)cc2F)C1
REMARK SMILES IDX 21 1 20 2 19 3 18 4 17 5 15 6 16 7 14 8 13 9 12 10 9 11
REMARK SMILES IDX 10 12 96 13 11 14 95 15 97 16 8 17 3 18 6 19 98 20 7 21 2 22
REMARK SMILES IDX 1 23 4 24 5 25 22 26 23 27 24 28 25 29 26 30 27 31 28 32
REMARK SMILES IDX 29 33 30 34 94 35 31 36 93 37 32 38 33 39 34 40 87 41 35 42
REMARK SMILES IDX 92 43 86 44 88 45 36 46 91 47 85 48 84 49 37 51 71 52 50 53
REMARK SMILES IDX 70 54 51 55 54 56 69 57 89 58 52 59 53 60 68 62 90 63 55 64
REMARK SMILES IDX 38 65 39 66 48 67 40 68 41 69 47 70 49 71 42 72 43 73 44 74
REMARK SMILES IDX 45 75 46 76 72 77 73 78 82 79 74 80 75 81 81 82 83 83 76 84
REMARK SMILES IDX 77 85 78 86 79 87 80 88 56 89 57 90 66 91 58 92 59 93 65 94
REMARK SMILES IDX 67 95 60 96 61 97 62 98 63 99 64 100
REMARK H PARENT 88 50 54 61
REMARK Flexibility Score: inf
ROOT
ATOM      1  C   UNL A   1      38.456  21.085  25.557  1.00  0.00     0.188 C 
ENDROOT
BRANCH   1   2
ATOM      2  O   UNL A   1      37.647  20.148  24.871  1.00  0.00    -0.376 OA
BRANCH   2   3
ATOM      3  C   UNL A   1      36.239  20.161  25.038  1.00  0.00     0.202 C 
BRANCH   3   4
ATOM      4  C   UNL A   1      35.339  19.015  24.553  1.00  0.00     0.261 C 
BRANCH   4   5
ATOM      5  O   UNL A   1      34.177  18.753  25.355  1.00  0.00    -0.460 OA
BRANCH   5   6
ATOM      6  C   UNL A   1      32.994  19.039  24.757  1.00  0.00     0.330 C 
ATOM      7  O   UNL A   1      32.095  18.246  24.523  1.00  0.00    -0.247 OA
BRANCH   6   8
ATOM      8  C   UNL A   1      32.826  20.479  24.471  1.00  0.00     0.094 C 
ATOM      9  C   UNL A   1      32.654  21.454  25.378  1.00  0.00     0.016 C 
BRANCH   9  10
ATOM     10  C   UNL A   1      32.572  22.872  24.991  1.00  0.00    -0.022 A 
ATOM     11  C   UNL A   1      32.139  25.592  24.245  1.00  0.00     0.073 A 
ATOM     12  C   UNL A   1      32.674  25.259  25.495  1.00  0.00     0.029 A 
ATOM     13  C   UNL A   1      31.938  24.529  23.347  1.00  0.00     0.147 A 
ATOM     14  C   UNL A   1      32.881  23.920  25.869  1.00  0.00     0.010 A 
ATOM     15  C   UNL A   1      32.154  23.195  23.702  1.00  0.00     0.049 A 
ATOM     16  F   UNL A   1      31.530  24.775  22.090  1.00  0.00    -0.205 F 
BRANCH  11  17
ATOM     17  N   UNL A   1      31.810  26.902  23.959  1.00  0.00    -0.369 N 
ATOM     18  C   UNL A   1      31.444  29.219  24.473  1.00  0.00    -0.011 C 
ATOM     19  C   UNL A   1      32.737  29.018  23.656  1.00  0.00     0.030 C 
ATOM     20  C   UNL A   1      31.152  27.754  24.953  1.00  0.00     0.123 C 
ATOM     21  C   UNL A   1      32.523  27.684  22.959  1.00  0.00     0.117 C 
BRANCH  18  22
ATOM     22  C   UNL A   1      30.240  29.717  23.616  1.00  0.00     0.005 C 
ATOM     23  C   UNL A   1      29.242  28.669  23.132  1.00  0.00     0.004 C 
ENDBRANCH  18  22
BRANCH  18  24
ATOM     24  C   UNL A   1      31.697  30.112  25.715  1.00  0.00     0.005 C 
ATOM     25  C   UNL A   1      32.154  29.402  26.980  1.00  0.00     0.004 C 
ENDBRANCH  18  24
ENDBRANCH  11  17
ENDBRANCH   9  10
ENDBRANCH   6   8
ENDBRANCH   5   6
ENDBRANCH   4   5
ENDBRANCH   3   4
ENDBRANCH   2   3
ENDBRANCH   1   2
BRANCH   1  26
ATOM     26  C   UNL A   1      39.808  20.648  26.153  1.00  0.00     0.188 C 
BRANCH  26  27
ATOM     27  O   UNL A   1      40.373  21.411  27.192  1.00  0.00    -0.376 OA
BRANCH  27  28
ATOM     28  C   UNL A   1      41.652  22.005  27.051  1.00  0.00     0.202 C 
BRANCH  28  29
ATOM     29  C   UNL A   1      42.005  23.222  26.175  1.00  0.00     0.261 C 
BRANCH  29  30
ATOM     30  O   UNL A   1      41.119  24.339  26.179  1.00  0.00    -0.460 OA
BRANCH  30  31
ATOM     31  C   UNL A   1      41.706  25.542  25.988  1.00  0.00     0.338 C 
ATOM     32  O   UNL A   1      42.338  25.911  25.002  1.00  0.00    -0.246 OA
BRANCH  31  33
ATOM     33  C   UNL A   1      41.333  26.434  27.092  1.00  0.00     0.060 A 
ATOM     34  C   UNL A   1      41.955  27.686  27.187  1.00  0.00     0.016 A 
ATOM     35  C   UNL A   1      40.405  26.023  28.050  1.00  0.00     0.016 A 
ATOM     36  C   UNL A   1      41.656  28.529  28.256  1.00  0.00     0.010 A 
ATOM     37  C   UNL A   1      40.124  26.860  29.130  1.00  0.00     0.010 A 
ATOM     38  C   UNL A   1      40.765  28.106  29.252  1.00  0.00    -0.014 A 
BRANCH  38  39
ATOM     39  C   UNL A   1      40.620  28.894  30.497  1.00  0.00     0.031 A 
ATOM     40  C   UNL A   1      39.578  29.977  30.548  1.00  0.00     0.074 A 
ATOM     41  C   UNL A   1      41.393  28.644  31.569  1.00  0.00     0.049 A 
ATOM     42  N   UNL A   1      39.320  30.833  31.500  1.00  0.00    -0.248 NA
ATOM     43  C   UNL A   1      38.712  30.111  29.364  1.00  0.00     0.031 C 
ATOM     44  C   UNL A   1      42.401  27.588  31.655  1.00  0.00     0.029 A 
ATOM     45  N   UNL A   1      41.453  29.269  32.789  1.00  0.00    -0.354 N 
ATOM     46  C   UNL A   1      38.265  31.608  31.034  1.00  0.00     0.074 A 
ATOM     47  C   UNL A   1      37.950  31.140  29.701  1.00  0.00     0.031 C 
ATOM     48  C   UNL A   1      42.987  27.645  32.864  1.00  0.00     0.029 A 
ATOM     49  C   UNL A   1      42.423  28.762  33.621  1.00  0.00     0.049 A 
ATOM     50  H   UNL A   1      40.858  30.010  33.045  1.00  0.00     0.167 HD
ATOM     51  C   UNL A   1      37.613  32.612  31.665  1.00  0.00     0.037 A 
ATOM     52  C   UNL A   1      42.824  29.168  34.843  1.00  0.00     0.037 A 
ATOM     53  C   UNL A   1      37.935  33.075  32.988  1.00  0.00     0.049 A 
ATOM     54  C   UNL A   1      42.142  30.347  35.490  1.00  0.00     0.074 A 
ATOM     55  C   UNL A   1      37.329  34.085  33.715  1.00  0.00     0.029 A 
ATOM     56  N   UNL A   1      38.953  32.566  33.781  1.00  0.00    -0.354 N 
ATOM     57  N   UNL A   1      41.143  31.070  35.042  1.00  0.00    -0.248 NA
ATOM     58  C   UNL A   1      42.644  30.769  36.807  1.00  0.00     0.031 C 
ATOM     59  C   UNL A   1      38.012  34.220  34.928  1.00  0.00     0.029 A 
ATOM     60  C   UNL A   1      39.009  33.258  34.980  1.00  0.00     0.049 A 
ATOM     61  H   UNL A   1      39.548  31.824  33.529  1.00  0.00     0.167 HD
ATOM     62  C   UNL A   1      40.882  32.015  36.030  1.00  0.00     0.074 A 
ATOM     63  C   UNL A   1      41.822  31.767  37.103  1.00  0.00     0.031 C 
ATOM     64  C   UNL A   1      39.946  32.996  36.045  1.00  0.00     0.037 A 
BRANCH  51  65
ATOM     65  C   UNL A   1      36.494  33.292  30.928  1.00  0.00     0.058 A 
ATOM     66  C   UNL A   1      36.770  34.197  29.890  1.00  0.00     0.135 A 
ATOM     67  C   UNL A   1      35.151  33.094  31.285  1.00  0.00     0.135 A 
ATOM     68  F   UNL A   1      38.036  34.416  29.503  1.00  0.00    -0.206 F 
ATOM     69  C   UNL A   1      35.756  34.895  29.246  1.00  0.00     0.059 A 
ATOM     70  C   UNL A   1      34.118  33.763  30.636  1.00  0.00     0.059 A 
ATOM     71  F   UNL A   1      34.831  32.219  32.253  1.00  0.00    -0.206 F 
ATOM     72  C   UNL A   1      34.432  34.673  29.628  1.00  0.00     0.060 A 
BRANCH  72  73
ATOM     73  S   UNL A   1      33.124  35.570  28.762  1.00  0.00     0.124 S 
ATOM     74  O   UNL A   1      32.527  34.518  27.947  1.00  0.00    -0.237 OA
ATOM     75  O   UNL A   1      32.307  36.060  29.868  1.00  0.00    -0.237 OA
ATOM     76  O   UNL A   1      33.851  36.601  28.028  1.00  0.00    -0.744 OA
ENDBRANCH  72  73
ENDBRANCH  51  65
BRANCH  52  77
ATOM     77  C   UNL A   1      43.931  28.453  35.532  1.00  0.00     0.058 A 
ATOM     78  C   UNL A   1      43.673  27.423  36.450  1.00  0.00     0.135 A 
ATOM     79  C   UNL A   1      45.270  28.801  35.301  1.00  0.00     0.135 A 
ATOM     80  F   UNL A   1      42.410  27.050  36.706  1.00  0.00    -0.206 F 
ATOM     81  C   UNL A   1      44.700  26.785  37.138  1.00  0.00     0.059 A 
ATOM     82  C   UNL A   1      46.318  28.160  35.959  1.00  0.00     0.059 A 
ATOM     83  F   UNL A   1      45.568  29.766  34.418  1.00  0.00    -0.206 F 
ATOM     84  C   UNL A   1      46.019  27.166  36.890  1.00  0.00     0.060 A 
BRANCH  84  85
ATOM     85  S   UNL A   1      47.336  26.338  37.808  1.00  0.00     0.124 S 
ATOM     86  O   UNL A   1      46.607  25.242  38.437  1.00  0.00    -0.237 OA
ATOM     87  O   UNL A   1      48.260  25.961  36.744  1.00  0.00    -0.237 OA
ATOM     88  O   UNL A   1      47.818  27.374  38.715  1.00  0.00    -0.744 OA
ENDBRANCH  84  85
ENDBRANCH  52  77
BRANCH  64  89
ATOM     89  C   UNL A   1      39.862  33.874  37.265  1.00  0.00     0.058 A 
ATOM     90  C   UNL A   1      38.938  33.588  38.283  1.00  0.00     0.135 A 
ATOM     91  C   UNL A   1      40.620  35.049  37.381  1.00  0.00     0.135 A 
ATOM     92  F   UNL A   1      38.181  32.480  38.218  1.00  0.00    -0.206 F 
ATOM     93  C   UNL A   1      38.750  34.447  39.360  1.00  0.00     0.059 A 
ATOM     94  C   UNL A   1      40.469  35.910  38.464  1.00  0.00     0.059 A 
ATOM     95  F   UNL A   1      41.526  35.363  36.441  1.00  0.00    -0.206 F 
ATOM     96  C   UNL A   1      39.518  35.611  39.439  1.00  0.00     0.060 A 
BRANCH  96  97
ATOM     97  S   UNL A   1      39.258  36.717  40.842  1.00  0.00     0.124 S 
ATOM     98  O   UNL A   1      40.628  37.046  41.222  1.00  0.00    -0.237 OA
ATOM     99  O   UNL A   1      38.488  37.802  40.241  1.00  0.00    -0.237 OA
ATOM    100  O   UNL A   1      38.523  35.889  41.795  1.00  0.00    -0.744 OA
ENDBRANCH  96  97
ENDBRANCH  64  89
ENDBRANCH  38  39
ENDBRANCH  31  33
ENDBRANCH  30  31
ENDBRANCH  29  30
ENDBRANCH  28  29
ENDBRANCH  27  28
ENDBRANCH  26  27
ENDBRANCH   1  26
TORSDOF 24
ENDMDL
MODEL 2
REMARK VINA RESULT:      -9.8      0.786      8.045
REMARK SMILES CCC1(CC)CCN(c2ccc(/C=C/C(=O)OCCOCCOCCOC(=O)c3ccc(-c4c5nc(c(-c6c(F)cc(S(=O)(=O)[O-])cc6F)c6ccc([nH]6)c(-c6c(F)cc(S(=O)(=O)[O-])cc6F)c6nc(c(-c7c(F)cc(S(=O)(=O)[O-])cc7F)c7ccc4[nH]7)C=C6)C=C5)cc3)cc2F)C1
REMARK SMILES IDX 21 1 20 2 19 3 18 4 17 5 15 6 16 7 14 8 13 9 12 10 9 11
REMARK SMILES IDX 10 12 96 13 11 14 95 15 97 16 8 17 3 18 6 19 98 20 7 21 2 22
REMARK SMILES IDX 1 23 4 24 5 25 22 26 23 27 24 28 25 29 26 30 27 31 28 32
REMARK SMILES IDX 29 33 30 34 94 35 31 36 93 37 32 38 33 39 34 40 87 41 35 42
REMARK SMILES IDX 92 43 86 44 88 45 36 46 91 47 85 48 84 49 37 51 71 52 50 53
REMARK SMILES IDX 70 54 51 55 54 56 69 57 89 58 52 59 53 60 68 62 90 63 55 64
REMARK SMILES IDX 38 65 39 66 48 67 40 68 41 69 47 70 49 71 42 72 43 73 44 74
REMARK SMILES IDX 45 75 46 76 72 77 73 78 82 79 74 80 75 81 81 82 83 83 76 84
REMARK SMILES IDX 77 85 78 86 79 87 80 88 56 89 57 90 66 91 58 92 59 93 65 94
REMARK SMILES IDX 67 95 60 96 61 97 62 98 63 99 64 100
REMARK H PARENT 88 50 54 61
REMARK Flexibility Score: inf
ROOT
ATOM      1  C   UNL A   1      38.121  21.942  25.561  1.00  0.00     0.188 C 
ENDROOT
BRANCH   1   2
ATOM      2  O   UNL A   1      36.940  21.628  24.845  1.00  0.00    -0.376 OA
BRANCH   2   3
ATOM      3  C   UNL A   1      35.943  20.810  25.433  1.00  0.00     0.202 C 
BRANCH   3   4
ATOM      4  C   UNL A   1      35.196  19.724  24.647  1.00  0.00     0.261 C 
BRANCH   4   5
ATOM      5  O   UNL A   1      34.253  18.946  25.399  1.00  0.00    -0.460 OA
BRANCH   5   6
ATOM      6  C   UNL A   1      32.952  19.165  25.084  1.00  0.00     0.330 C 
ATOM      7  O   UNL A   1      32.037  18.365  25.209  1.00  0.00    -0.247 OA
BRANCH   6   8
ATOM      8  C   UNL A   1      32.691  20.547  24.635  1.00  0.00     0.094 C 
ATOM      9  C   UNL A   1      32.406  21.597  25.422  1.00  0.00     0.016 C 
BRANCH   9  10
ATOM     10  C   UNL A   1      32.238  22.955  24.878  1.00  0.00    -0.022 A 
ATOM     11  C   UNL A   1      31.725  25.629  24.022  1.00  0.00     0.073 A 
ATOM     12  C   UNL A   1      32.953  25.273  24.592  1.00  0.00     0.029 A 
ATOM     13  C   UNL A   1      30.815  24.582  23.792  1.00  0.00     0.147 A 
ATOM     14  C   UNL A   1      33.206  23.958  25.023  1.00  0.00     0.010 A 
ATOM     15  C   UNL A   1      31.061  23.269  24.202  1.00  0.00     0.049 A 
ATOM     16  F   UNL A   1      29.658  24.821  23.149  1.00  0.00    -0.205 F 
BRANCH  11  17
ATOM     17  N   UNL A   1      31.449  26.952  23.742  1.00  0.00    -0.369 N 
ATOM     18  C   UNL A   1      31.227  29.288  24.255  1.00  0.00    -0.011 C 
ATOM     19  C   UNL A   1      32.465  29.017  23.374  1.00  0.00     0.030 C 
ATOM     20  C   UNL A   1      30.886  27.841  24.762  1.00  0.00     0.123 C 
ATOM     21  C   UNL A   1      32.148  27.691  22.700  1.00  0.00     0.117 C 
BRANCH  18  22
ATOM     22  C   UNL A   1      30.007  29.841  23.456  1.00  0.00     0.005 C 
ATOM     23  C   UNL A   1      29.334  31.102  23.987  1.00  0.00     0.004 C 
ENDBRANCH  18  22
BRANCH  18  24
ATOM     24  C   UNL A   1      31.588  30.173  25.475  1.00  0.00     0.005 C 
ATOM     25  C   UNL A   1      31.733  29.462  26.812  1.00  0.00     0.004 C 
ENDBRANCH  18  24
ENDBRANCH  11  17
ENDBRANCH   9  10
ENDBRANCH   6   8
ENDBRANCH   5   6
ENDBRANCH   4   5
ENDBRANCH   3   4
ENDBRANCH   2   3
ENDBRANCH   1   2
BRANCH   1  26
ATOM     26  C   UNL A   1      39.279  20.928  25.623  1.00  0.00     0.188 C 
BRANCH  26  27
ATOM     27  O   UNL A   1      39.857  20.629  26.872  1.00  0.00    -0.376 OA
BRANCH  27  28
ATOM     28  C   UNL A   1      41.221  20.912  27.132  1.00  0.00     0.202 C 
BRANCH  28  29
ATOM     29  C   UNL A   1      41.873  22.306  27.187  1.00  0.00     0.261 C 
BRANCH  29  30
ATOM     30  O   UNL A   1      41.136  23.419  26.686  1.00  0.00    -0.460 OA
BRANCH  30  31
ATOM     31  C   UNL A   1      41.875  24.506  26.371  1.00  0.00     0.338 C 
ATOM     32  O   UNL A   1      42.608  24.649  25.397  1.00  0.00    -0.246 OA
BRANCH  31  33
ATOM     33  C   UNL A   1      41.544  25.593  27.301  1.00  0.00     0.060 A 
ATOM     34  C   UNL A   1      42.359  26.732  27.326  1.00  0.00     0.016 A 
ATOM     35  C   UNL A   1      40.458  25.472  28.170  1.00  0.00     0.016 A 
ATOM     36  C   UNL A   1      42.096  27.753  28.237  1.00  0.00     0.010 A 
ATOM     37  C   UNL A   1      40.210  26.487  29.095  1.00  0.00     0.010 A 
ATOM     38  C   UNL A   1      41.041  27.620  29.150  1.00  0.00    -0.014 A 
BRANCH  38  39
ATOM     39  C   UNL A   1      40.899  28.588  30.262  1.00  0.00     0.031 A 
ATOM     40  C   UNL A   1      41.826  28.474  31.440  1.00  0.00     0.074 A 
ATOM     41  C   UNL A   1      39.970  29.560  30.219  1.00  0.00     0.049 A 
ATOM     42  N   UNL A   1      41.842  29.162  32.550  1.00  0.00    -0.248 NA
ATOM     43  C   UNL A   1      42.875  27.444  31.352  1.00  0.00     0.031 C 
ATOM     44  C   UNL A   1      39.050  29.800  29.109  1.00  0.00     0.029 A 
ATOM     45  N   UNL A   1      39.645  30.522  31.143  1.00  0.00    -0.354 N 
ATOM     46  C   UNL A   1      42.898  28.651  33.295  1.00  0.00     0.074 A 
ATOM     47  C   UNL A   1      43.481  27.575  32.523  1.00  0.00     0.031 C 
ATOM     48  C   UNL A   1      38.255  30.839  29.420  1.00  0.00     0.029 A 
ATOM     49  C   UNL A   1      38.585  31.312  30.764  1.00  0.00     0.049 A 
ATOM     50  H   UNL A   1      40.123  30.635  31.994  1.00  0.00     0.167 HD
ATOM     51  C   UNL A   1      43.345  29.051  34.507  1.00  0.00     0.037 A 
ATOM     52  C   UNL A   1      37.943  32.289  31.436  1.00  0.00     0.037 A 
ATOM     53  C   UNL A   1      42.757  30.119  35.271  1.00  0.00     0.049 A 
ATOM     54  C   UNL A   1      38.403  32.657  32.824  1.00  0.00     0.074 A 
ATOM     55  C   UNL A   1      43.142  30.601  36.510  1.00  0.00     0.029 A 
ATOM     56  N   UNL A   1      41.658  30.866  34.875  1.00  0.00    -0.354 N 
ATOM     57  N   UNL A   1      39.404  32.171  33.517  1.00  0.00    -0.248 NA
ATOM     58  C   UNL A   1      37.643  33.704  33.524  1.00  0.00     0.031 C 
ATOM     59  C   UNL A   1      42.246  31.606  36.885  1.00  0.00     0.029 A 
ATOM     60  C   UNL A   1      41.335  31.789  35.857  1.00  0.00     0.049 A 
ATOM     61  H   UNL A   1      41.178  30.757  34.022  1.00  0.00     0.167 HD
ATOM     62  C   UNL A   1      39.410  32.867  34.722  1.00  0.00     0.074 A 
ATOM     63  C   UNL A   1      38.317  33.814  34.661  1.00  0.00     0.031 C 
ATOM     64  C   UNL A   1      40.247  32.733  35.780  1.00  0.00     0.037 A 
BRANCH  51  65
ATOM     65  C   UNL A   1      44.520  28.322  35.096  1.00  0.00     0.058 A 
ATOM     66  C   UNL A   1      45.832  28.711  34.780  1.00  0.00     0.135 A 
ATOM     67  C   UNL A   1      44.350  27.202  35.926  1.00  0.00     0.135 A 
ATOM     68  F   UNL A   1      46.051  29.780  33.999  1.00  0.00    -0.206 F 
ATOM     69  C   UNL A   1      46.933  28.005  35.251  1.00  0.00     0.059 A 
ATOM     70  C   UNL A   1      45.439  26.497  36.430  1.00  0.00     0.059 A 
ATOM     71  F   UNL A   1      43.118  26.804  36.280  1.00  0.00    -0.206 F 
ATOM     72  C   UNL A   1      46.726  26.897  36.074  1.00  0.00     0.060 A 
BRANCH  72  73
ATOM     73  S   UNL A   1      48.169  26.007  36.697  1.00  0.00     0.124 S 
ATOM     74  O   UNL A   1      48.036  24.716  36.031  1.00  0.00    -0.237 OA
ATOM     75  O   UNL A   1      49.269  26.850  36.239  1.00  0.00    -0.237 OA
ATOM     76  O   UNL A   1      47.960  25.995  38.141  1.00  0.00    -0.744 OA
ENDBRANCH  72  73
ENDBRANCH  51  65
BRANCH  52  77
ATOM     77  C   UNL A   1      36.791  32.986  30.803  1.00  0.00     0.058 A 
ATOM     78  C   UNL A   1      36.984  33.962  29.814  1.00  0.00     0.135 A 
ATOM     79  C   UNL A   1      35.473  32.702  31.192  1.00  0.00     0.135 A 
ATOM     80  F   UNL A   1      38.225  34.270  29.405  1.00  0.00    -0.206 F 
ATOM     81  C   UNL A   1      35.916  34.655  29.255  1.00  0.00     0.059 A 
ATOM     82  C   UNL A   1      34.385  33.365  30.629  1.00  0.00     0.059 A 
ATOM     83  F   UNL A   1      35.236  31.763  32.120  1.00  0.00    -0.206 F 
ATOM     84  C   UNL A   1      34.620  34.354  29.674  1.00  0.00     0.060 A 
BRANCH  84  85
ATOM     85  S   UNL A   1      33.248  35.279  28.949  1.00  0.00     0.124 S 
ATOM     86  O   UNL A   1      32.477  35.631  30.136  1.00  0.00    -0.237 OA
ATOM     87  O   UNL A   1      33.938  36.381  28.288  1.00  0.00    -0.237 OA
ATOM     88  O   UNL A   1      32.621  34.309  28.057  1.00  0.00    -0.744 OA
ENDBRANCH  84  85
ENDBRANCH  52  77
BRANCH  64  89
ATOM     89  C   UNL A   1      40.043  33.642  36.962  1.00  0.00     0.058 A 
ATOM     90  C   UNL A   1      40.767  34.841  37.070  1.00  0.00     0.135 A 
ATOM     91  C   UNL A   1      39.211  33.282  38.033  1.00  0.00     0.135 A 
ATOM     92  F   UNL A   1      41.583  35.229  36.077  1.00  0.00    -0.206 F 
ATOM     93  C   UNL A   1      40.692  35.638  38.207  1.00  0.00     0.059 A 
ATOM     94  C   UNL A   1      39.100  34.079  39.170  1.00  0.00     0.059 A 
ATOM     95  F   UNL A   1      38.489  32.152  37.976  1.00  0.00    -0.206 F 
ATOM     96  C   UNL A   1      39.860  35.245  39.255  1.00  0.00     0.060 A 
BRANCH  96  97
ATOM     97  S   UNL A   1      39.779  36.290  40.725  1.00  0.00     0.124 S 
ATOM     98  O   UNL A   1      38.435  36.849  40.623  1.00  0.00    -0.237 OA
ATOM     99  O   UNL A   1      39.985  35.326  41.802  1.00  0.00    -0.237 OA
ATOM    100  O   UNL A   1      40.871  37.240  40.526  1.00  0.00    -0.744 OA
ENDBRANCH  96  97
ENDBRANCH  64  89
ENDBRANCH  38  39
ENDBRANCH  31  33
ENDBRANCH  30  31
ENDBRANCH  29  30
ENDBRANCH  28  29
ENDBRANCH  27  28
ENDBRANCH  26  27
ENDBRANCH   1  26
TORSDOF 24
ENDMDL
MODEL 3
REMARK VINA RESULT:      -9.3      6.188     13.960
REMARK SMILES CCC1(CC)CCN(c2ccc(/C=C/C(=O)OCCOCCOCCOC(=O)c3ccc(-c4c5nc(c(-c6c(F)cc(S(=O)(=O)[O-])cc6F)c6ccc([nH]6)c(-c6c(F)cc(S(=O)(=O)[O-])cc6F)c6nc(c(-c7c(F)cc(S(=O)(=O)[O-])cc7F)c7ccc4[nH]7)C=C6)C=C5)cc3)cc2F)C1
REMARK SMILES IDX 21 1 20 2 19 3 18 4 17 5 15 6 16 7 14 8 13 9 12 10 9 11
REMARK SMILES IDX 10 12 96 13 11 14 95 15 97 16 8 17 3 18 6 19 98 20 7 21 2 22
REMARK SMILES IDX 1 23 4 24 5 25 22 26 23 27 24 28 25 29 26 30 27 31 28 32
REMARK SMILES IDX 29 33 30 34 94 35 31 36 93 37 32 38 33 39 34 40 87 41 35 42
REMARK SMILES IDX 92 43 86 44 88 45 36 46 91 47 85 48 84 49 37 51 71 52 50 53
REMARK SMILES IDX 70 54 51 55 54 56 69 57 89 58 52 59 53 60 68 62 90 63 55 64
REMARK SMILES IDX 38 65 39 66 48 67 40 68 41 69 47 70 49 71 42 72 43 73 44 74
REMARK SMILES IDX 45 75 46 76 72 77 73 78 82 79 74 80 75 81 81 82 83 83 76 84
REMARK SMILES IDX 77 85 78 86 79 87 80 88 56 89 57 90 66 91 58 92 59 93 65 94
REMARK SMILES IDX 67 95 60 96 61 97 62 98 63 99 64 100
REMARK H PARENT 88 50 54 61
REMARK Flexibility Score: inf
ROOT
ATOM      1  C   UNL A   1      35.943  33.619  28.035  1.00  0.00     0.188 C 
ENDROOT
BRANCH   1   2
ATOM      2  O   UNL A   1      35.179  34.767  28.355  1.00  0.00    -0.376 OA
BRANCH   2   3
ATOM      3  C   UNL A   1      33.766  34.738  28.247  1.00  0.00     0.202 C 
BRANCH   3   4
ATOM      4  C   UNL A   1      32.858  35.710  29.014  1.00  0.00     0.261 C 
BRANCH   4   5
ATOM      5  O   UNL A   1      32.542  35.335  30.364  1.00  0.00    -0.460 OA
BRANCH   5   6
ATOM      6  C   UNL A   1      32.943  36.219  31.311  1.00  0.00     0.330 C 
ATOM      7  O   UNL A   1      32.588  37.385  31.404  1.00  0.00    -0.247 OA
BRANCH   6   8
ATOM      8  C   UNL A   1      33.824  35.613  32.330  1.00  0.00     0.094 C 
ATOM      9  C   UNL A   1      35.099  35.232  32.153  1.00  0.00     0.016 C 
BRANCH   9  10
ATOM     10  C   UNL A   1      35.915  34.706  33.259  1.00  0.00    -0.022 A 
ATOM     11  C   UNL A   1      37.586  33.947  35.446  1.00  0.00     0.073 A 
ATOM     12  C   UNL A   1      36.190  33.899  35.548  1.00  0.00     0.029 A 
ATOM     13  C   UNL A   1      38.109  34.276  34.183  1.00  0.00     0.147 A 
ATOM     14  C   UNL A   1      35.364  34.280  34.476  1.00  0.00     0.010 A 
ATOM     15  C   UNL A   1      37.299  34.642  33.105  1.00  0.00     0.049 A 
ATOM     16  F   UNL A   1      39.437  34.239  33.971  1.00  0.00    -0.205 F 
BRANCH  11  17
ATOM     17  N   UNL A   1      38.371  33.708  36.556  1.00  0.00    -0.369 N 
ATOM     18  C   UNL A   1      39.318  34.212  38.704  1.00  0.00    -0.011 C 
ATOM     19  C   UNL A   1      38.263  33.090  38.800  1.00  0.00     0.030 C 
ATOM     20  C   UNL A   1      39.007  34.808  37.285  1.00  0.00     0.123 C 
ATOM     21  C   UNL A   1      38.203  32.526  37.389  1.00  0.00     0.117 C 
BRANCH  18  22
ATOM     22  C   UNL A   1      40.786  33.684  38.717  1.00  0.00     0.005 C 
ATOM     23  C   UNL A   1      41.226  32.863  39.924  1.00  0.00     0.004 C 
ENDBRANCH  18  22
BRANCH  18  24
ATOM     24  C   UNL A   1      39.073  35.308  39.772  1.00  0.00     0.005 C 
ATOM     25  C   UNL A   1      39.455  36.729  39.387  1.00  0.00     0.004 C 
ENDBRANCH  18  24
ENDBRANCH  11  17
ENDBRANCH   9  10
ENDBRANCH   6   8
ENDBRANCH   5   6
ENDBRANCH   4   5
ENDBRANCH   3   4
ENDBRANCH   2   3
ENDBRANCH   1   2
BRANCH   1  26
ATOM     26  C   UNL A   1      35.274  32.232  28.001  1.00  0.00     0.188 C 
BRANCH  26  27
ATOM     27  O   UNL A   1      34.946  31.604  29.217  1.00  0.00    -0.376 OA
BRANCH  27  28
ATOM     28  C   UNL A   1      35.241  32.218  30.460  1.00  0.00     0.202 C 
BRANCH  28  29
ATOM     29  C   UNL A   1      35.413  31.507  31.816  1.00  0.00     0.261 C 
BRANCH  29  30
ATOM     30  O   UNL A   1      36.271  30.370  31.880  1.00  0.00    -0.460 OA
BRANCH  30  31
ATOM     31  C   UNL A   1      37.422  30.553  32.566  1.00  0.00     0.338 C 
ATOM     32  O   UNL A   1      37.545  30.994  33.704  1.00  0.00    -0.246 OA
BRANCH  31  33
ATOM     33  C   UNL A   1      38.531  29.978  31.795  1.00  0.00     0.060 A 
ATOM     34  C   UNL A   1      39.532  29.273  32.476  1.00  0.00     0.016 A 
ATOM     35  C   UNL A   1      38.604  30.167  30.414  1.00  0.00     0.016 A 
ATOM     36  C   UNL A   1      40.623  28.765  31.774  1.00  0.00     0.010 A 
ATOM     37  C   UNL A   1      39.708  29.674  29.716  1.00  0.00     0.010 A 
ATOM     38  C   UNL A   1      40.733  28.992  30.395  1.00  0.00    -0.014 A 
BRANCH  38  39
ATOM     39  C   UNL A   1      41.991  28.656  29.689  1.00  0.00     0.031 A 
ATOM     40  C   UNL A   1      43.052  29.714  29.562  1.00  0.00     0.074 A 
ATOM     41  C   UNL A   1      42.193  27.428  29.180  1.00  0.00     0.049 A 
ATOM     42  N   UNL A   1      44.195  29.669  28.932  1.00  0.00    -0.248 NA
ATOM     43  C   UNL A   1      42.785  30.995  30.238  1.00  0.00     0.031 C 
ATOM     44  C   UNL A   1      41.259  26.307  29.285  1.00  0.00     0.029 A 
ATOM     45  N   UNL A   1      43.249  26.922  28.465  1.00  0.00    -0.354 N 
ATOM     46  C   UNL A   1      44.785  30.911  29.132  1.00  0.00     0.074 A 
ATOM     47  C   UNL A   1      43.860  31.700  29.918  1.00  0.00     0.031 C 
ATOM     48  C   UNL A   1      41.782  25.245  28.647  1.00  0.00     0.029 A 
ATOM     49  C   UNL A   1      43.067  25.621  28.059  1.00  0.00     0.049 A 
ATOM     50  H   UNL A   1      44.060  27.440  28.262  1.00  0.00     0.167 HD
ATOM     51  C   UNL A   1      45.992  31.349  28.706  1.00  0.00     0.037 A 
ATOM     52  C   UNL A   1      43.839  24.834  27.282  1.00  0.00     0.037 A 
ATOM     53  C   UNL A   1      46.905  30.561  27.921  1.00  0.00     0.049 A 
ATOM     54  C   UNL A   1      45.140  25.374  26.745  1.00  0.00     0.074 A 
ATOM     55  C   UNL A   1      48.154  30.916  27.444  1.00  0.00     0.029 A 
ATOM     56  N   UNL A   1      46.666  29.264  27.491  1.00  0.00    -0.354 N 
ATOM     57  N   UNL A   1      45.690  26.549  26.942  1.00  0.00    -0.248 NA
ATOM     58  C   UNL A   1      45.924  24.485  25.874  1.00  0.00     0.031 C 
ATOM     59  C   UNL A   1      48.650  29.852  26.685  1.00  0.00     0.029 A 
ATOM     60  C   UNL A   1      47.734  28.812  26.734  1.00  0.00     0.049 A 
ATOM     61  H   UNL A   1      45.856  28.741  27.695  1.00  0.00     0.167 HD
ATOM     62  C   UNL A   1      46.892  26.531  26.242  1.00  0.00     0.074 A 
ATOM     63  C   UNL A   1      46.994  25.227  25.622  1.00  0.00     0.031 C 
ATOM     64  C   UNL A   1      47.827  27.507  26.127  1.00  0.00     0.037 A 
BRANCH  51  65
ATOM     65  C   UNL A   1      46.395  32.752  29.065  1.00  0.00     0.058 A 
ATOM     66  C   UNL A   1      46.199  33.804  28.157  1.00  0.00     0.135 A 
ATOM     67  C   UNL A   1      47.027  33.046  30.284  1.00  0.00     0.135 A 
ATOM     68  F   UNL A   1      45.590  33.579  26.982  1.00  0.00    -0.206 F 
ATOM     69  C   UNL A   1      46.632  35.095  28.436  1.00  0.00     0.059 A 
ATOM     70  C   UNL A   1      47.445  34.337  30.595  1.00  0.00     0.059 A 
ATOM     71  F   UNL A   1      47.214  32.081  31.199  1.00  0.00    -0.206 F 
ATOM     72  C   UNL A   1      47.256  35.352  29.657  1.00  0.00     0.060 A 
BRANCH  72  73
ATOM     73  S   UNL A   1      47.790  37.040  30.013  1.00  0.00     0.124 S 
ATOM     74  O   UNL A   1      46.944  37.389  31.149  1.00  0.00    -0.237 OA
ATOM     75  O   UNL A   1      49.208  36.856  30.308  1.00  0.00    -0.237 OA
ATOM     76  O   UNL A   1      47.505  37.753  28.772  1.00  0.00    -0.744 OA
ENDBRANCH  72  73
ENDBRANCH  51  65
BRANCH  52  77
ATOM     77  C   UNL A   1      43.397  23.449  26.965  1.00  0.00     0.058 A 
ATOM     78  C   UNL A   1      43.369  22.451  27.950  1.00  0.00     0.135 A 
ATOM     79  C   UNL A   1      43.016  23.093  25.663  1.00  0.00     0.135 A 
ATOM     80  F   UNL A   1      43.723  22.739  29.212  1.00  0.00    -0.206 F 
ATOM     81  C   UNL A   1      43.008  21.141  27.651  1.00  0.00     0.059 A 
ATOM     82  C   UNL A   1      42.626  21.795  25.343  1.00  0.00     0.059 A 
ATOM     83  F   UNL A   1      43.008  24.018  24.691  1.00  0.00    -0.206 F 
ATOM     84  C   UNL A   1      42.645  20.822  26.342  1.00  0.00     0.060 A 
BRANCH  84  85
ATOM     85  S   UNL A   1      42.197  19.112  25.970  1.00  0.00     0.124 S 
ATOM     86  O   UNL A   1      42.595  18.434  27.200  1.00  0.00    -0.237 OA
ATOM     87  O   UNL A   1      40.762  19.215  25.736  1.00  0.00    -0.237 OA
ATOM     88  O   UNL A   1      43.003  18.800  24.794  1.00  0.00    -0.744 OA
ENDBRANCH  84  85
ENDBRANCH  52  77
BRANCH  64  89
ATOM     89  C   UNL A   1      49.063  27.211  25.320  1.00  0.00     0.058 A 
ATOM     90  C   UNL A   1      50.245  26.801  25.957  1.00  0.00     0.135 A 
ATOM     91  C   UNL A   1      49.107  27.429  23.935  1.00  0.00     0.135 A 
ATOM     92  F   UNL A   1      50.260  26.584  27.282  1.00  0.00    -0.206 F 
ATOM     93  C   UNL A   1      51.434  26.641  25.254  1.00  0.00     0.059 A 
ATOM     94  C   UNL A   1      50.279  27.249  23.206  1.00  0.00     0.059 A 
ATOM     95  F   UNL A   1      48.002  27.812  23.276  1.00  0.00    -0.206 F 
ATOM     96  C   UNL A   1      51.443  26.873  23.877  1.00  0.00     0.060 A 
BRANCH  96  97
ATOM     97  S   UNL A   1      52.996  26.665  22.982  1.00  0.00     0.124 S 
ATOM     98  O   UNL A   1      53.740  25.780  23.873  1.00  0.00    -0.237 OA
ATOM     99  O   UNL A   1      52.551  26.071  21.725  1.00  0.00    -0.237 OA
ATOM    100  O   UNL A   1      53.512  28.027  22.876  1.00  0.00    -0.744 OA
ENDBRANCH  96  97
ENDBRANCH  64  89
ENDBRANCH  38  39
ENDBRANCH  31  33
ENDBRANCH  30  31
ENDBRANCH  29  30
ENDBRANCH  28  29
ENDBRANCH  27  28
ENDBRANCH  26  27
ENDBRANCH   1  26
TORSDOF 24
ENDMDL
