MODEL 1
REMARK VINA RESULT:     -11.2      0.000      0.000
REMARK SMILES Cc1cc(C)n(C)c(=O)c1C(=O)[NH+]1CCC2(CC1)C[NH2+][C@@H](C(=O)OCCOCCOCCOC(=O)c1ccc(-c3c4nc(c(-c5c(F)cc(S(=O)(=O)[O-])cc5F)c5ccc([nH]5)c(-c5c(F)cc(S(=O)(=O)[O-])cc5F)c5nc(c(-c6c(F)cc(S(=O)(=O)[O-])cc6F)c6ccc3[nH]6)C=C5)C=C4)cc1)C2
REMARK SMILES IDX 29 1 28 2 27 3 26 4 25 5 24 6 22 7 23 8 21 9 13 10 14 11
REMARK SMILES IDX 18 12 15 14 17 15 16 16 19 17 102 18 20 19 11 22 12 23 10 24
REMARK SMILES IDX 1 25 2 26 3 27 4 28 8 29 5 30 6 31 9 32 7 33 30 34 31 35
REMARK SMILES IDX 32 36 33 37 34 38 35 39 36 40 37 41 101 42 38 43 100 44
REMARK SMILES IDX 39 45 40 46 41 47 94 48 42 49 99 50 93 51 95 52 43 53 98 54
REMARK SMILES IDX 92 55 91 56 44 58 78 59 57 60 77 61 58 62 61 63 76 64 96 65
REMARK SMILES IDX 59 66 60 67 75 69 97 70 62 71 45 72 46 73 55 74 47 75 48 76
REMARK SMILES IDX 54 77 56 78 49 79 50 80 51 81 52 82 53 83 79 84 80 85 89 86
REMARK SMILES IDX 81 87 82 88 88 89 90 90 83 91 84 92 85 93 86 94 87 95 63 96
REMARK SMILES IDX 64 97 73 98 65 99 66 100 72 101 74 102 67 103 68 104 69 105
REMARK SMILES IDX 70 106 71 107
REMARK H PARENT 13 13 20 20 20 21 95 57 61 68
REMARK Flexibility Score: inf
ROOT
ATOM      1  C   UNL A   1      34.425  31.187  28.145  1.00  0.00     0.188 C 
ENDROOT
BRANCH   1   2
ATOM      2  C   UNL A   1      33.595  30.403  27.114  1.00  0.00     0.188 C 
BRANCH   2   3
ATOM      3  O   UNL A   1      32.630  31.100  26.330  1.00  0.00    -0.376 OA
BRANCH   3   4
ATOM      4  C   UNL A   1      31.433  30.430  25.956  1.00  0.00     0.202 C 
BRANCH   4   5
ATOM      5  C   UNL A   1      31.383  29.779  24.568  1.00  0.00     0.261 C 
BRANCH   5   6
ATOM      6  O   UNL A   1      30.155  30.010  23.852  1.00  0.00    -0.459 OA
BRANCH   6   7
ATOM      7  C   UNL A   1      30.029  29.373  22.658  1.00  0.00     0.364 C 
ATOM      8  O   UNL A   1      29.988  29.942  21.570  1.00  0.00    -0.245 OA
BRANCH   7   9
ATOM      9  C   UNL A   1      29.948  27.841  22.772  1.00  0.00     0.294 C 
ATOM     10  N   UNL A   1      32.004  23.550  25.137  1.00  0.00    -0.267 N 
ATOM     11  C   UNL A   1      32.169  23.855  23.723  1.00  0.00     0.271 C 
ATOM     12  C   UNL A   1      31.943  24.731  25.983  1.00  0.00     0.271 C 
ATOM     13  H   UNL A   1      32.312  23.616  24.204  1.00  0.00     0.357 HD
ATOM     14  C   UNL A   1      30.882  24.505  23.233  1.00  0.00     0.075 C 
ATOM     15  C   UNL A   1      30.865  25.739  25.542  1.00  0.00     0.075 C 
ATOM     16  C   UNL A   1      30.489  25.782  24.019  1.00  0.00     0.036 C 
ATOM     17  C   UNL A   1      28.970  26.029  23.826  1.00  0.00     0.268 C 
ATOM     18  C   UNL A   1      31.105  27.049  23.374  1.00  0.00     0.090 C 
ATOM     19  N   UNL A   1      28.835  27.470  23.671  1.00  0.00    -0.334 N 
ATOM     20  H   UNL A   1      28.925  27.941  24.571  1.00  0.00     0.347 HD
ATOM     21  H   UNL A   1      27.925  27.742  23.299  1.00  0.00     0.347 HD
BRANCH  10  22
ATOM     22  C   UNL A   1      32.004  22.213  25.526  1.00  0.00     0.350 C 
ATOM     23  O   UNL A   1      30.980  21.696  25.979  1.00  0.00    -0.225 OA
BRANCH  22  24
ATOM     24  C   UNL A   1      33.272  21.398  25.556  1.00  0.00     0.147 A 
ATOM     25  C   UNL A   1      32.478  19.599  23.911  1.00  0.00     0.045 C 
ATOM     26  C   UNL A   1      33.456  20.284  24.813  1.00  0.00    -0.027 A 
ATOM     27  C   UNL A   1      34.763  19.673  24.697  1.00  0.00     0.026 A 
ATOM     28  C   UNL A   1      35.876  20.317  25.064  1.00  0.00     0.018 A 
ATOM     29  C   UNL A   1      34.515  22.036  26.152  1.00  0.00     0.267 A 
ATOM     30  C   UNL A   1      37.203  19.691  24.736  1.00  0.00     0.064 C 
ATOM     31  N   UNL A   1      35.764  21.527  25.735  1.00  0.00    -0.315 N 
ATOM     32  O   UNL A   1      34.424  22.959  26.961  1.00  0.00    -0.268 OA
ATOM     33  C   UNL A   1      36.955  22.298  26.066  1.00  0.00     0.153 C 
ENDBRANCH  22  24
ENDBRANCH  10  22
ENDBRANCH   7   9
ENDBRANCH   6   7
ENDBRANCH   5   6
ENDBRANCH   4   5
ENDBRANCH   3   4
ENDBRANCH   2   3
ENDBRANCH   1   2
BRANCH   1  34
ATOM     34  O   UNL A   1      35.140  32.274  27.601  1.00  0.00    -0.376 OA
BRANCH  34  35
ATOM     35  C   UNL A   1      35.089  33.483  28.327  1.00  0.00     0.202 C 
BRANCH  35  36
ATOM     36  C   UNL A   1      35.366  33.327  29.829  1.00  0.00     0.261 C 
BRANCH  36  37
ATOM     37  O   UNL A   1      36.714  32.966  30.190  1.00  0.00    -0.460 OA
BRANCH  37  38
ATOM     38  C   UNL A   1      36.880  31.843  30.930  1.00  0.00     0.338 C 
ATOM     39  O   UNL A   1      36.088  31.390  31.742  1.00  0.00    -0.246 OA
BRANCH  38  40
ATOM     40  C   UNL A   1      38.069  31.121  30.413  1.00  0.00     0.060 A 
ATOM     41  C   UNL A   1      39.068  30.716  31.311  1.00  0.00     0.016 A 
ATOM     42  C   UNL A   1      38.193  30.825  29.053  1.00  0.00     0.016 A 
ATOM     43  C   UNL A   1      40.194  30.024  30.851  1.00  0.00     0.010 A 
ATOM     44  C   UNL A   1      39.335  30.158  28.590  1.00  0.00     0.010 A 
ATOM     45  C   UNL A   1      40.354  29.772  29.481  1.00  0.00    -0.014 A 
BRANCH  45  46
ATOM     46  C   UNL A   1      41.662  29.297  28.956  1.00  0.00     0.031 A 
ATOM     47  C   UNL A   1      42.788  30.293  28.847  1.00  0.00     0.074 A 
ATOM     48  C   UNL A   1      41.869  28.015  28.600  1.00  0.00     0.049 A 
ATOM     49  N   UNL A   1      43.998  30.132  28.379  1.00  0.00    -0.248 NA
ATOM     50  C   UNL A   1      42.506  31.653  29.335  1.00  0.00     0.031 C 
ATOM     51  C   UNL A   1      40.888  26.937  28.701  1.00  0.00     0.029 A 
ATOM     52  N   UNL A   1      42.985  27.403  28.075  1.00  0.00    -0.354 N 
ATOM     53  C   UNL A   1      44.625  31.365  28.522  1.00  0.00     0.074 A 
ATOM     54  C   UNL A   1      43.649  32.274  29.083  1.00  0.00     0.031 C 
ATOM     55  C   UNL A   1      41.443  25.797  28.251  1.00  0.00     0.029 A 
ATOM     56  C   UNL A   1      42.808  26.066  27.799  1.00  0.00     0.049 A 
ATOM     57  H   UNL A   1      43.831  27.878  27.913  1.00  0.00     0.167 HD
ATOM     58  C   UNL A   1      45.901  31.708  28.231  1.00  0.00     0.037 A 
ATOM     59  C   UNL A   1      43.646  25.171  27.233  1.00  0.00     0.037 A 
ATOM     60  C   UNL A   1      46.873  30.811  27.665  1.00  0.00     0.049 A 
ATOM     61  C   UNL A   1      45.031  25.605  26.815  1.00  0.00     0.074 A 
ATOM     62  C   UNL A   1      48.189  31.072  27.329  1.00  0.00     0.029 A 
ATOM     63  N   UNL A   1      46.635  29.483  27.345  1.00  0.00    -0.354 N 
ATOM     64  N   UNL A   1      45.612  26.771  26.963  1.00  0.00    -0.248 NA
ATOM     65  C   UNL A   1      45.873  24.601  26.144  1.00  0.00     0.031 C 
ATOM     66  C   UNL A   1      48.733  29.918  26.760  1.00  0.00     0.029 A 
ATOM     67  C   UNL A   1      47.773  28.919  26.792  1.00  0.00     0.049 A 
ATOM     68  H   UNL A   1      45.783  29.011  27.490  1.00  0.00     0.167 HD
ATOM     69  C   UNL A   1      46.893  26.632  26.433  1.00  0.00     0.074 A 
ATOM     70  C   UNL A   1      47.008  25.266  25.969  1.00  0.00     0.031 C 
ATOM     71  C   UNL A   1      47.884  27.554  26.342  1.00  0.00     0.037 A 
BRANCH  58  72
ATOM     72  C   UNL A   1      46.325  33.123  28.515  1.00  0.00     0.058 A 
ATOM     73  C   UNL A   1      46.915  33.479  29.738  1.00  0.00     0.135 A 
ATOM     74  C   UNL A   1      46.187  34.121  27.537  1.00  0.00     0.135 A 
ATOM     75  F   UNL A   1      47.050  32.567  30.714  1.00  0.00    -0.206 F 
ATOM     76  C   UNL A   1      47.340  34.779  29.988  1.00  0.00     0.059 A 
ATOM     77  C   UNL A   1      46.631  35.421  27.755  1.00  0.00     0.059 A 
ATOM     78  F   UNL A   1      45.625  33.833  26.353  1.00  0.00    -0.206 F 
ATOM     79  C   UNL A   1      47.198  35.742  28.987  1.00  0.00     0.060 A 
BRANCH  79  80
ATOM     80  S   UNL A   1      47.776  37.419  29.324  1.00  0.00     0.124 S 
ATOM     81  O   UNL A   1      48.781  37.597  28.281  1.00  0.00    -0.237 OA
ATOM     82  O   UNL A   1      46.556  38.203  29.169  1.00  0.00    -0.237 OA
ATOM     83  O   UNL A   1      48.295  37.334  30.686  1.00  0.00    -0.744 OA
ENDBRANCH  79  80
ENDBRANCH  58  72
BRANCH  59  84
ATOM     84  C   UNL A   1      43.208  23.760  27.027  1.00  0.00     0.058 A 
ATOM     85  C   UNL A   1      42.767  23.320  25.771  1.00  0.00     0.135 A 
ATOM     86  C   UNL A   1      43.209  22.831  28.078  1.00  0.00     0.135 A 
ATOM     87  F   UNL A   1      42.727  24.174  24.736  1.00  0.00    -0.206 F 
ATOM     88  C   UNL A   1      42.335  22.013  25.563  1.00  0.00     0.059 A 
ATOM     89  C   UNL A   1      42.808  21.511  27.891  1.00  0.00     0.059 A 
ATOM     90  F   UNL A   1      43.621  23.200  29.302  1.00  0.00    -0.206 F 
ATOM     91  C   UNL A   1      42.367  21.113  26.630  1.00  0.00     0.060 A 
BRANCH  91  92
ATOM     92  S   UNL A   1      41.855  19.406  26.333  1.00  0.00     0.124 S 
ATOM     93  O   UNL A   1      40.411  19.551  26.191  1.00  0.00    -0.237 OA
ATOM     94  O   UNL A   1      42.587  19.078  25.113  1.00  0.00    -0.237 OA
ATOM     95  O   UNL A   1      42.303  18.705  27.533  1.00  0.00    -0.744 OA
ENDBRANCH  91  92
ENDBRANCH  59  84
BRANCH  71  96
ATOM     96  C   UNL A   1      49.197  27.131  25.739  1.00  0.00     0.058 A 
ATOM     97  C   UNL A   1      49.459  27.276  24.368  1.00  0.00     0.135 A 
ATOM     98  C   UNL A   1      50.243  26.670  26.558  1.00  0.00     0.135 A 
ATOM     99  F   UNL A   1      48.496  27.708  23.539  1.00  0.00    -0.206 F 
ATOM    100  C   UNL A   1      50.707  26.975  23.830  1.00  0.00     0.059 A 
ATOM    101  C   UNL A   1      51.506  26.390  26.046  1.00  0.00     0.059 A 
ATOM    102  F   UNL A   1      50.051  26.524  27.879  1.00  0.00    -0.206 F 
ATOM    103  C   UNL A   1      51.727  26.542  24.679  1.00  0.00     0.060 A 
BRANCH 103 104
ATOM    104  S   UNL A   1      53.357  26.215  23.970  1.00  0.00     0.124 S 
ATOM    105  O   UNL A   1      53.050  26.145  22.545  1.00  0.00    -0.237 OA
ATOM    106  O   UNL A   1      54.121  27.382  24.399  1.00  0.00    -0.237 OA
ATOM    107  O   UNL A   1      53.751  24.951  24.588  1.00  0.00    -0.744 OA
ENDBRANCH 103 104
ENDBRANCH  71  96
ENDBRANCH  45  46
ENDBRANCH  38  40
ENDBRANCH  37  38
ENDBRANCH  36  37
ENDBRANCH  35  36
ENDBRANCH  34  35
ENDBRANCH   1  34
TORSDOF 22
ENDMDL
MODEL 2
REMARK VINA RESULT:     -10.8      6.020     11.937
REMARK SMILES Cc1cc(C)n(C)c(=O)c1C(=O)[NH+]1CCC2(CC1)C[NH2+][C@@H](C(=O)OCCOCCOCCOC(=O)c1ccc(-c3c4nc(c(-c5c(F)cc(S(=O)(=O)[O-])cc5F)c5ccc([nH]5)c(-c5c(F)cc(S(=O)(=O)[O-])cc5F)c5nc(c(-c6c(F)cc(S(=O)(=O)[O-])cc6F)c6ccc3[nH]6)C=C5)C=C4)cc1)C2
REMARK SMILES IDX 29 1 28 2 27 3 26 4 25 5 24 6 22 7 23 8 21 9 13 10 14 11
REMARK SMILES IDX 18 12 15 14 17 15 16 16 19 17 102 18 20 19 11 22 12 23 10 24
REMARK SMILES IDX 1 25 2 26 3 27 4 28 8 29 5 30 6 31 9 32 7 33 30 34 31 35
REMARK SMILES IDX 32 36 33 37 34 38 35 39 36 40 37 41 101 42 38 43 100 44
REMARK SMILES IDX 39 45 40 46 41 47 94 48 42 49 99 50 93 51 95 52 43 53 98 54
REMARK SMILES IDX 92 55 91 56 44 58 78 59 57 60 77 61 58 62 61 63 76 64 96 65
REMARK SMILES IDX 59 66 60 67 75 69 97 70 62 71 45 72 46 73 55 74 47 75 48 76
REMARK SMILES IDX 54 77 56 78 49 79 50 80 51 81 52 82 53 83 79 84 80 85 89 86
REMARK SMILES IDX 81 87 82 88 88 89 90 90 83 91 84 92 85 93 86 94 87 95 63 96
REMARK SMILES IDX 64 97 73 98 65 99 66 100 72 101 74 102 67 103 68 104 69 105
REMARK SMILES IDX 70 106 71 107
REMARK H PARENT 13 13 20 20 20 21 95 57 61 68
REMARK Flexibility Score: inf
ROOT
ATOM      1  C   UNL A   1      44.743  24.867  29.124  1.00  0.00     0.188 C 
ENDROOT
BRANCH   1   2
ATOM      2  C   UNL A   1      44.727  23.330  29.060  1.00  0.00     0.188 C 
BRANCH   2   3
ATOM      3  O   UNL A   1      43.875  22.686  28.117  1.00  0.00    -0.376 OA
BRANCH   3   4
ATOM      4  C   UNL A   1      42.470  22.702  28.335  1.00  0.00     0.202 C 
BRANCH   4   5
ATOM      5  C   UNL A   1      41.632  21.598  27.678  1.00  0.00     0.261 C 
BRANCH   5   6
ATOM      6  O   UNL A   1      40.250  21.948  27.478  1.00  0.00    -0.459 OA
BRANCH   6   7
ATOM      7  C   UNL A   1      39.651  21.416  26.380  1.00  0.00     0.364 C 
ATOM      8  O   UNL A   1      39.922  20.315  25.907  1.00  0.00    -0.245 OA
BRANCH   7   9
ATOM      9  C   UNL A   1      38.573  22.319  25.756  1.00  0.00     0.294 C 
ATOM     10  N   UNL A   1      33.451  22.647  24.382  1.00  0.00    -0.267 N 
ATOM     11  C   UNL A   1      34.545  22.582  23.424  1.00  0.00     0.271 C 
ATOM     12  C   UNL A   1      33.699  21.894  25.601  1.00  0.00     0.271 C 
ATOM     13  H   UNL A   1      34.018  22.518  23.588  1.00  0.00     0.357 HD
ATOM     14  C   UNL A   1      35.724  23.346  24.011  1.00  0.00     0.075 C 
ATOM     15  C   UNL A   1      35.018  22.281  26.296  1.00  0.00     0.075 C 
ATOM     16  C   UNL A   1      36.185  22.820  25.395  1.00  0.00     0.036 C 
ATOM     17  C   UNL A   1      36.969  23.948  26.113  1.00  0.00     0.268 C 
ATOM     18  C   UNL A   1      37.266  21.721  25.244  1.00  0.00     0.090 C 
ATOM     19  N   UNL A   1      38.084  23.278  26.768  1.00  0.00    -0.334 N 
ATOM     20  H   UNL A   1      37.771  22.790  27.607  1.00  0.00     0.347 HD
ATOM     21  H   UNL A   1      38.809  23.928  27.073  1.00  0.00     0.347 HD
BRANCH  10  22
ATOM     22  C   UNL A   1      32.294  23.328  24.014  1.00  0.00     0.350 C 
ATOM     23  O   UNL A   1      31.594  22.912  23.087  1.00  0.00    -0.225 OA
BRANCH  22  24
ATOM     24  C   UNL A   1      31.935  24.663  24.617  1.00  0.00     0.147 A 
ATOM     25  C   UNL A   1      30.485  23.725  26.511  1.00  0.00     0.045 C 
ATOM     26  C   UNL A   1      31.173  24.795  25.726  1.00  0.00    -0.027 A 
ATOM     27  C   UNL A   1      31.052  26.072  26.398  1.00  0.00     0.026 A 
ATOM     28  C   UNL A   1      31.887  27.084  26.141  1.00  0.00     0.018 A 
ATOM     29  C   UNL A   1      32.745  25.876  24.193  1.00  0.00     0.267 A 
ATOM     30  C   UNL A   1      31.816  28.306  27.015  1.00  0.00     0.064 C 
ATOM     31  N   UNL A   1      32.779  26.971  25.083  1.00  0.00    -0.315 N 
ATOM     32  O   UNL A   1      33.344  25.890  23.118  1.00  0.00    -0.268 OA
ATOM     33  C   UNL A   1      33.764  28.016  24.836  1.00  0.00     0.153 C 
ENDBRANCH  22  24
ENDBRANCH  10  22
ENDBRANCH   7   9
ENDBRANCH   6   7
ENDBRANCH   5   6
ENDBRANCH   4   5
ENDBRANCH   3   4
ENDBRANCH   2   3
ENDBRANCH   1   2
BRANCH   1  34
ATOM     34  O   UNL A   1      45.718  25.467  28.301  1.00  0.00    -0.376 OA
BRANCH  34  35
ATOM     35  C   UNL A   1      45.994  24.815  27.080  1.00  0.00     0.202 C 
BRANCH  35  36
ATOM     36  C   UNL A   1      45.073  25.229  25.924  1.00  0.00     0.261 C 
BRANCH  36  37
ATOM     37  O   UNL A   1      43.658  25.088  26.160  1.00  0.00    -0.460 OA
BRANCH  37  38
ATOM     38  C   UNL A   1      42.852  26.086  25.723  1.00  0.00     0.338 C 
ATOM     39  O   UNL A   1      42.424  26.223  24.587  1.00  0.00    -0.246 OA
BRANCH  38  40
ATOM     40  C   UNL A   1      42.373  26.844  26.906  1.00  0.00     0.060 A 
ATOM     41  C   UNL A   1      42.697  28.204  27.022  1.00  0.00     0.016 A 
ATOM     42  C   UNL A   1      41.593  26.226  27.886  1.00  0.00     0.016 A 
ATOM     43  C   UNL A   1      42.250  28.946  28.122  1.00  0.00     0.010 A 
ATOM     44  C   UNL A   1      41.171  26.963  29.001  1.00  0.00     0.010 A 
ATOM     45  C   UNL A   1      41.514  28.320  29.139  1.00  0.00    -0.014 A 
BRANCH  45  46
ATOM     46  C   UNL A   1      41.280  29.020  30.431  1.00  0.00     0.031 A 
ATOM     47  C   UNL A   1      40.153  30.018  30.504  1.00  0.00     0.074 A 
ATOM     48  C   UNL A   1      42.026  28.775  31.524  1.00  0.00     0.049 A 
ATOM     49  N   UNL A   1      39.784  30.784  31.498  1.00  0.00    -0.248 NA
ATOM     50  C   UNL A   1      39.332  30.167  29.292  1.00  0.00     0.031 C 
ATOM     51  C   UNL A   1      43.113  27.802  31.610  1.00  0.00     0.029 A 
ATOM     52  N   UNL A   1      41.980  29.335  32.781  1.00  0.00    -0.354 N 
ATOM     53  C   UNL A   1      38.686  31.499  31.035  1.00  0.00     0.074 A 
ATOM     54  C   UNL A   1      38.473  31.106  29.658  1.00  0.00     0.031 C 
ATOM     55  C   UNL A   1      43.632  27.833  32.851  1.00  0.00     0.029 A 
ATOM     56  C   UNL A   1      42.939  28.851  33.641  1.00  0.00     0.049 A 
ATOM     57  H   UNL A   1      41.321  30.019  33.039  1.00  0.00     0.167 HD
ATOM     58  C   UNL A   1      37.911  32.390  31.697  1.00  0.00     0.037 A 
ATOM     59  C   UNL A   1      43.231  29.201  34.913  1.00  0.00     0.037 A 
ATOM     60  C   UNL A   1      38.123  32.791  33.062  1.00  0.00     0.049 A 
ATOM     61  C   UNL A   1      42.422  30.277  35.596  1.00  0.00     0.074 A 
ATOM     62  C   UNL A   1      37.393  33.694  33.815  1.00  0.00     0.029 A 
ATOM     63  N   UNL A   1      39.141  32.322  33.878  1.00  0.00    -0.354 N 
ATOM     64  N   UNL A   1      41.382  30.940  35.149  1.00  0.00    -0.248 NA
ATOM     65  C   UNL A   1      42.830  30.660  36.958  1.00  0.00     0.031 C 
ATOM     66  C   UNL A   1      37.999  33.809  35.068  1.00  0.00     0.029 A 
ATOM     67  C   UNL A   1      39.073  32.935  35.118  1.00  0.00     0.049 A 
ATOM     68  H   UNL A   1      39.812  31.651  33.615  1.00  0.00     0.167 HD
ATOM     69  C   UNL A   1      40.996  31.792  36.181  1.00  0.00     0.074 A 
ATOM     70  C   UNL A   1      41.907  31.556  37.280  1.00  0.00     0.031 C 
ATOM     71  C   UNL A   1      39.978  32.688  36.213  1.00  0.00     0.037 A 
BRANCH  58  72
ATOM     72  C   UNL A   1      36.758  33.001  30.950  1.00  0.00     0.058 A 
ATOM     73  C   UNL A   1      35.436  32.589  31.181  1.00  0.00     0.135 A 
ATOM     74  C   UNL A   1      36.970  34.044  30.035  1.00  0.00     0.135 A 
ATOM     75  F   UNL A   1      35.180  31.582  32.031  1.00  0.00    -0.206 F 
ATOM     76  C   UNL A   1      34.365  33.179  30.517  1.00  0.00     0.059 A 
ATOM     77  C   UNL A   1      35.912  34.667  29.381  1.00  0.00     0.059 A 
ATOM     78  F   UNL A   1      38.216  34.472  29.775  1.00  0.00    -0.206 F 
ATOM     79  C   UNL A   1      34.614  34.221  29.623  1.00  0.00     0.060 A 
BRANCH  79  80
ATOM     80  S   UNL A   1      33.209  34.988  28.789  1.00  0.00     0.124 S 
ATOM     81  O   UNL A   1      32.396  35.420  29.921  1.00  0.00    -0.237 OA
ATOM     82  O   UNL A   1      33.847  36.053  28.023  1.00  0.00    -0.237 OA
ATOM     83  O   UNL A   1      32.648  33.899  27.994  1.00  0.00    -0.744 OA
ENDBRANCH  79  80
ENDBRANCH  58  72
BRANCH  59  84
ATOM     84  C   UNL A   1      44.344  28.525  35.640  1.00  0.00     0.058 A 
ATOM     85  C   UNL A   1      44.092  27.446  36.500  1.00  0.00     0.135 A 
ATOM     86  C   UNL A   1      45.674  28.948  35.502  1.00  0.00     0.135 A 
ATOM     87  F   UNL A   1      42.834  27.014  36.684  1.00  0.00    -0.206 F 
ATOM     88  C   UNL A   1      45.115  26.816  37.203  1.00  0.00     0.059 A 
ATOM     89  C   UNL A   1      46.719  28.318  36.172  1.00  0.00     0.059 A 
ATOM     90  F   UNL A   1      45.972  29.977  34.692  1.00  0.00    -0.206 F 
ATOM     91  C   UNL A   1      46.427  27.255  37.026  1.00  0.00     0.060 A 
BRANCH  91  92
ATOM     92  S   UNL A   1      47.751  26.393  37.903  1.00  0.00     0.124 S 
ATOM     93  O   UNL A   1      47.106  26.073  39.171  1.00  0.00    -0.237 OA
ATOM     94  O   UNL A   1      48.013  25.262  37.018  1.00  0.00    -0.237 OA
ATOM     95  O   UNL A   1      48.816  27.388  37.970  1.00  0.00    -0.744 OA
ENDBRANCH  91  92
ENDBRANCH  59  84
BRANCH  71  96
ATOM     96  C   UNL A   1      39.762  33.476  37.478  1.00  0.00     0.058 A 
ATOM     97  C   UNL A   1      40.436  34.684  37.717  1.00  0.00     0.135 A 
ATOM     98  C   UNL A   1      38.795  33.072  38.415  1.00  0.00     0.135 A 
ATOM     99  F   UNL A   1      41.373  35.116  36.858  1.00  0.00    -0.206 F 
ATOM    100  C   UNL A   1      40.163  35.458  38.840  1.00  0.00     0.059 A 
ATOM    101  C   UNL A   1      38.487  33.845  39.530  1.00  0.00     0.059 A 
ATOM    102  F   UNL A   1      38.112  31.930  38.230  1.00  0.00    -0.206 F 
ATOM    103  C   UNL A   1      39.179  35.036  39.736  1.00  0.00     0.060 A 
BRANCH 103 104
ATOM    104  S   UNL A   1      38.798  36.086  41.156  1.00  0.00     0.124 S 
ATOM    105  O   UNL A   1      40.024  35.980  41.940  1.00  0.00    -0.237 OA
ATOM    106  O   UNL A   1      38.556  37.381  40.527  1.00  0.00    -0.237 OA
ATOM    107  O   UNL A   1      37.622  35.451  41.745  1.00  0.00    -0.744 OA
ENDBRANCH 103 104
ENDBRANCH  71  96
ENDBRANCH  45  46
ENDBRANCH  38  40
ENDBRANCH  37  38
ENDBRANCH  36  37
ENDBRANCH  35  36
ENDBRANCH  34  35
ENDBRANCH   1  34
TORSDOF 22
ENDMDL
MODEL 3
REMARK VINA RESULT:     -10.6      4.766      6.318
REMARK SMILES Cc1cc(C)n(C)c(=O)c1C(=O)[NH+]1CCC2(CC1)C[NH2+][C@@H](C(=O)OCCOCCOCCOC(=O)c1ccc(-c3c4nc(c(-c5c(F)cc(S(=O)(=O)[O-])cc5F)c5ccc([nH]5)c(-c5c(F)cc(S(=O)(=O)[O-])cc5F)c5nc(c(-c6c(F)cc(S(=O)(=O)[O-])cc6F)c6ccc3[nH]6)C=C5)C=C4)cc1)C2
REMARK SMILES IDX 29 1 28 2 27 3 26 4 25 5 24 6 22 7 23 8 21 9 13 10 14 11
REMARK SMILES IDX 18 12 15 14 17 15 16 16 19 17 102 18 20 19 11 22 12 23 10 24
REMARK SMILES IDX 1 25 2 26 3 27 4 28 8 29 5 30 6 31 9 32 7 33 30 34 31 35
REMARK SMILES IDX 32 36 33 37 34 38 35 39 36 40 37 41 101 42 38 43 100 44
REMARK SMILES IDX 39 45 40 46 41 47 94 48 42 49 99 50 93 51 95 52 43 53 98 54
REMARK SMILES IDX 92 55 91 56 44 58 78 59 57 60 77 61 58 62 61 63 76 64 96 65
REMARK SMILES IDX 59 66 60 67 75 69 97 70 62 71 45 72 46 73 55 74 47 75 48 76
REMARK SMILES IDX 54 77 56 78 49 79 50 80 51 81 52 82 53 83 79 84 80 85 89 86
REMARK SMILES IDX 81 87 82 88 88 89 90 90 83 91 84 92 85 93 86 94 87 95 63 96
REMARK SMILES IDX 64 97 73 98 65 99 66 100 72 101 74 102 67 103 68 104 69 105
REMARK SMILES IDX 70 106 71 107
REMARK H PARENT 13 13 20 20 20 21 95 57 61 68
REMARK Flexibility Score: inf
ROOT
ATOM      1  C   UNL A   1      33.620  28.359  24.867  1.00  0.00     0.188 C 
ENDROOT
BRANCH   1   2
ATOM      2  C   UNL A   1      33.232  27.949  23.436  1.00  0.00     0.188 C 
BRANCH   2   3
ATOM      3  O   UNL A   1      32.919  28.964  22.486  1.00  0.00    -0.376 OA
BRANCH   3   4
ATOM      4  C   UNL A   1      31.572  29.404  22.367  1.00  0.00     0.202 C 
BRANCH   4   5
ATOM      5  C   UNL A   1      30.486  28.337  22.186  1.00  0.00     0.261 C 
BRANCH   5   6
ATOM      6  O   UNL A   1      29.501  28.314  23.236  1.00  0.00    -0.459 OA
BRANCH   6   7
ATOM      7  C   UNL A   1      29.084  27.085  23.638  1.00  0.00     0.364 C 
ATOM      8  O   UNL A   1      27.941  26.827  24.009  1.00  0.00    -0.245 OA
BRANCH   7   9
ATOM      9  C   UNL A   1      30.179  26.005  23.587  1.00  0.00     0.294 C 
ATOM     10  N   UNL A   1      33.198  22.746  26.502  1.00  0.00    -0.267 N 
ATOM     11  C   UNL A   1      33.714  23.898  25.777  1.00  0.00     0.271 C 
ATOM     12  C   UNL A   1      31.851  22.937  27.015  1.00  0.00     0.271 C 
ATOM     13  H   UNL A   1      33.724  23.510  26.175  1.00  0.00     0.357 HD
ATOM     14  C   UNL A   1      32.919  24.030  24.485  1.00  0.00     0.075 C 
ATOM     15  C   UNL A   1      30.842  23.360  25.931  1.00  0.00     0.075 C 
ATOM     16  C   UNL A   1      31.390  24.168  24.702  1.00  0.00     0.036 C 
ATOM     17  C   UNL A   1      30.668  23.753  23.394  1.00  0.00     0.268 C 
ATOM     18  C   UNL A   1      30.976  25.654  24.840  1.00  0.00     0.090 C 
ATOM     19  N   UNL A   1      29.574  24.702  23.245  1.00  0.00    -0.334 N 
ATOM     20  H   UNL A   1      28.812  24.478  23.885  1.00  0.00     0.347 HD
ATOM     21  H   UNL A   1      29.170  24.692  22.309  1.00  0.00     0.347 HD
BRANCH  10  22
ATOM     22  C   UNL A   1      34.043  21.655  26.691  1.00  0.00     0.350 C 
ATOM     23  O   UNL A   1      34.804  21.618  27.661  1.00  0.00    -0.225 OA
BRANCH  22  24
ATOM     24  C   UNL A   1      34.172  20.566  25.657  1.00  0.00     0.147 A 
ATOM     25  C   UNL A   1      36.713  20.752  25.379  1.00  0.00     0.045 C 
ATOM     26  C   UNL A   1      35.355  20.176  25.133  1.00  0.00    -0.027 A 
ATOM     27  C   UNL A   1      35.454  18.978  24.326  1.00  0.00     0.026 A 
ATOM     28  C   UNL A   1      34.477  18.066  24.298  1.00  0.00     0.018 A 
ATOM     29  C   UNL A   1      32.993  19.627  25.461  1.00  0.00     0.267 A 
ATOM     30  C   UNL A   1      34.736  16.765  23.590  1.00  0.00     0.064 C 
ATOM     31  N   UNL A   1      33.267  18.354  24.915  1.00  0.00    -0.315 N 
ATOM     32  O   UNL A   1      31.853  19.972  25.771  1.00  0.00    -0.268 OA
ATOM     33  C   UNL A   1      32.216  17.347  24.983  1.00  0.00     0.153 C 
ENDBRANCH  22  24
ENDBRANCH  10  22
ENDBRANCH   7   9
ENDBRANCH   6   7
ENDBRANCH   5   6
ENDBRANCH   4   5
ENDBRANCH   3   4
ENDBRANCH   2   3
ENDBRANCH   1   2
BRANCH   1  34
ATOM     34  O   UNL A   1      32.518  28.580  25.719  1.00  0.00    -0.376 OA
BRANCH  34  35
ATOM     35  C   UNL A   1      31.918  29.856  25.649  1.00  0.00     0.202 C 
BRANCH  35  36
ATOM     36  C   UNL A   1      32.165  30.736  26.883  1.00  0.00     0.261 C 
BRANCH  36  37
ATOM     37  O   UNL A   1      33.398  30.502  27.592  1.00  0.00    -0.460 OA
BRANCH  37  38
ATOM     38  C   UNL A   1      34.219  31.563  27.781  1.00  0.00     0.338 C 
ATOM     39  O   UNL A   1      33.888  32.738  27.793  1.00  0.00    -0.246 OA
BRANCH  38  40
ATOM     40  C   UNL A   1      35.542  31.051  28.218  1.00  0.00     0.060 A 
ATOM     41  C   UNL A   1      35.676  29.692  28.539  1.00  0.00     0.016 A 
ATOM     42  C   UNL A   1      36.650  31.898  28.293  1.00  0.00     0.016 A 
ATOM     43  C   UNL A   1      36.915  29.181  28.944  1.00  0.00     0.010 A 
ATOM     44  C   UNL A   1      37.882  31.391  28.728  1.00  0.00     0.010 A 
ATOM     45  C   UNL A   1      38.019  30.035  29.077  1.00  0.00    -0.014 A 
BRANCH  45  46
ATOM     46  C   UNL A   1      39.249  29.564  29.769  1.00  0.00     0.031 A 
ATOM     47  C   UNL A   1      39.655  30.257  31.045  1.00  0.00     0.074 A 
ATOM     48  C   UNL A   1      39.986  28.539  29.303  1.00  0.00     0.049 A 
ATOM     49  N   UNL A   1      40.704  30.062  31.800  1.00  0.00    -0.248 NA
ATOM     50  C   UNL A   1      38.750  31.312  31.532  1.00  0.00     0.031 C 
ATOM     51  C   UNL A   1      39.683  27.748  28.113  1.00  0.00     0.029 A 
ATOM     52  N   UNL A   1      41.153  27.988  29.783  1.00  0.00    -0.354 N 
ATOM     53  C   UNL A   1      40.584  30.960  32.854  1.00  0.00     0.074 A 
ATOM     54  C   UNL A   1      39.381  31.730  32.619  1.00  0.00     0.031 C 
ATOM     55  C   UNL A   1      40.640  26.814  27.953  1.00  0.00     0.029 A 
ATOM     56  C   UNL A   1      41.642  26.960  29.010  1.00  0.00     0.049 A 
ATOM     57  H   UNL A   1      41.596  28.301  30.604  1.00  0.00     0.167 HD
ATOM     58  C   UNL A   1      41.389  31.121  33.930  1.00  0.00     0.037 A 
ATOM     59  C   UNL A   1      42.773  26.233  29.133  1.00  0.00     0.037 A 
ATOM     60  C   UNL A   1      42.591  30.365  34.163  1.00  0.00     0.049 A 
ATOM     61  C   UNL A   1      43.714  26.505  30.282  1.00  0.00     0.074 A 
ATOM     62  C   UNL A   1      43.475  30.464  35.222  1.00  0.00     0.029 A 
ATOM     63  N   UNL A   1      43.081  29.375  33.324  1.00  0.00    -0.354 N 
ATOM     64  N   UNL A   1      43.584  27.353  31.274  1.00  0.00    -0.248 NA
ATOM     65  C   UNL A   1      44.963  25.725  30.325  1.00  0.00     0.031 C 
ATOM     66  C   UNL A   1      44.526  29.571  35.000  1.00  0.00     0.029 A 
ATOM     67  C   UNL A   1      44.269  28.874  33.830  1.00  0.00     0.049 A 
ATOM     68  H   UNL A   1      42.648  29.074  32.493  1.00  0.00     0.167 HD
ATOM     69  C   UNL A   1      44.714  27.187  32.072  1.00  0.00     0.074 A 
ATOM     70  C   UNL A   1      45.514  26.152  31.454  1.00  0.00     0.031 C 
ATOM     71  C   UNL A   1      45.056  27.835  33.214  1.00  0.00     0.037 A 
BRANCH  58  72
ATOM     72  C   UNL A   1      41.001  32.164  34.941  1.00  0.00     0.058 A 
ATOM     73  C   UNL A   1      40.187  31.849  36.041  1.00  0.00     0.135 A 
ATOM     74  C   UNL A   1      41.489  33.476  34.839  1.00  0.00     0.135 A 
ATOM     75  F   UNL A   1      39.677  30.614  36.174  1.00  0.00    -0.206 F 
ATOM     76  C   UNL A   1      39.857  32.804  36.996  1.00  0.00     0.059 A 
ATOM     77  C   UNL A   1      41.194  34.440  35.799  1.00  0.00     0.059 A 
ATOM     78  F   UNL A   1      42.267  33.829  33.804  1.00  0.00    -0.206 F 
ATOM     79  C   UNL A   1      40.371  34.095  36.869  1.00  0.00     0.060 A 
BRANCH  79  80
ATOM     80  S   UNL A   1      39.948  35.314  38.132  1.00  0.00     0.124 S 
ATOM     81  O   UNL A   1      38.711  34.759  38.672  1.00  0.00    -0.237 OA
ATOM     82  O   UNL A   1      41.108  35.259  39.015  1.00  0.00    -0.237 OA
ATOM     83  O   UNL A   1      39.799  36.553  37.374  1.00  0.00    -0.744 OA
ENDBRANCH  79  80
ENDBRANCH  58  72
BRANCH  59  84
ATOM     84  C   UNL A   1      43.090  25.164  28.142  1.00  0.00     0.058 A 
ATOM     85  C   UNL A   1      43.714  25.473  26.924  1.00  0.00     0.135 A 
ATOM     86  C   UNL A   1      42.766  23.821  28.384  1.00  0.00     0.135 A 
ATOM     87  F   UNL A   1      44.026  26.746  26.635  1.00  0.00    -0.206 F 
ATOM     88  C   UNL A   1      43.999  24.492  25.978  1.00  0.00     0.059 A 
ATOM     89  C   UNL A   1      43.065  22.817  27.467  1.00  0.00     0.059 A 
ATOM     90  F   UNL A   1      42.167  23.470  29.533  1.00  0.00    -0.206 F 
ATOM     91  C   UNL A   1      43.676  23.165  26.263  1.00  0.00     0.060 A 
BRANCH  91  92
ATOM     92  S   UNL A   1      44.101  21.895  25.049  1.00  0.00     0.124 S 
ATOM     93  O   UNL A   1      43.158  20.836  25.388  1.00  0.00    -0.237 OA
ATOM     94  O   UNL A   1      43.856  22.588  23.788  1.00  0.00    -0.237 OA
ATOM     95  O   UNL A   1      45.502  21.607  25.338  1.00  0.00    -0.744 OA
ENDBRANCH  91  92
ENDBRANCH  59  84
BRANCH  71  96
ATOM     96  C   UNL A   1      46.338  27.442  33.900  1.00  0.00     0.058 A 
ATOM     97  C   UNL A   1      46.388  26.382  34.818  1.00  0.00     0.135 A 
ATOM     98  C   UNL A   1      47.550  28.068  33.558  1.00  0.00     0.135 A 
ATOM     99  F   UNL A   1      45.261  25.753  35.184  1.00  0.00    -0.206 F 
ATOM    100  C   UNL A   1      47.591  25.960  35.376  1.00  0.00     0.059 A 
ATOM    101  C   UNL A   1      48.767  27.644  34.082  1.00  0.00     0.059 A 
ATOM    102  F   UNL A   1      47.562  29.080  32.675  1.00  0.00    -0.206 F 
ATOM    103  C   UNL A   1      48.777  26.591  34.994  1.00  0.00     0.060 A 
BRANCH 103 104
ATOM    104  S   UNL A   1      50.334  25.987  35.684  1.00  0.00     0.124 S 
ATOM    105  O   UNL A   1      50.246  24.558  35.407  1.00  0.00    -0.237 OA
ATOM    106  O   UNL A   1      51.324  26.725  34.905  1.00  0.00    -0.237 OA
ATOM    107  O   UNL A   1      50.250  26.358  37.095  1.00  0.00    -0.744 OA
ENDBRANCH 103 104
ENDBRANCH  71  96
ENDBRANCH  45  46
ENDBRANCH  38  40
ENDBRANCH  37  38
ENDBRANCH  36  37
ENDBRANCH  35  36
ENDBRANCH  34  35
ENDBRANCH   1  34
TORSDOF 22
ENDMDL
