MODEL 1
REMARK VINA RESULT:      -9.7      0.000      0.000
REMARK SMILES O=C(OCCOCCOCCOC(=O)[C@@H]1C[N@@H+](CCOc2ccc(F)cc2)C[C@H]1C1CC1)c1ccc(-c2c3nc(c(-c4c(F)cc(S(=O)(=O)[O-])cc4F)c4ccc([nH]4)c(-c4c(F)cc(S(=O)(=O)[O-])cc4F)c4nc(c(-c5c(F)cc(S(=O)(=O)[O-])cc5F)c5ccc2[nH]5)C=C4)C=C3)cc1
REMARK SMILES IDX 8 1 7 2 6 3 5 4 4 5 3 6 2 7 1 8 33 9 34 10 98 11 35 12 97 13
REMARK SMILES IDX 36 14 37 15 38 16 91 17 39 18 96 19 90 20 92 21 40 22 95 23
REMARK SMILES IDX 89 24 88 25 41 27 75 28 54 29 74 30 55 31 58 32 73 33 93 34
REMARK SMILES IDX 56 35 57 36 72 38 94 39 59 40 42 41 43 42 52 43 44 44 45 45
REMARK SMILES IDX 51 46 53 47 46 48 47 49 48 50 49 51 50 52 76 53 77 54 86 55
REMARK SMILES IDX 78 56 79 57 85 58 87 59 80 60 81 61 82 62 83 63 84 64 60 65
REMARK SMILES IDX 61 66 70 67 62 68 63 69 69 70 71 71 64 72 65 73 66 74 67 75
REMARK SMILES IDX 68 76 9 77 10 78 11 79 12 80 13 81 14 82 15 83 16 84 29 85
REMARK SMILES IDX 17 86 28 87 30 89 31 90 32 91 18 92 19 93 20 94 21 95 22 96
REMARK SMILES IDX 27 97 23 98 26 99 24 100 25 101
REMARK H PARENT 92 26 58 37 17 88
REMARK Flexibility Score: inf
ROOT
ATOM      1  C   UNL A   1      34.677  32.353  28.603  1.00  0.00     0.188 C 
ENDROOT
BRANCH   1   2
ATOM      2  C   UNL A   1      34.374  33.719  29.220  1.00  0.00     0.188 C 
BRANCH   2   3
ATOM      3  O   UNL A   1      33.801  33.753  30.520  1.00  0.00    -0.376 OA
BRANCH   3   4
ATOM      4  C   UNL A   1      34.751  33.852  31.583  1.00  0.00     0.202 C 
BRANCH   4   5
ATOM      5  C   UNL A   1      36.267  33.900  31.272  1.00  0.00     0.261 C 
BRANCH   5   6
ATOM      6  O   UNL A   1      36.991  32.656  31.293  1.00  0.00    -0.460 OA
BRANCH   6   7
ATOM      7  C   UNL A   1      37.965  32.163  32.089  1.00  0.00     0.338 C 
ATOM      8  O   UNL A   1      37.799  32.261  33.305  1.00  0.00    -0.246 OA
BRANCH   7   9
ATOM      9  C   UNL A   1      39.268  31.597  31.603  1.00  0.00     0.060 A 
ATOM     10  C   UNL A   1      40.004  30.589  32.214  1.00  0.00     0.016 A 
ATOM     11  C   UNL A   1      39.762  32.088  30.379  1.00  0.00     0.016 A 
ATOM     12  C   UNL A   1      41.164  30.057  31.607  1.00  0.00     0.010 A 
ATOM     13  C   UNL A   1      40.878  31.506  29.741  1.00  0.00     0.010 A 
ATOM     14  C   UNL A   1      41.555  30.412  30.308  1.00  0.00    -0.014 A 
BRANCH  14  15
ATOM     15  C   UNL A   1      42.783  29.804  29.663  1.00  0.00     0.031 A 
ATOM     16  C   UNL A   1      43.888  30.756  29.464  1.00  0.00     0.074 A 
ATOM     17  C   UNL A   1      43.027  28.514  29.293  1.00  0.00     0.049 A 
ATOM     18  N   UNL A   1      44.990  30.538  28.818  1.00  0.00    -0.248 NA
ATOM     19  C   UNL A   1      43.727  32.115  30.008  1.00  0.00     0.031 C 
ATOM     20  C   UNL A   1      42.031  27.492  29.347  1.00  0.00     0.029 A 
ATOM     21  N   UNL A   1      44.070  27.772  28.764  1.00  0.00    -0.354 N 
ATOM     22  C   UNL A   1      45.688  31.710  28.938  1.00  0.00     0.074 A 
ATOM     23  C   UNL A   1      44.829  32.690  29.563  1.00  0.00     0.031 C 
ATOM     24  C   UNL A   1      42.504  26.247  29.256  1.00  0.00     0.029 A 
ATOM     25  C   UNL A   1      43.734  26.428  28.550  1.00  0.00     0.049 A 
ATOM     26  H   UNL A   1      44.956  28.150  28.559  1.00  0.00     0.167 HD
ATOM     27  C   UNL A   1      46.979  31.893  28.627  1.00  0.00     0.037 A 
ATOM     28  C   UNL A   1      44.183  25.467  27.715  1.00  0.00     0.037 A 
ATOM     29  C   UNL A   1      47.797  30.894  28.010  1.00  0.00     0.049 A 
ATOM     30  C   UNL A   1      45.454  25.808  27.052  1.00  0.00     0.074 A 
ATOM     31  C   UNL A   1      49.115  31.002  27.625  1.00  0.00     0.029 A 
ATOM     32  N   UNL A   1      47.373  29.614  27.668  1.00  0.00    -0.354 N 
ATOM     33  N   UNL A   1      46.087  26.949  27.146  1.00  0.00    -0.248 NA
ATOM     34  C   UNL A   1      46.126  24.774  26.269  1.00  0.00     0.031 C 
ATOM     35  C   UNL A   1      49.464  29.819  26.973  1.00  0.00     0.029 A 
ATOM     36  C   UNL A   1      48.389  28.942  27.013  1.00  0.00     0.049 A 
ATOM     37  H   UNL A   1      46.482  29.242  27.863  1.00  0.00     0.167 HD
ATOM     38  C   UNL A   1      47.291  26.745  26.532  1.00  0.00     0.074 A 
ATOM     39  C   UNL A   1      47.274  25.387  26.010  1.00  0.00     0.031 C 
ATOM     40  C   UNL A   1      48.330  27.602  26.476  1.00  0.00     0.037 A 
BRANCH  27  41
ATOM     41  C   UNL A   1      47.514  33.235  28.959  1.00  0.00     0.058 A 
ATOM     42  C   UNL A   1      47.391  34.273  28.030  1.00  0.00     0.135 A 
ATOM     43  C   UNL A   1      48.045  33.516  30.229  1.00  0.00     0.135 A 
ATOM     44  F   UNL A   1      46.820  34.051  26.837  1.00  0.00    -0.206 F 
ATOM     45  C   UNL A   1      47.820  35.551  28.338  1.00  0.00     0.059 A 
ATOM     46  C   UNL A   1      48.451  34.795  30.568  1.00  0.00     0.059 A 
ATOM     47  F   UNL A   1      48.089  32.561  31.173  1.00  0.00    -0.206 F 
ATOM     48  C   UNL A   1      48.356  35.800  29.604  1.00  0.00     0.060 A 
BRANCH  48  49
ATOM     49  S   UNL A   1      48.921  37.468  29.969  1.00  0.00     0.124 S 
ATOM     50  O   UNL A   1      48.049  37.833  31.079  1.00  0.00    -0.237 OA
ATOM     51  O   UNL A   1      50.324  37.246  30.304  1.00  0.00    -0.237 OA
ATOM     52  O   UNL A   1      48.688  38.186  28.720  1.00  0.00    -0.744 OA
ENDBRANCH  48  49
ENDBRANCH  27  41
BRANCH  28  53
ATOM     53  C   UNL A   1      43.442  24.186  27.434  1.00  0.00     0.058 A 
ATOM     54  C   UNL A   1      42.599  24.043  26.311  1.00  0.00     0.135 A 
ATOM     55  C   UNL A   1      43.551  23.070  28.277  1.00  0.00     0.135 A 
ATOM     56  F   UNL A   1      42.418  25.076  25.471  1.00  0.00    -0.206 F 
ATOM     57  C   UNL A   1      41.921  22.851  26.030  1.00  0.00     0.059 A 
ATOM     58  C   UNL A   1      42.893  21.863  28.012  1.00  0.00     0.059 A 
ATOM     59  F   UNL A   1      44.329  23.139  29.368  1.00  0.00    -0.206 F 
ATOM     60  C   UNL A   1      42.083  21.759  26.882  1.00  0.00     0.060 A 
BRANCH  60  61
ATOM     61  S   UNL A   1      41.268  20.192  26.464  1.00  0.00     0.124 S 
ATOM     62  O   UNL A   1      39.953  20.633  26.013  1.00  0.00    -0.237 OA
ATOM     63  O   UNL A   1      42.145  19.662  25.425  1.00  0.00    -0.237 OA
ATOM     64  O   UNL A   1      41.282  19.456  27.725  1.00  0.00    -0.744 OA
ENDBRANCH  60  61
ENDBRANCH  28  53
BRANCH  40  65
ATOM     65  C   UNL A   1      49.553  27.081  25.819  1.00  0.00     0.058 A 
ATOM     66  C   UNL A   1      50.552  26.478  26.593  1.00  0.00     0.135 A 
ATOM     67  C   UNL A   1      49.768  27.278  24.451  1.00  0.00     0.135 A 
ATOM     68  F   UNL A   1      50.362  26.259  27.904  1.00  0.00    -0.206 F 
ATOM     69  C   UNL A   1      51.774  26.154  26.036  1.00  0.00     0.059 A 
ATOM     70  C   UNL A   1      50.968  26.922  23.865  1.00  0.00     0.059 A 
ATOM     71  F   UNL A   1      48.806  27.813  23.682  1.00  0.00    -0.206 F 
ATOM     72  C   UNL A   1      51.976  26.397  24.676  1.00  0.00     0.060 A 
BRANCH  72  73
ATOM     73  S   UNL A   1      53.599  26.051  23.988  1.00  0.00     0.124 S 
ATOM     74  O   UNL A   1      54.360  27.213  24.433  1.00  0.00    -0.237 OA
ATOM     75  O   UNL A   1      53.937  24.784  24.628  1.00  0.00    -0.237 OA
ATOM     76  O   UNL A   1      53.349  25.976  22.552  1.00  0.00    -0.744 OA
ENDBRANCH  72  73
ENDBRANCH  40  65
ENDBRANCH  14  15
ENDBRANCH   7   9
ENDBRANCH   6   7
ENDBRANCH   5   6
ENDBRANCH   4   5
ENDBRANCH   3   4
ENDBRANCH   2   3
ENDBRANCH   1   2
BRANCH   1  77
ATOM     77  O   UNL A   1      33.814  31.864  27.582  1.00  0.00    -0.376 OA
BRANCH  77  78
ATOM     78  C   UNL A   1      33.715  30.453  27.423  1.00  0.00     0.202 C 
BRANCH  78  79
ATOM     79  C   UNL A   1      32.330  29.810  27.234  1.00  0.00     0.261 C 
BRANCH  79  80
ATOM     80  O   UNL A   1      31.735  30.073  25.963  1.00  0.00    -0.463 OA
BRANCH  80  81
ATOM     81  C   UNL A   1      32.071  29.346  24.860  1.00  0.00     0.315 C 
ATOM     82  O   UNL A   1      33.100  29.504  24.219  1.00  0.00    -0.252 OA
BRANCH  81  83
ATOM     83  C   UNL A   1      30.966  28.310  24.500  1.00  0.00     0.163 C 
ATOM     84  C   UNL A   1      31.636  26.505  24.875  1.00  0.00     0.278 C 
ATOM     85  C   UNL A   1      30.554  28.400  22.539  1.00  0.00     0.067 C 
ATOM     86  N   UNL A   1      31.772  25.384  23.359  1.00  0.00    -0.331 N 
ATOM     87  C   UNL A   1      31.208  26.394  21.792  1.00  0.00     0.267 C 
ATOM     88  H   UNL A   1      32.725  25.035  23.251  1.00  0.00     0.348 HD
BRANCH  85  89
ATOM     89  C   UNL A   1      29.141  29.304  22.460  1.00  0.00    -0.001 C 
ATOM     90  C   UNL A   1      29.277  30.831  22.809  1.00  0.00     0.004 C 
ATOM     91  C   UNL A   1      28.009  30.206  23.070  1.00  0.00     0.004 C 
ENDBRANCH  85  89
BRANCH  86  92
ATOM     92  C   UNL A   1      30.783  24.290  23.537  1.00  0.00     0.304 C 
BRANCH  92  93
ATOM     93  C   UNL A   1      31.456  22.935  23.733  1.00  0.00     0.290 C 
BRANCH  93  94
ATOM     94  O   UNL A   1      31.956  22.762  25.066  1.00  0.00    -0.488 OA
BRANCH  94  95
ATOM     95  C   UNL A   1      33.263  22.325  25.040  1.00  0.00     0.119 A 
ATOM     96  C   UNL A   1      35.070  23.222  24.983  1.00  0.00     0.049 A 
ATOM     97  C   UNL A   1      33.301  20.581  25.067  1.00  0.00     0.049 A 
ATOM     98  C   UNL A   1      36.496  22.336  24.867  1.00  0.00     0.043 A 
ATOM     99  C   UNL A   1      34.827  19.891  24.899  1.00  0.00     0.043 A 
ATOM    100  C   UNL A   1      36.312  20.763  24.770  1.00  0.00     0.123 A 
ATOM    101  F   UNL A   1      37.466  20.122  24.604  1.00  0.00    -0.207 F 
ENDBRANCH  94  95
ENDBRANCH  93  94
ENDBRANCH  92  93
ENDBRANCH  86  92
ENDBRANCH  81  83
ENDBRANCH  80  81
ENDBRANCH  79  80
ENDBRANCH  78  79
ENDBRANCH  77  78
ENDBRANCH   1  77
TORSDOF 25
ENDMDL
MODEL 2
REMARK VINA RESULT:      -9.7      0.929      8.045
REMARK SMILES O=C(OCCOCCOCCOC(=O)[C@@H]1C[N@@H+](CCOc2ccc(F)cc2)C[C@H]1C1CC1)c1ccc(-c2c3nc(c(-c4c(F)cc(S(=O)(=O)[O-])cc4F)c4ccc([nH]4)c(-c4c(F)cc(S(=O)(=O)[O-])cc4F)c4nc(c(-c5c(F)cc(S(=O)(=O)[O-])cc5F)c5ccc2[nH]5)C=C4)C=C3)cc1
REMARK SMILES IDX 8 1 7 2 6 3 5 4 4 5 3 6 2 7 1 8 33 9 34 10 98 11 35 12 97 13
REMARK SMILES IDX 36 14 37 15 38 16 91 17 39 18 96 19 90 20 92 21 40 22 95 23
REMARK SMILES IDX 89 24 88 25 41 27 75 28 54 29 74 30 55 31 58 32 73 33 93 34
REMARK SMILES IDX 56 35 57 36 72 38 94 39 59 40 42 41 43 42 52 43 44 44 45 45
REMARK SMILES IDX 51 46 53 47 46 48 47 49 48 50 49 51 50 52 76 53 77 54 86 55
REMARK SMILES IDX 78 56 79 57 85 58 87 59 80 60 81 61 82 62 83 63 84 64 60 65
REMARK SMILES IDX 61 66 70 67 62 68 63 69 69 70 71 71 64 72 65 73 66 74 67 75
REMARK SMILES IDX 68 76 9 77 10 78 11 79 12 80 13 81 14 82 15 83 16 84 29 85
REMARK SMILES IDX 17 86 28 87 30 89 31 90 32 91 18 92 19 93 20 94 21 95 22 96
REMARK SMILES IDX 27 97 23 98 26 99 24 100 25 101
REMARK H PARENT 92 26 58 37 17 88
REMARK Flexibility Score: inf
ROOT
ATOM      1  C   UNL A   1      34.775  33.498  28.954  1.00  0.00     0.188 C 
ENDROOT
BRANCH   1   2
ATOM      2  C   UNL A   1      34.807  32.621  30.207  1.00  0.00     0.188 C 
BRANCH   2   3
ATOM      3  O   UNL A   1      34.544  33.237  31.461  1.00  0.00    -0.376 OA
BRANCH   3   4
ATOM      4  C   UNL A   1      35.528  32.979  32.464  1.00  0.00     0.202 C 
BRANCH   4   5
ATOM      5  C   UNL A   1      36.707  32.018  32.172  1.00  0.00     0.261 C 
BRANCH   5   6
ATOM      6  O   UNL A   1      37.444  31.506  33.297  1.00  0.00    -0.460 OA
BRANCH   6   7
ATOM      7  C   UNL A   1      38.325  30.494  33.446  1.00  0.00     0.338 C 
ATOM      8  O   UNL A   1      38.297  29.876  34.511  1.00  0.00    -0.246 OA
BRANCH   7   9
ATOM      9  C   UNL A   1      39.394  30.131  32.456  1.00  0.00     0.060 A 
ATOM     10  C   UNL A   1      39.419  30.476  31.110  1.00  0.00     0.016 A 
ATOM     11  C   UNL A   1      40.510  29.427  32.949  1.00  0.00     0.016 A 
ATOM     12  C   UNL A   1      40.534  30.174  30.296  1.00  0.00     0.010 A 
ATOM     13  C   UNL A   1      41.651  29.191  32.153  1.00  0.00     0.010 A 
ATOM     14  C   UNL A   1      41.719  29.640  30.822  1.00  0.00    -0.014 A 
BRANCH  14  15
ATOM     15  C   UNL A   1      42.914  29.354  29.937  1.00  0.00     0.031 A 
ATOM     16  C   UNL A   1      42.941  27.989  29.388  1.00  0.00     0.074 A 
ATOM     17  C   UNL A   1      43.925  30.181  29.541  1.00  0.00     0.049 A 
ATOM     18  N   UNL A   1      43.907  27.442  28.720  1.00  0.00    -0.248 NA
ATOM     19  C   UNL A   1      41.779  27.123  29.653  1.00  0.00     0.031 C 
ATOM     20  C   UNL A   1      44.084  31.507  30.049  1.00  0.00     0.029 A 
ATOM     21  N   UNL A   1      45.036  30.130  28.716  1.00  0.00    -0.354 N 
ATOM     22  C   UNL A   1      43.442  26.190  28.421  1.00  0.00     0.074 A 
ATOM     23  C   UNL A   1      42.191  25.989  29.116  1.00  0.00     0.031 C 
ATOM     24  C   UNL A   1      44.913  32.279  29.343  1.00  0.00     0.029 A 
ATOM     25  C   UNL A   1      45.770  31.325  28.711  1.00  0.00     0.049 A 
ATOM     26  H   UNL A   1      45.284  29.338  28.187  1.00  0.00     0.167 HD
ATOM     27  C   UNL A   1      43.995  25.332  27.550  1.00  0.00     0.037 A 
ATOM     28  C   UNL A   1      47.061  31.634  28.462  1.00  0.00     0.037 A 
ATOM     29  C   UNL A   1      45.236  25.570  26.880  1.00  0.00     0.049 A 
ATOM     30  C   UNL A   1      47.817  30.543  27.823  1.00  0.00     0.074 A 
ATOM     31  C   UNL A   1      45.895  24.739  26.001  1.00  0.00     0.029 A 
ATOM     32  N   UNL A   1      46.018  26.712  27.028  1.00  0.00    -0.354 N 
ATOM     33  N   UNL A   1      47.369  29.339  27.580  1.00  0.00    -0.248 NA
ATOM     34  C   UNL A   1      49.167  30.825  27.343  1.00  0.00     0.031 C 
ATOM     35  C   UNL A   1      47.114  25.337  25.684  1.00  0.00     0.029 A 
ATOM     36  C   UNL A   1      47.189  26.576  26.305  1.00  0.00     0.049 A 
ATOM     37  H   UNL A   1      45.774  27.499  27.567  1.00  0.00     0.167 HD
ATOM     38  C   UNL A   1      48.333  28.742  26.815  1.00  0.00     0.074 A 
ATOM     39  C   UNL A   1      49.423  29.699  26.689  1.00  0.00     0.031 C 
ATOM     40  C   UNL A   1      48.269  27.532  26.226  1.00  0.00     0.037 A 
BRANCH  27  41
ATOM     41  C   UNL A   1      43.224  24.085  27.333  1.00  0.00     0.058 A 
ATOM     42  C   UNL A   1      42.544  23.899  26.126  1.00  0.00     0.135 A 
ATOM     43  C   UNL A   1      43.251  23.038  28.269  1.00  0.00     0.135 A 
ATOM     44  F   UNL A   1      42.564  24.853  25.182  1.00  0.00    -0.206 F 
ATOM     45  C   UNL A   1      41.872  22.718  25.867  1.00  0.00     0.059 A 
ATOM     46  C   UNL A   1      42.611  21.836  28.016  1.00  0.00     0.059 A 
ATOM     47  F   UNL A   1      43.973  23.151  29.396  1.00  0.00    -0.206 F 
ATOM     48  C   UNL A   1      41.905  21.698  26.821  1.00  0.00     0.060 A 
BRANCH  48  49
ATOM     49  S   UNL A   1      41.008  20.180  26.463  1.00  0.00     0.124 S 
ATOM     50  O   UNL A   1      39.734  20.701  25.985  1.00  0.00    -0.237 OA
ATOM     51  O   UNL A   1      41.861  19.554  25.458  1.00  0.00    -0.237 OA
ATOM     52  O   UNL A   1      40.968  19.499  27.754  1.00  0.00    -0.744 OA
ENDBRANCH  48  49
ENDBRANCH  27  41
BRANCH  28  53
ATOM     53  C   UNL A   1      47.697  32.946  28.844  1.00  0.00     0.058 A 
ATOM     54  C   UNL A   1      48.454  33.090  30.026  1.00  0.00     0.135 A 
ATOM     55  C   UNL A   1      47.568  34.089  28.043  1.00  0.00     0.135 A 
ATOM     56  F   UNL A   1      48.600  32.049  30.862  1.00  0.00    -0.206 F 
ATOM     57  C   UNL A   1      49.066  34.298  30.381  1.00  0.00     0.059 A 
ATOM     58  C   UNL A   1      48.180  35.305  28.369  1.00  0.00     0.059 A 
ATOM     59  F   UNL A   1      46.855  34.026  26.908  1.00  0.00    -0.206 F 
ATOM     60  C   UNL A   1      48.933  35.401  29.538  1.00  0.00     0.060 A 
BRANCH  60  61
ATOM     61  S   UNL A   1      49.800  36.938  29.962  1.00  0.00     0.124 S 
ATOM     62  O   UNL A   1      49.919  37.598  28.666  1.00  0.00    -0.237 OA
ATOM     63  O   UNL A   1      48.873  37.560  30.902  1.00  0.00    -0.237 OA
ATOM     64  O   UNL A   1      51.055  36.472  30.543  1.00  0.00    -0.744 OA
ENDBRANCH  60  61
ENDBRANCH  28  53
BRANCH  40  65
ATOM     65  C   UNL A   1      49.430  27.174  25.376  1.00  0.00     0.058 A 
ATOM     66  C   UNL A   1      50.608  26.706  25.972  1.00  0.00     0.135 A 
ATOM     67  C   UNL A   1      49.400  27.398  23.995  1.00  0.00     0.135 A 
ATOM     68  F   UNL A   1      50.655  26.463  27.291  1.00  0.00    -0.206 F 
ATOM     69  C   UNL A   1      51.758  26.543  25.224  1.00  0.00     0.059 A 
ATOM     70  C   UNL A   1      50.529  27.201  23.222  1.00  0.00     0.059 A 
ATOM     71  F   UNL A   1      48.269  27.804  23.396  1.00  0.00    -0.206 F 
ATOM     72  C   UNL A   1      51.710  26.812  23.854  1.00  0.00     0.060 A 
BRANCH  72  73
ATOM     73  S   UNL A   1      53.236  26.679  22.915  1.00  0.00     0.124 S 
ATOM     74  O   UNL A   1      53.694  28.064  22.902  1.00  0.00    -0.237 OA
ATOM     75  O   UNL A   1      54.018  25.757  23.732  1.00  0.00    -0.237 OA
ATOM     76  O   UNL A   1      52.796  26.151  21.627  1.00  0.00    -0.744 OA
ENDBRANCH  72  73
ENDBRANCH  40  65
ENDBRANCH  14  15
ENDBRANCH   7   9
ENDBRANCH   6   7
ENDBRANCH   5   6
ENDBRANCH   4   5
ENDBRANCH   3   4
ENDBRANCH   2   3
ENDBRANCH   1   2
BRANCH   1  77
ATOM     77  O   UNL A   1      34.135  32.991  27.789  1.00  0.00    -0.376 OA
BRANCH  77  78
ATOM     78  C   UNL A   1      34.078  31.578  27.630  1.00  0.00     0.202 C 
BRANCH  78  79
ATOM     79  C   UNL A   1      32.749  30.917  27.225  1.00  0.00     0.261 C 
BRANCH  79  80
ATOM     80  O   UNL A   1      32.772  30.308  25.933  1.00  0.00    -0.463 OA
BRANCH  80  81
ATOM     81  C   UNL A   1      33.095  28.993  25.775  1.00  0.00     0.315 C 
ATOM     82  O   UNL A   1      34.191  28.518  26.034  1.00  0.00    -0.252 OA
BRANCH  81  83
ATOM     83  C   UNL A   1      31.901  28.178  25.197  1.00  0.00     0.163 C 
ATOM     84  C   UNL A   1      32.108  26.295  25.705  1.00  0.00     0.278 C 
ATOM     85  C   UNL A   1      31.921  28.263  23.193  1.00  0.00     0.067 C 
ATOM     86  N   UNL A   1      32.320  25.104  24.253  1.00  0.00    -0.331 N 
ATOM     87  C   UNL A   1      32.298  26.137  22.600  1.00  0.00     0.267 C 
ATOM     88  H   UNL A   1      33.186  24.572  24.344  1.00  0.00     0.348 HD
BRANCH  85  89
ATOM     89  C   UNL A   1      30.762  29.420  22.822  1.00  0.00    -0.001 C 
ATOM     90  C   UNL A   1      29.279  28.908  22.728  1.00  0.00     0.004 C 
ATOM     91  C   UNL A   1      29.633  30.049  21.929  1.00  0.00     0.004 C 
ENDBRANCH  85  89
BRANCH  86  92
ATOM     92  C   UNL A   1      31.117  24.233  24.224  1.00  0.00     0.304 C 
BRANCH  92  93
ATOM     93  C   UNL A   1      31.453  22.808  23.797  1.00  0.00     0.290 C 
BRANCH  93  94
ATOM     94  O   UNL A   1      31.549  21.912  24.913  1.00  0.00    -0.488 OA
BRANCH  94  95
ATOM     95  C   UNL A   1      32.831  21.420  25.028  1.00  0.00     0.119 A 
ATOM     96  C   UNL A   1      34.622  22.198  25.539  1.00  0.00     0.049 A 
ATOM     97  C   UNL A   1      32.847  19.721  24.630  1.00  0.00     0.049 A 
ATOM     98  C   UNL A   1      36.034  21.285  25.481  1.00  0.00     0.043 A 
ATOM     99  C   UNL A   1      34.370  19.004  24.591  1.00  0.00     0.043 A 
ATOM    100  C   UNL A   1      35.860  19.795  24.966  1.00  0.00     0.123 A 
ATOM    101  F   UNL A   1      37.018  19.147  24.869  1.00  0.00    -0.207 F 
ENDBRANCH  94  95
ENDBRANCH  93  94
ENDBRANCH  92  93
ENDBRANCH  86  92
ENDBRANCH  81  83
ENDBRANCH  80  81
ENDBRANCH  79  80
ENDBRANCH  78  79
ENDBRANCH  77  78
ENDBRANCH   1  77
TORSDOF 25
ENDMDL
MODEL 3
REMARK VINA RESULT:      -9.5      1.832      8.250
REMARK SMILES O=C(OCCOCCOCCOC(=O)[C@@H]1C[N@@H+](CCOc2ccc(F)cc2)C[C@H]1C1CC1)c1ccc(-c2c3nc(c(-c4c(F)cc(S(=O)(=O)[O-])cc4F)c4ccc([nH]4)c(-c4c(F)cc(S(=O)(=O)[O-])cc4F)c4nc(c(-c5c(F)cc(S(=O)(=O)[O-])cc5F)c5ccc2[nH]5)C=C4)C=C3)cc1
REMARK SMILES IDX 8 1 7 2 6 3 5 4 4 5 3 6 2 7 1 8 33 9 34 10 98 11 35 12 97 13
REMARK SMILES IDX 36 14 37 15 38 16 91 17 39 18 96 19 90 20 92 21 40 22 95 23
REMARK SMILES IDX 89 24 88 25 41 27 75 28 54 29 74 30 55 31 58 32 73 33 93 34
REMARK SMILES IDX 56 35 57 36 72 38 94 39 59 40 42 41 43 42 52 43 44 44 45 45
REMARK SMILES IDX 51 46 53 47 46 48 47 49 48 50 49 51 50 52 76 53 77 54 86 55
REMARK SMILES IDX 78 56 79 57 85 58 87 59 80 60 81 61 82 62 83 63 84 64 60 65
REMARK SMILES IDX 61 66 70 67 62 68 63 69 69 70 71 71 64 72 65 73 66 74 67 75
REMARK SMILES IDX 68 76 9 77 10 78 11 79 12 80 13 81 14 82 15 83 16 84 29 85
REMARK SMILES IDX 17 86 28 87 30 89 31 90 32 91 18 92 19 93 20 94 21 95 22 96
REMARK SMILES IDX 27 97 23 98 26 99 24 100 25 101
REMARK H PARENT 92 26 58 37 17 88
REMARK Flexibility Score: inf
ROOT
ATOM      1  C   UNL A   1      33.740  33.353  27.983  1.00  0.00     0.188 C 
ENDROOT
BRANCH   1   2
ATOM      2  C   UNL A   1      34.058  33.583  29.461  1.00  0.00     0.188 C 
BRANCH   2   3
ATOM      3  O   UNL A   1      35.402  33.881  29.817  1.00  0.00    -0.376 OA
BRANCH   3   4
ATOM      4  C   UNL A   1      36.361  33.590  28.800  1.00  0.00     0.202 C 
BRANCH   4   5
ATOM      5  C   UNL A   1      37.260  32.333  28.911  1.00  0.00     0.261 C 
BRANCH   5   6
ATOM      6  O   UNL A   1      36.632  31.049  28.743  1.00  0.00    -0.460 OA
BRANCH   6   7
ATOM      7  C   UNL A   1      37.089  29.835  28.364  1.00  0.00     0.338 C 
ATOM      8  O   UNL A   1      36.274  28.912  28.337  1.00  0.00    -0.246 OA
BRANCH   7   9
ATOM      9  C   UNL A   1      38.524  29.510  28.070  1.00  0.00     0.060 A 
ATOM     10  C   UNL A   1      39.090  29.350  26.810  1.00  0.00     0.016 A 
ATOM     11  C   UNL A   1      39.398  29.419  29.171  1.00  0.00     0.016 A 
ATOM     12  C   UNL A   1      40.480  29.154  26.650  1.00  0.00     0.010 A 
ATOM     13  C   UNL A   1      40.794  29.296  29.004  1.00  0.00     0.010 A 
ATOM     14  C   UNL A   1      41.375  29.247  27.724  1.00  0.00    -0.014 A 
BRANCH  14  15
ATOM     15  C   UNL A   1      42.866  29.067  27.525  1.00  0.00     0.031 A 
ATOM     16  C   UNL A   1      43.272  27.676  27.267  1.00  0.00     0.074 A 
ATOM     17  C   UNL A   1      43.862  29.999  27.499  1.00  0.00     0.049 A 
ATOM     18  N   UNL A   1      44.484  27.224  27.196  1.00  0.00    -0.248 NA
ATOM     19  C   UNL A   1      42.207  26.670  27.115  1.00  0.00     0.031 C 
ATOM     20  C   UNL A   1      43.642  31.375  27.810  1.00  0.00     0.029 A 
ATOM     21  N   UNL A   1      45.229  30.042  27.277  1.00  0.00    -0.354 N 
ATOM     22  C   UNL A   1      44.332  25.892  26.920  1.00  0.00     0.074 A 
ATOM     23  C   UNL A   1      42.926  25.568  27.004  1.00  0.00     0.031 C 
ATOM     24  C   UNL A   1      44.628  32.195  27.439  1.00  0.00     0.029 A 
ATOM     25  C   UNL A   1      45.765  31.330  27.415  1.00  0.00     0.049 A 
ATOM     26  H   UNL A   1      45.767  29.251  27.047  1.00  0.00     0.167 HD
ATOM     27  C   UNL A   1      45.302  25.052  26.535  1.00  0.00     0.037 A 
ATOM     28  C   UNL A   1      46.989  31.811  27.725  1.00  0.00     0.037 A 
ATOM     29  C   UNL A   1      46.685  25.414  26.463  1.00  0.00     0.049 A 
ATOM     30  C   UNL A   1      48.054  30.794  27.671  1.00  0.00     0.074 A 
ATOM     31  C   UNL A   1      47.750  24.614  26.114  1.00  0.00     0.029 A 
ATOM     32  N   UNL A   1      47.198  26.672  26.765  1.00  0.00    -0.354 N 
ATOM     33  N   UNL A   1      47.885  29.517  27.445  1.00  0.00    -0.248 NA
ATOM     34  C   UNL A   1      49.439  31.235  27.808  1.00  0.00     0.031 C 
ATOM     35  C   UNL A   1      48.916  25.361  26.287  1.00  0.00     0.029 A 
ATOM     36  C   UNL A   1      48.578  26.650  26.674  1.00  0.00     0.049 A 
ATOM     37  H   UNL A   1      46.659  27.459  27.007  1.00  0.00     0.167 HD
ATOM     38  C   UNL A   1      49.145  29.007  27.296  1.00  0.00     0.074 A 
ATOM     39  C   UNL A   1      50.074  30.104  27.524  1.00  0.00     0.031 C 
ATOM     40  C   UNL A   1      49.476  27.750  26.938  1.00  0.00     0.037 A 
BRANCH  27  41
ATOM     41  C   UNL A   1      44.842  23.685  26.194  1.00  0.00     0.058 A 
ATOM     42  C   UNL A   1      44.859  23.267  24.859  1.00  0.00     0.135 A 
ATOM     43  C   UNL A   1      44.490  22.762  27.192  1.00  0.00     0.135 A 
ATOM     44  F   UNL A   1      45.262  24.104  23.892  1.00  0.00    -0.206 F 
ATOM     45  C   UNL A   1      44.499  21.976  24.518  1.00  0.00     0.059 A 
ATOM     46  C   UNL A   1      44.157  21.456  26.875  1.00  0.00     0.059 A 
ATOM     47  F   UNL A   1      44.554  23.106  28.489  1.00  0.00    -0.206 F 
ATOM     48  C   UNL A   1      44.142  21.082  25.531  1.00  0.00     0.060 A 
BRANCH  48  49
ATOM     49  S   UNL A   1      43.662  19.416  25.055  1.00  0.00     0.124 S 
ATOM     50  O   UNL A   1      42.227  19.442  25.309  1.00  0.00    -0.237 OA
ATOM     51  O   UNL A   1      44.063  19.374  23.652  1.00  0.00    -0.237 OA
ATOM     52  O   UNL A   1      44.446  18.569  25.949  1.00  0.00    -0.744 OA
ENDBRANCH  48  49
ENDBRANCH  27  41
BRANCH  28  53
ATOM     53  C   UNL A   1      47.249  33.235  28.141  1.00  0.00     0.058 A 
ATOM     54  C   UNL A   1      47.064  33.668  29.472  1.00  0.00     0.135 A 
ATOM     55  C   UNL A   1      47.687  34.203  27.226  1.00  0.00     0.135 A 
ATOM     56  F   UNL A   1      46.618  32.809  30.402  1.00  0.00    -0.206 F 
ATOM     57  C   UNL A   1      47.322  34.985  29.874  1.00  0.00     0.059 A 
ATOM     58  C   UNL A   1      47.964  35.522  27.605  1.00  0.00     0.059 A 
ATOM     59  F   UNL A   1      47.876  33.862  25.942  1.00  0.00    -0.206 F 
ATOM     60  C   UNL A   1      47.784  35.905  28.933  1.00  0.00     0.060 A 
BRANCH  60  61
ATOM     61  S   UNL A   1      48.196  37.586  29.480  1.00  0.00     0.124 S 
ATOM     62  O   UNL A   1      46.884  38.218  29.564  1.00  0.00    -0.237 OA
ATOM     63  O   UNL A   1      48.858  37.336  30.756  1.00  0.00    -0.237 OA
ATOM     64  O   UNL A   1      49.063  38.085  28.417  1.00  0.00    -0.744 OA
ENDBRANCH  60  61
ENDBRANCH  28  53
BRANCH  40  65
ATOM     65  C   UNL A   1      50.927  27.497  26.764  1.00  0.00     0.058 A 
ATOM     66  C   UNL A   1      51.529  27.738  25.523  1.00  0.00     0.135 A 
ATOM     67  C   UNL A   1      51.679  26.923  27.794  1.00  0.00     0.135 A 
ATOM     68  F   UNL A   1      50.833  28.308  24.526  1.00  0.00    -0.206 F 
ATOM     69  C   UNL A   1      52.829  27.338  25.283  1.00  0.00     0.059 A 
ATOM     70  C   UNL A   1      52.995  26.554  27.587  1.00  0.00     0.059 A 
ATOM     71  F   UNL A   1      51.135  26.725  29.006  1.00  0.00    -0.206 F 
ATOM     72  C   UNL A   1      53.545  26.731  26.317  1.00  0.00     0.060 A 
BRANCH  72  73
ATOM     73  S   UNL A   1      55.204  26.139  25.960  1.00  0.00     0.124 S 
ATOM     74  O   UNL A   1      55.446  25.248  27.090  1.00  0.00    -0.237 OA
ATOM     75  O   UNL A   1      55.024  25.491  24.665  1.00  0.00    -0.237 OA
ATOM     76  O   UNL A   1      56.001  27.361  25.940  1.00  0.00    -0.744 OA
ENDBRANCH  72  73
ENDBRANCH  40  65
ENDBRANCH  14  15
ENDBRANCH   7   9
ENDBRANCH   6   7
ENDBRANCH   5   6
ENDBRANCH   4   5
ENDBRANCH   3   4
ENDBRANCH   2   3
ENDBRANCH   1   2
BRANCH   1  77
ATOM     77  O   UNL A   1      32.892  32.264  27.633  1.00  0.00    -0.376 OA
BRANCH  77  78
ATOM     78  C   UNL A   1      33.482  31.163  26.951  1.00  0.00     0.202 C 
BRANCH  78  79
ATOM     79  C   UNL A   1      32.970  29.739  27.233  1.00  0.00     0.261 C 
BRANCH  79  80
ATOM     80  O   UNL A   1      32.060  29.243  26.251  1.00  0.00    -0.463 OA
BRANCH  80  81
ATOM     81  C   UNL A   1      32.502  28.573  25.149  1.00  0.00     0.315 C 
ATOM     82  O   UNL A   1      33.565  28.796  24.589  1.00  0.00    -0.252 OA
BRANCH  81  83
ATOM     83  C   UNL A   1      31.469  27.508  24.676  1.00  0.00     0.163 C 
ATOM     84  C   UNL A   1      32.224  25.720  24.953  1.00  0.00     0.278 C 
ATOM     85  C   UNL A   1      31.124  27.715  22.711  1.00  0.00     0.067 C 
ATOM     86  N   UNL A   1      32.476  24.716  23.371  1.00  0.00    -0.331 N 
ATOM     87  C   UNL A   1      31.913  25.803  21.855  1.00  0.00     0.267 C 
ATOM     88  H   UNL A   1      33.450  24.426  23.277  1.00  0.00     0.348 HD
BRANCH  85  89
ATOM     89  C   UNL A   1      29.667  28.546  22.638  1.00  0.00    -0.001 C 
ATOM     90  C   UNL A   1      29.740  30.023  22.103  1.00  0.00     0.004 C 
ATOM     91  C   UNL A   1      28.686  29.709  23.029  1.00  0.00     0.004 C 
ENDBRANCH  85  89
BRANCH  86  92
ATOM     92  C   UNL A   1      31.542  23.562  23.434  1.00  0.00     0.304 C 
BRANCH  92  93
ATOM     93  C   UNL A   1      32.139  22.308  22.804  1.00  0.00     0.290 C 
BRANCH  93  94
ATOM     94  O   UNL A   1      32.791  21.469  23.768  1.00  0.00    -0.488 OA
BRANCH  94  95
ATOM     95  C   UNL A   1      33.925  22.083  24.254  1.00  0.00     0.119 A 
ATOM     96  C   UNL A   1      35.677  22.689  23.456  1.00  0.00     0.049 A 
ATOM     97  C   UNL A   1      33.745  22.384  25.963  1.00  0.00     0.049 A 
ATOM     98  C   UNL A   1      36.904  23.342  24.405  1.00  0.00     0.043 A 
ATOM     99  C   UNL A   1      35.106  23.007  26.733  1.00  0.00     0.043 A 
ATOM    100  C   UNL A   1      36.597  23.412  25.960  1.00  0.00     0.123 A 
ATOM    101  F   UNL A   1      37.629  23.865  26.666  1.00  0.00    -0.207 F 
ENDBRANCH  94  95
ENDBRANCH  93  94
ENDBRANCH  92  93
ENDBRANCH  86  92
ENDBRANCH  81  83
ENDBRANCH  80  81
ENDBRANCH  79  80
ENDBRANCH  78  79
ENDBRANCH  77  78
ENDBRANCH   1  77
TORSDOF 25
ENDMDL
