MODEL 1
REMARK VINA RESULT:     -10.3      0.000      0.000
REMARK SMILES C[C@@H](C(=O)OCCOCCOCCOC(=O)c1ccc(-c2c3nc(c(-c4c(F)cc(S(=O)(=O)[O-])cc4F)c4ccc([nH]4)c(-c4c(F)cc(S(=O)(=O)[O-])cc4F)c4nc(c(-c5c(F)cc(S(=O)(=O)[O-])cc5F)c5ccc2[nH]5)C=C4)C=C3)cc1)c1ccc(-c2ccc3[nH]ccc3c2)cc1
REMARK SMILES IDX 10 1 9 2 8 3 7 4 6 5 5 6 3 7 4 8 2 9 1 10 83 11 84 12 97 13
REMARK SMILES IDX 85 14 96 15 86 16 87 17 88 18 95 19 89 20 94 21 90 22 93 23
REMARK SMILES IDX 91 24 92 25 11 27 12 28 13 29 14 30 15 31 16 32 17 33 18 34
REMARK SMILES IDX 82 35 19 36 81 37 20 38 21 39 22 40 75 41 23 42 80 43 74 44
REMARK SMILES IDX 76 45 24 46 79 47 73 48 72 49 25 51 59 52 38 53 58 54 39 55
REMARK SMILES IDX 42 56 57 57 77 58 40 59 41 60 56 62 78 63 43 64 26 65 27 66
REMARK SMILES IDX 36 67 28 68 29 69 35 70 37 71 30 72 31 73 32 74 33 75 34 76
REMARK SMILES IDX 60 77 61 78 70 79 62 80 63 81 69 82 71 83 64 84 65 85 66 86
REMARK SMILES IDX 67 87 68 88 44 89 45 90 54 91 46 92 47 93 53 94 55 95 48 96
REMARK SMILES IDX 49 97 50 98 51 99 52 100
REMARK H PARENT 91 26 76 50 42 61
REMARK Flexibility Score: inf
ROOT
ATOM      1  C   UNL A   1      42.292  21.993  26.345  1.00  0.00     0.188 C 
ENDROOT
BRANCH   1   2
ATOM      2  C   UNL A   1      41.616  20.626  26.507  1.00  0.00     0.188 C 
BRANCH   2   3
ATOM      3  O   UNL A   1      40.203  20.595  26.554  1.00  0.00    -0.376 OA
BRANCH   3   4
ATOM      4  C   UNL A   1      39.472  21.760  26.201  1.00  0.00     0.202 C 
BRANCH   4   5
ATOM      5  C   UNL A   1      38.113  21.723  25.468  1.00  0.00     0.261 C 
BRANCH   5   6
ATOM      6  O   UNL A   1      37.074  22.568  25.998  1.00  0.00    -0.463 OA
BRANCH   6   7
ATOM      7  C   UNL A   1      35.796  22.194  25.720  1.00  0.00     0.313 C 
ATOM      8  O   UNL A   1      35.498  21.491  24.758  1.00  0.00    -0.252 OA
BRANCH   7   9
ATOM      9  C   UNL A   1      34.744  22.710  26.725  1.00  0.00     0.126 C 
ATOM     10  C   UNL A   1      34.012  21.608  27.504  1.00  0.00     0.025 C 
BRANCH   9  11
ATOM     11  C   UNL A   1      33.878  23.860  26.188  1.00  0.00    -0.034 A 
ATOM     12  C   UNL A   1      34.511  24.929  25.536  1.00  0.00     0.005 A 
ATOM     13  C   UNL A   1      32.491  23.975  26.400  1.00  0.00     0.005 A 
ATOM     14  C   UNL A   1      33.803  26.059  25.124  1.00  0.00     0.009 A 
ATOM     15  C   UNL A   1      31.777  25.120  25.988  1.00  0.00     0.009 A 
ATOM     16  C   UNL A   1      32.427  26.184  25.352  1.00  0.00    -0.018 A 
BRANCH  16  17
ATOM     17  C   UNL A   1      31.722  27.373  24.850  1.00  0.00    -0.018 A 
ATOM     18  C   UNL A   1      32.070  28.614  25.387  1.00  0.00     0.011 A 
ATOM     19  C   UNL A   1      30.652  27.313  23.928  1.00  0.00     0.019 A 
ATOM     20  C   UNL A   1      31.432  29.784  25.001  1.00  0.00     0.027 A 
ATOM     21  C   UNL A   1      29.963  28.497  23.557  1.00  0.00    -0.000 A 
ATOM     22  C   UNL A   1      30.412  29.709  24.066  1.00  0.00     0.045 A 
ATOM     23  C   UNL A   1      28.803  28.806  22.790  1.00  0.00     0.028 A 
ATOM     24  N   UNL A   1      29.672  30.717  23.500  1.00  0.00    -0.361 N 
ATOM     25  C   UNL A   1      28.634  30.175  22.794  1.00  0.00     0.083 A 
ATOM     26  H   UNL A   1      29.858  31.680  23.590  1.00  0.00     0.166 HD
ENDBRANCH  16  17
ENDBRANCH   9  11
ENDBRANCH   7   9
ENDBRANCH   6   7
ENDBRANCH   5   6
ENDBRANCH   4   5
ENDBRANCH   3   4
ENDBRANCH   2   3
ENDBRANCH   1   2
BRANCH   1  27
ATOM     27  O   UNL A   1      43.145  22.193  25.244  1.00  0.00    -0.376 OA
BRANCH  27  28
ATOM     28  C   UNL A   1      43.256  23.472  24.646  1.00  0.00     0.202 C 
BRANCH  28  29
ATOM     29  C   UNL A   1      42.916  24.825  25.308  1.00  0.00     0.261 C 
BRANCH  29  30
ATOM     30  O   UNL A   1      43.950  25.549  25.978  1.00  0.00    -0.460 OA
BRANCH  30  31
ATOM     31  C   UNL A   1      44.204  25.187  27.260  1.00  0.00     0.338 C 
ATOM     32  O   UNL A   1      44.926  24.278  27.637  1.00  0.00    -0.246 OA
BRANCH  31  33
ATOM     33  C   UNL A   1      43.621  26.221  28.140  1.00  0.00     0.060 A 
ATOM     34  C   UNL A   1      43.927  27.573  27.919  1.00  0.00     0.016 A 
ATOM     35  C   UNL A   1      42.763  25.849  29.175  1.00  0.00     0.016 A 
ATOM     36  C   UNL A   1      43.381  28.558  28.745  1.00  0.00     0.010 A 
ATOM     37  C   UNL A   1      42.246  26.833  30.019  1.00  0.00     0.010 A 
ATOM     38  C   UNL A   1      42.571  28.188  29.826  1.00  0.00    -0.014 A 
BRANCH  38  39
ATOM     39  C   UNL A   1      42.214  29.178  30.873  1.00  0.00     0.031 A 
ATOM     40  C   UNL A   1      43.185  29.392  32.001  1.00  0.00     0.074 A 
ATOM     41  C   UNL A   1      41.029  29.816  30.856  1.00  0.00     0.049 A 
ATOM     42  N   UNL A   1      43.089  30.181  33.036  1.00  0.00    -0.248 NA
ATOM     43  C   UNL A   1      44.415  28.582  31.970  1.00  0.00     0.031 C 
ATOM     44  C   UNL A   1      40.016  29.662  29.818  1.00  0.00     0.029 A 
ATOM     45  N   UNL A   1      40.482  30.729  31.728  1.00  0.00    -0.354 N 
ATOM     46  C   UNL A   1      44.213  29.919  33.813  1.00  0.00     0.074 A 
ATOM     47  C   UNL A   1      44.981  28.908  33.121  1.00  0.00     0.031 C 
ATOM     48  C   UNL A   1      38.987  30.483  30.089  1.00  0.00     0.029 A 
ATOM     49  C   UNL A   1      39.263  31.226  31.321  1.00  0.00     0.049 A 
ATOM     50  H   UNL A   1      40.922  31.002  32.566  1.00  0.00     0.167 HD
ATOM     51  C   UNL A   1      44.555  30.458  35.006  1.00  0.00     0.037 A 
ATOM     52  C   UNL A   1      38.510  32.227  31.837  1.00  0.00     0.037 A 
ATOM     53  C   UNL A   1      43.784  31.475  35.672  1.00  0.00     0.049 A 
ATOM     54  C   UNL A   1      38.991  32.907  33.100  1.00  0.00     0.074 A 
ATOM     55  C   UNL A   1      44.044  32.098  36.880  1.00  0.00     0.029 A 
ATOM     56  N   UNL A   1      42.601  32.017  35.189  1.00  0.00    -0.354 N 
ATOM     57  N   UNL A   1      40.104  32.720  33.770  1.00  0.00    -0.248 NA
ATOM     58  C   UNL A   1      38.114  33.937  33.677  1.00  0.00     0.031 C 
ATOM     59  C   UNL A   1      42.990  32.974  37.154  1.00  0.00     0.029 A 
ATOM     60  C   UNL A   1      42.105  32.947  36.087  1.00  0.00     0.049 A 
ATOM     61  H   UNL A   1      42.177  31.775  34.334  1.00  0.00     0.167 HD
ATOM     62  C   UNL A   1      40.051  33.595  34.853  1.00  0.00     0.074 A 
ATOM     63  C   UNL A   1      38.838  34.371  34.698  1.00  0.00     0.031 C 
ATOM     64  C   UNL A   1      40.900  33.719  35.903  1.00  0.00     0.037 A 
BRANCH  51  65
ATOM     65  C   UNL A   1      45.775  29.916  35.696  1.00  0.00     0.058 A 
ATOM     66  C   UNL A   1      45.712  28.852  36.608  1.00  0.00     0.135 A 
ATOM     67  C   UNL A   1      47.040  30.461  35.413  1.00  0.00     0.135 A 
ATOM     68  F   UNL A   1      44.529  28.309  36.934  1.00  0.00    -0.206 F 
ATOM     69  C   UNL A   1      46.856  28.360  37.230  1.00  0.00     0.059 A 
ATOM     70  C   UNL A   1      48.200  29.964  35.999  1.00  0.00     0.059 A 
ATOM     71  F   UNL A   1      47.158  31.486  34.554  1.00  0.00    -0.206 F 
ATOM     72  C   UNL A   1      48.096  28.921  36.917  1.00  0.00     0.060 A 
BRANCH  72  73
ATOM     73  S   UNL A   1      49.571  28.260  37.720  1.00  0.00     0.124 S 
ATOM     74  O   UNL A   1      49.109  26.939  38.137  1.00  0.00    -0.237 OA
ATOM     75  O   UNL A   1      50.549  28.277  36.638  1.00  0.00    -0.237 OA
ATOM     76  O   UNL A   1      49.822  29.205  38.803  1.00  0.00    -0.744 OA
ENDBRANCH  72  73
ENDBRANCH  51  65
BRANCH  52  77
ATOM     77  C   UNL A   1      37.311  32.750  31.101  1.00  0.00     0.058 A 
ATOM     78  C   UNL A   1      37.462  33.678  30.050  1.00  0.00     0.135 A 
ATOM     79  C   UNL A   1      36.005  32.329  31.390  1.00  0.00     0.135 A 
ATOM     80  F   UNL A   1      38.683  34.132  29.726  1.00  0.00    -0.206 F 
ATOM     81  C   UNL A   1      36.378  34.170  29.328  1.00  0.00     0.059 A 
ATOM     82  C   UNL A   1      34.906  32.779  30.658  1.00  0.00     0.059 A 
ATOM     83  F   UNL A   1      35.785  31.446  32.374  1.00  0.00    -0.206 F 
ATOM     84  C   UNL A   1      35.101  33.708  29.636  1.00  0.00     0.060 A 
BRANCH  84  85
ATOM     85  S   UNL A   1      33.702  34.319  28.670  1.00  0.00     0.124 S 
ATOM     86  O   UNL A   1      32.774  34.720  29.721  1.00  0.00    -0.237 OA
ATOM     87  O   UNL A   1      34.309  35.402  27.905  1.00  0.00    -0.237 OA
ATOM     88  O   UNL A   1      33.301  33.154  27.887  1.00  0.00    -0.744 OA
ENDBRANCH  84  85
ENDBRANCH  52  77
BRANCH  64  89
ATOM     89  C   UNL A   1      40.544  34.716  36.974  1.00  0.00     0.058 A 
ATOM     90  C   UNL A   1      41.146  35.985  37.022  1.00  0.00     0.135 A 
ATOM     91  C   UNL A   1      39.546  34.431  37.921  1.00  0.00     0.135 A 
ATOM     92  F   UNL A   1      42.105  36.311  36.141  1.00  0.00    -0.206 F 
ATOM     93  C   UNL A   1      40.795  36.922  37.989  1.00  0.00     0.059 A 
ATOM     94  C   UNL A   1      39.155  35.367  38.874  1.00  0.00     0.059 A 
ATOM     95  F   UNL A   1      38.925  33.241  37.912  1.00  0.00    -0.206 F 
ATOM     96  C   UNL A   1      39.796  36.604  38.909  1.00  0.00     0.060 A 
BRANCH  96  97
ATOM     97  S   UNL A   1      39.332  37.844  40.137  1.00  0.00     0.124 S 
ATOM     98  O   UNL A   1      38.127  38.409  39.540  1.00  0.00    -0.237 OA
ATOM     99  O   UNL A   1      39.127  37.035  41.334  1.00  0.00    -0.237 OA
ATOM    100  O   UNL A   1      40.489  38.733  40.177  1.00  0.00    -0.744 OA
ENDBRANCH  96  97
ENDBRANCH  64  89
ENDBRANCH  38  39
ENDBRANCH  31  33
ENDBRANCH  30  31
ENDBRANCH  29  30
ENDBRANCH  28  29
ENDBRANCH  27  28
ENDBRANCH   1  27
TORSDOF 22
ENDMDL
MODEL 2
REMARK VINA RESULT:     -10.3      0.834      8.091
REMARK SMILES C[C@@H](C(=O)OCCOCCOCCOC(=O)c1ccc(-c2c3nc(c(-c4c(F)cc(S(=O)(=O)[O-])cc4F)c4ccc([nH]4)c(-c4c(F)cc(S(=O)(=O)[O-])cc4F)c4nc(c(-c5c(F)cc(S(=O)(=O)[O-])cc5F)c5ccc2[nH]5)C=C4)C=C3)cc1)c1ccc(-c2ccc3[nH]ccc3c2)cc1
REMARK SMILES IDX 10 1 9 2 8 3 7 4 6 5 5 6 3 7 4 8 2 9 1 10 83 11 84 12 97 13
REMARK SMILES IDX 85 14 96 15 86 16 87 17 88 18 95 19 89 20 94 21 90 22 93 23
REMARK SMILES IDX 91 24 92 25 11 27 12 28 13 29 14 30 15 31 16 32 17 33 18 34
REMARK SMILES IDX 82 35 19 36 81 37 20 38 21 39 22 40 75 41 23 42 80 43 74 44
REMARK SMILES IDX 76 45 24 46 79 47 73 48 72 49 25 51 59 52 38 53 58 54 39 55
REMARK SMILES IDX 42 56 57 57 77 58 40 59 41 60 56 62 78 63 43 64 26 65 27 66
REMARK SMILES IDX 36 67 28 68 29 69 35 70 37 71 30 72 31 73 32 74 33 75 34 76
REMARK SMILES IDX 60 77 61 78 70 79 62 80 63 81 69 82 71 83 64 84 65 85 66 86
REMARK SMILES IDX 67 87 68 88 44 89 45 90 54 91 46 92 47 93 53 94 55 95 48 96
REMARK SMILES IDX 49 97 50 98 51 99 52 100
REMARK H PARENT 91 26 76 50 42 61
REMARK Flexibility Score: inf
ROOT
ATOM      1  C   UNL A   1      42.118  21.245  26.369  1.00  0.00     0.188 C 
ENDROOT
BRANCH   1   2
ATOM      2  C   UNL A   1      41.167  20.069  26.121  1.00  0.00     0.188 C 
BRANCH   2   3
ATOM      3  O   UNL A   1      39.780  20.304  26.269  1.00  0.00    -0.376 OA
BRANCH   3   4
ATOM      4  C   UNL A   1      39.259  21.591  25.969  1.00  0.00     0.202 C 
BRANCH   4   5
ATOM      5  C   UNL A   1      37.911  21.816  25.251  1.00  0.00     0.261 C 
BRANCH   5   6
ATOM      6  O   UNL A   1      37.131  22.946  25.687  1.00  0.00    -0.463 OA
BRANCH   6   7
ATOM      7  C   UNL A   1      35.829  22.965  25.293  1.00  0.00     0.313 C 
ATOM      8  O   UNL A   1      35.465  22.637  24.167  1.00  0.00    -0.252 OA
BRANCH   7   9
ATOM      9  C   UNL A   1      34.835  23.419  26.384  1.00  0.00     0.126 C 
ATOM     10  C   UNL A   1      34.367  22.300  27.325  1.00  0.00     0.025 C 
BRANCH   9  11
ATOM     11  C   UNL A   1      33.755  24.389  25.882  1.00  0.00    -0.034 A 
ATOM     12  C   UNL A   1      32.472  23.886  25.617  1.00  0.00     0.005 A 
ATOM     13  C   UNL A   1      33.989  25.739  25.559  1.00  0.00     0.005 A 
ATOM     14  C   UNL A   1      31.475  24.682  25.053  1.00  0.00     0.009 A 
ATOM     15  C   UNL A   1      32.982  26.541  24.983  1.00  0.00     0.009 A 
ATOM     16  C   UNL A   1      31.711  26.020  24.713  1.00  0.00    -0.018 A 
BRANCH  16  17
ATOM     17  C   UNL A   1      30.609  26.827  24.169  1.00  0.00    -0.018 A 
ATOM     18  C   UNL A   1      29.311  26.325  24.288  1.00  0.00     0.011 A 
ATOM     19  C   UNL A   1      30.803  28.029  23.452  1.00  0.00     0.019 A 
ATOM     20  C   UNL A   1      28.214  27.000  23.770  1.00  0.00     0.027 A 
ATOM     21  C   UNL A   1      29.695  28.707  22.881  1.00  0.00    -0.000 A 
ATOM     22  C   UNL A   1      28.423  28.197  23.106  1.00  0.00     0.045 A 
ATOM     23  C   UNL A   1      29.517  29.827  22.018  1.00  0.00     0.028 A 
ATOM     24  N   UNL A   1      27.507  29.059  22.554  1.00  0.00    -0.361 N 
ATOM     25  C   UNL A   1      28.164  30.004  21.813  1.00  0.00     0.083 A 
ATOM     26  H   UNL A   1      26.531  29.005  22.672  1.00  0.00     0.166 HD
ENDBRANCH  16  17
ENDBRANCH   9  11
ENDBRANCH   7   9
ENDBRANCH   6   7
ENDBRANCH   5   6
ENDBRANCH   4   5
ENDBRANCH   3   4
ENDBRANCH   2   3
ENDBRANCH   1   2
BRANCH   1  27
ATOM     27  O   UNL A   1      42.967  21.653  25.324  1.00  0.00    -0.376 OA
BRANCH  27  28
ATOM     28  C   UNL A   1      43.114  23.028  25.015  1.00  0.00     0.202 C 
BRANCH  28  29
ATOM     29  C   UNL A   1      42.496  24.212  25.789  1.00  0.00     0.261 C 
BRANCH  29  30
ATOM     30  O   UNL A   1      43.219  25.441  25.872  1.00  0.00    -0.460 OA
BRANCH  30  31
ATOM     31  C   UNL A   1      44.113  25.547  26.885  1.00  0.00     0.338 C 
ATOM     32  O   UNL A   1      45.244  25.089  26.919  1.00  0.00    -0.246 OA
BRANCH  31  33
ATOM     33  C   UNL A   1      43.560  26.499  27.871  1.00  0.00     0.060 A 
ATOM     34  C   UNL A   1      43.838  27.870  27.745  1.00  0.00     0.016 A 
ATOM     35  C   UNL A   1      42.757  26.033  28.912  1.00  0.00     0.016 A 
ATOM     36  C   UNL A   1      43.320  28.777  28.670  1.00  0.00     0.010 A 
ATOM     37  C   UNL A   1      42.269  26.939  29.855  1.00  0.00     0.010 A 
ATOM     38  C   UNL A   1      42.568  28.310  29.755  1.00  0.00    -0.014 A 
BRANCH  38  39
ATOM     39  C   UNL A   1      42.248  29.208  30.893  1.00  0.00     0.031 A 
ATOM     40  C   UNL A   1      40.936  29.942  30.865  1.00  0.00     0.074 A 
ATOM     41  C   UNL A   1      43.131  29.417  31.888  1.00  0.00     0.049 A 
ATOM     42  N   UNL A   1      40.445  30.791  31.726  1.00  0.00    -0.248 NA
ATOM     43  C   UNL A   1      40.079  29.709  29.690  1.00  0.00     0.031 C 
ATOM     44  C   UNL A   1      44.433  28.769  31.994  1.00  0.00     0.029 A 
ATOM     45  N   UNL A   1      43.063  30.221  33.002  1.00  0.00    -0.354 N 
ATOM     46  C   UNL A   1      39.252  31.241  31.170  1.00  0.00     0.074 A 
ATOM     47  C   UNL A   1      39.089  30.561  29.905  1.00  0.00     0.031 C 
ATOM     48  C   UNL A   1      45.026  29.166  33.133  1.00  0.00     0.029 A 
ATOM     49  C   UNL A   1      44.149  30.100  33.842  1.00  0.00     0.049 A 
ATOM     50  H   UNL A   1      42.307  30.826  33.183  1.00  0.00     0.167 HD
ATOM     51  C   UNL A   1      38.387  32.158  31.664  1.00  0.00     0.037 A 
ATOM     52  C   UNL A   1      44.359  30.613  35.078  1.00  0.00     0.037 A 
ATOM     53  C   UNL A   1      38.559  32.814  32.934  1.00  0.00     0.049 A 
ATOM     54  C   UNL A   1      43.306  31.529  35.663  1.00  0.00     0.074 A 
ATOM     55  C   UNL A   1      37.739  33.752  33.534  1.00  0.00     0.029 A 
ATOM     56  N   UNL A   1      39.625  32.603  33.797  1.00  0.00    -0.354 N 
ATOM     57  N   UNL A   1      42.137  31.868  35.173  1.00  0.00    -0.248 NA
ATOM     58  C   UNL A   1      43.599  32.130  36.973  1.00  0.00     0.031 C 
ATOM     59  C   UNL A   1      38.337  34.150  34.733  1.00  0.00     0.029 A 
ATOM     60  C   UNL A   1      39.498  33.413  34.913  1.00  0.00     0.049 A 
ATOM     61  H   UNL A   1      40.363  31.971  33.639  1.00  0.00     0.167 HD
ATOM     62  C   UNL A   1      41.566  32.732  36.103  1.00  0.00     0.074 A 
ATOM     63  C   UNL A   1      42.480  32.794  37.225  1.00  0.00     0.031 C 
ATOM     64  C   UNL A   1      40.415  33.446  36.025  1.00  0.00     0.037 A 
BRANCH  51  65
ATOM     65  C   UNL A   1      37.218  32.551  30.805  1.00  0.00     0.058 A 
ATOM     66  C   UNL A   1      35.947  31.978  30.959  1.00  0.00     0.135 A 
ATOM     67  C   UNL A   1      37.372  33.547  29.825  1.00  0.00     0.135 A 
ATOM     68  F   UNL A   1      35.747  31.006  31.863  1.00  0.00    -0.206 F 
ATOM     69  C   UNL A   1      34.875  32.363  30.158  1.00  0.00     0.059 A 
ATOM     70  C   UNL A   1      36.308  33.969  29.035  1.00  0.00     0.059 A 
ATOM     71  F   UNL A   1      38.569  34.123  29.629  1.00  0.00    -0.206 F 
ATOM     72  C   UNL A   1      35.065  33.361  29.200  1.00  0.00     0.060 A 
BRANCH  72  73
ATOM     73  S   UNL A   1      33.661  33.859  28.182  1.00  0.00     0.124 S 
ATOM     74  O   UNL A   1      34.297  34.768  27.233  1.00  0.00    -0.237 OA
ATOM     75  O   UNL A   1      33.208  32.586  27.632  1.00  0.00    -0.237 OA
ATOM     76  O   UNL A   1      32.752  34.486  29.136  1.00  0.00    -0.744 OA
ENDBRANCH  72  73
ENDBRANCH  51  65
BRANCH  52  77
ATOM     77  C   UNL A   1      45.530  30.174  35.908  1.00  0.00     0.058 A 
ATOM     78  C   UNL A   1      46.798  30.765  35.732  1.00  0.00     0.135 A 
ATOM     79  C   UNL A   1      45.423  29.195  36.906  1.00  0.00     0.135 A 
ATOM     80  F   UNL A   1      46.975  31.703  34.787  1.00  0.00    -0.206 F 
ATOM     81  C   UNL A   1      47.903  30.402  36.497  1.00  0.00     0.059 A 
ATOM     82  C   UNL A   1      46.505  28.838  37.710  1.00  0.00     0.059 A 
ATOM     83  F   UNL A   1      44.247  28.591  37.132  1.00  0.00    -0.206 F 
ATOM     84  C   UNL A   1      47.744  29.439  37.491  1.00  0.00     0.060 A 
BRANCH  84  85
ATOM     85  S   UNL A   1      49.172  29.001  38.508  1.00  0.00     0.124 S 
ATOM     86  O   UNL A   1      49.076  27.545  38.534  1.00  0.00    -0.237 OA
ATOM     87  O   UNL A   1      50.279  29.554  37.735  1.00  0.00    -0.237 OA
ATOM     88  O   UNL A   1      48.901  29.673  39.774  1.00  0.00    -0.744 OA
ENDBRANCH  84  85
ENDBRANCH  52  77
BRANCH  64  89
ATOM     89  C   UNL A   1      40.085  34.364  37.172  1.00  0.00     0.058 A 
ATOM     90  C   UNL A   1      39.484  33.882  38.347  1.00  0.00     0.135 A 
ATOM     91  C   UNL A   1      40.431  35.725  37.128  1.00  0.00     0.135 A 
ATOM     92  F   UNL A   1      39.133  32.589  38.444  1.00  0.00    -0.206 F 
ATOM     93  C   UNL A   1      39.208  34.720  39.422  1.00  0.00     0.059 A 
ATOM     94  C   UNL A   1      40.195  36.574  38.206  1.00  0.00     0.059 A 
ATOM     95  F   UNL A   1      41.022  36.238  36.037  1.00  0.00    -0.206 F 
ATOM     96  C   UNL A   1      39.571  36.065  39.343  1.00  0.00     0.060 A 
BRANCH  96  97
ATOM     97  S   UNL A   1      39.234  37.131  40.760  1.00  0.00     0.124 S 
ATOM     98  O   UNL A   1      40.582  37.515  41.164  1.00  0.00    -0.237 OA
ATOM     99  O   UNL A   1      38.424  38.190  40.167  1.00  0.00    -0.237 OA
ATOM    100  O   UNL A   1      38.527  36.252  41.687  1.00  0.00    -0.744 OA
ENDBRANCH  96  97
ENDBRANCH  64  89
ENDBRANCH  38  39
ENDBRANCH  31  33
ENDBRANCH  30  31
ENDBRANCH  29  30
ENDBRANCH  28  29
ENDBRANCH  27  28
ENDBRANCH   1  27
TORSDOF 22
ENDMDL
MODEL 3
REMARK VINA RESULT:      -9.9      4.763      7.340
REMARK SMILES C[C@@H](C(=O)OCCOCCOCCOC(=O)c1ccc(-c2c3nc(c(-c4c(F)cc(S(=O)(=O)[O-])cc4F)c4ccc([nH]4)c(-c4c(F)cc(S(=O)(=O)[O-])cc4F)c4nc(c(-c5c(F)cc(S(=O)(=O)[O-])cc5F)c5ccc2[nH]5)C=C4)C=C3)cc1)c1ccc(-c2ccc3[nH]ccc3c2)cc1
REMARK SMILES IDX 10 1 9 2 8 3 7 4 6 5 5 6 3 7 4 8 2 9 1 10 83 11 84 12 97 13
REMARK SMILES IDX 85 14 96 15 86 16 87 17 88 18 95 19 89 20 94 21 90 22 93 23
REMARK SMILES IDX 91 24 92 25 11 27 12 28 13 29 14 30 15 31 16 32 17 33 18 34
REMARK SMILES IDX 82 35 19 36 81 37 20 38 21 39 22 40 75 41 23 42 80 43 74 44
REMARK SMILES IDX 76 45 24 46 79 47 73 48 72 49 25 51 59 52 38 53 58 54 39 55
REMARK SMILES IDX 42 56 57 57 77 58 40 59 41 60 56 62 78 63 43 64 26 65 27 66
REMARK SMILES IDX 36 67 28 68 29 69 35 70 37 71 30 72 31 73 32 74 33 75 34 76
REMARK SMILES IDX 60 77 61 78 70 79 62 80 63 81 69 82 71 83 64 84 65 85 66 86
REMARK SMILES IDX 67 87 68 88 44 89 45 90 54 91 46 92 47 93 53 94 55 95 48 96
REMARK SMILES IDX 49 97 50 98 51 99 52 100
REMARK H PARENT 91 26 76 50 42 61
REMARK Flexibility Score: inf
ROOT
ATOM      1  C   UNL A   1      34.038  24.073  22.888  1.00  0.00     0.188 C 
ENDROOT
BRANCH   1   2
ATOM      2  C   UNL A   1      33.894  25.481  22.297  1.00  0.00     0.188 C 
BRANCH   2   3
ATOM      3  O   UNL A   1      32.662  25.813  21.687  1.00  0.00    -0.376 OA
BRANCH   3   4
ATOM      4  C   UNL A   1      31.638  26.407  22.471  1.00  0.00     0.202 C 
BRANCH   4   5
ATOM      5  C   UNL A   1      31.541  27.924  22.738  1.00  0.00     0.261 C 
BRANCH   5   6
ATOM      6  O   UNL A   1      30.734  28.329  23.860  1.00  0.00    -0.463 OA
BRANCH   6   7
ATOM      7  C   UNL A   1      31.393  28.927  24.889  1.00  0.00     0.313 C 
ATOM      8  O   UNL A   1      32.055  29.952  24.755  1.00  0.00    -0.252 OA
BRANCH   7   9
ATOM      9  C   UNL A   1      31.230  28.220  26.252  1.00  0.00     0.126 C 
ATOM     10  C   UNL A   1      31.835  28.981  27.440  1.00  0.00     0.025 C 
BRANCH   9  11
ATOM     11  C   UNL A   1      31.484  26.706  26.206  1.00  0.00    -0.034 A 
ATOM     12  C   UNL A   1      32.811  26.249  26.180  1.00  0.00     0.005 A 
ATOM     13  C   UNL A   1      30.474  25.735  26.078  1.00  0.00     0.005 A 
ATOM     14  C   UNL A   1      33.117  24.897  26.024  1.00  0.00     0.009 A 
ATOM     15  C   UNL A   1      30.784  24.369  25.914  1.00  0.00     0.009 A 
ATOM     16  C   UNL A   1      32.113  23.931  25.876  1.00  0.00    -0.018 A 
BRANCH  16  17
ATOM     17  C   UNL A   1      32.491  22.515  25.768  1.00  0.00    -0.018 A 
ATOM     18  C   UNL A   1      33.427  22.016  26.677  1.00  0.00     0.011 A 
ATOM     19  C   UNL A   1      32.032  21.662  24.738  1.00  0.00     0.019 A 
ATOM     20  C   UNL A   1      33.871  20.702  26.625  1.00  0.00     0.027 A 
ATOM     21  C   UNL A   1      32.510  20.328  24.649  1.00  0.00    -0.000 A 
ATOM     22  C   UNL A   1      33.378  19.872  25.633  1.00  0.00     0.045 A 
ATOM     23  C   UNL A   1      32.383  19.258  23.717  1.00  0.00     0.028 A 
ATOM     24  N   UNL A   1      33.627  18.541  25.406  1.00  0.00    -0.361 N 
ATOM     25  C   UNL A   1      33.101  18.181  24.195  1.00  0.00     0.083 A 
ATOM     26  H   UNL A   1      34.110  17.939  26.018  1.00  0.00     0.166 HD
ENDBRANCH  16  17
ENDBRANCH   9  11
ENDBRANCH   7   9
ENDBRANCH   6   7
ENDBRANCH   5   6
ENDBRANCH   4   5
ENDBRANCH   3   4
ENDBRANCH   2   3
ENDBRANCH   1   2
BRANCH   1  27
ATOM     27  O   UNL A   1      35.203  23.340  22.600  1.00  0.00    -0.376 OA
BRANCH  27  28
ATOM     28  C   UNL A   1      35.869  22.619  23.622  1.00  0.00     0.202 C 
BRANCH  28  29
ATOM     29  C   UNL A   1      37.214  22.995  24.279  1.00  0.00     0.261 C 
BRANCH  29  30
ATOM     30  O   UNL A   1      37.354  22.867  25.695  1.00  0.00    -0.460 OA
BRANCH  30  31
ATOM     31  C   UNL A   1      38.594  22.564  26.153  1.00  0.00     0.338 C 
ATOM     32  O   UNL A   1      39.243  21.560  25.907  1.00  0.00    -0.246 OA
BRANCH  31  33
ATOM     33  C   UNL A   1      39.122  23.763  26.838  1.00  0.00     0.060 A 
ATOM     34  C   UNL A   1      38.405  24.969  26.778  1.00  0.00     0.016 A 
ATOM     35  C   UNL A   1      40.319  23.686  27.548  1.00  0.00     0.016 A 
ATOM     36  C   UNL A   1      38.895  26.107  27.421  1.00  0.00     0.010 A 
ATOM     37  C   UNL A   1      40.823  24.834  28.162  1.00  0.00     0.010 A 
ATOM     38  C   UNL A   1      40.129  26.055  28.082  1.00  0.00    -0.014 A 
BRANCH  38  39
ATOM     39  C   UNL A   1      40.799  27.302  28.526  1.00  0.00     0.031 A 
ATOM     40  C   UNL A   1      42.268  27.452  28.244  1.00  0.00     0.074 A 
ATOM     41  C   UNL A   1      40.134  28.244  29.220  1.00  0.00     0.049 A 
ATOM     42  N   UNL A   1      43.073  28.433  28.549  1.00  0.00    -0.248 NA
ATOM     43  C   UNL A   1      42.921  26.327  27.553  1.00  0.00     0.031 C 
ATOM     44  C   UNL A   1      38.716  28.182  29.558  1.00  0.00     0.029 A 
ATOM     45  N   UNL A   1      40.556  29.439  29.755  1.00  0.00    -0.354 N 
ATOM     46  C   UNL A   1      44.338  28.019  28.144  1.00  0.00     0.074 A 
ATOM     47  C   UNL A   1      44.190  26.705  27.561  1.00  0.00     0.031 C 
ATOM     48  C   UNL A   1      38.373  29.309  30.206  1.00  0.00     0.029 A 
ATOM     49  C   UNL A   1      39.545  30.178  30.333  1.00  0.00     0.049 A 
ATOM     50  H   UNL A   1      41.493  29.740  29.726  1.00  0.00     0.167 HD
ATOM     51  C   UNL A   1      45.517  28.672  28.273  1.00  0.00     0.037 A 
ATOM     52  C   UNL A   1      39.555  31.442  30.820  1.00  0.00     0.037 A 
ATOM     53  C   UNL A   1      45.643  29.987  28.844  1.00  0.00     0.049 A 
ATOM     54  C   UNL A   1      40.865  32.199  30.824  1.00  0.00     0.074 A 
ATOM     55  C   UNL A   1      46.788  30.745  29.014  1.00  0.00     0.029 A 
ATOM     56  N   UNL A   1      44.588  30.740  29.340  1.00  0.00    -0.354 N 
ATOM     57  N   UNL A   1      42.033  31.836  30.347  1.00  0.00    -0.248 NA
ATOM     58  C   UNL A   1      40.858  33.539  31.429  1.00  0.00     0.031 C 
ATOM     59  C   UNL A   1      46.434  31.930  29.664  1.00  0.00     0.029 A 
ATOM     60  C   UNL A   1      45.059  31.942  29.841  1.00  0.00     0.049 A 
ATOM     61  H   UNL A   1      43.644  30.461  29.336  1.00  0.00     0.167 HD
ATOM     62  C   UNL A   1      42.900  32.894  30.611  1.00  0.00     0.074 A 
ATOM     63  C   UNL A   1      42.101  33.944  31.209  1.00  0.00     0.031 C 
ATOM     64  C   UNL A   1      44.240  32.979  30.419  1.00  0.00     0.037 A 
BRANCH  51  65
ATOM     65  C   UNL A   1      46.766  27.951  27.851  1.00  0.00     0.058 A 
ATOM     66  C   UNL A   1      47.422  28.228  26.642  1.00  0.00     0.135 A 
ATOM     67  C   UNL A   1      47.333  26.978  28.693  1.00  0.00     0.135 A 
ATOM     68  F   UNL A   1      46.913  29.130  25.787  1.00  0.00    -0.206 F 
ATOM     69  C   UNL A   1      48.582  27.554  26.273  1.00  0.00     0.059 A 
ATOM     70  C   UNL A   1      48.509  26.314  28.359  1.00  0.00     0.059 A 
ATOM     71  F   UNL A   1      46.744  26.667  29.859  1.00  0.00    -0.206 F 
ATOM     72  C   UNL A   1      49.120  26.600  27.140  1.00  0.00     0.060 A 
BRANCH  72  73
ATOM     73  S   UNL A   1      50.634  25.747  26.654  1.00  0.00     0.124 S 
ATOM     74  O   UNL A   1      50.477  25.678  25.203  1.00  0.00    -0.237 OA
ATOM     75  O   UNL A   1      51.671  26.654  27.136  1.00  0.00    -0.237 OA
ATOM     76  O   UNL A   1      50.547  24.470  27.354  1.00  0.00    -0.744 OA
ENDBRANCH  72  73
ENDBRANCH  51  65
BRANCH  52  77
ATOM     77  C   UNL A   1      38.279  32.129  31.209  1.00  0.00     0.058 A 
ATOM     78  C   UNL A   1      37.493  32.788  30.241  1.00  0.00     0.135 A 
ATOM     79  C   UNL A   1      37.791  32.127  32.524  1.00  0.00     0.135 A 
ATOM     80  F   UNL A   1      37.906  32.838  28.965  1.00  0.00    -0.206 F 
ATOM     81  C   UNL A   1      36.293  33.418  30.557  1.00  0.00     0.059 A 
ATOM     82  C   UNL A   1      36.573  32.719  32.860  1.00  0.00     0.059 A 
ATOM     83  F   UNL A   1      38.483  31.517  33.498  1.00  0.00    -0.206 F 
ATOM     84  C   UNL A   1      35.837  33.372  31.872  1.00  0.00     0.060 A 
BRANCH  84  85
ATOM     85  S   UNL A   1      34.258  34.155  32.270  1.00  0.00     0.124 S 
ATOM     86  O   UNL A   1      33.634  33.144  33.115  1.00  0.00    -0.237 OA
ATOM     87  O   UNL A   1      34.684  35.377  32.943  1.00  0.00    -0.237 OA
ATOM     88  O   UNL A   1      33.642  34.350  30.961  1.00  0.00    -0.744 OA
ENDBRANCH  84  85
ENDBRANCH  52  77
BRANCH  64  89
ATOM     89  C   UNL A   1      44.931  34.239  30.872  1.00  0.00     0.058 A 
ATOM     90  C   UNL A   1      45.396  34.386  32.189  1.00  0.00     0.135 A 
ATOM     91  C   UNL A   1      45.192  35.282  29.967  1.00  0.00     0.135 A 
ATOM     92  F   UNL A   1      45.174  33.420  33.095  1.00  0.00    -0.206 F 
ATOM     93  C   UNL A   1      46.064  35.533  32.602  1.00  0.00     0.059 A 
ATOM     94  C   UNL A   1      45.890  36.423  30.351  1.00  0.00     0.059 A 
ATOM     95  F   UNL A   1      44.786  35.188  28.692  1.00  0.00    -0.206 F 
ATOM     96  C   UNL A   1      46.310  36.546  31.675  1.00  0.00     0.060 A 
BRANCH  96  97
ATOM     97  S   UNL A   1      47.206  38.015  32.221  1.00  0.00     0.124 S 
ATOM     98  O   UNL A   1      48.556  37.725  31.748  1.00  0.00    -0.237 OA
ATOM     99  O   UNL A   1      46.505  39.086  31.520  1.00  0.00    -0.237 OA
ATOM    100  O   UNL A   1      47.032  38.000  33.670  1.00  0.00    -0.744 OA
ENDBRANCH  96  97
ENDBRANCH  64  89
ENDBRANCH  38  39
ENDBRANCH  31  33
ENDBRANCH  30  31
ENDBRANCH  29  30
ENDBRANCH  28  29
ENDBRANCH  27  28
ENDBRANCH   1  27
TORSDOF 22
ENDMDL
