MODEL 1
REMARK VINA RESULT:      -6.0      0.000      0.000
REMARK SMILES Cc1ccc(S(=O)(=O)n2cc(C(=O)C(=O)N[C@@H](Cc3c[nH]c4ccccc34)C(=O)NCC(=O)OCCOCCOCCOC(=O)c3ccc(-c4c5nc(c(-c6c(F)cc(S(=O)(=O)[O-])cc6F)c6ccc([nH]6)c(-c6c(F)cc(S(=O)(=O)[O-])cc6F)c6nc(c(-c7c(F)cc(S(=O)(=O)[O-])cc7F)c7ccc4[nH]7)C=C6)C=C5)cc3)c3ccccc32)cc1
REMARK SMILES IDX 36 1 35 2 34 3 32 4 33 5 31 6 30 7 28 8 29 9 17 11 16 12
REMARK SMILES IDX 14 13 15 14 12 16 13 17 11 18 9 19 10 20 117 21 112 22
REMARK SMILES IDX 116 23 113 24 115 25 114 26 6 27 7 28 8 29 5 30 1 31 2 32
REMARK SMILES IDX 3 33 119 34 4 35 118 36 18 37 19 38 20 39 27 40 21 41 22 42
REMARK SMILES IDX 26 43 23 45 25 46 24 47 37 48 38 49 39 50 40 51 41 52 42 53
REMARK SMILES IDX 43 54 44 55 45 56 46 57 47 58 111 59 48 60 110 61 49 62
REMARK SMILES IDX 50 63 51 64 104 65 52 66 109 67 103 68 105 69 53 70 108 71
REMARK SMILES IDX 102 72 101 73 54 75 88 76 67 77 87 78 68 79 71 80 86 81
REMARK SMILES IDX 106 82 69 83 70 84 85 86 107 87 72 88 55 89 56 90 65 91
REMARK SMILES IDX 57 92 58 93 64 94 66 95 59 96 60 97 61 98 62 99 63 100
REMARK SMILES IDX 89 101 90 102 99 103 91 104 92 105 98 106 100 107 93 108
REMARK SMILES IDX 94 109 95 110 96 111 97 112 73 113 74 114 83 115 75 116
REMARK SMILES IDX 76 117 82 118 84 119 77 120 78 121 79 122 80 123 81 124
REMARK H PARENT 30 10 16 15 21 44 105 74 71 85
REMARK Flexibility Score: inf
ROOT
ATOM      1  C   UNL A   1      46.300  27.903  24.701  1.00  0.00     0.202 C 
ENDROOT
BRANCH   1   2
ATOM      2  C   UNL A   1      46.237  28.585  26.064  1.00  0.00     0.261 C 
BRANCH   2   3
ATOM      3  O   UNL A   1      45.049  28.724  26.970  1.00  0.00    -0.462 OA
BRANCH   3   4
ATOM      4  C   UNL A   1      44.774  28.137  28.160  1.00  0.00     0.325 C 
ATOM      5  O   UNL A   1      45.444  27.151  28.445  1.00  0.00    -0.250 OA
BRANCH   4   6
ATOM      6  C   UNL A   1      43.269  28.330  28.812  1.00  0.00     0.238 C 
BRANCH   6   7
ATOM      7  N   UNL A   1      42.748  29.528  29.587  1.00  0.00    -0.343 N 
ATOM      8  C   UNL A   1      41.646  30.076  30.198  1.00  0.00     0.243 C 
ATOM      9  O   UNL A   1      41.982  30.997  30.978  1.00  0.00    -0.273 OA
ATOM     10  H   UNL A   1      43.493  30.163  29.692  1.00  0.00     0.164 HD
BRANCH   8  11
ATOM     11  C   UNL A   1      40.026  29.745  30.209  1.00  0.00     0.176 C 
BRANCH  11  12
ATOM     12  N   UNL A   1      39.415  28.820  31.235  1.00  0.00    -0.337 N 
ATOM     13  C   UNL A   1      39.621  28.356  32.540  1.00  0.00     0.293 C 
ATOM     14  O   UNL A   1      38.707  27.751  33.098  1.00  0.00    -0.265 OA
ATOM     15  H   UNL A   1      38.602  28.409  30.863  1.00  0.00     0.164 HD
BRANCH  13  16
ATOM     16  C   UNL A   1      40.903  28.554  33.321  1.00  0.00     0.252 C 
ATOM     17  O   UNL A   1      40.873  29.528  34.082  1.00  0.00    -0.283 OA
BRANCH  16  18
ATOM     18  C   UNL A   1      42.128  27.678  33.313  1.00  0.00     0.054 A 
ATOM     19  N   UNL A   1      44.258  26.800  33.346  1.00  0.00    -0.240 N 
ATOM     20  C   UNL A   1      43.303  27.499  32.544  1.00  0.00     0.117 A 
ATOM     21  C   UNL A   1      43.625  26.602  34.592  1.00  0.00     0.065 A 
ATOM     22  C   UNL A   1      42.265  26.714  34.350  1.00  0.00     0.012 A 
ATOM     23  C   UNL A   1      44.088  26.094  35.819  1.00  0.00     0.028 A 
ATOM     24  C   UNL A   1      41.355  26.050  35.196  1.00  0.00     0.011 A 
ATOM     25  C   UNL A   1      43.181  25.396  36.618  1.00  0.00     0.002 A 
ATOM     26  C   UNL A   1      41.838  25.319  36.278  1.00  0.00     0.001 A 
BRANCH  19  27
ATOM     27  S   UNL A   1      45.238  25.366  32.902  1.00  0.00     0.268 S 
ATOM     28  O   UNL A   1      46.459  25.949  32.367  1.00  0.00    -0.201 OA
ATOM     29  O   UNL A   1      44.318  24.680  31.995  1.00  0.00    -0.201 OA
BRANCH  27  30
ATOM     30  C   UNL A   1      45.753  23.953  33.841  1.00  0.00     0.088 A 
ATOM     31  C   UNL A   1      45.949  20.318  36.233  1.00  0.00     0.044 C 
ATOM     32  C   UNL A   1      45.931  21.540  35.358  1.00  0.00    -0.051 A 
ATOM     33  C   UNL A   1      44.747  21.855  34.712  1.00  0.00     0.005 A 
ATOM     34  C   UNL A   1      47.023  22.426  35.220  1.00  0.00     0.005 A 
ATOM     35  C   UNL A   1      44.677  23.020  33.961  1.00  0.00     0.022 A 
ATOM     36  C   UNL A   1      46.945  23.638  34.465  1.00  0.00     0.022 A 
ENDBRANCH  27  30
ENDBRANCH  19  27
ENDBRANCH  16  18
ENDBRANCH  13  16
ENDBRANCH  11  12
BRANCH  11  37
ATOM     37  C   UNL A   1      39.147  30.973  29.819  1.00  0.00     0.072 C 
BRANCH  37  38
ATOM     38  C   UNL A   1      38.559  31.735  30.965  1.00  0.00    -0.020 A 
ATOM     39  C   UNL A   1      39.120  31.991  32.202  1.00  0.00     0.087 A 
ATOM     40  C   UNL A   1      37.246  32.266  31.006  1.00  0.00     0.003 A 
ATOM     41  N   UNL A   1      38.140  32.486  33.023  1.00  0.00    -0.361 N 
ATOM     42  C   UNL A   1      36.954  32.533  32.338  1.00  0.00     0.046 A 
ATOM     43  C   UNL A   1      36.243  32.402  30.048  1.00  0.00     0.010 A 
ATOM     44  H   UNL A   1      38.266  32.763  33.959  1.00  0.00     0.166 HD
ATOM     45  C   UNL A   1      35.659  32.750  32.786  1.00  0.00     0.026 A 
ATOM     46  C   UNL A   1      34.935  32.437  30.500  1.00  0.00     0.001 A 
ATOM     47  C   UNL A   1      34.654  32.558  31.849  1.00  0.00     0.002 A 
ENDBRANCH  37  38
ENDBRANCH  11  37
ENDBRANCH   8  11
ENDBRANCH   6   7
ENDBRANCH   4   6
ENDBRANCH   3   4
ENDBRANCH   2   3
ENDBRANCH   1   2
BRANCH   1  48
ATOM     48  O   UNL A   1      45.919  26.557  24.649  1.00  0.00    -0.376 OA
BRANCH  48  49
ATOM     49  C   UNL A   1      46.715  25.683  25.438  1.00  0.00     0.188 C 
BRANCH  49  50
ATOM     50  C   UNL A   1      48.161  25.549  24.954  1.00  0.00     0.188 C 
BRANCH  50  51
ATOM     51  O   UNL A   1      49.116  25.327  25.992  1.00  0.00    -0.376 OA
BRANCH  51  52
ATOM     52  C   UNL A   1      50.174  26.259  26.147  1.00  0.00     0.202 C 
BRANCH  52  53
ATOM     53  C   UNL A   1      49.679  27.418  27.009  1.00  0.00     0.261 C 
BRANCH  53  54
ATOM     54  O   UNL A   1      50.252  27.282  28.329  1.00  0.00    -0.460 OA
BRANCH  54  55
ATOM     55  C   UNL A   1      49.368  26.882  29.281  1.00  0.00     0.338 C 
ATOM     56  O   UNL A   1      48.865  25.772  29.348  1.00  0.00    -0.246 OA
BRANCH  55  57
ATOM     57  C   UNL A   1      48.940  28.078  30.068  1.00  0.00     0.060 A 
ATOM     58  C   UNL A   1      49.084  28.018  31.433  1.00  0.00     0.016 A 
ATOM     59  C   UNL A   1      48.205  29.152  29.542  1.00  0.00     0.016 A 
ATOM     60  C   UNL A   1      48.320  28.903  32.214  1.00  0.00     0.010 A 
ATOM     61  C   UNL A   1      47.438  30.013  30.383  1.00  0.00     0.010 A 
ATOM     62  C   UNL A   1      47.374  29.819  31.764  1.00  0.00    -0.014 A 
BRANCH  62  63
ATOM     63  C   UNL A   1      46.308  30.491  32.633  1.00  0.00     0.031 A 
ATOM     64  C   UNL A   1      45.880  31.862  32.205  1.00  0.00     0.074 A 
ATOM     65  C   UNL A   1      45.767  30.332  33.898  1.00  0.00     0.049 A 
ATOM     66  N   UNL A   1      44.724  32.263  31.774  1.00  0.00    -0.248 NA
ATOM     67  C   UNL A   1      46.814  32.932  32.520  1.00  0.00     0.031 C 
ATOM     68  C   UNL A   1      44.366  30.732  34.088  1.00  0.00     0.029 A 
ATOM     69  N   UNL A   1      45.982  29.683  35.125  1.00  0.00    -0.354 N 
ATOM     70  C   UNL A   1      44.763  33.643  31.800  1.00  0.00     0.074 A 
ATOM     71  C   UNL A   1      46.119  34.005  32.174  1.00  0.00     0.031 C 
ATOM     72  C   UNL A   1      43.960  30.470  35.327  1.00  0.00     0.029 A 
ATOM     73  C   UNL A   1      45.060  29.981  36.117  1.00  0.00     0.049 A 
ATOM     74  H   UNL A   1      46.732  29.062  35.269  1.00  0.00     0.167 HD
ATOM     75  C   UNL A   1      43.804  34.483  32.275  1.00  0.00     0.037 A 
ATOM     76  C   UNL A   1      45.095  29.908  37.483  1.00  0.00     0.037 A 
ATOM     77  C   UNL A   1      43.073  34.092  33.469  1.00  0.00     0.049 A 
ATOM     78  C   UNL A   1      44.317  31.072  38.090  1.00  0.00     0.074 A 
ATOM     79  C   UNL A   1      42.068  33.185  33.743  1.00  0.00     0.029 A 
ATOM     80  N   UNL A   1      43.408  34.645  34.705  1.00  0.00    -0.354 N 
ATOM     81  N   UNL A   1      43.449  31.789  37.422  1.00  0.00    -0.248 NA
ATOM     82  C   UNL A   1      44.564  31.648  39.414  1.00  0.00     0.031 C 
ATOM     83  C   UNL A   1      41.913  33.100  35.159  1.00  0.00     0.029 A 
ATOM     84  C   UNL A   1      42.836  33.940  35.769  1.00  0.00     0.049 A 
ATOM     85  H   UNL A   1      43.979  35.440  34.816  1.00  0.00     0.167 HD
ATOM     86  C   UNL A   1      43.417  33.044  37.965  1.00  0.00     0.074 A 
ATOM     87  C   UNL A   1      43.917  32.827  39.314  1.00  0.00     0.031 C 
ATOM     88  C   UNL A   1      43.242  34.165  37.184  1.00  0.00     0.037 A 
BRANCH  75  89
ATOM     89  C   UNL A   1      43.386  35.443  31.192  1.00  0.00     0.058 A 
ATOM     90  C   UNL A   1      42.562  35.034  30.135  1.00  0.00     0.135 A 
ATOM     91  C   UNL A   1      43.910  36.761  31.096  1.00  0.00     0.135 A 
ATOM     92  F   UNL A   1      41.993  33.820  30.137  1.00  0.00    -0.206 F 
ATOM     93  C   UNL A   1      42.347  35.840  29.014  1.00  0.00     0.059 A 
ATOM     94  C   UNL A   1      43.718  37.571  29.989  1.00  0.00     0.059 A 
ATOM     95  F   UNL A   1      44.672  37.301  32.060  1.00  0.00    -0.206 F 
ATOM     96  C   UNL A   1      42.961  37.089  28.936  1.00  0.00     0.060 A 
BRANCH  96  97
ATOM     97  S   UNL A   1      42.816  38.067  27.433  1.00  0.00     0.124 S 
ATOM     98  O   UNL A   1      44.152  38.642  27.319  1.00  0.00    -0.237 OA
ATOM     99  O   UNL A   1      42.457  37.063  26.441  1.00  0.00    -0.237 OA
ATOM    100  O   UNL A   1      41.763  39.024  27.765  1.00  0.00    -0.744 OA
ENDBRANCH  96  97
ENDBRANCH  75  89
BRANCH  76 101
ATOM    101  C   UNL A   1      46.159  29.101  38.173  1.00  0.00     0.058 A 
ATOM    102  C   UNL A   1      45.866  27.780  38.572  1.00  0.00     0.135 A 
ATOM    103  C   UNL A   1      47.511  29.466  38.236  1.00  0.00     0.135 A 
ATOM    104  F   UNL A   1      44.588  27.368  38.599  1.00  0.00    -0.206 F 
ATOM    105  C   UNL A   1      46.865  26.829  38.848  1.00  0.00     0.059 A 
ATOM    106  C   UNL A   1      48.534  28.542  38.500  1.00  0.00     0.059 A 
ATOM    107  F   UNL A   1      47.877  30.713  37.934  1.00  0.00    -0.206 F 
ATOM    108  C   UNL A   1      48.205  27.202  38.724  1.00  0.00     0.060 A 
BRANCH 108 109
ATOM    109  S   UNL A   1      49.484  25.938  38.386  1.00  0.00     0.124 S 
ATOM    110  O   UNL A   1      50.488  26.711  37.661  1.00  0.00    -0.237 OA
ATOM    111  O   UNL A   1      49.897  25.470  39.706  1.00  0.00    -0.237 OA
ATOM    112  O   UNL A   1      48.761  24.948  37.582  1.00  0.00    -0.744 OA
ENDBRANCH 108 109
ENDBRANCH  76 101
BRANCH  88 113
ATOM    113  C   UNL A   1      43.536  35.560  37.710  1.00  0.00     0.058 A 
ATOM    114  C   UNL A   1      42.611  36.378  38.395  1.00  0.00     0.135 A 
ATOM    115  C   UNL A   1      44.832  36.102  37.582  1.00  0.00     0.135 A 
ATOM    116  F   UNL A   1      41.392  35.934  38.730  1.00  0.00    -0.206 F 
ATOM    117  C   UNL A   1      42.899  37.684  38.787  1.00  0.00     0.059 A 
ATOM    118  C   UNL A   1      45.162  37.384  38.020  1.00  0.00     0.059 A 
ATOM    119  F   UNL A   1      45.821  35.391  37.021  1.00  0.00    -0.206 F 
ATOM    120  C   UNL A   1      44.171  38.191  38.568  1.00  0.00     0.060 A 
BRANCH 120 121
ATOM    121  S   UNL A   1      44.542  39.904  38.987  1.00  0.00     0.124 S 
ATOM    122  O   UNL A   1      44.486  40.537  37.673  1.00  0.00    -0.237 OA
ATOM    123  O   UNL A   1      43.463  40.263  39.903  1.00  0.00    -0.237 OA
ATOM    124  O   UNL A   1      45.866  39.810  39.592  1.00  0.00    -0.744 OA
ENDBRANCH 120 121
ENDBRANCH  88 113
ENDBRANCH  62  63
ENDBRANCH  55  57
ENDBRANCH  54  55
ENDBRANCH  53  54
ENDBRANCH  52  53
ENDBRANCH  51  52
ENDBRANCH  50  51
ENDBRANCH  49  50
ENDBRANCH  48  49
ENDBRANCH   1  48
TORSDOF 29
ENDMDL
MODEL 2
REMARK VINA RESULT:      -6.0      5.894     13.141
REMARK SMILES Cc1ccc(S(=O)(=O)n2cc(C(=O)C(=O)N[C@@H](Cc3c[nH]c4ccccc34)C(=O)NCC(=O)OCCOCCOCCOC(=O)c3ccc(-c4c5nc(c(-c6c(F)cc(S(=O)(=O)[O-])cc6F)c6ccc([nH]6)c(-c6c(F)cc(S(=O)(=O)[O-])cc6F)c6nc(c(-c7c(F)cc(S(=O)(=O)[O-])cc7F)c7ccc4[nH]7)C=C6)C=C5)cc3)c3ccccc32)cc1
REMARK SMILES IDX 36 1 35 2 34 3 32 4 33 5 31 6 30 7 28 8 29 9 17 11 16 12
REMARK SMILES IDX 14 13 15 14 12 16 13 17 11 18 9 19 10 20 117 21 112 22
REMARK SMILES IDX 116 23 113 24 115 25 114 26 6 27 7 28 8 29 5 30 1 31 2 32
REMARK SMILES IDX 3 33 119 34 4 35 118 36 18 37 19 38 20 39 27 40 21 41 22 42
REMARK SMILES IDX 26 43 23 45 25 46 24 47 37 48 38 49 39 50 40 51 41 52 42 53
REMARK SMILES IDX 43 54 44 55 45 56 46 57 47 58 111 59 48 60 110 61 49 62
REMARK SMILES IDX 50 63 51 64 104 65 52 66 109 67 103 68 105 69 53 70 108 71
REMARK SMILES IDX 102 72 101 73 54 75 88 76 67 77 87 78 68 79 71 80 86 81
REMARK SMILES IDX 106 82 69 83 70 84 85 86 107 87 72 88 55 89 56 90 65 91
REMARK SMILES IDX 57 92 58 93 64 94 66 95 59 96 60 97 61 98 62 99 63 100
REMARK SMILES IDX 89 101 90 102 99 103 91 104 92 105 98 106 100 107 93 108
REMARK SMILES IDX 94 109 95 110 96 111 97 112 73 113 74 114 83 115 75 116
REMARK SMILES IDX 76 117 82 118 84 119 77 120 78 121 79 122 80 123 81 124
REMARK H PARENT 30 10 16 15 21 44 105 74 71 85
REMARK Flexibility Score: inf
ROOT
ATOM      1  C   UNL A   1      40.233  37.577  42.187  1.00  0.00     0.202 C 
ENDROOT
BRANCH   1   2
ATOM      2  C   UNL A   1      40.404  37.620  40.672  1.00  0.00     0.261 C 
BRANCH   2   3
ATOM      3  O   UNL A   1      41.127  38.651  39.855  1.00  0.00    -0.462 OA
BRANCH   3   4
ATOM      4  C   UNL A   1      41.775  39.780  40.233  1.00  0.00     0.325 C 
ATOM      5  O   UNL A   1      41.091  40.643  40.772  1.00  0.00    -0.250 OA
BRANCH   4   6
ATOM      6  C   UNL A   1      43.165  40.199  39.446  1.00  0.00     0.238 C 
BRANCH   6   7
ATOM      7  N   UNL A   1      43.847  41.556  39.442  1.00  0.00    -0.343 N 
ATOM      8  C   UNL A   1      44.469  42.497  38.656  1.00  0.00     0.243 C 
ATOM      9  O   UNL A   1      44.518  43.603  39.242  1.00  0.00    -0.273 OA
ATOM     10  H   UNL A   1      43.842  41.896  40.365  1.00  0.00     0.164 HD
BRANCH   8  11
ATOM     11  C   UNL A   1      45.070  42.526  37.117  1.00  0.00     0.176 C 
BRANCH  11  12
ATOM     12  N   UNL A   1      46.147  43.503  36.707  1.00  0.00    -0.337 N 
ATOM     13  C   UNL A   1      46.437  44.449  35.716  1.00  0.00     0.293 C 
ATOM     14  O   UNL A   1      47.377  45.221  35.899  1.00  0.00    -0.265 OA
ATOM     15  H   UNL A   1      46.890  43.462  37.351  1.00  0.00     0.164 HD
BRANCH  13  16
ATOM     16  C   UNL A   1      45.663  44.591  34.422  1.00  0.00     0.252 C 
ATOM     17  O   UNL A   1      45.000  45.632  34.354  1.00  0.00    -0.283 OA
BRANCH  16  18
ATOM     18  C   UNL A   1      45.679  43.662  33.237  1.00  0.00     0.054 A 
ATOM     19  N   UNL A   1      46.165  42.084  31.629  1.00  0.00    -0.240 N 
ATOM     20  C   UNL A   1      46.490  43.391  32.107  1.00  0.00     0.117 A 
ATOM     21  C   UNL A   1      45.174  41.600  32.512  1.00  0.00     0.065 A 
ATOM     22  C   UNL A   1      44.622  42.718  33.116  1.00  0.00     0.012 A 
ATOM     23  C   UNL A   1      44.554  40.344  32.641  1.00  0.00     0.028 A 
ATOM     24  C   UNL A   1      43.300  42.662  33.598  1.00  0.00     0.011 A 
ATOM     25  C   UNL A   1      43.227  40.315  33.073  1.00  0.00     0.002 A 
ATOM     26  C   UNL A   1      42.583  41.473  33.487  1.00  0.00     0.001 A 
BRANCH  19  27
ATOM     27  S   UNL A   1      45.810  41.577  29.947  1.00  0.00     0.268 S 
ATOM     28  O   UNL A   1      47.010  40.853  29.557  1.00  0.00    -0.201 OA
ATOM     29  O   UNL A   1      45.526  42.872  29.329  1.00  0.00    -0.201 OA
BRANCH  27  30
ATOM     30  C   UNL A   1      44.456  40.672  29.248  1.00  0.00     0.088 A 
ATOM     31  C   UNL A   1      41.901  38.065  26.870  1.00  0.00     0.044 C 
ATOM     32  C   UNL A   1      42.753  38.933  27.754  1.00  0.00    -0.051 A 
ATOM     33  C   UNL A   1      44.125  38.749  27.710  1.00  0.00     0.005 A 
ATOM     34  C   UNL A   1      42.245  39.973  28.564  1.00  0.00     0.005 A 
ATOM     35  C   UNL A   1      44.943  39.586  28.455  1.00  0.00     0.022 A 
ATOM     36  C   UNL A   1      43.088  40.851  29.314  1.00  0.00     0.022 A 
ENDBRANCH  27  30
ENDBRANCH  19  27
ENDBRANCH  16  18
ENDBRANCH  13  16
ENDBRANCH  11  12
BRANCH  11  37
ATOM     37  C   UNL A   1      45.186  41.109  36.476  1.00  0.00     0.072 C 
BRANCH  37  38
ATOM     38  C   UNL A   1      46.442  40.359  36.793  1.00  0.00    -0.020 A 
ATOM     39  C   UNL A   1      46.811  39.769  37.988  1.00  0.00     0.087 A 
ATOM     40  C   UNL A   1      47.542  40.199  35.915  1.00  0.00     0.003 A 
ATOM     41  N   UNL A   1      48.137  39.431  37.907  1.00  0.00    -0.361 N 
ATOM     42  C   UNL A   1      48.630  39.812  36.687  1.00  0.00     0.046 A 
ATOM     43  C   UNL A   1      47.733  40.489  34.565  1.00  0.00     0.010 A 
ATOM     44  H   UNL A   1      48.656  38.985  38.615  1.00  0.00     0.166 HD
ATOM     45  C   UNL A   1      49.934  39.880  36.220  1.00  0.00     0.026 A 
ATOM     46  C   UNL A   1      49.030  40.734  34.147  1.00  0.00     0.001 A 
ATOM     47  C   UNL A   1      50.104  40.480  34.981  1.00  0.00     0.002 A 
ENDBRANCH  37  38
ENDBRANCH  11  37
ENDBRANCH   8  11
ENDBRANCH   6   7
ENDBRANCH   4   6
ENDBRANCH   3   4
ENDBRANCH   2   3
ENDBRANCH   1   2
BRANCH   1  48
ATOM     48  O   UNL A   1      41.228  36.917  42.917  1.00  0.00    -0.376 OA
BRANCH  48  49
ATOM     49  C   UNL A   1      41.382  35.540  42.601  1.00  0.00     0.188 C 
BRANCH  49  50
ATOM     50  C   UNL A   1      42.523  34.850  43.353  1.00  0.00     0.188 C 
BRANCH  50  51
ATOM     51  O   UNL A   1      42.576  35.143  44.749  1.00  0.00    -0.376 OA
BRANCH  51  52
ATOM     52  C   UNL A   1      41.862  34.303  45.642  1.00  0.00     0.202 C 
BRANCH  52  53
ATOM     53  C   UNL A   1      42.294  32.859  45.402  1.00  0.00     0.261 C 
BRANCH  53  54
ATOM     54  O   UNL A   1      41.140  32.100  44.979  1.00  0.00    -0.460 OA
BRANCH  54  55
ATOM     55  C   UNL A   1      41.442  30.939  44.338  1.00  0.00     0.338 C 
ATOM     56  O   UNL A   1      41.820  29.915  44.884  1.00  0.00    -0.246 OA
BRANCH  55  57
ATOM     57  C   UNL A   1      41.468  31.199  42.867  1.00  0.00     0.060 A 
ATOM     58  C   UNL A   1      42.693  31.183  42.246  1.00  0.00     0.016 A 
ATOM     59  C   UNL A   1      40.374  31.671  42.125  1.00  0.00     0.016 A 
ATOM     60  C   UNL A   1      42.809  31.830  41.003  1.00  0.00     0.010 A 
ATOM     61  C   UNL A   1      40.551  32.331  40.872  1.00  0.00     0.010 A 
ATOM     62  C   UNL A   1      41.821  32.546  40.332  1.00  0.00    -0.014 A 
BRANCH  62  63
ATOM     63  C   UNL A   1      42.064  33.535  39.191  1.00  0.00     0.031 A 
ATOM     64  C   UNL A   1      41.192  33.371  37.983  1.00  0.00     0.074 A 
ATOM     65  C   UNL A   1      43.054  34.418  38.793  1.00  0.00     0.049 A 
ATOM     66  N   UNL A   1      40.296  34.177  37.503  1.00  0.00    -0.248 NA
ATOM     67  C   UNL A   1      41.547  32.267  37.104  1.00  0.00     0.031 C 
ATOM     68  C   UNL A   1      42.632  35.615  38.053  1.00  0.00     0.029 A 
ATOM     69  N   UNL A   1      44.395  34.762  39.025  1.00  0.00    -0.354 N 
ATOM     70  C   UNL A   1      39.997  33.710  36.239  1.00  0.00     0.074 A 
ATOM     71  C   UNL A   1      40.727  32.463  36.083  1.00  0.00     0.031 C 
ATOM     72  C   UNL A   1      43.671  36.403  37.788  1.00  0.00     0.029 A 
ATOM     73  C   UNL A   1      44.893  35.773  38.217  1.00  0.00     0.049 A 
ATOM     74  H   UNL A   1      44.943  34.318  39.713  1.00  0.00     0.167 HD
ATOM     75  C   UNL A   1      39.882  34.441  35.098  1.00  0.00     0.037 A 
ATOM     76  C   UNL A   1      46.156  36.133  37.835  1.00  0.00     0.037 A 
ATOM     77  C   UNL A   1      40.796  35.552  34.895  1.00  0.00     0.049 A 
ATOM     78  C   UNL A   1      46.145  36.633  36.393  1.00  0.00     0.074 A 
ATOM     79  C   UNL A   1      40.908  36.829  35.411  1.00  0.00     0.029 A 
ATOM     80  N   UNL A   1      41.896  35.406  34.049  1.00  0.00    -0.354 N 
ATOM     81  N   UNL A   1      45.060  37.013  35.767  1.00  0.00    -0.248 NA
ATOM     82  C   UNL A   1      47.288  36.583  35.477  1.00  0.00     0.031 C 
ATOM     83  C   UNL A   1      42.154  37.379  34.981  1.00  0.00     0.029 A 
ATOM     84  C   UNL A   1      42.827  36.438  34.213  1.00  0.00     0.049 A 
ATOM     85  H   UNL A   1      42.005  34.664  33.410  1.00  0.00     0.167 HD
ATOM     86  C   UNL A   1      45.234  36.789  34.429  1.00  0.00     0.074 A 
ATOM     87  C   UNL A   1      46.682  36.768  34.288  1.00  0.00     0.031 C 
ATOM     88  C   UNL A   1      44.193  36.380  33.624  1.00  0.00     0.037 A 
BRANCH  75  89
ATOM     89  C   UNL A   1      38.522  34.223  34.488  1.00  0.00     0.058 A 
ATOM     90  C   UNL A   1      38.321  34.315  33.104  1.00  0.00     0.135 A 
ATOM     91  C   UNL A   1      37.350  34.057  35.275  1.00  0.00     0.135 A 
ATOM     92  F   UNL A   1      39.360  34.446  32.266  1.00  0.00    -0.206 F 
ATOM     93  C   UNL A   1      37.041  34.336  32.545  1.00  0.00     0.059 A 
ATOM     94  C   UNL A   1      36.072  34.087  34.741  1.00  0.00     0.059 A 
ATOM     95  F   UNL A   1      37.397  33.904  36.608  1.00  0.00    -0.206 F 
ATOM     96  C   UNL A   1      35.925  34.261  33.376  1.00  0.00     0.060 A 
BRANCH  96  97
ATOM     97  S   UNL A   1      34.275  34.442  32.682  1.00  0.00     0.124 S 
ATOM     98  O   UNL A   1      33.604  33.249  33.187  1.00  0.00    -0.237 OA
ATOM     99  O   UNL A   1      33.840  35.715  33.242  1.00  0.00    -0.237 OA
ATOM    100  O   UNL A   1      34.523  34.443  31.243  1.00  0.00    -0.744 OA
ENDBRANCH  96  97
ENDBRANCH  75  89
BRANCH  76 101
ATOM    101  C   UNL A   1      47.353  35.610  38.579  1.00  0.00     0.058 A 
ATOM    102  C   UNL A   1      47.676  36.168  39.834  1.00  0.00     0.135 A 
ATOM    103  C   UNL A   1      48.038  34.434  38.245  1.00  0.00     0.135 A 
ATOM    104  F   UNL A   1      47.109  37.327  40.205  1.00  0.00    -0.206 F 
ATOM    105  C   UNL A   1      48.496  35.512  40.770  1.00  0.00     0.059 A 
ATOM    106  C   UNL A   1      48.857  33.748  39.157  1.00  0.00     0.059 A 
ATOM    107  F   UNL A   1      47.841  33.865  37.055  1.00  0.00    -0.206 F 
ATOM    108  C   UNL A   1      49.014  34.255  40.450  1.00  0.00     0.060 A 
BRANCH 108 109
ATOM    109  S   UNL A   1      49.469  33.082  41.780  1.00  0.00     0.124 S 
ATOM    110  O   UNL A   1      50.926  33.160  41.764  1.00  0.00    -0.237 OA
ATOM    111  O   UNL A   1      48.833  33.622  42.979  1.00  0.00    -0.237 OA
ATOM    112  O   UNL A   1      48.907  31.815  41.304  1.00  0.00    -0.744 OA
ENDBRANCH 108 109
ENDBRANCH  76 101
BRANCH  88 113
ATOM    113  C   UNL A   1      44.432  35.810  32.236  1.00  0.00     0.058 A 
ATOM    114  C   UNL A   1      44.173  36.492  31.026  1.00  0.00     0.135 A 
ATOM    115  C   UNL A   1      45.009  34.532  32.089  1.00  0.00     0.135 A 
ATOM    116  F   UNL A   1      43.775  37.771  31.010  1.00  0.00    -0.206 F 
ATOM    117  C   UNL A   1      44.329  35.900  29.774  1.00  0.00     0.059 A 
ATOM    118  C   UNL A   1      45.231  33.941  30.845  1.00  0.00     0.059 A 
ATOM    119  F   UNL A   1      45.373  33.816  33.162  1.00  0.00    -0.206 F 
ATOM    120  C   UNL A   1      44.832  34.610  29.694  1.00  0.00     0.060 A 
BRANCH 120 121
ATOM    121  S   UNL A   1      44.962  33.792  28.093  1.00  0.00     0.124 S 
ATOM    122  O   UNL A   1      46.064  34.532  27.485  1.00  0.00    -0.237 OA
ATOM    123  O   UNL A   1      45.258  32.408  28.450  1.00  0.00    -0.237 OA
ATOM    124  O   UNL A   1      43.646  34.017  27.506  1.00  0.00    -0.744 OA
ENDBRANCH 120 121
ENDBRANCH  88 113
ENDBRANCH  62  63
ENDBRANCH  55  57
ENDBRANCH  54  55
ENDBRANCH  53  54
ENDBRANCH  52  53
ENDBRANCH  51  52
ENDBRANCH  50  51
ENDBRANCH  49  50
ENDBRANCH  48  49
ENDBRANCH   1  48
TORSDOF 29
ENDMDL
MODEL 3
REMARK VINA RESULT:      -6.0      5.759     12.028
REMARK SMILES Cc1ccc(S(=O)(=O)n2cc(C(=O)C(=O)N[C@@H](Cc3c[nH]c4ccccc34)C(=O)NCC(=O)OCCOCCOCCOC(=O)c3ccc(-c4c5nc(c(-c6c(F)cc(S(=O)(=O)[O-])cc6F)c6ccc([nH]6)c(-c6c(F)cc(S(=O)(=O)[O-])cc6F)c6nc(c(-c7c(F)cc(S(=O)(=O)[O-])cc7F)c7ccc4[nH]7)C=C6)C=C5)cc3)c3ccccc32)cc1
REMARK SMILES IDX 36 1 35 2 34 3 32 4 33 5 31 6 30 7 28 8 29 9 17 11 16 12
REMARK SMILES IDX 14 13 15 14 12 16 13 17 11 18 9 19 10 20 117 21 112 22
REMARK SMILES IDX 116 23 113 24 115 25 114 26 6 27 7 28 8 29 5 30 1 31 2 32
REMARK SMILES IDX 3 33 119 34 4 35 118 36 18 37 19 38 20 39 27 40 21 41 22 42
REMARK SMILES IDX 26 43 23 45 25 46 24 47 37 48 38 49 39 50 40 51 41 52 42 53
REMARK SMILES IDX 43 54 44 55 45 56 46 57 47 58 111 59 48 60 110 61 49 62
REMARK SMILES IDX 50 63 51 64 104 65 52 66 109 67 103 68 105 69 53 70 108 71
REMARK SMILES IDX 102 72 101 73 54 75 88 76 67 77 87 78 68 79 71 80 86 81
REMARK SMILES IDX 106 82 69 83 70 84 85 86 107 87 72 88 55 89 56 90 65 91
REMARK SMILES IDX 57 92 58 93 64 94 66 95 59 96 60 97 61 98 62 99 63 100
REMARK SMILES IDX 89 101 90 102 99 103 91 104 92 105 98 106 100 107 93 108
REMARK SMILES IDX 94 109 95 110 96 111 97 112 73 113 74 114 83 115 75 116
REMARK SMILES IDX 76 117 82 118 84 119 77 120 78 121 79 122 80 123 81 124
REMARK H PARENT 30 10 16 15 21 44 105 74 71 85
REMARK Flexibility Score: inf
ROOT
ATOM      1  C   UNL A   1      44.714  37.906  26.911  1.00  0.00     0.202 C 
ENDROOT
BRANCH   1   2
ATOM      2  C   UNL A   1      46.073  38.580  26.756  1.00  0.00     0.261 C 
BRANCH   2   3
ATOM      3  O   UNL A   1      46.375  39.915  26.141  1.00  0.00    -0.462 OA
BRANCH   3   4
ATOM      4  C   UNL A   1      45.624  40.704  25.335  1.00  0.00     0.325 C 
ATOM      5  O   UNL A   1      46.088  40.945  24.226  1.00  0.00    -0.250 OA
BRANCH   4   6
ATOM      6  C   UNL A   1      44.552  41.753  26.026  1.00  0.00     0.238 C 
BRANCH   6   7
ATOM      7  N   UNL A   1      44.741  43.242  26.260  1.00  0.00    -0.343 N 
ATOM      8  C   UNL A   1      45.531  44.192  26.861  1.00  0.00     0.243 C 
ATOM      9  O   UNL A   1      45.313  45.326  26.374  1.00  0.00    -0.273 OA
ATOM     10  H   UNL A   1      44.009  43.712  25.798  1.00  0.00     0.164 HD
BRANCH   8  11
ATOM     11  C   UNL A   1      46.739  44.168  27.989  1.00  0.00     0.176 C 
BRANCH  11  12
ATOM     12  N   UNL A   1      47.953  45.058  27.867  1.00  0.00    -0.337 N 
ATOM     13  C   UNL A   1      49.350  44.989  27.795  1.00  0.00     0.293 C 
ATOM     14  O   UNL A   1      49.971  45.995  27.456  1.00  0.00    -0.265 OA
ATOM     15  H   UNL A   1      47.668  45.999  27.823  1.00  0.00     0.164 HD
BRANCH  13  16
ATOM     16  C   UNL A   1      50.157  43.745  28.103  1.00  0.00     0.252 C 
ATOM     17  O   UNL A   1      51.280  43.743  27.586  1.00  0.00    -0.283 OA
BRANCH  16  18
ATOM     18  C   UNL A   1      49.768  42.596  28.996  1.00  0.00     0.054 A 
ATOM     19  N   UNL A   1      49.610  40.614  30.160  1.00  0.00    -0.240 N 
ATOM     20  C   UNL A   1      49.431  41.225  28.881  1.00  0.00     0.117 A 
ATOM     21  C   UNL A   1      50.077  41.645  31.005  1.00  0.00     0.065 A 
ATOM     22  C   UNL A   1      49.704  42.833  30.397  1.00  0.00     0.012 A 
ATOM     23  C   UNL A   1      50.549  41.642  32.330  1.00  0.00     0.028 A 
ATOM     24  C   UNL A   1      49.510  43.982  31.188  1.00  0.00     0.011 A 
ATOM     25  C   UNL A   1      50.301  42.773  33.111  1.00  0.00     0.002 A 
ATOM     26  C   UNL A   1      49.728  43.911  32.561  1.00  0.00     0.001 A 
BRANCH  19  27
ATOM     27  S   UNL A   1      48.477  39.542  31.043  1.00  0.00     0.268 S 
ATOM     28  O   UNL A   1      49.363  38.629  31.750  1.00  0.00    -0.201 OA
ATOM     29  O   UNL A   1      47.666  39.035  29.936  1.00  0.00    -0.201 OA
BRANCH  27  30
ATOM     30  C   UNL A   1      47.155  39.895  32.171  1.00  0.00     0.088 A 
ATOM     31  C   UNL A   1      43.399  39.987  34.376  1.00  0.00     0.044 C 
ATOM     32  C   UNL A   1      44.733  39.950  33.682  1.00  0.00    -0.051 A 
ATOM     33  C   UNL A   1      45.012  38.856  32.880  1.00  0.00     0.005 A 
ATOM     34  C   UNL A   1      45.680  40.997  33.737  1.00  0.00     0.005 A 
ATOM     35  C   UNL A   1      46.202  38.830  32.165  1.00  0.00     0.022 A 
ATOM     36  C   UNL A   1      46.894  40.982  32.983  1.00  0.00     0.022 A 
ENDBRANCH  27  30
ENDBRANCH  19  27
ENDBRANCH  16  18
ENDBRANCH  13  16
ENDBRANCH  11  12
BRANCH  11  37
ATOM     37  C   UNL A   1      46.216  43.961  29.444  1.00  0.00     0.072 C 
BRANCH  37  38
ATOM     38  C   UNL A   1      45.562  42.641  29.712  1.00  0.00    -0.020 A 
ATOM     39  C   UNL A   1      45.824  41.418  29.123  1.00  0.00     0.087 A 
ATOM     40  C   UNL A   1      44.463  42.436  30.583  1.00  0.00     0.003 A 
ATOM     41  N   UNL A   1      44.821  40.551  29.472  1.00  0.00    -0.361 N 
ATOM     42  C   UNL A   1      43.909  41.204  30.260  1.00  0.00     0.046 A 
ATOM     43  C   UNL A   1      43.815  43.252  31.509  1.00  0.00     0.010 A 
ATOM     44  H   UNL A   1      44.764  39.607  29.200  1.00  0.00     0.166 HD
ATOM     45  C   UNL A   1      42.642  40.826  30.677  1.00  0.00     0.026 A 
ATOM     46  C   UNL A   1      42.488  42.970  31.783  1.00  0.00     0.001 A 
ATOM     47  C   UNL A   1      41.903  41.802  31.330  1.00  0.00     0.002 A 
ENDBRANCH  37  38
ENDBRANCH  11  37
ENDBRANCH   8  11
ENDBRANCH   6   7
ENDBRANCH   4   6
ENDBRANCH   3   4
ENDBRANCH   2   3
ENDBRANCH   1   2
BRANCH   1  48
ATOM     48  O   UNL A   1      44.685  36.510  26.811  1.00  0.00    -0.376 OA
BRANCH  48  49
ATOM     49  C   UNL A   1      43.388  35.935  26.895  1.00  0.00     0.188 C 
BRANCH  49  50
ATOM     50  C   UNL A   1      43.066  34.953  25.766  1.00  0.00     0.188 C 
BRANCH  50  51
ATOM     51  O   UNL A   1      44.015  33.899  25.606  1.00  0.00    -0.376 OA
BRANCH  51  52
ATOM     52  C   UNL A   1      44.154  32.952  26.653  1.00  0.00     0.202 C 
BRANCH  52  53
ATOM     53  C   UNL A   1      45.619  32.909  27.078  1.00  0.00     0.261 C 
BRANCH  53  54
ATOM     54  O   UNL A   1      45.815  33.864  28.144  1.00  0.00    -0.460 OA
BRANCH  54  55
ATOM     55  C   UNL A   1      45.773  33.324  29.391  1.00  0.00     0.338 C 
ATOM     56  O   UNL A   1      46.360  32.310  29.736  1.00  0.00    -0.246 OA
BRANCH  55  57
ATOM     57  C   UNL A   1      44.716  34.026  30.180  1.00  0.00     0.060 A 
ATOM     58  C   UNL A   1      45.107  35.104  30.937  1.00  0.00     0.016 A 
ATOM     59  C   UNL A   1      43.416  33.535  30.378  1.00  0.00     0.016 A 
ATOM     60  C   UNL A   1      44.270  35.504  31.993  1.00  0.00     0.010 A 
ATOM     61  C   UNL A   1      42.614  33.970  31.475  1.00  0.00     0.010 A 
ATOM     62  C   UNL A   1      43.089  34.895  32.407  1.00  0.00    -0.014 A 
BRANCH  62  63
ATOM     63  C   UNL A   1      42.406  35.114  33.759  1.00  0.00     0.031 A 
ATOM     64  C   UNL A   1      43.309  35.470  34.901  1.00  0.00     0.074 A 
ATOM     65  C   UNL A   1      41.188  34.825  34.351  1.00  0.00     0.049 A 
ATOM     66  N   UNL A   1      43.369  36.570  35.586  1.00  0.00    -0.248 NA
ATOM     67  C   UNL A   1      44.070  34.365  35.462  1.00  0.00     0.031 C 
ATOM     68  C   UNL A   1      40.700  35.754  35.380  1.00  0.00     0.029 A 
ATOM     69  N   UNL A   1      40.031  34.045  34.190  1.00  0.00    -0.354 N 
ATOM     70  C   UNL A   1      44.143  36.290  36.694  1.00  0.00     0.074 A 
ATOM     71  C   UNL A   1      44.636  34.936  36.514  1.00  0.00     0.031 C 
ATOM     72  C   UNL A   1      39.498  35.392  35.818  1.00  0.00     0.029 A 
ATOM     73  C   UNL A   1      39.108  34.141  35.221  1.00  0.00     0.049 A 
ATOM     74  H   UNL A   1      39.886  33.473  33.403  1.00  0.00     0.167 HD
ATOM     75  C   UNL A   1      43.882  36.627  37.986  1.00  0.00     0.037 A 
ATOM     76  C   UNL A   1      38.103  33.323  35.659  1.00  0.00     0.037 A 
ATOM     77  C   UNL A   1      42.505  36.570  38.449  1.00  0.00     0.049 A 
ATOM     78  C   UNL A   1      38.003  33.385  37.181  1.00  0.00     0.074 A 
ATOM     79  C   UNL A   1      41.385  37.359  38.274  1.00  0.00     0.029 A 
ATOM     80  N   UNL A   1      42.069  35.485  39.210  1.00  0.00    -0.354 N 
ATOM     81  N   UNL A   1      38.529  34.342  37.903  1.00  0.00    -0.248 NA
ATOM     82  C   UNL A   1      37.480  32.314  38.034  1.00  0.00     0.031 C 
ATOM     83  C   UNL A   1      40.258  36.664  38.808  1.00  0.00     0.029 A 
ATOM     84  C   UNL A   1      40.673  35.433  39.298  1.00  0.00     0.049 A 
ATOM     85  H   UNL A   1      42.672  34.833  39.636  1.00  0.00     0.167 HD
ATOM     86  C   UNL A   1      38.833  33.835  39.136  1.00  0.00     0.074 A 
ATOM     87  C   UNL A   1      37.950  32.684  39.241  1.00  0.00     0.031 C 
ATOM     88  C   UNL A   1      39.953  34.243  39.828  1.00  0.00     0.037 A 
BRANCH  75  89
ATOM     89  C   UNL A   1      45.027  37.431  38.544  1.00  0.00     0.058 A 
ATOM     90  C   UNL A   1      45.186  38.787  38.230  1.00  0.00     0.135 A 
ATOM     91  C   UNL A   1      46.081  36.840  39.293  1.00  0.00     0.135 A 
ATOM     92  F   UNL A   1      44.240  39.451  37.550  1.00  0.00    -0.206 F 
ATOM     93  C   UNL A   1      46.351  39.487  38.554  1.00  0.00     0.059 A 
ATOM     94  C   UNL A   1      47.249  37.512  39.614  1.00  0.00     0.059 A 
ATOM     95  F   UNL A   1      46.038  35.563  39.707  1.00  0.00    -0.206 F 
ATOM     96  C   UNL A   1      47.389  38.828  39.210  1.00  0.00     0.060 A 
BRANCH  96  97
ATOM     97  S   UNL A   1      48.951  39.675  39.494  1.00  0.00     0.124 S 
ATOM     98  O   UNL A   1      49.876  38.874  38.700  1.00  0.00    -0.237 OA
ATOM     99  O   UNL A   1      48.672  41.018  39.002  1.00  0.00    -0.237 OA
ATOM    100  O   UNL A   1      49.128  39.563  40.940  1.00  0.00    -0.744 OA
ENDBRANCH  96  97
ENDBRANCH  75  89
BRANCH  76 101
ATOM    101  C   UNL A   1      37.591  32.213  34.785  1.00  0.00     0.058 A 
ATOM    102  C   UNL A   1      36.626  32.508  33.799  1.00  0.00     0.135 A 
ATOM    103  C   UNL A   1      38.176  30.943  34.699  1.00  0.00     0.135 A 
ATOM    104  F   UNL A   1      35.974  33.681  33.845  1.00  0.00    -0.206 F 
ATOM    105  C   UNL A   1      36.383  31.667  32.697  1.00  0.00     0.059 A 
ATOM    106  C   UNL A   1      37.963  30.082  33.610  1.00  0.00     0.059 A 
ATOM    107  F   UNL A   1      39.056  30.552  35.622  1.00  0.00    -0.206 F 
ATOM    108  C   UNL A   1      37.125  30.491  32.569  1.00  0.00     0.060 A 
BRANCH 108 109
ATOM    109  S   UNL A   1      37.378  29.739  30.920  1.00  0.00     0.124 S 
ATOM    110  O   UNL A   1      36.023  29.327  30.565  1.00  0.00    -0.237 OA
ATOM    111  O   UNL A   1      37.930  30.818  30.105  1.00  0.00    -0.237 OA
ATOM    112  O   UNL A   1      38.310  28.643  31.200  1.00  0.00    -0.744 OA
ENDBRANCH 108 109
ENDBRANCH  76 101
BRANCH  88 113
ATOM    113  C   UNL A   1      40.483  33.464  41.021  1.00  0.00     0.058 A 
ATOM    114  C   UNL A   1      41.423  32.412  40.947  1.00  0.00     0.135 A 
ATOM    115  C   UNL A   1      40.083  33.816  42.326  1.00  0.00     0.135 A 
ATOM    116  F   UNL A   1      42.012  32.074  39.792  1.00  0.00    -0.206 F 
ATOM    117  C   UNL A   1      41.819  31.669  42.058  1.00  0.00     0.059 A 
ATOM    118  C   UNL A   1      40.511  33.126  43.460  1.00  0.00     0.059 A 
ATOM    119  F   UNL A   1      39.254  34.849  42.534  1.00  0.00    -0.206 F 
ATOM    120  C   UNL A   1      41.333  32.015  43.310  1.00  0.00     0.060 A 
BRANCH 120 121
ATOM    121  S   UNL A   1      41.762  31.019  44.749  1.00  0.00     0.124 S 
ATOM    122  O   UNL A   1      40.695  30.023  44.733  1.00  0.00    -0.237 OA
ATOM    123  O   UNL A   1      43.093  30.516  44.420  1.00  0.00    -0.237 OA
ATOM    124  O   UNL A   1      41.713  31.986  45.839  1.00  0.00    -0.744 OA
ENDBRANCH 120 121
ENDBRANCH  88 113
ENDBRANCH  62  63
ENDBRANCH  55  57
ENDBRANCH  54  55
ENDBRANCH  53  54
ENDBRANCH  52  53
ENDBRANCH  51  52
ENDBRANCH  50  51
ENDBRANCH  49  50
ENDBRANCH  48  49
ENDBRANCH   1  48
TORSDOF 29
ENDMDL
