MODEL 1
REMARK VINA RESULT:      -9.7      0.000      0.000
REMARK SMILES NC(=O)C[C@@H](NC(=O)c1ccc(CO)cc1)C(=O)OCCOCCOCCOC(=O)c1ccc(-c2c3nc(c(-c4c(F)cc(S(=O)(=O)[O-])cc4F)c4ccc([nH]4)c(-c4c(F)cc(S(=O)(=O)[O-])cc4F)c4nc(c(-c5c(F)cc(S(=O)(=O)[O-])cc5F)c5ccc2[nH]5)C=C4)C=C3)cc1
REMARK SMILES IDX 23 1 22 2 21 3 20 4 19 5 17 6 18 7 5 8 4 9 2 10 1 11 3 14
REMARK SMILES IDX 6 15 7 16 8 18 9 19 10 20 16 21 11 22 15 23 12 24 13 25
REMARK SMILES IDX 14 26 24 28 25 29 26 30 27 31 28 32 29 33 30 34 31 35 32 36
REMARK SMILES IDX 96 37 33 38 95 39 34 40 35 41 36 42 89 43 37 44 94 45 88 46
REMARK SMILES IDX 90 47 38 48 93 49 87 50 86 51 39 53 73 54 52 55 72 56 53 57
REMARK SMILES IDX 56 58 71 59 91 60 54 61 55 62 70 64 92 65 57 66 40 67 41 68
REMARK SMILES IDX 50 69 42 70 43 71 49 72 51 73 44 74 45 75 46 76 47 77 48 78
REMARK SMILES IDX 74 79 75 80 84 81 76 82 77 83 83 84 85 85 78 86 79 87 80 88
REMARK SMILES IDX 81 89 82 90 58 91 59 92 68 93 60 94 61 95 67 96 69 97 62 98
REMARK SMILES IDX 63 99 64 100 65 101 66 102
REMARK H PARENT 1 12 1 13 6 17 14 27 90 52 56 63
REMARK Flexibility Score: inf
ROOT
ATOM      1  C   UNL A   1      32.376  27.087  24.354  1.00  0.00     0.188 C 
ENDROOT
BRANCH   1   2
ATOM      2  O   UNL A   1      33.218  26.072  24.848  1.00  0.00    -0.376 OA
BRANCH   2   3
ATOM      3  C   UNL A   1      33.902  25.260  23.921  1.00  0.00     0.202 C 
BRANCH   3   4
ATOM      4  C   UNL A   1      33.268  24.427  22.794  1.00  0.00     0.261 C 
BRANCH   4   5
ATOM      5  O   UNL A   1      32.688  23.133  22.940  1.00  0.00    -0.462 OA
BRANCH   5   6
ATOM      6  C   UNL A   1      31.515  23.077  23.643  1.00  0.00     0.329 C 
ATOM      7  O   UNL A   1      30.470  23.613  23.295  1.00  0.00    -0.250 OA
BRANCH   6   8
ATOM      8  C   UNL A   1      31.680  22.391  25.000  1.00  0.00     0.201 C 
BRANCH   8   9
ATOM      9  C   UNL A   1      30.517  22.631  25.972  1.00  0.00     0.136 C 
BRANCH   9  10
ATOM     10  C   UNL A   1      30.641  24.011  26.573  1.00  0.00     0.220 C 
ATOM     11  N   UNL A   1      29.634  24.877  26.276  1.00  0.00    -0.370 N 
ATOM     12  H   UNL A   1      29.651  25.794  26.634  1.00  0.00     0.159 HD
ATOM     13  H   UNL A   1      28.888  24.586  25.703  1.00  0.00     0.159 HD
ATOM     14  O   UNL A   1      31.555  24.335  27.322  1.00  0.00    -0.275 OA
ENDBRANCH   9  10
ENDBRANCH   8   9
BRANCH   8  15
ATOM     15  N   UNL A   1      32.132  20.977  24.966  1.00  0.00    -0.338 N 
ATOM     16  C   UNL A   1      33.364  20.416  24.714  1.00  0.00     0.251 C 
ATOM     17  H   UNL A   1      31.422  20.322  25.159  1.00  0.00     0.164 HD
ATOM     18  O   UNL A   1      33.429  19.333  24.137  1.00  0.00    -0.269 OA
BRANCH  16  19
ATOM     19  C   UNL A   1      34.614  21.046  25.198  1.00  0.00     0.039 A 
ATOM     20  C   UNL A   1      35.846  20.466  24.885  1.00  0.00     0.014 A 
ATOM     21  C   UNL A   1      34.576  22.200  25.987  1.00  0.00     0.014 A 
ATOM     22  C   UNL A   1      37.035  21.132  25.215  1.00  0.00     0.007 A 
ATOM     23  C   UNL A   1      35.762  22.879  26.300  1.00  0.00     0.007 A 
ATOM     24  C   UNL A   1      36.997  22.387  25.846  1.00  0.00    -0.023 A 
BRANCH  24  25
ATOM     25  C   UNL A   1      38.222  23.269  25.854  1.00  0.00     0.191 C 
BRANCH  25  26
ATOM     26  O   UNL A   1      39.406  22.500  25.829  1.00  0.00    -0.392 OA
ATOM     27  H   UNL A   1      39.312  21.781  25.185  1.00  0.00     0.211 HD
ENDBRANCH  25  26
ENDBRANCH  24  25
ENDBRANCH  16  19
ENDBRANCH   8  15
ENDBRANCH   6   8
ENDBRANCH   5   6
ENDBRANCH   4   5
ENDBRANCH   3   4
ENDBRANCH   2   3
ENDBRANCH   1   2
BRANCH   1  28
ATOM     28  C   UNL A   1      31.611  27.819  25.462  1.00  0.00     0.188 C 
BRANCH  28  29
ATOM     29  O   UNL A   1      31.417  29.209  25.294  1.00  0.00    -0.376 OA
BRANCH  29  30
ATOM     30  C   UNL A   1      32.484  30.110  25.565  1.00  0.00     0.202 C 
BRANCH  30  31
ATOM     31  C   UNL A   1      32.817  30.760  26.933  1.00  0.00     0.261 C 
BRANCH  31  32
ATOM     32  O   UNL A   1      33.853  30.202  27.747  1.00  0.00    -0.460 OA
BRANCH  32  33
ATOM     33  C   UNL A   1      34.706  31.061  28.353  1.00  0.00     0.338 C 
ATOM     34  O   UNL A   1      34.415  32.118  28.886  1.00  0.00    -0.246 OA
BRANCH  33  35
ATOM     35  C   UNL A   1      36.004  30.351  28.507  1.00  0.00     0.060 A 
ATOM     36  C   UNL A   1      36.303  29.751  29.742  1.00  0.00     0.016 A 
ATOM     37  C   UNL A   1      36.879  30.202  27.429  1.00  0.00     0.016 A 
ATOM     38  C   UNL A   1      37.478  29.020  29.909  1.00  0.00     0.010 A 
ATOM     39  C   UNL A   1      38.084  29.513  27.611  1.00  0.00     0.010 A 
ATOM     40  C   UNL A   1      38.403  28.951  28.862  1.00  0.00    -0.014 A 
BRANCH  40  41
ATOM     41  C   UNL A   1      39.806  28.572  29.162  1.00  0.00     0.031 A 
ATOM     42  C   UNL A   1      40.651  29.592  29.880  1.00  0.00     0.074 A 
ATOM     43  C   UNL A   1      40.318  27.370  28.841  1.00  0.00     0.049 A 
ATOM     44  N   UNL A   1      41.920  29.555  30.189  1.00  0.00    -0.248 NA
ATOM     45  C   UNL A   1      39.965  30.825  30.303  1.00  0.00     0.031 C 
ATOM     46  C   UNL A   1      39.589  26.277  28.205  1.00  0.00     0.029 A 
ATOM     47  N   UNL A   1      41.590  26.878  29.003  1.00  0.00    -0.354 N 
ATOM     48  C   UNL A   1      42.185  30.760  30.828  1.00  0.00     0.074 A 
ATOM     49  C   UNL A   1      40.955  31.519  30.839  1.00  0.00     0.031 C 
ATOM     50  C   UNL A   1      40.433  25.248  28.008  1.00  0.00     0.029 A 
ATOM     51  C   UNL A   1      41.769  25.622  28.473  1.00  0.00     0.049 A 
ATOM     52  H   UNL A   1      42.308  27.379  29.455  1.00  0.00     0.167 HD
ATOM     53  C   UNL A   1      43.349  31.197  31.362  1.00  0.00     0.037 A 
ATOM     54  C   UNL A   1      42.889  24.878  28.356  1.00  0.00     0.037 A 
ATOM     55  C   UNL A   1      44.571  30.440  31.348  1.00  0.00     0.049 A 
ATOM     56  C   UNL A   1      44.195  25.417  28.887  1.00  0.00     0.074 A 
ATOM     57  C   UNL A   1      45.804  30.791  31.869  1.00  0.00     0.029 A 
ATOM     58  N   UNL A   1      44.717  29.185  30.777  1.00  0.00    -0.354 N 
ATOM     59  N   UNL A   1      44.436  26.556  29.496  1.00  0.00    -0.248 NA
ATOM     60  C   UNL A   1      45.386  24.570  28.717  1.00  0.00     0.031 C 
ATOM     61  C   UNL A   1      46.710  29.769  31.564  1.00  0.00     0.029 A 
ATOM     62  C   UNL A   1      46.027  28.756  30.910  1.00  0.00     0.049 A 
ATOM     63  H   UNL A   1      43.997  28.675  30.342  1.00  0.00     0.167 HD
ATOM     64  C   UNL A   1      45.792  26.545  29.809  1.00  0.00     0.074 A 
ATOM     65  C   UNL A   1      46.319  25.285  29.330  1.00  0.00     0.031 C 
ATOM     66  C   UNL A   1      46.535  27.491  30.438  1.00  0.00     0.037 A 
BRANCH  53  67
ATOM     67  C   UNL A   1      43.359  32.570  31.974  1.00  0.00     0.058 A 
ATOM     68  C   UNL A   1      43.624  33.720  31.213  1.00  0.00     0.135 A 
ATOM     69  C   UNL A   1      43.080  32.738  33.340  1.00  0.00     0.135 A 
ATOM     70  F   UNL A   1      43.924  33.615  29.909  1.00  0.00    -0.206 F 
ATOM     71  C   UNL A   1      43.634  34.986  31.790  1.00  0.00     0.059 A 
ATOM     72  C   UNL A   1      43.054  33.997  33.931  1.00  0.00     0.059 A 
ATOM     73  F   UNL A   1      42.829  31.671  34.115  1.00  0.00    -0.206 F 
ATOM     74  C   UNL A   1      43.345  35.115  33.150  1.00  0.00     0.060 A 
BRANCH  74  75
ATOM     75  S   UNL A   1      43.347  36.765  33.880  1.00  0.00     0.124 S 
ATOM     76  O   UNL A   1      43.374  37.610  32.691  1.00  0.00    -0.237 OA
ATOM     77  O   UNL A   1      42.099  36.773  34.636  1.00  0.00    -0.237 OA
ATOM     78  O   UNL A   1      44.564  36.778  34.686  1.00  0.00    -0.744 OA
ENDBRANCH  74  75
ENDBRANCH  53  67
BRANCH  54  79
ATOM     79  C   UNL A   1      42.837  23.548  27.687  1.00  0.00     0.058 A 
ATOM     80  C   UNL A   1      42.485  22.389  28.396  1.00  0.00     0.135 A 
ATOM     81  C   UNL A   1      43.157  23.406  26.328  1.00  0.00     0.135 A 
ATOM     82  F   UNL A   1      42.188  22.467  29.702  1.00  0.00    -0.206 F 
ATOM     83  C   UNL A   1      42.465  21.138  27.787  1.00  0.00     0.059 A 
ATOM     84  C   UNL A   1      43.118  22.170  25.689  1.00  0.00     0.059 A 
ATOM     85  F   UNL A   1      43.500  24.481  25.600  1.00  0.00    -0.206 F 
ATOM     86  C   UNL A   1      42.779  21.039  26.431  1.00  0.00     0.060 A 
BRANCH  86  87
ATOM     87  S   UNL A   1      42.700  19.417  25.638  1.00  0.00     0.124 S 
ATOM     88  O   UNL A   1      43.241  18.553  26.681  1.00  0.00    -0.237 OA
ATOM     89  O   UNL A   1      41.272  19.278  25.369  1.00  0.00    -0.237 OA
ATOM     90  O   UNL A   1      43.539  19.580  24.455  1.00  0.00    -0.744 OA
ENDBRANCH  86  87
ENDBRANCH  54  79
BRANCH  66  91
ATOM     91  C   UNL A   1      47.988  27.188  30.693  1.00  0.00     0.058 A 
ATOM     92  C   UNL A   1      48.400  26.365  31.753  1.00  0.00     0.135 A 
ATOM     93  C   UNL A   1      48.976  27.679  29.824  1.00  0.00     0.135 A 
ATOM     94  F   UNL A   1      47.498  25.869  32.615  1.00  0.00    -0.206 F 
ATOM     95  C   UNL A   1      49.743  26.061  31.957  1.00  0.00     0.059 A 
ATOM     96  C   UNL A   1      50.321  27.363  29.990  1.00  0.00     0.059 A 
ATOM     97  F   UNL A   1      48.637  28.459  28.785  1.00  0.00    -0.206 F 
ATOM     98  C   UNL A   1      50.696  26.563  31.067  1.00  0.00     0.060 A 
BRANCH  98  99
ATOM     99  S   UNL A   1      52.431  26.136  31.326  1.00  0.00     0.124 S 
ATOM    100  O   UNL A   1      52.324  24.786  31.870  1.00  0.00    -0.237 OA
ATOM    101  O   UNL A   1      52.982  26.233  29.977  1.00  0.00    -0.237 OA
ATOM    102  O   UNL A   1      52.898  27.155  32.261  1.00  0.00    -0.744 OA
ENDBRANCH  98  99
ENDBRANCH  66  91
ENDBRANCH  40  41
ENDBRANCH  33  35
ENDBRANCH  32  33
ENDBRANCH  31  32
ENDBRANCH  30  31
ENDBRANCH  29  30
ENDBRANCH  28  29
ENDBRANCH   1  28
TORSDOF 26
ENDMDL
MODEL 2
REMARK VINA RESULT:      -9.0      1.298      2.177
REMARK SMILES NC(=O)C[C@@H](NC(=O)c1ccc(CO)cc1)C(=O)OCCOCCOCCOC(=O)c1ccc(-c2c3nc(c(-c4c(F)cc(S(=O)(=O)[O-])cc4F)c4ccc([nH]4)c(-c4c(F)cc(S(=O)(=O)[O-])cc4F)c4nc(c(-c5c(F)cc(S(=O)(=O)[O-])cc5F)c5ccc2[nH]5)C=C4)C=C3)cc1
REMARK SMILES IDX 23 1 22 2 21 3 20 4 19 5 17 6 18 7 5 8 4 9 2 10 1 11 3 14
REMARK SMILES IDX 6 15 7 16 8 18 9 19 10 20 16 21 11 22 15 23 12 24 13 25
REMARK SMILES IDX 14 26 24 28 25 29 26 30 27 31 28 32 29 33 30 34 31 35 32 36
REMARK SMILES IDX 96 37 33 38 95 39 34 40 35 41 36 42 89 43 37 44 94 45 88 46
REMARK SMILES IDX 90 47 38 48 93 49 87 50 86 51 39 53 73 54 52 55 72 56 53 57
REMARK SMILES IDX 56 58 71 59 91 60 54 61 55 62 70 64 92 65 57 66 40 67 41 68
REMARK SMILES IDX 50 69 42 70 43 71 49 72 51 73 44 74 45 75 46 76 47 77 48 78
REMARK SMILES IDX 74 79 75 80 84 81 76 82 77 83 83 84 85 85 78 86 79 87 80 88
REMARK SMILES IDX 81 89 82 90 58 91 59 92 68 93 60 94 61 95 67 96 69 97 62 98
REMARK SMILES IDX 63 99 64 100 65 101 66 102
REMARK H PARENT 1 12 1 13 6 17 14 27 90 52 56 63
REMARK Flexibility Score: inf
ROOT
ATOM      1  C   UNL A   1      33.575  27.692  23.806  1.00  0.00     0.188 C 
ENDROOT
BRANCH   1   2
ATOM      2  O   UNL A   1      32.864  26.757  24.583  1.00  0.00    -0.376 OA
BRANCH   2   3
ATOM      3  C   UNL A   1      33.293  25.414  24.569  1.00  0.00     0.202 C 
BRANCH   3   4
ATOM      4  C   UNL A   1      33.462  24.522  23.328  1.00  0.00     0.261 C 
BRANCH   4   5
ATOM      5  O   UNL A   1      33.045  23.163  23.215  1.00  0.00    -0.462 OA
BRANCH   5   6
ATOM      6  C   UNL A   1      31.779  22.886  23.655  1.00  0.00     0.329 C 
ATOM      7  O   UNL A   1      30.753  23.220  23.073  1.00  0.00    -0.250 OA
BRANCH   6   8
ATOM      8  C   UNL A   1      31.770  22.236  25.038  1.00  0.00     0.201 C 
BRANCH   8   9
ATOM      9  C   UNL A   1      30.485  22.481  25.841  1.00  0.00     0.136 C 
BRANCH   9  10
ATOM     10  C   UNL A   1      30.615  23.772  26.615  1.00  0.00     0.220 C 
ATOM     11  N   UNL A   1      29.577  24.644  26.486  1.00  0.00    -0.370 N 
ATOM     12  H   UNL A   1      29.596  25.505  26.962  1.00  0.00     0.159 HD
ATOM     13  H   UNL A   1      28.809  24.413  25.915  1.00  0.00     0.159 HD
ATOM     14  O   UNL A   1      31.560  24.016  27.355  1.00  0.00    -0.275 OA
ENDBRANCH   9  10
ENDBRANCH   8   9
BRANCH   8  15
ATOM     15  N   UNL A   1      32.240  20.828  25.102  1.00  0.00    -0.338 N 
ATOM     16  C   UNL A   1      33.480  20.267  24.896  1.00  0.00     0.251 C 
ATOM     17  H   UNL A   1      31.537  20.178  25.333  1.00  0.00     0.164 HD
ATOM     18  O   UNL A   1      33.564  19.150  24.392  1.00  0.00    -0.269 OA
BRANCH  16  19
ATOM     19  C   UNL A   1      34.719  20.944  25.346  1.00  0.00     0.039 A 
ATOM     20  C   UNL A   1      35.955  20.520  24.854  1.00  0.00     0.014 A 
ATOM     21  C   UNL A   1      34.668  21.984  26.280  1.00  0.00     0.014 A 
ATOM     22  C   UNL A   1      37.115  21.246  25.162  1.00  0.00     0.007 A 
ATOM     23  C   UNL A   1      35.822  22.724  26.573  1.00  0.00     0.007 A 
ATOM     24  C   UNL A   1      37.041  22.406  25.953  1.00  0.00    -0.023 A 
BRANCH  24  25
ATOM     25  C   UNL A   1      38.188  23.387  25.968  1.00  0.00     0.191 C 
BRANCH  25  26
ATOM     26  O   UNL A   1      38.959  23.256  27.144  1.00  0.00    -0.392 OA
ATOM     27  H   UNL A   1      38.552  23.773  27.856  1.00  0.00     0.211 HD
ENDBRANCH  25  26
ENDBRANCH  24  25
ENDBRANCH  16  19
ENDBRANCH   8  15
ENDBRANCH   6   8
ENDBRANCH   5   6
ENDBRANCH   4   5
ENDBRANCH   3   4
ENDBRANCH   2   3
ENDBRANCH   1   2
BRANCH   1  28
ATOM     28  C   UNL A   1      33.365  29.137  24.273  1.00  0.00     0.188 C 
BRANCH  28  29
ATOM     29  O   UNL A   1      33.856  29.472  25.555  1.00  0.00    -0.376 OA
BRANCH  29  30
ATOM     30  C   UNL A   1      32.959  29.935  26.557  1.00  0.00     0.202 C 
BRANCH  30  31
ATOM     31  C   UNL A   1      33.132  31.200  27.438  1.00  0.00     0.261 C 
BRANCH  31  32
ATOM     32  O   UNL A   1      34.435  31.766  27.613  1.00  0.00    -0.460 OA
BRANCH  32  33
ATOM     33  C   UNL A   1      34.887  31.920  28.880  1.00  0.00     0.338 C 
ATOM     34  O   UNL A   1      34.259  32.362  29.827  1.00  0.00    -0.246 OA
BRANCH  33  35
ATOM     35  C   UNL A   1      36.178  31.187  28.974  1.00  0.00     0.060 A 
ATOM     36  C   UNL A   1      36.884  31.219  30.189  1.00  0.00     0.016 A 
ATOM     37  C   UNL A   1      36.648  30.409  27.914  1.00  0.00     0.016 A 
ATOM     38  C   UNL A   1      38.065  30.492  30.342  1.00  0.00     0.010 A 
ATOM     39  C   UNL A   1      37.860  29.722  28.049  1.00  0.00     0.010 A 
ATOM     40  C   UNL A   1      38.590  29.791  29.251  1.00  0.00    -0.014 A 
BRANCH  40  41
ATOM     41  C   UNL A   1      40.022  29.399  29.267  1.00  0.00     0.031 A 
ATOM     42  C   UNL A   1      41.018  30.465  29.642  1.00  0.00     0.074 A 
ATOM     43  C   UNL A   1      40.435  28.151  28.987  1.00  0.00     0.049 A 
ATOM     44  N   UNL A   1      42.324  30.419  29.655  1.00  0.00    -0.248 NA
ATOM     45  C   UNL A   1      40.458  31.764  30.056  1.00  0.00     0.031 C 
ATOM     46  C   UNL A   1      39.570  27.018  28.673  1.00  0.00     0.029 A 
ATOM     47  N   UNL A   1      41.706  27.635  28.912  1.00  0.00    -0.354 N 
ATOM     48  C   UNL A   1      42.739  31.681  30.063  1.00  0.00     0.074 A 
ATOM     49  C   UNL A   1      41.551  32.479  30.262  1.00  0.00     0.031 C 
ATOM     50  C   UNL A   1      40.338  25.942  28.416  1.00  0.00     0.029 A 
ATOM     51  C   UNL A   1      41.747  26.321  28.514  1.00  0.00     0.049 A 
ATOM     52  H   UNL A   1      42.513  28.160  29.124  1.00  0.00     0.167 HD
ATOM     53  C   UNL A   1      43.998  32.135  30.260  1.00  0.00     0.037 A 
ATOM     54  C   UNL A   1      42.804  25.527  28.236  1.00  0.00     0.037 A 
ATOM     55  C   UNL A   1      45.177  31.338  30.059  1.00  0.00     0.049 A 
ATOM     56  C   UNL A   1      44.202  26.078  28.384  1.00  0.00     0.074 A 
ATOM     57  C   UNL A   1      46.500  31.702  30.238  1.00  0.00     0.029 A 
ATOM     58  N   UNL A   1      45.178  30.020  29.628  1.00  0.00    -0.354 N 
ATOM     59  N   UNL A   1      44.586  27.271  28.777  1.00  0.00    -0.248 NA
ATOM     60  C   UNL A   1      45.314  25.174  28.052  1.00  0.00     0.031 C 
ATOM     61  C   UNL A   1      47.303  30.620  29.862  1.00  0.00     0.029 A 
ATOM     62  C   UNL A   1      46.479  29.563  29.510  1.00  0.00     0.049 A 
ATOM     63  H   UNL A   1      44.372  29.488  29.435  1.00  0.00     0.167 HD
ATOM     64  C   UNL A   1      45.978  27.248  28.771  1.00  0.00     0.074 A 
ATOM     65  C   UNL A   1      46.370  25.921  28.343  1.00  0.00     0.031 C 
ATOM     66  C   UNL A   1      46.853  28.233  29.093  1.00  0.00     0.037 A 
BRANCH  53  67
ATOM     67  C   UNL A   1      44.161  33.568  30.680  1.00  0.00     0.058 A 
ATOM     68  C   UNL A   1      44.222  33.945  32.031  1.00  0.00     0.135 A 
ATOM     69  C   UNL A   1      44.276  34.581  29.713  1.00  0.00     0.135 A 
ATOM     70  F   UNL A   1      44.090  33.022  32.997  1.00  0.00    -0.206 F 
ATOM     71  C   UNL A   1      44.370  35.276  32.409  1.00  0.00     0.059 A 
ATOM     72  C   UNL A   1      44.456  35.914  30.067  1.00  0.00     0.059 A 
ATOM     73  F   UNL A   1      44.215  34.277  28.406  1.00  0.00    -0.206 F 
ATOM     74  C   UNL A   1      44.489  36.253  31.419  1.00  0.00     0.060 A 
BRANCH  74  75
ATOM     75  S   UNL A   1      44.694  37.973  31.925  1.00  0.00     0.124 S 
ATOM     76  O   UNL A   1      44.255  37.922  33.315  1.00  0.00    -0.237 OA
ATOM     77  O   UNL A   1      46.123  38.189  31.719  1.00  0.00    -0.237 OA
ATOM     78  O   UNL A   1      43.815  38.702  31.016  1.00  0.00    -0.744 OA
ENDBRANCH  74  75
ENDBRANCH  53  67
BRANCH  54  79
ATOM     79  C   UNL A   1      42.588  24.131  27.764  1.00  0.00     0.058 A 
ATOM     80  C   UNL A   1      42.286  23.854  26.422  1.00  0.00     0.135 A 
ATOM     81  C   UNL A   1      42.663  23.045  28.651  1.00  0.00     0.135 A 
ATOM     82  F   UNL A   1      42.184  24.858  25.537  1.00  0.00    -0.206 F 
ATOM     83  C   UNL A   1      42.051  22.555  25.979  1.00  0.00     0.059 A 
ATOM     84  C   UNL A   1      42.461  21.735  28.226  1.00  0.00     0.059 A 
ATOM     85  F   UNL A   1      42.951  23.251  29.946  1.00  0.00    -0.206 F 
ATOM     86  C   UNL A   1      42.145  21.502  26.888  1.00  0.00     0.060 A 
BRANCH  86  87
ATOM     87  S   UNL A   1      41.890  19.816  26.291  1.00  0.00     0.124 S 
ATOM     88  O   UNL A   1      40.490  19.855  25.887  1.00  0.00    -0.237 OA
ATOM     89  O   UNL A   1      42.866  19.723  25.210  1.00  0.00    -0.237 OA
ATOM     90  O   UNL A   1      42.186  18.996  27.463  1.00  0.00    -0.744 OA
ENDBRANCH  86  87
ENDBRANCH  54  79
BRANCH  66  91
ATOM     91  C   UNL A   1      48.323  27.910  29.044  1.00  0.00     0.058 A 
ATOM     92  C   UNL A   1      49.101  28.156  27.903  1.00  0.00     0.135 A 
ATOM     93  C   UNL A   1      48.975  27.404  30.182  1.00  0.00     0.135 A 
ATOM     94  F   UNL A   1      48.531  28.638  26.787  1.00  0.00    -0.206 F 
ATOM     95  C   UNL A   1      50.467  27.889  27.882  1.00  0.00     0.059 A 
ATOM     96  C   UNL A   1      50.344  27.159  30.195  1.00  0.00     0.059 A 
ATOM     97  F   UNL A   1      48.282  27.163  31.308  1.00  0.00    -0.206 F 
ATOM     98  C   UNL A   1      51.080  27.393  29.035  1.00  0.00     0.060 A 
BRANCH  98  99
ATOM     99  S   UNL A   1      52.858  27.080  29.003  1.00  0.00     0.124 S 
ATOM    100  O   UNL A   1      52.989  26.245  27.814  1.00  0.00    -0.237 OA
ATOM    101  O   UNL A   1      53.411  28.427  28.896  1.00  0.00    -0.237 OA
ATOM    102  O   UNL A   1      53.108  26.406  30.274  1.00  0.00    -0.744 OA
ENDBRANCH  98  99
ENDBRANCH  66  91
ENDBRANCH  40  41
ENDBRANCH  33  35
ENDBRANCH  32  33
ENDBRANCH  31  32
ENDBRANCH  30  31
ENDBRANCH  29  30
ENDBRANCH  28  29
ENDBRANCH   1  28
TORSDOF 26
ENDMDL
MODEL 3
REMARK VINA RESULT:      -8.9      4.051     10.322
REMARK SMILES NC(=O)C[C@@H](NC(=O)c1ccc(CO)cc1)C(=O)OCCOCCOCCOC(=O)c1ccc(-c2c3nc(c(-c4c(F)cc(S(=O)(=O)[O-])cc4F)c4ccc([nH]4)c(-c4c(F)cc(S(=O)(=O)[O-])cc4F)c4nc(c(-c5c(F)cc(S(=O)(=O)[O-])cc5F)c5ccc2[nH]5)C=C4)C=C3)cc1
REMARK SMILES IDX 23 1 22 2 21 3 20 4 19 5 17 6 18 7 5 8 4 9 2 10 1 11 3 14
REMARK SMILES IDX 6 15 7 16 8 18 9 19 10 20 16 21 11 22 15 23 12 24 13 25
REMARK SMILES IDX 14 26 24 28 25 29 26 30 27 31 28 32 29 33 30 34 31 35 32 36
REMARK SMILES IDX 96 37 33 38 95 39 34 40 35 41 36 42 89 43 37 44 94 45 88 46
REMARK SMILES IDX 90 47 38 48 93 49 87 50 86 51 39 53 73 54 52 55 72 56 53 57
REMARK SMILES IDX 56 58 71 59 91 60 54 61 55 62 70 64 92 65 57 66 40 67 41 68
REMARK SMILES IDX 50 69 42 70 43 71 49 72 51 73 44 74 45 75 46 76 47 77 48 78
REMARK SMILES IDX 74 79 75 80 84 81 76 82 77 83 83 84 85 85 78 86 79 87 80 88
REMARK SMILES IDX 81 89 82 90 58 91 59 92 68 93 60 94 61 95 67 96 69 97 62 98
REMARK SMILES IDX 63 99 64 100 65 101 66 102
REMARK H PARENT 1 12 1 13 6 17 14 27 90 52 56 63
REMARK Flexibility Score: inf
ROOT
ATOM      1  C   UNL A   1      40.280  20.947  26.344  1.00  0.00     0.188 C 
ENDROOT
BRANCH   1   2
ATOM      2  O   UNL A   1      39.043  21.599  26.509  1.00  0.00    -0.376 OA
BRANCH   2   3
ATOM      3  C   UNL A   1      38.217  21.760  25.378  1.00  0.00     0.202 C 
BRANCH   3   4
ATOM      4  C   UNL A   1      36.690  21.943  25.382  1.00  0.00     0.261 C 
BRANCH   4   5
ATOM      5  O   UNL A   1      35.998  23.166  25.627  1.00  0.00    -0.462 OA
BRANCH   5   6
ATOM      6  C   UNL A   1      35.128  23.569  24.650  1.00  0.00     0.329 C 
ATOM      7  O   UNL A   1      35.261  24.585  23.978  1.00  0.00    -0.250 OA
BRANCH   6   8
ATOM      8  C   UNL A   1      33.880  22.689  24.580  1.00  0.00     0.201 C 
BRANCH   8   9
ATOM      9  C   UNL A   1      33.365  22.218  25.948  1.00  0.00     0.136 C 
BRANCH   9  10
ATOM     10  C   UNL A   1      32.600  20.927  25.779  1.00  0.00     0.220 C 
ATOM     11  N   UNL A   1      33.239  19.803  26.206  1.00  0.00    -0.370 N 
ATOM     12  H   UNL A   1      32.799  18.926  26.125  1.00  0.00     0.159 HD
ATOM     13  H   UNL A   1      34.141  19.867  26.595  1.00  0.00     0.159 HD
ATOM     14  O   UNL A   1      31.459  20.877  25.335  1.00  0.00    -0.275 OA
ENDBRANCH   9  10
ENDBRANCH   8   9
BRANCH   8  15
ATOM     15  N   UNL A   1      32.798  23.159  23.678  1.00  0.00    -0.338 N 
ATOM     16  C   UNL A   1      31.805  24.096  23.853  1.00  0.00     0.251 C 
ATOM     17  H   UNL A   1      32.790  22.722  22.796  1.00  0.00     0.164 HD
ATOM     18  O   UNL A   1      30.709  23.922  23.325  1.00  0.00    -0.269 OA
BRANCH  16  19
ATOM     19  C   UNL A   1      32.051  25.355  24.594  1.00  0.00     0.039 A 
ATOM     20  C   UNL A   1      31.838  25.397  25.974  1.00  0.00     0.014 A 
ATOM     21  C   UNL A   1      32.466  26.511  23.925  1.00  0.00     0.014 A 
ATOM     22  C   UNL A   1      32.206  26.538  26.702  1.00  0.00     0.007 A 
ATOM     23  C   UNL A   1      32.853  27.645  24.652  1.00  0.00     0.007 A 
ATOM     24  C   UNL A   1      32.798  27.636  26.055  1.00  0.00    -0.023 A 
BRANCH  24  25
ATOM     25  C   UNL A   1      33.534  28.681  26.858  1.00  0.00     0.191 C 
BRANCH  25  26
ATOM     26  O   UNL A   1      34.490  29.356  26.068  1.00  0.00    -0.392 OA
ATOM     27  H   UNL A   1      34.256  29.264  25.131  1.00  0.00     0.211 HD
ENDBRANCH  25  26
ENDBRANCH  24  25
ENDBRANCH  16  19
ENDBRANCH   8  15
ENDBRANCH   6   8
ENDBRANCH   5   6
ENDBRANCH   4   5
ENDBRANCH   3   4
ENDBRANCH   2   3
ENDBRANCH   1   2
BRANCH   1  28
ATOM     28  C   UNL A   1      41.449  21.922  26.161  1.00  0.00     0.188 C 
BRANCH  28  29
ATOM     29  O   UNL A   1      42.523  21.488  25.351  1.00  0.00    -0.376 OA
BRANCH  29  30
ATOM     30  C   UNL A   1      43.856  21.570  25.840  1.00  0.00     0.202 C 
BRANCH  30  31
ATOM     31  C   UNL A   1      44.645  22.868  26.154  1.00  0.00     0.261 C 
BRANCH  31  32
ATOM     32  O   UNL A   1      44.003  23.931  26.864  1.00  0.00    -0.460 OA
BRANCH  32  33
ATOM     33  C   UNL A   1      43.404  24.901  26.132  1.00  0.00     0.338 C 
ATOM     34  O   UNL A   1      43.203  24.884  24.930  1.00  0.00    -0.246 OA
BRANCH  33  35
ATOM     35  C   UNL A   1      42.781  25.851  27.094  1.00  0.00     0.060 A 
ATOM     36  C   UNL A   1      43.110  27.214  27.003  1.00  0.00     0.016 A 
ATOM     37  C   UNL A   1      41.823  25.423  28.015  1.00  0.00     0.016 A 
ATOM     38  C   UNL A   1      42.499  28.147  27.841  1.00  0.00     0.010 A 
ATOM     39  C   UNL A   1      41.249  26.352  28.891  1.00  0.00     0.010 A 
ATOM     40  C   UNL A   1      41.613  27.711  28.830  1.00  0.00    -0.014 A 
BRANCH  40  41
ATOM     41  C   UNL A   1      41.313  28.605  29.976  1.00  0.00     0.031 A 
ATOM     42  C   UNL A   1      42.172  28.453  31.205  1.00  0.00     0.074 A 
ATOM     43  C   UNL A   1      40.342  29.534  29.938  1.00  0.00     0.049 A 
ATOM     44  N   UNL A   1      42.077  29.042  32.367  1.00  0.00    -0.248 NA
ATOM     45  C   UNL A   1      43.291  27.499  31.103  1.00  0.00     0.031 C 
ATOM     46  C   UNL A   1      39.486  29.824  28.790  1.00  0.00     0.029 A 
ATOM     47  N   UNL A   1      39.907  30.402  30.910  1.00  0.00    -0.354 N 
ATOM     48  C   UNL A   1      43.111  28.521  33.136  1.00  0.00     0.074 A 
ATOM     49  C   UNL A   1      43.804  27.550  32.321  1.00  0.00     0.031 C 
ATOM     50  C   UNL A   1      38.612  30.788  29.133  1.00  0.00     0.029 A 
ATOM     51  C   UNL A   1      38.824  31.158  30.532  1.00  0.00     0.049 A 
ATOM     52  H   UNL A   1      40.333  30.475  31.795  1.00  0.00     0.167 HD
ATOM     53  C   UNL A   1      43.457  28.827  34.408  1.00  0.00     0.037 A 
ATOM     54  C   UNL A   1      38.077  32.027  31.246  1.00  0.00     0.037 A 
ATOM     55  C   UNL A   1      42.763  29.792  35.216  1.00  0.00     0.049 A 
ATOM     56  C   UNL A   1      38.429  32.295  32.690  1.00  0.00     0.074 A 
ATOM     57  C   UNL A   1      43.038  30.180  36.516  1.00  0.00     0.029 A 
ATOM     58  N   UNL A   1      41.653  30.515  34.807  1.00  0.00    -0.354 N 
ATOM     59  N   UNL A   1      39.413  31.803  33.407  1.00  0.00    -0.248 NA
ATOM     60  C   UNL A   1      37.571  33.237  33.423  1.00  0.00     0.031 C 
ATOM     61  C   UNL A   1      42.060  31.099  36.911  1.00  0.00     0.029 A 
ATOM     62  C   UNL A   1      41.215  31.330  35.837  1.00  0.00     0.049 A 
ATOM     63  H   UNL A   1      41.238  30.459  33.916  1.00  0.00     0.167 HD
ATOM     64  C   UNL A   1      39.311  32.400  34.660  1.00  0.00     0.074 A 
ATOM     65  C   UNL A   1      38.175  33.296  34.602  1.00  0.00     0.031 C 
ATOM     66  C   UNL A   1      40.087  32.227  35.759  1.00  0.00     0.037 A 
BRANCH  53  67
ATOM     67  C   UNL A   1      44.614  28.081  35.011  1.00  0.00     0.058 A 
ATOM     68  C   UNL A   1      44.448  26.843  35.653  1.00  0.00     0.135 A 
ATOM     69  C   UNL A   1      45.914  28.606  34.927  1.00  0.00     0.135 A 
ATOM     70  F   UNL A   1      43.223  26.309  35.784  1.00  0.00    -0.206 F 
ATOM     71  C   UNL A   1      45.526  26.163  36.209  1.00  0.00     0.059 A 
ATOM     72  C   UNL A   1      47.011  27.928  35.449  1.00  0.00     0.059 A 
ATOM     73  F   UNL A   1      46.128  29.791  34.332  1.00  0.00    -0.206 F 
ATOM     74  C   UNL A   1      46.805  26.713  36.101  1.00  0.00     0.060 A 
BRANCH  74  75
ATOM     75  S   UNL A   1      48.195  25.811  36.816  1.00  0.00     0.124 S 
ATOM     76  O   UNL A   1      47.541  25.070  37.888  1.00  0.00    -0.237 OA
ATOM     77  O   UNL A   1      48.662  25.013  35.687  1.00  0.00    -0.237 OA
ATOM     78  O   UNL A   1      49.101  26.871  37.248  1.00  0.00    -0.744 OA
ENDBRANCH  74  75
ENDBRANCH  53  67
BRANCH  54  79
ATOM     79  C   UNL A   1      36.902  32.695  30.620  1.00  0.00     0.058 A 
ATOM     80  C   UNL A   1      37.059  33.809  29.781  1.00  0.00     0.135 A 
ATOM     81  C   UNL A   1      35.595  32.243  30.861  1.00  0.00     0.135 A 
ATOM     82  F   UNL A   1      38.286  34.293  29.532  1.00  0.00    -0.206 F 
ATOM     83  C   UNL A   1      35.965  34.459  29.217  1.00  0.00     0.059 A 
ATOM     84  C   UNL A   1      34.487  32.858  30.286  1.00  0.00     0.059 A 
ATOM     85  F   UNL A   1      35.386  31.180  31.654  1.00  0.00    -0.206 F 
ATOM     86  C   UNL A   1      34.682  33.973  29.473  1.00  0.00     0.060 A 
BRANCH  86  87
ATOM     87  S   UNL A   1      33.273  34.794  28.693  1.00  0.00     0.124 S 
ATOM     88  O   UNL A   1      32.447  35.120  29.849  1.00  0.00    -0.237 OA
ATOM     89  O   UNL A   1      33.910  35.922  28.022  1.00  0.00    -0.237 OA
ATOM     90  O   UNL A   1      32.738  33.767  27.804  1.00  0.00    -0.744 OA
ENDBRANCH  86  87
ENDBRANCH  54  79
BRANCH  66  91
ATOM     91  C   UNL A   1      39.772  33.053  36.979  1.00  0.00     0.058 A 
ATOM     92  C   UNL A   1      38.802  32.659  37.913  1.00  0.00     0.135 A 
ATOM     93  C   UNL A   1      40.500  34.224  37.248  1.00  0.00     0.135 A 
ATOM     94  F   UNL A   1      38.075  31.549  37.706  1.00  0.00    -0.206 F 
ATOM     95  C   UNL A   1      38.546  33.411  39.056  1.00  0.00     0.059 A 
ATOM     96  C   UNL A   1      40.284  34.974  38.399  1.00  0.00     0.059 A 
ATOM     97  F   UNL A   1      41.452  34.640  36.396  1.00  0.00    -0.206 F 
ATOM     98  C   UNL A   1      39.295  34.566  39.292  1.00  0.00     0.060 A 
BRANCH  98  99
ATOM     99  S   UNL A   1      38.974  35.514  40.794  1.00  0.00     0.124 S 
ATOM    100  O   UNL A   1      37.741  34.898  41.273  1.00  0.00    -0.237 OA
ATOM    101  O   UNL A   1      40.167  35.249  41.593  1.00  0.00    -0.237 OA
ATOM    102  O   UNL A   1      38.843  36.885  40.310  1.00  0.00    -0.744 OA
ENDBRANCH  98  99
ENDBRANCH  66  91
ENDBRANCH  40  41
ENDBRANCH  33  35
ENDBRANCH  32  33
ENDBRANCH  31  32
ENDBRANCH  30  31
ENDBRANCH  29  30
ENDBRANCH  28  29
ENDBRANCH   1  28
TORSDOF 26
ENDMDL
