MODEL 1
REMARK VINA RESULT:     -10.0      0.000      0.000
REMARK SMILES COC(=O)[C@H]1CC[C@]2(C)[C@H]3CC=C4[C@@H]5CC(C)(C)CC[C@@]5(C(=O)OCCOCCOCCOC(=O)c5ccc(-c6c7nc(c(-c8c(F)cc(S(=O)(=O)[O-])cc8F)c8ccc([nH]8)c(-c8c(F)cc(S(=O)(=O)[O-])cc8F)c8nc(c(-c9c(F)cc(S(=O)(=O)[O-])cc9F)c9ccc6[nH]9)C=C8)C=C7)cc5)CC[C@@]4(C)[C@@]3(C)CC[C@H]2C1(C)C
REMARK SMILES IDX 29 1 28 2 27 3 26 4 25 5 24 6 22 7 23 8 21 9 5 10 6 11
REMARK SMILES IDX 111 12 7 13 110 14 112 15 113 16 8 17 109 18 9 19 10 20
REMARK SMILES IDX 108 21 11 22 106 23 12 24 104 25 107 26 13 27 103 28 105 29
REMARK SMILES IDX 14 30 102 31 15 32 16 33 20 34 17 35 18 36 19 37 3 38 4 39
REMARK SMILES IDX 2 40 1 41 30 42 31 43 32 44 33 45 34 46 35 47 36 48 37 49
REMARK SMILES IDX 101 50 38 51 100 52 39 53 40 54 41 55 94 56 42 57 99 58
REMARK SMILES IDX 93 59 95 60 43 61 98 62 92 63 91 64 44 66 78 67 57 68 77 69
REMARK SMILES IDX 58 70 61 71 76 72 96 73 59 74 60 75 75 77 97 78 62 79 45 80
REMARK SMILES IDX 46 81 55 82 47 83 48 84 54 85 56 86 49 87 50 88 51 89 52 90
REMARK SMILES IDX 53 91 79 92 80 93 89 94 81 95 82 96 88 97 90 98 83 99 84 100
REMARK SMILES IDX 85 101 86 102 87 103 63 104 64 105 73 106 65 107 66 108
REMARK SMILES IDX 72 109 74 110 67 111 68 112 69 113 70 114 71 115
REMARK H PARENT 95 65 61 76
REMARK Flexibility Score: inf
ROOT
ATOM      1  C   UNL A   1      45.767  41.782  26.915  1.00  0.00     0.188 C 
ENDROOT
BRANCH   1   2
ATOM      2  C   UNL A   1      44.966  43.094  26.626  1.00  0.00     0.188 C 
BRANCH   2   3
ATOM      3  O   UNL A   1      45.679  44.251  27.015  1.00  0.00    -0.376 OA
BRANCH   3   4
ATOM      4  C   UNL A   1      47.035  44.190  26.672  1.00  0.00     0.202 C 
BRANCH   4   5
ATOM      5  C   UNL A   1      47.589  45.199  25.657  1.00  0.00     0.261 C 
BRANCH   5   6
ATOM      6  O   UNL A   1      47.741  44.978  24.175  1.00  0.00    -0.463 OA
BRANCH   6   7
ATOM      7  C   UNL A   1      48.730  44.704  23.257  1.00  0.00     0.312 C 
ATOM      8  O   UNL A   1      49.922  44.933  23.447  1.00  0.00    -0.252 OA
BRANCH   7   9
ATOM      9  C   UNL A   1      48.288  43.814  22.110  1.00  0.00     0.075 C 
ATOM     10  C   UNL A   1      44.197  47.451  16.714  1.00  0.00     0.105 C 
ATOM     11  C   UNL A   1      44.784  48.859  17.031  1.00  0.00     0.016 C 
ATOM     12  C   UNL A   1      44.589  46.377  17.780  1.00  0.00    -0.019 C 
ATOM     13  C   UNL A   1      46.312  48.889  17.419  1.00  0.00     0.008 C 
ATOM     14  C   UNL A   1      46.171  46.499  17.811  1.00  0.00     0.002 C 
ATOM     15  C   UNL A   1      43.756  46.596  19.077  1.00  0.00     0.012 C 
ATOM     16  C   UNL A   1      44.191  44.931  17.375  1.00  0.00     0.012 C 
ATOM     17  C   UNL A   1      46.718  47.791  18.479  1.00  0.00    -0.026 C 
ATOM     18  C   UNL A   1      46.884  45.209  18.128  1.00  0.00     0.005 C 
ATOM     19  C   UNL A   1      45.958  48.275  19.764  1.00  0.00     0.012 C 
ATOM     20  C   UNL A   1      48.352  47.733  18.737  1.00  0.00     0.006 C 
ATOM     21  C   UNL A   1      48.385  45.227  17.915  1.00  0.00     0.008 C 
ATOM     22  C   UNL A   1      48.666  48.344  20.122  1.00  0.00     0.032 C 
ATOM     23  C   UNL A   1      49.199  46.293  18.660  1.00  0.00    -0.020 C 
ATOM     24  C   UNL A   1      48.233  47.312  21.178  1.00  0.00    -0.027 C 
ATOM     25  C   UNL A   1      49.664  45.753  20.131  1.00  0.00    -0.006 C 
ATOM     26  C   UNL A   1      50.485  46.528  17.816  1.00  0.00     0.012 C 
ATOM     27  C   UNL A   1      48.372  45.994  20.918  1.00  0.00    -0.063 C 
ATOM     28  C   UNL A   1      50.213  44.305  20.349  1.00  0.00     0.013 C 
ATOM     29  C   UNL A   1      50.941  46.558  20.679  1.00  0.00     0.017 C 
ATOM     30  C   UNL A   1      47.455  44.733  21.273  1.00  0.00     0.033 C 
ATOM     31  C   UNL A   1      49.416  43.295  21.166  1.00  0.00     0.020 C 
ATOM     32  C   UNL A   1      45.967  44.787  21.760  1.00  0.00     0.015 C 
ATOM     33  C   UNL A   1      45.274  43.459  22.162  1.00  0.00    -0.035 C 
ATOM     34  C   UNL A   1      47.612  42.513  22.604  1.00  0.00     0.020 C 
ATOM     35  C   UNL A   1      43.993  43.756  22.989  1.00  0.00     0.011 C 
ATOM     36  C   UNL A   1      44.836  42.708  20.897  1.00  0.00     0.011 C 
ATOM     37  C   UNL A   1      46.180  42.621  23.076  1.00  0.00     0.007 C 
BRANCH  10  38
ATOM     38  C   UNL A   1      42.685  47.411  16.511  1.00  0.00     0.309 C 
ATOM     39  O   UNL A   1      42.064  46.544  15.924  1.00  0.00    -0.252 OA
BRANCH  38  40
ATOM     40  O   UNL A   1      42.177  48.616  16.916  1.00  0.00    -0.469 OA
ATOM     41  C   UNL A   1      40.800  48.641  17.297  1.00  0.00     0.282 C 
ENDBRANCH  38  40
ENDBRANCH  10  38
ENDBRANCH   7   9
ENDBRANCH   6   7
ENDBRANCH   5   6
ENDBRANCH   4   5
ENDBRANCH   3   4
ENDBRANCH   2   3
ENDBRANCH   1   2
BRANCH   1  42
ATOM     42  O   UNL A   1      45.013  40.642  27.301  1.00  0.00    -0.376 OA
BRANCH  42  43
ATOM     43  C   UNL A   1      45.787  39.519  27.690  1.00  0.00     0.202 C 
BRANCH  43  44
ATOM     44  C   UNL A   1      45.062  38.328  28.372  1.00  0.00     0.261 C 
BRANCH  44  45
ATOM     45  O   UNL A   1      45.862  37.450  29.224  1.00  0.00    -0.460 OA
BRANCH  45  46
ATOM     46  C   UNL A   1      47.092  37.057  28.758  1.00  0.00     0.338 C 
ATOM     47  O   UNL A   1      48.091  37.752  28.757  1.00  0.00    -0.246 OA
BRANCH  46  48
ATOM     48  C   UNL A   1      47.167  35.568  28.506  1.00  0.00     0.060 A 
ATOM     49  C   UNL A   1      46.829  35.065  27.232  1.00  0.00     0.016 A 
ATOM     50  C   UNL A   1      47.510  34.659  29.505  1.00  0.00     0.016 A 
ATOM     51  C   UNL A   1      46.749  33.683  26.982  1.00  0.00     0.010 A 
ATOM     52  C   UNL A   1      47.390  33.272  29.268  1.00  0.00     0.010 A 
ATOM     53  C   UNL A   1      46.947  32.771  28.024  1.00  0.00    -0.014 A 
BRANCH  53  54
ATOM     54  C   UNL A   1      46.361  31.393  27.926  1.00  0.00     0.031 A 
ATOM     55  C   UNL A   1      47.284  30.285  27.458  1.00  0.00     0.074 A 
ATOM     56  C   UNL A   1      45.089  31.076  28.245  1.00  0.00     0.049 A 
ATOM     57  N   UNL A   1      47.033  29.021  27.226  1.00  0.00    -0.248 NA
ATOM     58  C   UNL A   1      48.684  30.669  27.217  1.00  0.00     0.031 C 
ATOM     59  C   UNL A   1      44.082  31.997  28.763  1.00  0.00     0.029 A 
ATOM     60  N   UNL A   1      44.422  29.871  28.160  1.00  0.00    -0.354 N 
ATOM     61  C   UNL A   1      48.239  28.465  26.804  1.00  0.00     0.074 A 
ATOM     62  C   UNL A   1      49.210  29.536  26.781  1.00  0.00     0.031 C 
ATOM     63  C   UNL A   1      42.922  31.331  28.928  1.00  0.00     0.029 A 
ATOM     64  C   UNL A   1      43.090  29.938  28.507  1.00  0.00     0.049 A 
ATOM     65  H   UNL A   1      44.859  29.035  27.877  1.00  0.00     0.167 HD
ATOM     66  C   UNL A   1      48.527  27.183  26.472  1.00  0.00     0.037 A 
ATOM     67  C   UNL A   1      42.119  28.996  28.475  1.00  0.00     0.037 A 
ATOM     68  C   UNL A   1      47.575  26.103  26.478  1.00  0.00     0.049 A 
ATOM     69  C   UNL A   1      42.442  27.585  28.028  1.00  0.00     0.074 A 
ATOM     70  C   UNL A   1      47.785  24.772  26.162  1.00  0.00     0.029 A 
ATOM     71  N   UNL A   1      46.236  26.227  26.808  1.00  0.00    -0.354 N 
ATOM     72  N   UNL A   1      43.590  27.075  27.649  1.00  0.00    -0.248 NA
ATOM     73  C   UNL A   1      41.331  26.618  28.015  1.00  0.00     0.031 C 
ATOM     74  C   UNL A   1      46.560  24.101  26.247  1.00  0.00     0.029 A 
ATOM     75  C   UNL A   1      45.600  25.001  26.678  1.00  0.00     0.049 A 
ATOM     76  H   UNL A   1      45.798  27.062  27.092  1.00  0.00     0.167 HD
ATOM     77  C   UNL A   1      43.345  25.727  27.386  1.00  0.00     0.074 A 
ATOM     78  C   UNL A   1      41.945  25.497  27.665  1.00  0.00     0.031 C 
ATOM     79  C   UNL A   1      44.205  24.768  26.955  1.00  0.00     0.037 A 
BRANCH  66  80
ATOM     80  C   UNL A   1      49.938  26.884  26.038  1.00  0.00     0.058 A 
ATOM     81  C   UNL A   1      50.925  26.483  26.953  1.00  0.00     0.135 A 
ATOM     82  C   UNL A   1      50.300  26.980  24.684  1.00  0.00     0.135 A 
ATOM     83  F   UNL A   1      50.640  26.395  28.261  1.00  0.00    -0.206 F 
ATOM     84  C   UNL A   1      52.228  26.217  26.545  1.00  0.00     0.059 A 
ATOM     85  C   UNL A   1      51.590  26.688  24.250  1.00  0.00     0.059 A 
ATOM     86  F   UNL A   1      49.397  27.362  23.768  1.00  0.00    -0.206 F 
ATOM     87  C   UNL A   1      52.550  26.321  25.191  1.00  0.00     0.060 A 
BRANCH  87  88
ATOM     88  S   UNL A   1      54.244  25.963  24.677  1.00  0.00     0.124 S 
ATOM     89  O   UNL A   1      55.010  26.823  25.575  1.00  0.00    -0.237 OA
ATOM     90  O   UNL A   1      54.350  24.529  24.928  1.00  0.00    -0.237 OA
ATOM     91  O   UNL A   1      54.262  26.352  23.270  1.00  0.00    -0.744 OA
ENDBRANCH  87  88
ENDBRANCH  66  80
BRANCH  67  92
ATOM     92  C   UNL A   1      40.720  29.341  28.868  1.00  0.00     0.058 A 
ATOM     93  C   UNL A   1      40.359  29.511  30.214  1.00  0.00     0.135 A 
ATOM     94  C   UNL A   1      39.704  29.462  27.906  1.00  0.00     0.135 A 
ATOM     95  F   UNL A   1      41.283  29.376  31.177  1.00  0.00    -0.206 F 
ATOM     96  C   UNL A   1      39.046  29.779  30.595  1.00  0.00     0.059 A 
ATOM     97  C   UNL A   1      38.388  29.757  28.259  1.00  0.00     0.059 A 
ATOM     98  F   UNL A   1      39.987  29.301  26.604  1.00  0.00    -0.206 F 
ATOM     99  C   UNL A   1      38.067  29.908  29.607  1.00  0.00     0.060 A 
BRANCH  99 100
ATOM    100  S   UNL A   1      36.381  30.324  30.106  1.00  0.00     0.124 S 
ATOM    101  O   UNL A   1      35.650  30.152  28.856  1.00  0.00    -0.237 OA
ATOM    102  O   UNL A   1      36.116  29.332  31.144  1.00  0.00    -0.237 OA
ATOM    103  O   UNL A   1      36.502  31.699  30.582  1.00  0.00    -0.744 OA
ENDBRANCH  99 100
ENDBRANCH  67  92
BRANCH  79 104
ATOM    104  C   UNL A   1      43.671  23.365  26.797  1.00  0.00     0.058 A 
ATOM    105  C   UNL A   1      43.352  22.559  27.903  1.00  0.00     0.135 A 
ATOM    106  C   UNL A   1      43.458  22.823  25.517  1.00  0.00     0.135 A 
ATOM    107  F   UNL A   1      43.528  23.023  29.150  1.00  0.00    -0.206 F 
ATOM    108  C   UNL A   1      42.893  21.253  27.747  1.00  0.00     0.059 A 
ATOM    109  C   UNL A   1      42.968  21.531  25.338  1.00  0.00     0.059 A 
ATOM    110  F   UNL A   1      43.723  23.551  24.422  1.00  0.00    -0.206 F 
ATOM    111  C   UNL A   1      42.711  20.745  26.460  1.00  0.00     0.060 A 
BRANCH 111 112
ATOM    112  S   UNL A   1      42.135  19.044  26.269  1.00  0.00     0.124 S 
ATOM    113  O   UNL A   1      43.045  18.538  25.246  1.00  0.00    -0.237 OA
ATOM    114  O   UNL A   1      42.321  18.496  27.609  1.00  0.00    -0.237 OA
ATOM    115  O   UNL A   1      40.745  19.199  25.850  1.00  0.00    -0.744 OA
ENDBRANCH 111 112
ENDBRANCH  79 104
ENDBRANCH  53  54
ENDBRANCH  46  48
ENDBRANCH  45  46
ENDBRANCH  44  45
ENDBRANCH  43  44
ENDBRANCH  42  43
ENDBRANCH   1  42
TORSDOF 22
ENDMDL
MODEL 2
REMARK VINA RESULT:      -9.4      8.356     14.692
REMARK SMILES COC(=O)[C@H]1CC[C@]2(C)[C@H]3CC=C4[C@@H]5CC(C)(C)CC[C@@]5(C(=O)OCCOCCOCCOC(=O)c5ccc(-c6c7nc(c(-c8c(F)cc(S(=O)(=O)[O-])cc8F)c8ccc([nH]8)c(-c8c(F)cc(S(=O)(=O)[O-])cc8F)c8nc(c(-c9c(F)cc(S(=O)(=O)[O-])cc9F)c9ccc6[nH]9)C=C8)C=C7)cc5)CC[C@@]4(C)[C@@]3(C)CC[C@H]2C1(C)C
REMARK SMILES IDX 29 1 28 2 27 3 26 4 25 5 24 6 22 7 23 8 21 9 5 10 6 11
REMARK SMILES IDX 111 12 7 13 110 14 112 15 113 16 8 17 109 18 9 19 10 20
REMARK SMILES IDX 108 21 11 22 106 23 12 24 104 25 107 26 13 27 103 28 105 29
REMARK SMILES IDX 14 30 102 31 15 32 16 33 20 34 17 35 18 36 19 37 3 38 4 39
REMARK SMILES IDX 2 40 1 41 30 42 31 43 32 44 33 45 34 46 35 47 36 48 37 49
REMARK SMILES IDX 101 50 38 51 100 52 39 53 40 54 41 55 94 56 42 57 99 58
REMARK SMILES IDX 93 59 95 60 43 61 98 62 92 63 91 64 44 66 78 67 57 68 77 69
REMARK SMILES IDX 58 70 61 71 76 72 96 73 59 74 60 75 75 77 97 78 62 79 45 80
REMARK SMILES IDX 46 81 55 82 47 83 48 84 54 85 56 86 49 87 50 88 51 89 52 90
REMARK SMILES IDX 53 91 79 92 80 93 89 94 81 95 82 96 88 97 90 98 83 99 84 100
REMARK SMILES IDX 85 101 86 102 87 103 63 104 64 105 73 106 65 107 66 108
REMARK SMILES IDX 72 109 74 110 67 111 68 112 69 113 70 114 71 115
REMARK H PARENT 95 65 61 76
REMARK Flexibility Score: inf
ROOT
ATOM      1  C   UNL A   1      34.767  32.602  31.427  1.00  0.00     0.188 C 
ENDROOT
BRANCH   1   2
ATOM      2  C   UNL A   1      35.387  33.555  32.502  1.00  0.00     0.188 C 
BRANCH   2   3
ATOM      3  O   UNL A   1      35.366  32.985  33.795  1.00  0.00    -0.376 OA
BRANCH   3   4
ATOM      4  C   UNL A   1      36.587  33.125  34.466  1.00  0.00     0.202 C 
BRANCH   4   5
ATOM      5  C   UNL A   1      37.499  31.900  34.610  1.00  0.00     0.261 C 
BRANCH   5   6
ATOM      6  O   UNL A   1      38.456  31.376  33.572  1.00  0.00    -0.463 OA
BRANCH   6   7
ATOM      7  C   UNL A   1      39.481  30.463  33.464  1.00  0.00     0.312 C 
ATOM      8  O   UNL A   1      39.375  29.278  33.768  1.00  0.00    -0.252 OA
BRANCH   7   9
ATOM      9  C   UNL A   1      40.667  30.949  32.650  1.00  0.00     0.075 C 
ATOM     10  C   UNL A   1      44.450  36.836  35.832  1.00  0.00     0.105 C 
ATOM     11  C   UNL A   1      43.998  36.511  37.288  1.00  0.00     0.016 C 
ATOM     12  C   UNL A   1      43.689  35.991  34.759  1.00  0.00    -0.019 C 
ATOM     13  C   UNL A   1      43.904  34.978  37.646  1.00  0.00     0.008 C 
ATOM     14  C   UNL A   1      43.934  34.508  35.266  1.00  0.00     0.002 C 
ATOM     15  C   UNL A   1      42.241  36.538  34.591  1.00  0.00     0.012 C 
ATOM     16  C   UNL A   1      44.267  36.148  33.326  1.00  0.00     0.012 C 
ATOM     17  C   UNL A   1      43.157  34.116  36.554  1.00  0.00    -0.026 C 
ATOM     18  C   UNL A   1      43.995  33.480  34.164  1.00  0.00     0.005 C 
ATOM     19  C   UNL A   1      41.686  34.653  36.660  1.00  0.00     0.012 C 
ATOM     20  C   UNL A   1      43.225  32.493  36.871  1.00  0.00     0.006 C 
ATOM     21  C   UNL A   1      44.478  32.106  34.584  1.00  0.00     0.008 C 
ATOM     22  C   UNL A   1      41.835  32.015  37.353  1.00  0.00     0.032 C 
ATOM     23  C   UNL A   1      43.718  31.395  35.711  1.00  0.00    -0.020 C 
ATOM     24  C   UNL A   1      40.922  31.966  36.116  1.00  0.00    -0.027 C 
ATOM     25  C   UNL A   1      42.484  30.506  35.115  1.00  0.00    -0.006 C 
ATOM     26  C   UNL A   1      44.732  30.414  36.369  1.00  0.00     0.012 C 
ATOM     27  C   UNL A   1      41.438  31.608  34.921  1.00  0.00    -0.063 C 
ATOM     28  C   UNL A   1      42.639  29.622  33.834  1.00  0.00     0.013 C 
ATOM     29  C   UNL A   1      42.048  29.343  36.133  1.00  0.00     0.017 C 
ATOM     30  C   UNL A   1      41.152  32.128  33.435  1.00  0.00     0.033 C 
ATOM     31  C   UNL A   1      41.884  29.978  32.558  1.00  0.00     0.020 C 
ATOM     32  C   UNL A   1      40.393  33.443  33.052  1.00  0.00     0.015 C 
ATOM     33  C   UNL A   1      40.116  33.724  31.552  1.00  0.00    -0.035 C 
ATOM     34  C   UNL A   1      40.299  31.199  31.169  1.00  0.00     0.020 C 
ATOM     35  C   UNL A   1      39.024  34.819  31.409  1.00  0.00     0.011 C 
ATOM     36  C   UNL A   1      41.392  34.263  30.890  1.00  0.00     0.011 C 
ATOM     37  C   UNL A   1      39.556  32.477  30.854  1.00  0.00     0.007 C 
BRANCH  10  38
ATOM     38  C   UNL A   1      44.369  38.309  35.444  1.00  0.00     0.309 C 
ATOM     39  O   UNL A   1      44.216  38.746  34.318  1.00  0.00    -0.252 OA
BRANCH  38  40
ATOM     40  O   UNL A   1      44.709  39.050  36.544  1.00  0.00    -0.469 OA
ATOM     41  C   UNL A   1      44.546  40.466  36.444  1.00  0.00     0.282 C 
ENDBRANCH  38  40
ENDBRANCH  10  38
ENDBRANCH   7   9
ENDBRANCH   6   7
ENDBRANCH   5   6
ENDBRANCH   4   5
ENDBRANCH   3   4
ENDBRANCH   2   3
ENDBRANCH   1   2
BRANCH   1  42
ATOM     42  O   UNL A   1      34.180  33.215  30.288  1.00  0.00    -0.376 OA
BRANCH  42  43
ATOM     43  C   UNL A   1      34.855  32.970  29.065  1.00  0.00     0.202 C 
BRANCH  43  44
ATOM     44  C   UNL A   1      36.255  32.303  29.120  1.00  0.00     0.261 C 
BRANCH  44  45
ATOM     45  O   UNL A   1      36.334  30.875  28.820  1.00  0.00    -0.460 OA
BRANCH  45  46
ATOM     46  C   UNL A   1      36.959  30.065  29.736  1.00  0.00     0.338 C 
ATOM     47  O   UNL A   1      36.511  29.777  30.830  1.00  0.00    -0.246 OA
BRANCH  46  48
ATOM     48  C   UNL A   1      38.135  29.322  29.144  1.00  0.00     0.060 A 
ATOM     49  C   UNL A   1      38.921  28.498  29.977  1.00  0.00     0.016 A 
ATOM     50  C   UNL A   1      38.508  29.459  27.808  1.00  0.00     0.016 A 
ATOM     51  C   UNL A   1      40.103  27.892  29.512  1.00  0.00     0.010 A 
ATOM     52  C   UNL A   1      39.716  28.887  27.352  1.00  0.00     0.010 A 
ATOM     53  C   UNL A   1      40.558  28.152  28.215  1.00  0.00    -0.014 A 
BRANCH  53  54
ATOM     54  C   UNL A   1      42.012  27.978  27.889  1.00  0.00     0.031 A 
ATOM     55  C   UNL A   1      42.906  29.190  28.068  1.00  0.00     0.074 A 
ATOM     56  C   UNL A   1      42.573  26.824  27.473  1.00  0.00     0.049 A 
ATOM     57  N   UNL A   1      44.180  29.344  27.808  1.00  0.00    -0.248 NA
ATOM     58  C   UNL A   1      42.260  30.394  28.616  1.00  0.00     0.031 C 
ATOM     59  C   UNL A   1      41.881  25.551  27.300  1.00  0.00     0.029 A 
ATOM     60  N   UNL A   1      43.874  26.547  27.103  1.00  0.00    -0.354 N 
ATOM     61  C   UNL A   1      44.483  30.659  28.150  1.00  0.00     0.074 A 
ATOM     62  C   UNL A   1      43.253  31.269  28.605  1.00  0.00     0.031 C 
ATOM     63  C   UNL A   1      42.755  24.636  26.836  1.00  0.00     0.029 A 
ATOM     64  C   UNL A   1      44.070  25.258  26.656  1.00  0.00     0.049 A 
ATOM     65  H   UNL A   1      44.599  27.211  27.155  1.00  0.00     0.167 HD
ATOM     66  C   UNL A   1      45.670  31.311  28.103  1.00  0.00     0.037 A 
ATOM     67  C   UNL A   1      45.170  24.656  26.149  1.00  0.00     0.037 A 
ATOM     68  C   UNL A   1      46.905  30.728  27.646  1.00  0.00     0.049 A 
ATOM     69  C   UNL A   1      46.472  25.422  26.032  1.00  0.00     0.074 A 
ATOM     70  C   UNL A   1      48.156  31.315  27.573  1.00  0.00     0.029 A 
ATOM     71  N   UNL A   1      47.046  29.432  27.178  1.00  0.00    -0.354 N 
ATOM     72  N   UNL A   1      46.742  26.659  26.376  1.00  0.00    -0.248 NA
ATOM     73  C   UNL A   1      47.622  24.700  25.465  1.00  0.00     0.031 C 
ATOM     74  C   UNL A   1      49.043  30.392  27.008  1.00  0.00     0.029 A 
ATOM     75  C   UNL A   1      48.358  29.209  26.788  1.00  0.00     0.049 A 
ATOM     76  H   UNL A   1      46.321  28.767  27.127  1.00  0.00     0.167 HD
ATOM     77  C   UNL A   1      48.096  26.849  26.098  1.00  0.00     0.074 A 
ATOM     78  C   UNL A   1      48.593  25.597  25.573  1.00  0.00     0.031 C 
ATOM     79  C   UNL A   1      48.856  27.962  26.265  1.00  0.00     0.037 A 
BRANCH  66  80
ATOM     80  C   UNL A   1      45.683  32.754  28.534  1.00  0.00     0.058 A 
ATOM     81  C   UNL A   1      45.236  33.783  27.690  1.00  0.00     0.135 A 
ATOM     82  C   UNL A   1      46.129  33.108  29.818  1.00  0.00     0.135 A 
ATOM     83  F   UNL A   1      44.819  33.505  26.445  1.00  0.00    -0.206 F 
ATOM     84  C   UNL A   1      45.260  35.115  28.092  1.00  0.00     0.059 A 
ATOM     85  C   UNL A   1      46.131  34.430  30.252  1.00  0.00     0.059 A 
ATOM     86  F   UNL A   1      46.571  32.164  30.665  1.00  0.00    -0.206 F 
ATOM     87  C   UNL A   1      45.707  35.428  29.377  1.00  0.00     0.060 A 
BRANCH  87  88
ATOM     88  S   UNL A   1      45.723  37.159  29.887  1.00  0.00     0.124 S 
ATOM     89  O   UNL A   1      46.571  37.107  31.074  1.00  0.00    -0.237 OA
ATOM     90  O   UNL A   1      46.301  37.823  28.722  1.00  0.00    -0.237 OA
ATOM     91  O   UNL A   1      44.314  37.454  30.136  1.00  0.00    -0.744 OA
ENDBRANCH  87  88
ENDBRANCH  66  80
BRANCH  67  92
ATOM     92  C   UNL A   1      45.108  23.236  25.687  1.00  0.00     0.058 A 
ATOM     93  C   UNL A   1      44.812  22.914  24.352  1.00  0.00     0.135 A 
ATOM     94  C   UNL A   1      45.299  22.172  26.581  1.00  0.00     0.135 A 
ATOM     95  F   UNL A   1      44.589  23.892  23.460  1.00  0.00    -0.206 F 
ATOM     96  C   UNL A   1      44.699  21.594  23.923  1.00  0.00     0.059 A 
ATOM     97  C   UNL A   1      45.220  20.842  26.171  1.00  0.00     0.059 A 
ATOM     98  F   UNL A   1      45.576  22.419  27.871  1.00  0.00    -0.206 F 
ATOM     99  C   UNL A   1      44.912  20.563  24.841  1.00  0.00     0.060 A 
BRANCH  99 100
ATOM    100  S   UNL A   1      44.832  18.853  24.259  1.00  0.00     0.124 S 
ATOM    101  O   UNL A   1      43.668  18.349  24.978  1.00  0.00    -0.237 OA
ATOM    102  O   UNL A   1      44.668  19.029  22.819  1.00  0.00    -0.237 OA
ATOM    103  O   UNL A   1      46.118  18.299  24.671  1.00  0.00    -0.744 OA
ENDBRANCH  99 100
ENDBRANCH  67  92
BRANCH  79 104
ATOM    104  C   UNL A   1      50.323  27.869  25.919  1.00  0.00     0.058 A 
ATOM    105  C   UNL A   1      51.315  27.724  26.903  1.00  0.00     0.135 A 
ATOM    106  C   UNL A   1      50.743  27.908  24.577  1.00  0.00     0.135 A 
ATOM    107  F   UNL A   1      50.976  27.674  28.201  1.00  0.00    -0.206 F 
ATOM    108  C   UNL A   1      52.668  27.673  26.576  1.00  0.00     0.059 A 
ATOM    109  C   UNL A   1      52.088  27.826  24.225  1.00  0.00     0.059 A 
ATOM    110  F   UNL A   1      49.841  28.024  23.590  1.00  0.00    -0.206 F 
ATOM    111  C   UNL A   1      53.046  27.733  25.233  1.00  0.00     0.060 A 
BRANCH 111 112
ATOM    112  S   UNL A   1      54.804  27.688  24.821  1.00  0.00     0.124 S 
ATOM    113  O   UNL A   1      55.417  27.889  26.130  1.00  0.00    -0.237 OA
ATOM    114  O   UNL A   1      54.958  26.356  24.248  1.00  0.00    -0.237 OA
ATOM    115  O   UNL A   1      54.961  28.792  23.879  1.00  0.00    -0.744 OA
ENDBRANCH 111 112
ENDBRANCH  79 104
ENDBRANCH  53  54
ENDBRANCH  46  48
ENDBRANCH  45  46
ENDBRANCH  44  45
ENDBRANCH  43  44
ENDBRANCH  42  43
ENDBRANCH   1  42
TORSDOF 22
ENDMDL
MODEL 3
REMARK VINA RESULT:      -9.3      7.840     14.659
REMARK SMILES COC(=O)[C@H]1CC[C@]2(C)[C@H]3CC=C4[C@@H]5CC(C)(C)CC[C@@]5(C(=O)OCCOCCOCCOC(=O)c5ccc(-c6c7nc(c(-c8c(F)cc(S(=O)(=O)[O-])cc8F)c8ccc([nH]8)c(-c8c(F)cc(S(=O)(=O)[O-])cc8F)c8nc(c(-c9c(F)cc(S(=O)(=O)[O-])cc9F)c9ccc6[nH]9)C=C8)C=C7)cc5)CC[C@@]4(C)[C@@]3(C)CC[C@H]2C1(C)C
REMARK SMILES IDX 29 1 28 2 27 3 26 4 25 5 24 6 22 7 23 8 21 9 5 10 6 11
REMARK SMILES IDX 111 12 7 13 110 14 112 15 113 16 8 17 109 18 9 19 10 20
REMARK SMILES IDX 108 21 11 22 106 23 12 24 104 25 107 26 13 27 103 28 105 29
REMARK SMILES IDX 14 30 102 31 15 32 16 33 20 34 17 35 18 36 19 37 3 38 4 39
REMARK SMILES IDX 2 40 1 41 30 42 31 43 32 44 33 45 34 46 35 47 36 48 37 49
REMARK SMILES IDX 101 50 38 51 100 52 39 53 40 54 41 55 94 56 42 57 99 58
REMARK SMILES IDX 93 59 95 60 43 61 98 62 92 63 91 64 44 66 78 67 57 68 77 69
REMARK SMILES IDX 58 70 61 71 76 72 96 73 59 74 60 75 75 77 97 78 62 79 45 80
REMARK SMILES IDX 46 81 55 82 47 83 48 84 54 85 56 86 49 87 50 88 51 89 52 90
REMARK SMILES IDX 53 91 79 92 80 93 89 94 81 95 82 96 88 97 90 98 83 99 84 100
REMARK SMILES IDX 85 101 86 102 87 103 63 104 64 105 73 106 65 107 66 108
REMARK SMILES IDX 72 109 74 110 67 111 68 112 69 113 70 114 71 115
REMARK H PARENT 95 65 61 76
REMARK Flexibility Score: inf
ROOT
ATOM      1  C   UNL A   1      38.645  33.387  38.814  1.00  0.00     0.188 C 
ENDROOT
BRANCH   1   2
ATOM      2  C   UNL A   1      38.155  33.894  37.418  1.00  0.00     0.188 C 
BRANCH   2   3
ATOM      3  O   UNL A   1      38.317  32.917  36.409  1.00  0.00    -0.376 OA
BRANCH   3   4
ATOM      4  C   UNL A   1      37.997  31.628  36.850  1.00  0.00     0.202 C 
BRANCH   4   5
ATOM      5  C   UNL A   1      38.153  30.452  35.878  1.00  0.00     0.261 C 
BRANCH   5   6
ATOM      6  O   UNL A   1      39.135  30.362  34.739  1.00  0.00    -0.463 OA
BRANCH   6   7
ATOM      7  C   UNL A   1      40.207  31.060  34.227  1.00  0.00     0.312 C 
ATOM      8  O   UNL A   1      40.957  31.754  34.907  1.00  0.00    -0.252 OA
BRANCH   7   9
ATOM      9  C   UNL A   1      40.587  30.669  32.811  1.00  0.00     0.075 C 
ATOM     10  C   UNL A   1      34.856  31.329  27.731  1.00  0.00     0.105 C 
ATOM     11  C   UNL A   1      34.076  32.400  28.551  1.00  0.00     0.016 C 
ATOM     12  C   UNL A   1      36.036  30.692  28.534  1.00  0.00    -0.019 C 
ATOM     13  C   UNL A   1      34.965  33.460  29.308  1.00  0.00     0.008 C 
ATOM     14  C   UNL A   1      36.855  31.970  28.996  1.00  0.00     0.002 C 
ATOM     15  C   UNL A   1      35.475  29.692  29.587  1.00  0.00     0.012 C 
ATOM     16  C   UNL A   1      36.950  29.780  27.669  1.00  0.00     0.012 C 
ATOM     17  C   UNL A   1      36.172  32.824  30.102  1.00  0.00    -0.026 C 
ATOM     18  C   UNL A   1      38.339  31.741  29.127  1.00  0.00     0.005 C 
ATOM     19  C   UNL A   1      35.438  32.022  31.233  1.00  0.00     0.012 C 
ATOM     20  C   UNL A   1      37.185  33.967  30.740  1.00  0.00     0.006 C 
ATOM     21  C   UNL A   1      39.176  32.990  29.314  1.00  0.00     0.008 C 
ATOM     22  C   UNL A   1      36.975  34.028  32.271  1.00  0.00     0.032 C 
ATOM     23  C   UNL A   1      38.838  33.906  30.499  1.00  0.00    -0.020 C 
ATOM     24  C   UNL A   1      37.643  32.777  32.867  1.00  0.00    -0.027 C 
ATOM     25  C   UNL A   1      39.657  33.456  31.839  1.00  0.00    -0.006 C 
ATOM     26  C   UNL A   1      39.327  35.329  30.103  1.00  0.00     0.012 C 
ATOM     27  C   UNL A   1      38.774  32.295  32.307  1.00  0.00    -0.063 C 
ATOM     28  C   UNL A   1      41.167  33.052  31.794  1.00  0.00     0.013 C 
ATOM     29  C   UNL A   1      39.784  34.665  32.888  1.00  0.00     0.017 C 
ATOM     30  C   UNL A   1      39.295  30.802  32.067  1.00  0.00     0.033 C 
ATOM     31  C   UNL A   1      41.589  31.615  32.080  1.00  0.00     0.020 C 
ATOM     32  C   UNL A   1      38.427  29.501  32.158  1.00  0.00     0.015 C 
ATOM     33  C   UNL A   1      39.136  28.130  32.000  1.00  0.00    -0.035 C 
ATOM     34  C   UNL A   1      41.290  29.293  32.751  1.00  0.00     0.020 C 
ATOM     35  C   UNL A   1      38.217  26.992  32.523  1.00  0.00     0.011 C 
ATOM     36  C   UNL A   1      39.396  27.858  30.512  1.00  0.00     0.011 C 
ATOM     37  C   UNL A   1      40.409  28.068  32.855  1.00  0.00     0.007 C 
BRANCH  10  38
ATOM     38  C   UNL A   1      33.998  30.210  27.148  1.00  0.00     0.309 C 
ATOM     39  O   UNL A   1      34.377  29.342  26.382  1.00  0.00    -0.252 OA
BRANCH  38  40
ATOM     40  O   UNL A   1      32.693  30.474  27.467  1.00  0.00    -0.469 OA
ATOM     41  C   UNL A   1      31.787  30.656  26.377  1.00  0.00     0.282 C 
ENDBRANCH  38  40
ENDBRANCH  10  38
ENDBRANCH   7   9
ENDBRANCH   6   7
ENDBRANCH   5   6
ENDBRANCH   4   5
ENDBRANCH   3   4
ENDBRANCH   2   3
ENDBRANCH   1   2
BRANCH   1  42
ATOM     42  O   UNL A   1      39.483  34.261  39.557  1.00  0.00    -0.376 OA
BRANCH  42  43
ATOM     43  C   UNL A   1      38.915  35.529  39.846  1.00  0.00     0.202 C 
BRANCH  43  44
ATOM     44  C   UNL A   1      39.790  36.792  39.629  1.00  0.00     0.261 C 
BRANCH  44  45
ATOM     45  O   UNL A   1      40.423  36.958  38.323  1.00  0.00    -0.460 OA
BRANCH  45  46
ATOM     46  C   UNL A   1      41.795  36.998  38.279  1.00  0.00     0.338 C 
ATOM     47  O   UNL A   1      42.489  37.784  38.897  1.00  0.00    -0.246 OA
BRANCH  46  48
ATOM     48  C   UNL A   1      42.389  35.779  37.610  1.00  0.00     0.060 A 
ATOM     49  C   UNL A   1      43.783  35.715  37.403  1.00  0.00     0.016 A 
ATOM     50  C   UNL A   1      41.602  34.729  37.140  1.00  0.00     0.016 A 
ATOM     51  C   UNL A   1      44.372  34.671  36.667  1.00  0.00     0.010 A 
ATOM     52  C   UNL A   1      42.187  33.703  36.365  1.00  0.00     0.010 A 
ATOM     53  C   UNL A   1      43.567  33.698  36.067  1.00  0.00    -0.014 A 
BRANCH  53  54
ATOM     54  C   UNL A   1      44.084  32.931  34.885  1.00  0.00     0.031 A 
ATOM     55  C   UNL A   1      44.240  33.694  33.584  1.00  0.00     0.074 A 
ATOM     56  C   UNL A   1      44.436  31.629  34.910  1.00  0.00     0.049 A 
ATOM     57  N   UNL A   1      44.605  33.275  32.398  1.00  0.00    -0.248 NA
ATOM     58  C   UNL A   1      43.933  35.133  33.639  1.00  0.00     0.031 C 
ATOM     59  C   UNL A   1      44.407  30.757  36.080  1.00  0.00     0.029 A 
ATOM     60  N   UNL A   1      44.879  30.805  33.895  1.00  0.00    -0.354 N 
ATOM     61  C   UNL A   1      44.562  34.393  31.569  1.00  0.00     0.074 A 
ATOM     62  C   UNL A   1      44.104  35.500  32.379  1.00  0.00     0.031 C 
ATOM     63  C   UNL A   1      44.791  29.518  35.714  1.00  0.00     0.029 A 
ATOM     64  C   UNL A   1      45.075  29.495  34.277  1.00  0.00     0.049 A 
ATOM     65  H   UNL A   1      45.043  31.125  32.978  1.00  0.00     0.167 HD
ATOM     66  C   UNL A   1      44.880  34.504  30.256  1.00  0.00     0.037 A 
ATOM     67  C   UNL A   1      45.424  28.406  33.554  1.00  0.00     0.037 A 
ATOM     68  C   UNL A   1      45.329  33.415  29.429  1.00  0.00     0.049 A 
ATOM     69  C   UNL A   1      45.703  28.534  32.070  1.00  0.00     0.074 A 
ATOM     70  C   UNL A   1      45.679  33.443  28.089  1.00  0.00     0.029 A 
ATOM     71  N   UNL A   1      45.482  32.106  29.853  1.00  0.00    -0.354 N 
ATOM     72  N   UNL A   1      45.673  29.602  31.308  1.00  0.00    -0.248 NA
ATOM     73  C   UNL A   1      46.072  27.304  31.351  1.00  0.00     0.031 C 
ATOM     74  C   UNL A   1      45.991  32.139  27.690  1.00  0.00     0.029 A 
ATOM     75  C   UNL A   1      45.897  31.311  28.795  1.00  0.00     0.049 A 
ATOM     76  H   UNL A   1      45.320  31.786  30.770  1.00  0.00     0.167 HD
ATOM     77  C   UNL A   1      46.050  29.177  30.034  1.00  0.00     0.074 A 
ATOM     78  C   UNL A   1      46.319  27.759  30.131  1.00  0.00     0.031 C 
ATOM     79  C   UNL A   1      46.165  29.897  28.889  1.00  0.00     0.037 A 
BRANCH  66  80
ATOM     80  C   UNL A   1      44.720  35.861  29.621  1.00  0.00     0.058 A 
ATOM     81  C   UNL A   1      45.777  36.785  29.571  1.00  0.00     0.135 A 
ATOM     82  C   UNL A   1      43.498  36.232  29.036  1.00  0.00     0.135 A 
ATOM     83  F   UNL A   1      46.960  36.491  30.132  1.00  0.00    -0.206 F 
ATOM     84  C   UNL A   1      45.618  38.039  28.990  1.00  0.00     0.059 A 
ATOM     85  C   UNL A   1      43.328  37.469  28.422  1.00  0.00     0.059 A 
ATOM     86  F   UNL A   1      42.454  35.389  29.060  1.00  0.00    -0.206 F 
ATOM     87  C   UNL A   1      44.390  38.371  28.417  1.00  0.00     0.060 A 
BRANCH  87  88
ATOM     88  S   UNL A   1      44.203  39.999  27.659  1.00  0.00     0.124 S 
ATOM     89  O   UNL A   1      43.229  40.625  28.547  1.00  0.00    -0.237 OA
ATOM     90  O   UNL A   1      45.560  40.533  27.729  1.00  0.00    -0.237 OA
ATOM     91  O   UNL A   1      43.722  39.696  26.315  1.00  0.00    -0.744 OA
ENDBRANCH  87  88
ENDBRANCH  66  80
BRANCH  67  92
ATOM     92  C   UNL A   1      45.527  27.067  34.208  1.00  0.00     0.058 A 
ATOM     93  C   UNL A   1      44.403  26.239  34.359  1.00  0.00     0.135 A 
ATOM     94  C   UNL A   1      46.744  26.608  34.738  1.00  0.00     0.135 A 
ATOM     95  F   UNL A   1      43.208  26.641  33.899  1.00  0.00    -0.206 F 
ATOM     96  C   UNL A   1      44.477  25.012  35.015  1.00  0.00     0.059 A 
ATOM     97  C   UNL A   1      46.850  25.373  35.373  1.00  0.00     0.059 A 
ATOM     98  F   UNL A   1      47.850  27.360  34.632  1.00  0.00    -0.206 F 
ATOM     99  C   UNL A   1      45.709  24.584  35.513  1.00  0.00     0.060 A 
BRANCH  99 100
ATOM    100  S   UNL A   1      45.809  22.961  36.302  1.00  0.00     0.124 S 
ATOM    101  O   UNL A   1      45.321  23.251  37.644  1.00  0.00    -0.237 OA
ATOM    102  O   UNL A   1      44.926  22.158  35.460  1.00  0.00    -0.237 OA
ATOM    103  O   UNL A   1      47.226  22.628  36.203  1.00  0.00    -0.744 OA
ENDBRANCH  99 100
ENDBRANCH  67  92
BRANCH  79 104
ATOM    104  C   UNL A   1      46.644  29.179  27.651  1.00  0.00     0.058 A 
ATOM    105  C   UNL A   1      48.009  29.049  27.344  1.00  0.00     0.135 A 
ATOM    106  C   UNL A   1      45.722  28.594  26.764  1.00  0.00     0.135 A 
ATOM    107  F   UNL A   1      48.937  29.580  28.155  1.00  0.00    -0.206 F 
ATOM    108  C   UNL A   1      48.439  28.413  26.181  1.00  0.00     0.059 A 
ATOM    109  C   UNL A   1      46.131  27.926  25.613  1.00  0.00     0.059 A 
ATOM    110  F   UNL A   1      44.405  28.667  27.013  1.00  0.00    -0.206 F 
ATOM    111  C   UNL A   1      47.492  27.861  25.317  1.00  0.00     0.060 A 
BRANCH 111 112
ATOM    112  S   UNL A   1      48.060  27.058  23.802  1.00  0.00     0.124 S 
ATOM    113  O   UNL A   1      47.519  25.712  23.963  1.00  0.00    -0.237 OA
ATOM    114  O   UNL A   1      47.437  27.871  22.763  1.00  0.00    -0.237 OA
ATOM    115  O   UNL A   1      49.513  27.164  23.884  1.00  0.00    -0.744 OA
ENDBRANCH 111 112
ENDBRANCH  79 104
ENDBRANCH  53  54
ENDBRANCH  46  48
ENDBRANCH  45  46
ENDBRANCH  44  45
ENDBRANCH  43  44
ENDBRANCH  42  43
ENDBRANCH   1  42
TORSDOF 22
ENDMDL
