MODEL 1
REMARK VINA RESULT:      -8.4      0.000      0.000
REMARK SMILES CCCc1cc(OCC(=O)OCCOCCOCCOC(=O)c2ccc(-c3c4nc(c(-c5c(F)cc(S(=O)(=O)[O-])cc5F)c5ccc([nH]5)c(-c5c(F)cc(S(=O)(=O)[O-])cc5F)c5nc(c(-c6c(F)cc(S(=O)(=O)[O-])cc6F)c6ccc3[nH]6)C=C5)C=C4)cc2)nc(Nc2ccc(C#N)cc2)n1
REMARK SMILES IDX 15 1 14 2 13 3 12 4 11 5 9 6 10 7 8 8 7 9 6 10 4 11 5 12
REMARK SMILES IDX 100 13 90 14 89 15 3 16 2 17 1 18 91 19 92 21 93 22 99 23
REMARK SMILES IDX 94 24 98 25 95 26 96 27 97 28 16 29 17 30 18 31 19 32 20 33
REMARK SMILES IDX 21 34 22 35 23 36 24 37 88 38 25 39 87 40 26 41 27 42 28 43
REMARK SMILES IDX 81 44 29 45 86 46 80 47 82 48 30 49 85 50 79 51 78 52 31 54
REMARK SMILES IDX 65 55 44 56 64 57 45 58 48 59 63 60 83 61 46 62 47 63 62 65
REMARK SMILES IDX 84 66 49 67 32 68 33 69 42 70 34 71 35 72 41 73 43 74 36 75
REMARK SMILES IDX 37 76 38 77 39 78 40 79 66 80 67 81 76 82 68 83 69 84 75 85
REMARK SMILES IDX 77 86 70 87 71 88 72 89 73 90 74 91 50 92 51 93 60 94 52 95
REMARK SMILES IDX 53 96 59 97 61 98 54 99 55 100 56 101 57 102 58 103
REMARK H PARENT 91 20 82 53 48 64
REMARK Flexibility Score: inf
ROOT
ATOM      1  C   UNL A   1      32.611  36.339  30.640  1.00  0.00     0.188 C 
ENDROOT
BRANCH   1   2
ATOM      2  O   UNL A   1      33.305  36.142  29.428  1.00  0.00    -0.376 OA
BRANCH   2   3
ATOM      3  C   UNL A   1      33.115  34.919  28.754  1.00  0.00     0.202 C 
BRANCH   3   4
ATOM      4  C   UNL A   1      34.306  34.384  27.940  1.00  0.00     0.261 C 
BRANCH   4   5
ATOM      5  O   UNL A   1      35.192  33.489  28.676  1.00  0.00    -0.461 OA
BRANCH   5   6
ATOM      6  C   UNL A   1      35.338  32.218  28.202  1.00  0.00     0.344 C 
ATOM      7  O   UNL A   1      36.396  31.597  28.267  1.00  0.00    -0.248 OA
BRANCH   6   8
ATOM      8  C   UNL A   1      34.019  31.518  27.700  1.00  0.00     0.353 C 
BRANCH   8   9
ATOM      9  O   UNL A   1      33.886  30.128  27.425  1.00  0.00    -0.466 OA
BRANCH   9  10
ATOM     10  C   UNL A   1      32.818  29.559  26.756  1.00  0.00     0.218 A 
ATOM     11  C   UNL A   1      31.346  29.175  24.946  1.00  0.00     0.050 A 
ATOM     12  C   UNL A   1      32.231  30.035  25.590  1.00  0.00     0.092 A 
ATOM     13  N   UNL A   1      31.051  27.991  25.446  1.00  0.00    -0.218 NA
ATOM     14  C   UNL A   1      31.629  27.583  26.564  1.00  0.00     0.230 A 
ATOM     15  N   UNL A   1      32.484  28.344  27.267  1.00  0.00    -0.177 NA
BRANCH  11  16
ATOM     16  C   UNL A   1      30.836  29.355  23.550  1.00  0.00     0.056 C 
BRANCH  16  17
ATOM     17  C   UNL A   1      29.893  28.299  22.940  1.00  0.00     0.003 C 
ATOM     18  C   UNL A   1      28.428  28.662  23.054  1.00  0.00     0.004 C 
ENDBRANCH  16  17
ENDBRANCH  11  16
BRANCH  14  19
ATOM     19  N   UNL A   1      31.286  26.278  26.934  1.00  0.00    -0.324 N 
ATOM     20  H   UNL A   1      30.941  26.115  27.842  1.00  0.00     0.170 HD
BRANCH  19  21
ATOM     21  C   UNL A   1      31.418  25.185  26.048  1.00  0.00     0.041 A 
ATOM     22  C   UNL A   1      30.507  24.972  25.006  1.00  0.00     0.027 A 
ATOM     23  C   UNL A   1      32.596  24.415  26.059  1.00  0.00     0.027 A 
ATOM     24  C   UNL A   1      30.736  23.973  24.044  1.00  0.00     0.021 A 
ATOM     25  C   UNL A   1      32.820  23.406  25.114  1.00  0.00     0.021 A 
ATOM     26  C   UNL A   1      31.879  23.171  24.112  1.00  0.00     0.052 A 
BRANCH  26  27
ATOM     27  C   UNL A   1      32.078  22.093  23.180  1.00  0.00     0.099 C 
ATOM     28  N   UNL A   1      32.210  21.264  22.387  1.00  0.00    -0.192 NA
ENDBRANCH  26  27
ENDBRANCH  19  21
ENDBRANCH  14  19
ENDBRANCH   9  10
ENDBRANCH   8   9
ENDBRANCH   6   8
ENDBRANCH   5   6
ENDBRANCH   4   5
ENDBRANCH   3   4
ENDBRANCH   2   3
ENDBRANCH   1   2
BRANCH   1  29
ATOM     29  C   UNL A   1      33.330  36.263  32.006  1.00  0.00     0.188 C 
BRANCH  29  30
ATOM     30  O   UNL A   1      34.278  35.244  32.162  1.00  0.00    -0.376 OA
BRANCH  30  31
ATOM     31  C   UNL A   1      35.103  35.272  33.304  1.00  0.00     0.202 C 
BRANCH  31  32
ATOM     32  C   UNL A   1      35.149  34.126  34.334  1.00  0.00     0.261 C 
BRANCH  32  33
ATOM     33  O   UNL A   1      35.724  32.852  33.945  1.00  0.00    -0.460 OA
BRANCH  33  34
ATOM     34  C   UNL A   1      36.883  32.543  34.589  1.00  0.00     0.338 C 
ATOM     35  O   UNL A   1      37.051  32.657  35.798  1.00  0.00    -0.246 OA
BRANCH  34  36
ATOM     36  C   UNL A   1      38.022  32.005  33.776  1.00  0.00     0.060 A 
ATOM     37  C   UNL A   1      39.184  31.510  34.386  1.00  0.00     0.016 A 
ATOM     38  C   UNL A   1      38.143  32.548  32.494  1.00  0.00     0.016 A 
ATOM     39  C   UNL A   1      40.443  31.749  33.816  1.00  0.00     0.010 A 
ATOM     40  C   UNL A   1      39.402  32.701  31.887  1.00  0.00     0.010 A 
ATOM     41  C   UNL A   1      40.579  32.365  32.566  1.00  0.00    -0.014 A 
BRANCH  41  42
ATOM     42  C   UNL A   1      41.934  32.607  31.982  1.00  0.00     0.031 A 
ATOM     43  C   UNL A   1      42.703  33.901  32.179  1.00  0.00     0.074 A 
ATOM     44  C   UNL A   1      42.487  31.622  31.245  1.00  0.00     0.049 A 
ATOM     45  N   UNL A   1      43.817  34.300  31.612  1.00  0.00    -0.248 NA
ATOM     46  C   UNL A   1      42.173  34.860  33.156  1.00  0.00     0.031 C 
ATOM     47  C   UNL A   1      41.911  30.287  31.041  1.00  0.00     0.029 A 
ATOM     48  N   UNL A   1      43.640  31.594  30.504  1.00  0.00    -0.354 N 
ATOM     49  C   UNL A   1      44.114  35.551  32.156  1.00  0.00     0.074 A 
ATOM     50  C   UNL A   1      43.069  35.841  33.112  1.00  0.00     0.031 C 
ATOM     51  C   UNL A   1      42.705  29.578  30.237  1.00  0.00     0.029 A 
ATOM     52  C   UNL A   1      43.761  30.451  29.753  1.00  0.00     0.049 A 
ATOM     53  H   UNL A   1      44.310  32.316  30.509  1.00  0.00     0.167 HD
ATOM     54  C   UNL A   1      45.138  36.393  31.854  1.00  0.00     0.037 A 
ATOM     55  C   UNL A   1      44.555  30.155  28.710  1.00  0.00     0.037 A 
ATOM     56  C   UNL A   1      46.113  36.123  30.821  1.00  0.00     0.049 A 
ATOM     57  C   UNL A   1      45.549  31.170  28.250  1.00  0.00     0.074 A 
ATOM     58  C   UNL A   1      47.157  36.924  30.385  1.00  0.00     0.029 A 
ATOM     59  N   UNL A   1      46.139  34.980  30.033  1.00  0.00    -0.354 N 
ATOM     60  N   UNL A   1      45.795  32.359  28.745  1.00  0.00    -0.248 NA
ATOM     61  C   UNL A   1      46.369  30.807  27.093  1.00  0.00     0.031 C 
ATOM     62  C   UNL A   1      47.747  36.310  29.274  1.00  0.00     0.029 A 
ATOM     63  C   UNL A   1      47.140  35.080  29.078  1.00  0.00     0.049 A 
ATOM     64  H   UNL A   1      45.534  34.211  30.135  1.00  0.00     0.167 HD
ATOM     65  C   UNL A   1      46.830  32.876  27.980  1.00  0.00     0.074 A 
ATOM     66  C   UNL A   1      47.162  31.864  26.995  1.00  0.00     0.031 C 
ATOM     67  C   UNL A   1      47.456  34.073  28.094  1.00  0.00     0.037 A 
BRANCH  54  68
ATOM     68  C   UNL A   1      45.209  37.730  32.563  1.00  0.00     0.058 A 
ATOM     69  C   UNL A   1      44.537  38.871  32.095  1.00  0.00     0.135 A 
ATOM     70  C   UNL A   1      45.921  37.856  33.771  1.00  0.00     0.135 A 
ATOM     71  F   UNL A   1      43.840  38.822  30.947  1.00  0.00    -0.206 F 
ATOM     72  C   UNL A   1      44.592  40.088  32.777  1.00  0.00     0.059 A 
ATOM     73  C   UNL A   1      45.966  39.051  34.484  1.00  0.00     0.059 A 
ATOM     74  F   UNL A   1      46.579  36.801  34.278  1.00  0.00    -0.206 F 
ATOM     75  C   UNL A   1      45.313  40.169  33.972  1.00  0.00     0.060 A 
BRANCH  75  76
ATOM     76  S   UNL A   1      45.393  41.755  34.834  1.00  0.00     0.124 S 
ATOM     77  O   UNL A   1      46.525  41.543  35.731  1.00  0.00    -0.237 OA
ATOM     78  O   UNL A   1      45.618  42.694  33.740  1.00  0.00    -0.237 OA
ATOM     79  O   UNL A   1      44.091  41.857  35.487  1.00  0.00    -0.744 OA
ENDBRANCH  75  76
ENDBRANCH  54  68
BRANCH  55  80
ATOM     80  C   UNL A   1      44.372  28.855  28.015  1.00  0.00     0.058 A 
ATOM     81  C   UNL A   1      43.483  28.740  26.942  1.00  0.00     0.135 A 
ATOM     82  C   UNL A   1      45.153  27.734  28.349  1.00  0.00     0.135 A 
ATOM     83  F   UNL A   1      42.718  29.784  26.589  1.00  0.00    -0.206 F 
ATOM     84  C   UNL A   1      43.376  27.559  26.216  1.00  0.00     0.059 A 
ATOM     85  C   UNL A   1      45.091  26.556  27.615  1.00  0.00     0.059 A 
ATOM     86  F   UNL A   1      46.040  27.804  29.355  1.00  0.00    -0.206 F 
ATOM     87  C   UNL A   1      44.194  26.478  26.552  1.00  0.00     0.060 A 
BRANCH  87  88
ATOM     88  S   UNL A   1      44.100  24.984  25.545  1.00  0.00     0.124 S 
ATOM     89  O   UNL A   1      43.971  23.951  26.567  1.00  0.00    -0.237 OA
ATOM     90  O   UNL A   1      42.911  25.239  24.739  1.00  0.00    -0.237 OA
ATOM     91  O   UNL A   1      45.362  24.993  24.811  1.00  0.00    -0.744 OA
ENDBRANCH  87  88
ENDBRANCH  55  80
BRANCH  67  92
ATOM     92  C   UNL A   1      48.603  34.331  27.157  1.00  0.00     0.058 A 
ATOM     93  C   UNL A   1      49.930  34.022  27.495  1.00  0.00     0.135 A 
ATOM     94  C   UNL A   1      48.363  34.892  25.891  1.00  0.00     0.135 A 
ATOM     95  F   UNL A   1      50.218  33.499  28.698  1.00  0.00    -0.206 F 
ATOM     96  C   UNL A   1      50.982  34.293  26.626  1.00  0.00     0.059 A 
ATOM     97  C   UNL A   1      49.394  35.134  24.992  1.00  0.00     0.059 A 
ATOM     98  F   UNL A   1      47.111  35.204  25.515  1.00  0.00    -0.206 F 
ATOM     99  C   UNL A   1      50.702  34.846  25.376  1.00  0.00     0.060 A 
BRANCH  99 100
ATOM    100  S   UNL A   1      52.074  35.170  24.249  1.00  0.00     0.124 S 
ATOM    101  O   UNL A   1      51.684  36.453  23.672  1.00  0.00    -0.237 OA
ATOM    102  O   UNL A   1      53.216  35.204  25.157  1.00  0.00    -0.237 OA
ATOM    103  O   UNL A   1      52.040  34.034  23.333  1.00  0.00    -0.744 OA
ENDBRANCH  99 100
ENDBRANCH  67  92
ENDBRANCH  41  42
ENDBRANCH  34  36
ENDBRANCH  33  34
ENDBRANCH  32  33
ENDBRANCH  31  32
ENDBRANCH  30  31
ENDBRANCH  29  30
ENDBRANCH   1  29
TORSDOF 27
ENDMDL
MODEL 2
REMARK VINA RESULT:      -8.3      3.647      7.441
REMARK SMILES CCCc1cc(OCC(=O)OCCOCCOCCOC(=O)c2ccc(-c3c4nc(c(-c5c(F)cc(S(=O)(=O)[O-])cc5F)c5ccc([nH]5)c(-c5c(F)cc(S(=O)(=O)[O-])cc5F)c5nc(c(-c6c(F)cc(S(=O)(=O)[O-])cc6F)c6ccc3[nH]6)C=C5)C=C4)cc2)nc(Nc2ccc(C#N)cc2)n1
REMARK SMILES IDX 15 1 14 2 13 3 12 4 11 5 9 6 10 7 8 8 7 9 6 10 4 11 5 12
REMARK SMILES IDX 100 13 90 14 89 15 3 16 2 17 1 18 91 19 92 21 93 22 99 23
REMARK SMILES IDX 94 24 98 25 95 26 96 27 97 28 16 29 17 30 18 31 19 32 20 33
REMARK SMILES IDX 21 34 22 35 23 36 24 37 88 38 25 39 87 40 26 41 27 42 28 43
REMARK SMILES IDX 81 44 29 45 86 46 80 47 82 48 30 49 85 50 79 51 78 52 31 54
REMARK SMILES IDX 65 55 44 56 64 57 45 58 48 59 63 60 83 61 46 62 47 63 62 65
REMARK SMILES IDX 84 66 49 67 32 68 33 69 42 70 34 71 35 72 41 73 43 74 36 75
REMARK SMILES IDX 37 76 38 77 39 78 40 79 66 80 67 81 76 82 68 83 69 84 75 85
REMARK SMILES IDX 77 86 70 87 71 88 72 89 73 90 74 91 50 92 51 93 60 94 52 95
REMARK SMILES IDX 53 96 59 97 61 98 54 99 55 100 56 101 57 102 58 103
REMARK H PARENT 91 20 82 53 48 64
REMARK Flexibility Score: inf
ROOT
ATOM      1  C   UNL A   1      32.663  36.137  30.715  1.00  0.00     0.188 C 
ENDROOT
BRANCH   1   2
ATOM      2  O   UNL A   1      33.522  35.921  29.616  1.00  0.00    -0.376 OA
BRANCH   2   3
ATOM      3  C   UNL A   1      33.227  34.846  28.754  1.00  0.00     0.202 C 
BRANCH   3   4
ATOM      4  C   UNL A   1      34.391  34.294  27.913  1.00  0.00     0.261 C 
BRANCH   4   5
ATOM      5  O   UNL A   1      35.284  33.389  28.629  1.00  0.00    -0.461 OA
BRANCH   5   6
ATOM      6  C   UNL A   1      35.420  32.122  28.142  1.00  0.00     0.344 C 
ATOM      7  O   UNL A   1      36.477  31.498  28.186  1.00  0.00    -0.248 OA
BRANCH   6   8
ATOM      8  C   UNL A   1      34.091  31.430  27.653  1.00  0.00     0.353 C 
BRANCH   8   9
ATOM      9  O   UNL A   1      33.921  30.029  27.465  1.00  0.00    -0.466 OA
BRANCH   9  10
ATOM     10  C   UNL A   1      32.884  29.453  26.757  1.00  0.00     0.218 A 
ATOM     11  C   UNL A   1      31.491  29.047  24.889  1.00  0.00     0.050 A 
ATOM     12  C   UNL A   1      32.348  29.915  25.561  1.00  0.00     0.092 A 
ATOM     13  N   UNL A   1      31.174  27.870  25.391  1.00  0.00    -0.218 NA
ATOM     14  C   UNL A   1      31.701  27.476  26.537  1.00  0.00     0.230 A 
ATOM     15  N   UNL A   1      32.526  28.244  27.268  1.00  0.00    -0.177 NA
BRANCH  11  16
ATOM     16  C   UNL A   1      31.042  29.210  23.470  1.00  0.00     0.056 C 
BRANCH  16  17
ATOM     17  C   UNL A   1      29.540  29.153  23.134  1.00  0.00     0.003 C 
ATOM     18  C   UNL A   1      29.160  29.986  21.929  1.00  0.00     0.004 C 
ENDBRANCH  16  17
ENDBRANCH  11  16
BRANCH  14  19
ATOM     19  N   UNL A   1      31.342  26.175  26.908  1.00  0.00    -0.324 N 
ATOM     20  H   UNL A   1      31.009  26.014  27.821  1.00  0.00     0.170 HD
BRANCH  19  21
ATOM     21  C   UNL A   1      31.439  25.083  26.016  1.00  0.00     0.041 A 
ATOM     22  C   UNL A   1      30.523  24.907  24.972  1.00  0.00     0.027 A 
ATOM     23  C   UNL A   1      32.591  24.275  26.025  1.00  0.00     0.027 A 
ATOM     24  C   UNL A   1      30.721  23.907  24.004  1.00  0.00     0.021 A 
ATOM     25  C   UNL A   1      32.783  23.265  25.074  1.00  0.00     0.021 A 
ATOM     26  C   UNL A   1      31.836  23.067  24.069  1.00  0.00     0.052 A 
BRANCH  26  27
ATOM     27  C   UNL A   1      32.002  21.988  23.132  1.00  0.00     0.099 C 
ATOM     28  N   UNL A   1      32.168  21.091  22.424  1.00  0.00    -0.192 NA
ENDBRANCH  26  27
ENDBRANCH  19  21
ENDBRANCH  14  19
ENDBRANCH   9  10
ENDBRANCH   8   9
ENDBRANCH   6   8
ENDBRANCH   5   6
ENDBRANCH   4   5
ENDBRANCH   3   4
ENDBRANCH   2   3
ENDBRANCH   1   2
BRANCH   1  29
ATOM     29  C   UNL A   1      33.177  36.060  32.170  1.00  0.00     0.188 C 
BRANCH  29  30
ATOM     30  O   UNL A   1      33.719  34.836  32.583  1.00  0.00    -0.376 OA
BRANCH  30  31
ATOM     31  C   UNL A   1      34.993  34.842  33.184  1.00  0.00     0.202 C 
BRANCH  31  32
ATOM     32  C   UNL A   1      35.232  34.432  34.650  1.00  0.00     0.261 C 
BRANCH  32  33
ATOM     33  O   UNL A   1      35.809  33.131  34.933  1.00  0.00    -0.460 OA
BRANCH  33  34
ATOM     34  C   UNL A   1      37.041  33.180  35.511  1.00  0.00     0.338 C 
ATOM     35  O   UNL A   1      37.359  33.977  36.387  1.00  0.00    -0.246 OA
BRANCH  34  36
ATOM     36  C   UNL A   1      38.069  32.182  35.070  1.00  0.00     0.060 A 
ATOM     37  C   UNL A   1      39.384  32.227  35.555  1.00  0.00     0.016 A 
ATOM     38  C   UNL A   1      37.865  31.646  33.796  1.00  0.00     0.016 A 
ATOM     39  C   UNL A   1      40.465  31.943  34.708  1.00  0.00     0.010 A 
ATOM     40  C   UNL A   1      38.952  31.275  32.983  1.00  0.00     0.010 A 
ATOM     41  C   UNL A   1      40.272  31.481  33.401  1.00  0.00    -0.014 A 
BRANCH  41  42
ATOM     42  C   UNL A   1      41.443  31.185  32.520  1.00  0.00     0.031 A 
ATOM     43  C   UNL A   1      42.292  29.934  32.661  1.00  0.00     0.074 A 
ATOM     44  C   UNL A   1      41.752  32.081  31.560  1.00  0.00     0.049 A 
ATOM     45  N   UNL A   1      43.418  29.622  32.065  1.00  0.00    -0.248 NA
ATOM     46  C   UNL A   1      41.804  28.885  33.565  1.00  0.00     0.031 C 
ATOM     47  C   UNL A   1      40.977  33.285  31.241  1.00  0.00     0.029 A 
ATOM     48  N   UNL A   1      42.813  32.139  30.694  1.00  0.00    -0.354 N 
ATOM     49  C   UNL A   1      43.773  28.352  32.525  1.00  0.00     0.074 A 
ATOM     50  C   UNL A   1      42.733  27.942  33.441  1.00  0.00     0.031 C 
ATOM     51  C   UNL A   1      41.583  33.958  30.260  1.00  0.00     0.029 A 
ATOM     52  C   UNL A   1      42.856  33.314  29.984  1.00  0.00     0.049 A 
ATOM     53  H   UNL A   1      43.474  31.416  30.591  1.00  0.00     0.167 HD
ATOM     54  C   UNL A   1      44.882  27.619  32.240  1.00  0.00     0.037 A 
ATOM     55  C   UNL A   1      43.842  33.885  29.273  1.00  0.00     0.037 A 
ATOM     56  C   UNL A   1      45.957  28.095  31.398  1.00  0.00     0.049 A 
ATOM     57  C   UNL A   1      45.140  33.160  29.130  1.00  0.00     0.074 A 
ATOM     58  C   UNL A   1      47.154  27.470  31.085  1.00  0.00     0.029 A 
ATOM     59  N   UNL A   1      45.984  29.333  30.768  1.00  0.00    -0.354 N 
ATOM     60  N   UNL A   1      45.477  31.982  29.598  1.00  0.00    -0.248 NA
ATOM     61  C   UNL A   1      46.189  33.839  28.368  1.00  0.00     0.031 C 
ATOM     62  C   UNL A   1      47.939  28.367  30.352  1.00  0.00     0.029 A 
ATOM     63  C   UNL A   1      47.196  29.513  30.119  1.00  0.00     0.049 A 
ATOM     64  H   UNL A   1      45.250  29.988  30.782  1.00  0.00     0.167 HD
ATOM     65  C   UNL A   1      46.772  31.760  29.152  1.00  0.00     0.074 A 
ATOM     66  C   UNL A   1      47.149  32.925  28.376  1.00  0.00     0.031 C 
ATOM     67  C   UNL A   1      47.568  30.681  29.358  1.00  0.00     0.037 A 
BRANCH  54  68
ATOM     68  C   UNL A   1      45.054  26.275  32.915  1.00  0.00     0.058 A 
ATOM     69  C   UNL A   1      44.669  25.068  32.308  1.00  0.00     0.135 A 
ATOM     70  C   UNL A   1      45.672  26.188  34.178  1.00  0.00     0.135 A 
ATOM     71  F   UNL A   1      44.072  25.077  31.105  1.00  0.00    -0.206 F 
ATOM     72  C   UNL A   1      44.861  23.836  32.936  1.00  0.00     0.059 A 
ATOM     73  C   UNL A   1      45.900  24.968  34.810  1.00  0.00     0.059 A 
ATOM     74  F   UNL A   1      46.072  27.304  34.809  1.00  0.00    -0.206 F 
ATOM     75  C   UNL A   1      45.477  23.796  34.190  1.00  0.00     0.060 A 
BRANCH  75  76
ATOM     76  S   UNL A   1      45.700  22.196  35.001  1.00  0.00     0.124 S 
ATOM     77  O   UNL A   1      45.803  22.590  36.402  1.00  0.00    -0.237 OA
ATOM     78  O   UNL A   1      44.481  21.485  34.629  1.00  0.00    -0.237 OA
ATOM     79  O   UNL A   1      46.929  21.679  34.406  1.00  0.00    -0.744 OA
ENDBRANCH  75  76
ENDBRANCH  54  68
BRANCH  55  80
ATOM     80  C   UNL A   1      43.627  35.241  28.708  1.00  0.00     0.058 A 
ATOM     81  C   UNL A   1      43.202  35.403  27.385  1.00  0.00     0.135 A 
ATOM     82  C   UNL A   1      43.747  36.392  29.508  1.00  0.00     0.135 A 
ATOM     83  F   UNL A   1      43.074  34.333  26.586  1.00  0.00    -0.206 F 
ATOM     84  C   UNL A   1      42.898  36.658  26.872  1.00  0.00     0.059 A 
ATOM     85  C   UNL A   1      43.412  37.652  29.030  1.00  0.00     0.059 A 
ATOM     86  F   UNL A   1      44.125  36.285  30.792  1.00  0.00    -0.206 F 
ATOM     87  C   UNL A   1      42.992  37.774  27.707  1.00  0.00     0.060 A 
BRANCH  87  88
ATOM     88  S   UNL A   1      42.512  39.383  27.047  1.00  0.00     0.124 S 
ATOM     89  O   UNL A   1      42.299  40.149  28.269  1.00  0.00    -0.237 OA
ATOM     90  O   UNL A   1      43.685  39.748  26.259  1.00  0.00    -0.237 OA
ATOM     91  O   UNL A   1      41.312  39.084  26.271  1.00  0.00    -0.744 OA
ENDBRANCH  87  88
ENDBRANCH  55  80
BRANCH  67  92
ATOM     92  C   UNL A   1      48.912  30.693  28.686  1.00  0.00     0.058 A 
ATOM     93  C   UNL A   1      50.040  31.283  29.277  1.00  0.00     0.135 A 
ATOM     94  C   UNL A   1      49.072  30.091  27.426  1.00  0.00     0.135 A 
ATOM     95  F   UNL A   1      49.940  31.886  30.473  1.00  0.00    -0.206 F 
ATOM     96  C   UNL A   1      51.270  31.308  28.628  1.00  0.00     0.059 A 
ATOM     97  C   UNL A   1      50.300  30.070  26.777  1.00  0.00     0.059 A 
ATOM     98  F   UNL A   1      48.026  29.509  26.816  1.00  0.00    -0.206 F 
ATOM     99  C   UNL A   1      51.390  30.695  27.380  1.00  0.00     0.060 A 
BRANCH  99 100
ATOM    100  S   UNL A   1      52.997  30.715  26.560  1.00  0.00     0.124 S 
ATOM    101  O   UNL A   1      53.757  31.615  27.422  1.00  0.00    -0.237 OA
ATOM    102  O   UNL A   1      53.387  29.310  26.611  1.00  0.00    -0.237 OA
ATOM    103  O   UNL A   1      52.695  31.230  25.228  1.00  0.00    -0.744 OA
ENDBRANCH  99 100
ENDBRANCH  67  92
ENDBRANCH  41  42
ENDBRANCH  34  36
ENDBRANCH  33  34
ENDBRANCH  32  33
ENDBRANCH  31  32
ENDBRANCH  30  31
ENDBRANCH  29  30
ENDBRANCH   1  29
TORSDOF 27
ENDMDL
MODEL 3
REMARK VINA RESULT:      -7.8      5.666     12.991
REMARK SMILES CCCc1cc(OCC(=O)OCCOCCOCCOC(=O)c2ccc(-c3c4nc(c(-c5c(F)cc(S(=O)(=O)[O-])cc5F)c5ccc([nH]5)c(-c5c(F)cc(S(=O)(=O)[O-])cc5F)c5nc(c(-c6c(F)cc(S(=O)(=O)[O-])cc6F)c6ccc3[nH]6)C=C5)C=C4)cc2)nc(Nc2ccc(C#N)cc2)n1
REMARK SMILES IDX 15 1 14 2 13 3 12 4 11 5 9 6 10 7 8 8 7 9 6 10 4 11 5 12
REMARK SMILES IDX 100 13 90 14 89 15 3 16 2 17 1 18 91 19 92 21 93 22 99 23
REMARK SMILES IDX 94 24 98 25 95 26 96 27 97 28 16 29 17 30 18 31 19 32 20 33
REMARK SMILES IDX 21 34 22 35 23 36 24 37 88 38 25 39 87 40 26 41 27 42 28 43
REMARK SMILES IDX 81 44 29 45 86 46 80 47 82 48 30 49 85 50 79 51 78 52 31 54
REMARK SMILES IDX 65 55 44 56 64 57 45 58 48 59 63 60 83 61 46 62 47 63 62 65
REMARK SMILES IDX 84 66 49 67 32 68 33 69 42 70 34 71 35 72 41 73 43 74 36 75
REMARK SMILES IDX 37 76 38 77 39 78 40 79 66 80 67 81 76 82 68 83 69 84 75 85
REMARK SMILES IDX 77 86 70 87 71 88 72 89 73 90 74 91 50 92 51 93 60 94 52 95
REMARK SMILES IDX 53 96 59 97 61 98 54 99 55 100 56 101 57 102 58 103
REMARK H PARENT 91 20 82 53 48 64
REMARK Flexibility Score: inf
ROOT
ATOM      1  C   UNL A   1      38.500  32.495  35.732  1.00  0.00     0.188 C 
ENDROOT
BRANCH   1   2
ATOM      2  O   UNL A   1      39.425  33.523  35.450  1.00  0.00    -0.376 OA
BRANCH   2   3
ATOM      3  C   UNL A   1      39.081  34.460  34.455  1.00  0.00     0.202 C 
BRANCH   3   4
ATOM      4  C   UNL A   1      39.907  34.425  33.157  1.00  0.00     0.261 C 
BRANCH   4   5
ATOM      5  O   UNL A   1      41.027  33.490  33.174  1.00  0.00    -0.461 OA
BRANCH   5   6
ATOM      6  C   UNL A   1      42.272  34.003  33.388  1.00  0.00     0.344 C 
ATOM      7  O   UNL A   1      43.223  33.320  33.763  1.00  0.00    -0.248 OA
BRANCH   6   8
ATOM      8  C   UNL A   1      42.473  35.510  32.974  1.00  0.00     0.353 C 
BRANCH   8   9
ATOM      9  O   UNL A   1      43.708  36.087  32.564  1.00  0.00    -0.466 OA
BRANCH   9  10
ATOM     10  C   UNL A   1      43.916  36.713  31.350  1.00  0.00     0.218 A 
ATOM     11  C   UNL A   1      43.548  37.195  29.064  1.00  0.00     0.050 A 
ATOM     12  C   UNL A   1      43.447  36.286  30.113  1.00  0.00     0.092 A 
ATOM     13  N   UNL A   1      44.102  38.379  29.232  1.00  0.00    -0.218 NA
ATOM     14  C   UNL A   1      44.543  38.740  30.425  1.00  0.00     0.230 A 
ATOM     15  N   UNL A   1      44.504  37.931  31.497  1.00  0.00    -0.177 NA
BRANCH  11  16
ATOM     16  C   UNL A   1      42.852  37.065  27.744  1.00  0.00     0.056 C 
BRANCH  16  17
ATOM     17  C   UNL A   1      42.325  35.689  27.293  1.00  0.00     0.003 C 
ATOM     18  C   UNL A   1      42.916  35.219  25.981  1.00  0.00     0.004 C 
ENDBRANCH  16  17
ENDBRANCH  11  16
BRANCH  14  19
ATOM     19  N   UNL A   1      45.030  40.051  30.476  1.00  0.00    -0.324 N 
ATOM     20  H   UNL A   1      45.849  40.275  29.977  1.00  0.00     0.170 HD
BRANCH  19  21
ATOM     21  C   UNL A   1      44.386  41.065  31.220  1.00  0.00     0.041 A 
ATOM     22  C   UNL A   1      45.088  42.172  31.713  1.00  0.00     0.027 A 
ATOM     23  C   UNL A   1      42.980  41.093  31.290  1.00  0.00     0.027 A 
ATOM     24  C   UNL A   1      44.408  43.244  32.317  1.00  0.00     0.021 A 
ATOM     25  C   UNL A   1      42.299  42.150  31.908  1.00  0.00     0.021 A 
ATOM     26  C   UNL A   1      43.016  43.222  32.440  1.00  0.00     0.052 A 
BRANCH  26  27
ATOM     27  C   UNL A   1      42.321  44.275  33.131  1.00  0.00     0.099 C 
ATOM     28  N   UNL A   1      41.815  45.158  33.677  1.00  0.00    -0.192 NA
ENDBRANCH  26  27
ENDBRANCH  19  21
ENDBRANCH  14  19
ENDBRANCH   9  10
ENDBRANCH   8   9
ENDBRANCH   6   8
ENDBRANCH   5   6
ENDBRANCH   4   5
ENDBRANCH   3   4
ENDBRANCH   2   3
ENDBRANCH   1   2
BRANCH   1  29
ATOM     29  C   UNL A   1      38.951  31.030  35.921  1.00  0.00     0.188 C 
BRANCH  29  30
ATOM     30  O   UNL A   1      40.005  30.586  35.113  1.00  0.00    -0.376 OA
BRANCH  30  31
ATOM     31  C   UNL A   1      39.698  29.773  34.005  1.00  0.00     0.202 C 
BRANCH  31  32
ATOM     32  C   UNL A   1      38.342  29.827  33.274  1.00  0.00     0.261 C 
BRANCH  32  33
ATOM     33  O   UNL A   1      37.996  31.018  32.520  1.00  0.00    -0.460 OA
BRANCH  33  34
ATOM     34  C   UNL A   1      37.690  30.782  31.214  1.00  0.00     0.338 C 
ATOM     35  O   UNL A   1      36.583  30.437  30.818  1.00  0.00    -0.246 OA
BRANCH  34  36
ATOM     36  C   UNL A   1      38.766  30.982  30.189  1.00  0.00     0.060 A 
ATOM     37  C   UNL A   1      38.774  30.255  28.989  1.00  0.00     0.016 A 
ATOM     38  C   UNL A   1      39.995  31.410  30.696  1.00  0.00     0.016 A 
ATOM     39  C   UNL A   1      39.982  29.798  28.443  1.00  0.00     0.010 A 
ATOM     40  C   UNL A   1      41.204  31.024  30.090  1.00  0.00     0.010 A 
ATOM     41  C   UNL A   1      41.219  30.156  28.992  1.00  0.00    -0.014 A 
BRANCH  41  42
ATOM     42  C   UNL A   1      42.491  29.655  28.387  1.00  0.00     0.031 A 
ATOM     43  C   UNL A   1      42.719  28.198  28.024  1.00  0.00     0.074 A 
ATOM     44  C   UNL A   1      43.477  30.548  28.163  1.00  0.00     0.049 A 
ATOM     45  N   UNL A   1      43.820  27.602  27.632  1.00  0.00    -0.248 NA
ATOM     46  C   UNL A   1      41.560  27.299  28.079  1.00  0.00     0.031 C 
ATOM     47  C   UNL A   1      43.376  31.997  28.375  1.00  0.00     0.029 A 
ATOM     48  N   UNL A   1      44.768  30.372  27.736  1.00  0.00    -0.354 N 
ATOM     49  C   UNL A   1      43.488  26.265  27.403  1.00  0.00     0.074 A 
ATOM     50  C   UNL A   1      42.076  26.139  27.685  1.00  0.00     0.031 C 
ATOM     51  C   UNL A   1      44.543  32.572  28.081  1.00  0.00     0.029 A 
ATOM     52  C   UNL A   1      45.511  31.525  27.804  1.00  0.00     0.049 A 
ATOM     53  H   UNL A   1      45.124  29.511  27.416  1.00  0.00     0.167 HD
ATOM     54  C   UNL A   1      44.295  25.236  27.032  1.00  0.00     0.037 A 
ATOM     55  C   UNL A   1      46.839  31.727  27.762  1.00  0.00     0.037 A 
ATOM     56  C   UNL A   1      45.724  25.368  26.853  1.00  0.00     0.049 A 
ATOM     57  C   UNL A   1      47.740  30.555  27.554  1.00  0.00     0.074 A 
ATOM     58  C   UNL A   1      46.651  24.388  26.539  1.00  0.00     0.029 A 
ATOM     59  N   UNL A   1      46.438  26.548  27.016  1.00  0.00    -0.354 N 
ATOM     60  N   UNL A   1      47.420  29.296  27.377  1.00  0.00    -0.248 NA
ATOM     61  C   UNL A   1      49.179  30.828  27.543  1.00  0.00     0.031 C 
ATOM     62  C   UNL A   1      47.929  24.954  26.608  1.00  0.00     0.029 A 
ATOM     63  C   UNL A   1      47.796  26.309  26.865  1.00  0.00     0.049 A 
ATOM     64  H   UNL A   1      46.039  27.426  27.210  1.00  0.00     0.167 HD
ATOM     65  C   UNL A   1      48.622  28.627  27.194  1.00  0.00     0.074 A 
ATOM     66  C   UNL A   1      49.670  29.626  27.279  1.00  0.00     0.031 C 
ATOM     67  C   UNL A   1      48.833  27.307  26.963  1.00  0.00     0.037 A 
BRANCH  54  68
ATOM     68  C   UNL A   1      43.689  23.855  26.895  1.00  0.00     0.058 A 
ATOM     69  C   UNL A   1      43.349  23.064  28.005  1.00  0.00     0.135 A 
ATOM     70  C   UNL A   1      43.389  23.334  25.622  1.00  0.00     0.135 A 
ATOM     71  F   UNL A   1      43.610  23.498  29.249  1.00  0.00    -0.206 F 
ATOM     72  C   UNL A   1      42.766  21.803  27.859  1.00  0.00     0.059 A 
ATOM     73  C   UNL A   1      42.781  22.092  25.452  1.00  0.00     0.059 A 
ATOM     74  F   UNL A   1      43.680  24.043  24.519  1.00  0.00    -0.206 F 
ATOM     75  C   UNL A   1      42.487  21.324  26.576  1.00  0.00     0.060 A 
BRANCH  75  76
ATOM     76  S   UNL A   1      41.752  19.683  26.400  1.00  0.00     0.124 S 
ATOM     77  O   UNL A   1      42.172  19.040  27.641  1.00  0.00    -0.237 OA
ATOM     78  O   UNL A   1      40.329  19.988  26.293  1.00  0.00    -0.237 OA
ATOM     79  O   UNL A   1      42.371  19.159  25.185  1.00  0.00    -0.744 OA
ENDBRANCH  75  76
ENDBRANCH  54  68
BRANCH  55  80
ATOM     80  C   UNL A   1      47.363  33.099  27.985  1.00  0.00     0.058 A 
ATOM     81  C   UNL A   1      47.845  33.483  29.240  1.00  0.00     0.135 A 
ATOM     82  C   UNL A   1      47.479  34.016  26.923  1.00  0.00     0.135 A 
ATOM     83  F   UNL A   1      47.753  32.641  30.280  1.00  0.00    -0.206 F 
ATOM     84  C   UNL A   1      48.432  34.727  29.439  1.00  0.00     0.059 A 
ATOM     85  C   UNL A   1      48.097  35.249  27.088  1.00  0.00     0.059 A 
ATOM     86  F   UNL A   1      47.055  33.682  25.694  1.00  0.00    -0.206 F 
ATOM     87  C   UNL A   1      48.566  35.596  28.353  1.00  0.00     0.060 A 
BRANCH  87  88
ATOM     88  S   UNL A   1      49.406  37.172  28.614  1.00  0.00     0.124 S 
ATOM     89  O   UNL A   1      49.766  37.081  30.024  1.00  0.00    -0.237 OA
ATOM     90  O   UNL A   1      50.511  37.085  27.664  1.00  0.00    -0.237 OA
ATOM     91  O   UNL A   1      48.381  38.158  28.285  1.00  0.00    -0.744 OA
ENDBRANCH  87  88
ENDBRANCH  55  80
BRANCH  67  92
ATOM     92  C   UNL A   1      50.256  26.879  26.734  1.00  0.00     0.058 A 
ATOM     93  C   UNL A   1      50.828  26.839  25.453  1.00  0.00     0.135 A 
ATOM     94  C   UNL A   1      51.062  26.509  27.823  1.00  0.00     0.135 A 
ATOM     95  F   UNL A   1      50.098  27.167  24.374  1.00  0.00    -0.206 F 
ATOM     96  C   UNL A   1      52.138  26.414  25.256  1.00  0.00     0.059 A 
ATOM     97  C   UNL A   1      52.385  26.118  27.655  1.00  0.00     0.059 A 
ATOM     98  F   UNL A   1      50.565  26.531  29.072  1.00  0.00    -0.206 F 
ATOM     99  C   UNL A   1      52.908  26.059  26.364  1.00  0.00     0.060 A 
BRANCH  99 100
ATOM    100  S   UNL A   1      54.613  25.532  26.097  1.00  0.00     0.124 S 
ATOM    101  O   UNL A   1      54.451  24.538  25.041  1.00  0.00    -0.237 OA
ATOM    102  O   UNL A   1      55.263  26.777  25.701  1.00  0.00    -0.237 OA
ATOM    103  O   UNL A   1      55.015  25.005  27.398  1.00  0.00    -0.744 OA
ENDBRANCH  99 100
ENDBRANCH  67  92
ENDBRANCH  41  42
ENDBRANCH  34  36
ENDBRANCH  33  34
ENDBRANCH  32  33
ENDBRANCH  31  32
ENDBRANCH  30  31
ENDBRANCH  29  30
ENDBRANCH   1  29
TORSDOF 27
ENDMDL
