MODEL 1
REMARK VINA RESULT:     -10.8      0.000      0.000
REMARK SMILES [NH3+][C@H]1CN(C(=O)OCC2c3ccccc3-c3ccccc32)C[C@@H]1C(=O)OCCOCCOCCOC(=O)c1ccc(-c2c3nc(c(-c4c(F)cc(S(=O)(=O)[O-])cc4F)c4ccc([nH]4)c(-c4c(F)cc(S(=O)(=O)[O-])cc4F)c4nc(c(-c5c(F)cc(S(=O)(=O)[O-])cc5F)c5ccc2[nH]5)C=C4)C=C3)cc1
REMARK SMILES IDX 30 1 29 2 28 3 27 4 26 5 24 6 25 7 23 8 2 9 3 10 4 11 22 12
REMARK SMILES IDX 1 13 5 17 6 18 7 19 8 20 9 21 10 22 21 23 11 24 15 25 16 26
REMARK SMILES IDX 20 27 12 28 14 29 17 30 19 31 13 32 18 33 31 34 32 35 33 36
REMARK SMILES IDX 34 37 35 38 36 39 37 40 38 41 39 42 103 43 40 44 102 45
REMARK SMILES IDX 41 46 42 47 43 48 96 49 44 50 101 51 95 52 97 53 45 54
REMARK SMILES IDX 100 55 94 56 93 57 46 59 80 60 59 61 79 62 60 63 63 64 78 65
REMARK SMILES IDX 98 66 61 67 62 68 77 70 99 71 64 72 47 73 48 74 57 75 49 76
REMARK SMILES IDX 50 77 56 78 58 79 51 80 52 81 53 82 54 83 55 84 81 85 82 86
REMARK SMILES IDX 91 87 83 88 84 89 90 90 92 91 85 92 86 93 87 94 88 95 89 96
REMARK SMILES IDX 65 97 66 98 75 99 67 100 68 101 74 102 76 103 69 104 70 105
REMARK SMILES IDX 71 106 72 107 73 108
REMARK H PARENT 1 14 1 15 1 16 97 58 63 69
REMARK Flexibility Score: inf
ROOT
ATOM      1  C   UNL A   1      40.614  21.213  27.070  1.00  0.00     0.188 C 
ENDROOT
BRANCH   1   2
ATOM      2  O   UNL A   1      39.671  21.881  26.269  1.00  0.00    -0.376 OA
BRANCH   2   3
ATOM      3  C   UNL A   1      38.631  21.152  25.646  1.00  0.00     0.202 C 
BRANCH   3   4
ATOM      4  C   UNL A   1      37.405  21.763  24.935  1.00  0.00     0.261 C 
BRANCH   4   5
ATOM      5  O   UNL A   1      36.107  21.584  25.515  1.00  0.00    -0.463 OA
BRANCH   5   6
ATOM      6  C   UNL A   1      35.471  22.716  25.928  1.00  0.00     0.316 C 
ATOM      7  O   UNL A   1      36.046  23.774  26.136  1.00  0.00    -0.252 OA
BRANCH   6   8
ATOM      8  C   UNL A   1      33.962  22.488  26.021  1.00  0.00     0.178 C 
ATOM      9  C   UNL A   1      33.439  21.424  25.028  1.00  0.00     0.216 C 
ATOM     10  C   UNL A   1      33.405  22.188  23.693  1.00  0.00     0.188 C 
ATOM     11  N   UNL A   1      33.296  23.581  24.090  1.00  0.00    -0.301 N 
ATOM     12  C   UNL A   1      33.269  23.743  25.530  1.00  0.00     0.145 C 
BRANCH   9  13
ATOM     13  N   UNL A   1      32.104  20.914  25.390  1.00  0.00    -0.353 N 
ATOM     14  H   UNL A   1      31.759  20.307  24.647  1.00  0.00     0.344 HD
ATOM     15  H   UNL A   1      31.463  21.698  25.514  1.00  0.00     0.344 HD
ATOM     16  H   UNL A   1      32.166  20.385  26.259  1.00  0.00     0.344 HD
ENDBRANCH   9  13
BRANCH  11  17
ATOM     17  C   UNL A   1      33.660  24.619  23.284  1.00  0.00     0.410 C 
ATOM     18  O   UNL A   1      33.690  24.523  22.058  1.00  0.00    -0.224 OA
BRANCH  17  19
ATOM     19  O   UNL A   1      33.993  25.729  23.989  1.00  0.00    -0.448 OA
BRANCH  19  20
ATOM     20  C   UNL A   1      33.367  26.940  23.519  1.00  0.00     0.248 C 
BRANCH  20  21
ATOM     21  C   UNL A   1      32.350  27.418  24.562  1.00  0.00     0.088 C 
ATOM     22  C   UNL A   1      32.915  28.392  25.584  1.00  0.00    -0.029 A 
ATOM     23  C   UNL A   1      31.204  28.215  23.959  1.00  0.00    -0.029 A 
ATOM     24  C   UNL A   1      33.991  28.217  26.444  1.00  0.00     0.005 A 
ATOM     25  C   UNL A   1      32.138  29.568  25.609  1.00  0.00    -0.014 A 
ATOM     26  C   UNL A   1      31.096  29.464  24.607  1.00  0.00    -0.014 A 
ATOM     27  C   UNL A   1      30.342  27.842  22.938  1.00  0.00     0.005 A 
ATOM     28  C   UNL A   1      34.293  29.234  27.345  1.00  0.00     0.000 A 
ATOM     29  C   UNL A   1      32.440  30.579  26.507  1.00  0.00     0.009 A 
ATOM     30  C   UNL A   1      30.118  30.362  24.221  1.00  0.00     0.009 A 
ATOM     31  C   UNL A   1      29.361  28.752  22.547  1.00  0.00     0.000 A 
ATOM     32  C   UNL A   1      33.522  30.404  27.378  1.00  0.00     0.001 A 
ATOM     33  C   UNL A   1      29.252  30.000  23.183  1.00  0.00     0.001 A 
ENDBRANCH  20  21
ENDBRANCH  19  20
ENDBRANCH  17  19
ENDBRANCH  11  17
ENDBRANCH   6   8
ENDBRANCH   5   6
ENDBRANCH   4   5
ENDBRANCH   3   4
ENDBRANCH   2   3
ENDBRANCH   1   2
BRANCH   1  34
ATOM     34  C   UNL A   1      41.781  20.566  26.285  1.00  0.00     0.188 C 
BRANCH  34  35
ATOM     35  O   UNL A   1      42.630  21.374  25.490  1.00  0.00    -0.376 OA
BRANCH  35  36
ATOM     36  C   UNL A   1      43.771  21.968  26.087  1.00  0.00     0.202 C 
BRANCH  36  37
ATOM     37  C   UNL A   1      44.116  23.457  25.889  1.00  0.00     0.261 C 
BRANCH  37  38
ATOM     38  O   UNL A   1      43.517  24.398  26.796  1.00  0.00    -0.460 OA
BRANCH  38  39
ATOM     39  C   UNL A   1      42.766  25.375  26.225  1.00  0.00     0.338 C 
ATOM     40  O   UNL A   1      42.428  25.448  25.057  1.00  0.00    -0.246 OA
BRANCH  39  41
ATOM     41  C   UNL A   1      42.248  26.286  27.271  1.00  0.00     0.060 A 
ATOM     42  C   UNL A   1      42.884  27.521  27.472  1.00  0.00     0.016 A 
ATOM     43  C   UNL A   1      41.189  25.900  28.090  1.00  0.00     0.016 A 
ATOM     44  C   UNL A   1      42.474  28.363  28.509  1.00  0.00     0.010 A 
ATOM     45  C   UNL A   1      40.795  26.734  29.144  1.00  0.00     0.010 A 
ATOM     46  C   UNL A   1      41.454  27.957  29.378  1.00  0.00    -0.014 A 
BRANCH  46  47
ATOM     47  C   UNL A   1      41.187  28.719  30.626  1.00  0.00     0.031 A 
ATOM     48  C   UNL A   1      40.074  29.733  30.630  1.00  0.00     0.074 A 
ATOM     49  C   UNL A   1      41.912  28.513  31.742  1.00  0.00     0.049 A 
ATOM     50  N   UNL A   1      39.716  30.573  31.567  1.00  0.00    -0.248 NA
ATOM     51  C   UNL A   1      39.257  29.811  29.408  1.00  0.00     0.031 C 
ATOM     52  C   UNL A   1      42.983  27.527  31.886  1.00  0.00     0.029 A 
ATOM     53  N   UNL A   1      41.865  29.137  32.965  1.00  0.00    -0.354 N 
ATOM     54  C   UNL A   1      38.645  31.290  31.044  1.00  0.00     0.074 A 
ATOM     55  C   UNL A   1      38.428  30.802  29.699  1.00  0.00     0.031 C 
ATOM     56  C   UNL A   1      43.501  27.623  33.123  1.00  0.00     0.029 A 
ATOM     57  C   UNL A   1      42.829  28.704  33.844  1.00  0.00     0.049 A 
ATOM     58  H   UNL A   1      41.202  29.830  33.191  1.00  0.00     0.167 HD
ATOM     59  C   UNL A   1      37.908  32.263  31.632  1.00  0.00     0.037 A 
ATOM     60  C   UNL A   1      43.154  29.149  35.077  1.00  0.00     0.037 A 
ATOM     61  C   UNL A   1      38.130  32.744  32.972  1.00  0.00     0.049 A 
ATOM     62  C   UNL A   1      42.373  30.292  35.680  1.00  0.00     0.074 A 
ATOM     63  C   UNL A   1      37.425  33.714  33.664  1.00  0.00     0.029 A 
ATOM     64  N   UNL A   1      39.136  32.302  33.819  1.00  0.00    -0.354 N 
ATOM     65  N   UNL A   1      41.352  30.952  35.182  1.00  0.00    -0.248 NA
ATOM     66  C   UNL A   1      42.788  30.752  37.013  1.00  0.00     0.031 C 
ATOM     67  C   UNL A   1      38.045  33.903  34.903  1.00  0.00     0.029 A 
ATOM     68  C   UNL A   1      39.092  33.003  35.014  1.00  0.00     0.049 A 
ATOM     69  H   UNL A   1      39.787  31.597  33.602  1.00  0.00     0.167 HD
ATOM     70  C   UNL A   1      40.984  31.879  36.156  1.00  0.00     0.074 A 
ATOM     71  C   UNL A   1      41.885  31.688  37.273  1.00  0.00     0.031 C 
ATOM     72  C   UNL A   1      39.986  32.798  36.128  1.00  0.00     0.037 A 
BRANCH  59  73
ATOM     73  C   UNL A   1      36.814  32.900  30.818  1.00  0.00     0.058 A 
ATOM     74  C   UNL A   1      35.472  32.505  30.933  1.00  0.00     0.135 A 
ATOM     75  C   UNL A   1      37.111  33.950  29.932  1.00  0.00     0.135 A 
ATOM     76  F   UNL A   1      35.131  31.498  31.751  1.00  0.00    -0.206 F 
ATOM     77  C   UNL A   1      34.468  33.106  30.176  1.00  0.00     0.059 A 
ATOM     78  C   UNL A   1      36.120  34.587  29.190  1.00  0.00     0.059 A 
ATOM     79  F   UNL A   1      38.378  34.369  29.780  1.00  0.00    -0.206 F 
ATOM     80  C   UNL A   1      34.802  34.147  29.309  1.00  0.00     0.060 A 
BRANCH  80  81
ATOM     81  S   UNL A   1      33.490  34.916  28.339  1.00  0.00     0.124 S 
ATOM     82  O   UNL A   1      34.234  35.426  27.192  1.00  0.00    -0.237 OA
ATOM     83  O   UNL A   1      32.602  33.789  28.069  1.00  0.00    -0.237 OA
ATOM     84  O   UNL A   1      32.951  35.933  29.238  1.00  0.00    -0.744 OA
ENDBRANCH  80  81
ENDBRANCH  59  73
BRANCH  60  85
ATOM     85  C   UNL A   1      44.290  28.535  35.819  1.00  0.00     0.058 A 
ATOM     86  C   UNL A   1      45.611  28.961  35.612  1.00  0.00     0.135 A 
ATOM     87  C   UNL A   1      44.079  27.494  36.738  1.00  0.00     0.135 A 
ATOM     88  F   UNL A   1      45.869  29.943  34.734  1.00  0.00    -0.206 F 
ATOM     89  C   UNL A   1      46.683  28.366  36.273  1.00  0.00     0.059 A 
ATOM     90  C   UNL A   1      45.130  26.904  37.433  1.00  0.00     0.059 A 
ATOM     91  F   UNL A   1      42.835  27.051  36.979  1.00  0.00    -0.206 F 
ATOM     92  C   UNL A   1      46.431  27.338  37.182  1.00  0.00     0.060 A 
BRANCH  92  93
ATOM     93  S   UNL A   1      47.825  26.583  38.048  1.00  0.00     0.124 S 
ATOM     94  O   UNL A   1      48.013  25.354  37.286  1.00  0.00    -0.237 OA
ATOM     95  O   UNL A   1      48.866  27.594  37.893  1.00  0.00    -0.237 OA
ATOM     96  O   UNL A   1      47.323  26.412  39.408  1.00  0.00    -0.744 OA
ENDBRANCH  92  93
ENDBRANCH  60  85
BRANCH  72  97
ATOM     97  C   UNL A   1      39.774  33.643  37.358  1.00  0.00     0.058 A 
ATOM     98  C   UNL A   1      40.438  34.865  37.549  1.00  0.00     0.135 A 
ATOM     99  C   UNL A   1      38.841  33.250  38.333  1.00  0.00     0.135 A 
ATOM    100  F   UNL A   1      41.344  35.288  36.653  1.00  0.00    -0.206 F 
ATOM    101  C   UNL A   1      40.205  35.652  38.673  1.00  0.00     0.059 A 
ATOM    102  C   UNL A   1      38.567  34.037  39.447  1.00  0.00     0.059 A 
ATOM    103  F   UNL A   1      38.165  32.097  38.197  1.00  0.00    -0.206 F 
ATOM    104  C   UNL A   1      39.264  35.232  39.615  1.00  0.00     0.060 A 
BRANCH 104 105
ATOM    105  S   UNL A   1      38.946  36.282  41.051  1.00  0.00     0.124 S 
ATOM    106  O   UNL A   1      38.581  37.545  40.416  1.00  0.00    -0.237 OA
ATOM    107  O   UNL A   1      37.862  35.572  41.722  1.00  0.00    -0.237 OA
ATOM    108  O   UNL A   1      40.222  36.283  41.761  1.00  0.00    -0.744 OA
ENDBRANCH 104 105
ENDBRANCH  72  97
ENDBRANCH  46  47
ENDBRANCH  39  41
ENDBRANCH  38  39
ENDBRANCH  37  38
ENDBRANCH  36  37
ENDBRANCH  35  36
ENDBRANCH  34  35
ENDBRANCH   1  34
TORSDOF 25
ENDMDL
MODEL 2
REMARK VINA RESULT:     -10.7      0.903      7.810
REMARK SMILES [NH3+][C@H]1CN(C(=O)OCC2c3ccccc3-c3ccccc32)C[C@@H]1C(=O)OCCOCCOCCOC(=O)c1ccc(-c2c3nc(c(-c4c(F)cc(S(=O)(=O)[O-])cc4F)c4ccc([nH]4)c(-c4c(F)cc(S(=O)(=O)[O-])cc4F)c4nc(c(-c5c(F)cc(S(=O)(=O)[O-])cc5F)c5ccc2[nH]5)C=C4)C=C3)cc1
REMARK SMILES IDX 30 1 29 2 28 3 27 4 26 5 24 6 25 7 23 8 2 9 3 10 4 11 22 12
REMARK SMILES IDX 1 13 5 17 6 18 7 19 8 20 9 21 10 22 21 23 11 24 15 25 16 26
REMARK SMILES IDX 20 27 12 28 14 29 17 30 19 31 13 32 18 33 31 34 32 35 33 36
REMARK SMILES IDX 34 37 35 38 36 39 37 40 38 41 39 42 103 43 40 44 102 45
REMARK SMILES IDX 41 46 42 47 43 48 96 49 44 50 101 51 95 52 97 53 45 54
REMARK SMILES IDX 100 55 94 56 93 57 46 59 80 60 59 61 79 62 60 63 63 64 78 65
REMARK SMILES IDX 98 66 61 67 62 68 77 70 99 71 64 72 47 73 48 74 57 75 49 76
REMARK SMILES IDX 50 77 56 78 58 79 51 80 52 81 53 82 54 83 55 84 81 85 82 86
REMARK SMILES IDX 91 87 83 88 84 89 90 90 92 91 85 92 86 93 87 94 88 95 89 96
REMARK SMILES IDX 65 97 66 98 75 99 67 100 68 101 74 102 76 103 69 104 70 105
REMARK SMILES IDX 71 106 72 107 73 108
REMARK H PARENT 1 14 1 15 1 16 97 58 63 69
REMARK Flexibility Score: inf
ROOT
ATOM      1  C   UNL A   1      40.507  20.527  26.871  1.00  0.00     0.188 C 
ENDROOT
BRANCH   1   2
ATOM      2  O   UNL A   1      39.705  21.437  26.161  1.00  0.00    -0.376 OA
BRANCH   2   3
ATOM      3  C   UNL A   1      38.531  20.988  25.512  1.00  0.00     0.202 C 
BRANCH   3   4
ATOM      4  C   UNL A   1      37.386  21.886  24.998  1.00  0.00     0.261 C 
BRANCH   4   5
ATOM      5  O   UNL A   1      36.036  21.421  25.110  1.00  0.00    -0.463 OA
BRANCH   5   6
ATOM      6  C   UNL A   1      35.218  22.141  25.928  1.00  0.00     0.316 C 
ATOM      7  O   UNL A   1      35.325  23.346  26.098  1.00  0.00    -0.252 OA
BRANCH   6   8
ATOM      8  C   UNL A   1      34.132  21.249  26.530  1.00  0.00     0.178 C 
ATOM      9  C   UNL A   1      33.607  20.174  25.551  1.00  0.00     0.216 C 
ATOM     10  C   UNL A   1      32.668  20.974  24.632  1.00  0.00     0.188 C 
ATOM     11  N   UNL A   1      32.283  22.119  25.440  1.00  0.00    -0.301 N 
ATOM     12  C   UNL A   1      32.898  22.100  26.751  1.00  0.00     0.145 C 
BRANCH   9  13
ATOM     13  N   UNL A   1      32.889  19.082  26.235  1.00  0.00    -0.353 N 
ATOM     14  H   UNL A   1      33.453  18.233  26.205  1.00  0.00     0.344 HD
ATOM     15  H   UNL A   1      31.998  18.915  25.766  1.00  0.00     0.344 HD
ATOM     16  H   UNL A   1      32.718  19.343  27.205  1.00  0.00     0.344 HD
ENDBRANCH   9  13
BRANCH  11  17
ATOM     17  C   UNL A   1      31.822  23.287  24.908  1.00  0.00     0.410 C 
ATOM     18  O   UNL A   1      31.111  23.321  23.905  1.00  0.00    -0.224 OA
BRANCH  17  19
ATOM     19  O   UNL A   1      32.251  24.374  25.596  1.00  0.00    -0.448 OA
BRANCH  19  20
ATOM     20  C   UNL A   1      32.369  25.572  24.803  1.00  0.00     0.248 C 
BRANCH  20  21
ATOM     21  C   UNL A   1      31.625  26.714  25.504  1.00  0.00     0.088 C 
ATOM     22  C   UNL A   1      32.524  27.840  25.992  1.00  0.00    -0.029 A 
ATOM     23  C   UNL A   1      30.659  27.450  24.589  1.00  0.00    -0.029 A 
ATOM     24  C   UNL A   1      33.608  27.767  26.857  1.00  0.00     0.005 A 
ATOM     25  C   UNL A   1      32.078  29.071  25.475  1.00  0.00    -0.014 A 
ATOM     26  C   UNL A   1      30.941  28.833  24.607  1.00  0.00    -0.014 A 
ATOM     27  C   UNL A   1      29.626  26.923  23.828  1.00  0.00     0.005 A 
ATOM     28  C   UNL A   1      34.253  28.949  27.212  1.00  0.00     0.000 A 
ATOM     29  C   UNL A   1      32.720  30.246  25.829  1.00  0.00     0.009 A 
ATOM     30  C   UNL A   1      30.186  29.704  23.843  1.00  0.00     0.009 A 
ATOM     31  C   UNL A   1      28.870  27.803  23.055  1.00  0.00     0.000 A 
ATOM     32  C   UNL A   1      33.811  30.179  26.705  1.00  0.00     0.001 A 
ATOM     33  C   UNL A   1      29.149  29.180  23.063  1.00  0.00     0.001 A 
ENDBRANCH  20  21
ENDBRANCH  19  20
ENDBRANCH  17  19
ENDBRANCH  11  17
ENDBRANCH   6   8
ENDBRANCH   5   6
ENDBRANCH   4   5
ENDBRANCH   3   4
ENDBRANCH   2   3
ENDBRANCH   1   2
BRANCH   1  34
ATOM     34  C   UNL A   1      41.805  20.105  26.139  1.00  0.00     0.188 C 
BRANCH  34  35
ATOM     35  O   UNL A   1      42.576  21.077  25.455  1.00  0.00    -0.376 OA
BRANCH  35  36
ATOM     36  C   UNL A   1      43.606  21.753  26.156  1.00  0.00     0.202 C 
BRANCH  36  37
ATOM     37  C   UNL A   1      43.836  23.270  26.007  1.00  0.00     0.261 C 
BRANCH  37  38
ATOM     38  O   UNL A   1      43.202  24.129  26.970  1.00  0.00    -0.460 OA
BRANCH  38  39
ATOM     39  C   UNL A   1      41.945  24.539  26.661  1.00  0.00     0.338 C 
ATOM     40  O   UNL A   1      41.164  23.994  25.899  1.00  0.00    -0.246 OA
BRANCH  39  41
ATOM     41  C   UNL A   1      41.561  25.679  27.523  1.00  0.00     0.060 A 
ATOM     42  C   UNL A   1      42.379  26.820  27.545  1.00  0.00     0.016 A 
ATOM     43  C   UNL A   1      40.444  25.600  28.353  1.00  0.00     0.016 A 
ATOM     44  C   UNL A   1      42.092  27.876  28.414  1.00  0.00     0.010 A 
ATOM     45  C   UNL A   1      40.172  26.649  29.240  1.00  0.00     0.010 A 
ATOM     46  C   UNL A   1      41.010  27.780  29.297  1.00  0.00    -0.014 A 
BRANCH  46  47
ATOM     47  C   UNL A   1      40.849  28.771  30.393  1.00  0.00     0.031 A 
ATOM     48  C   UNL A   1      41.738  28.661  31.604  1.00  0.00     0.074 A 
ATOM     49  C   UNL A   1      39.936  29.758  30.318  1.00  0.00     0.049 A 
ATOM     50  N   UNL A   1      41.721  29.352  32.715  1.00  0.00    -0.248 NA
ATOM     51  C   UNL A   1      42.785  27.628  31.554  1.00  0.00     0.031 C 
ATOM     52  C   UNL A   1      39.050  30.006  29.181  1.00  0.00     0.029 A 
ATOM     53  N   UNL A   1      39.594  30.729  31.227  1.00  0.00    -0.354 N 
ATOM     54  C   UNL A   1      42.741  28.828  33.502  1.00  0.00     0.074 A 
ATOM     55  C   UNL A   1      43.340  27.746  32.750  1.00  0.00     0.031 C 
ATOM     56  C   UNL A   1      38.255  31.052  29.468  1.00  0.00     0.029 A 
ATOM     57  C   UNL A   1      38.546  31.521  30.823  1.00  0.00     0.049 A 
ATOM     58  H   UNL A   1      40.057  30.847  32.089  1.00  0.00     0.167 HD
ATOM     59  C   UNL A   1      43.144  29.215  34.736  1.00  0.00     0.037 A 
ATOM     60  C   UNL A   1      37.877  32.492  31.481  1.00  0.00     0.037 A 
ATOM     61  C   UNL A   1      42.542  30.293  35.479  1.00  0.00     0.049 A 
ATOM     62  C   UNL A   1      38.288  32.851  32.888  1.00  0.00     0.074 A 
ATOM     63  C   UNL A   1      42.891  30.773  36.730  1.00  0.00     0.029 A 
ATOM     64  N   UNL A   1      41.462  31.050  35.048  1.00  0.00    -0.354 N 
ATOM     65  N   UNL A   1      39.264  32.359  33.617  1.00  0.00    -0.248 NA
ATOM     66  C   UNL A   1      37.507  33.895  33.566  1.00  0.00     0.031 C 
ATOM     67  C   UNL A   1      41.982  31.777  37.081  1.00  0.00     0.029 A 
ATOM     68  C   UNL A   1      41.111  31.972  36.022  1.00  0.00     0.049 A 
ATOM     69  H   UNL A   1      41.011  30.947  34.180  1.00  0.00     0.167 HD
ATOM     70  C   UNL A   1      39.234  33.059  34.821  1.00  0.00     0.074 A 
ATOM     71  C   UNL A   1      38.150  34.014  34.720  1.00  0.00     0.031 C 
ATOM     72  C   UNL A   1      40.036  32.928  35.908  1.00  0.00     0.037 A 
BRANCH  59  73
ATOM     73  C   UNL A   1      44.266  28.445  35.379  1.00  0.00     0.058 A 
ATOM     74  C   UNL A   1      45.609  28.829  35.241  1.00  0.00     0.135 A 
ATOM     75  C   UNL A   1      43.988  27.322  36.177  1.00  0.00     0.135 A 
ATOM     76  F   UNL A   1      45.937  29.884  34.478  1.00  0.00    -0.206 F 
ATOM     77  C   UNL A   1      46.638  28.110  35.844  1.00  0.00     0.059 A 
ATOM     78  C   UNL A   1      44.998  26.608  36.817  1.00  0.00     0.059 A 
ATOM     79  F   UNL A   1      42.722  26.908  36.344  1.00  0.00    -0.206 F 
ATOM     80  C   UNL A   1      46.322  27.002  36.632  1.00  0.00     0.060 A 
BRANCH  80  81
ATOM     81  S   UNL A   1      47.667  26.084  37.409  1.00  0.00     0.124 S 
ATOM     82  O   UNL A   1      47.721  26.707  38.728  1.00  0.00    -0.237 OA
ATOM     83  O   UNL A   1      47.167  24.713  37.376  1.00  0.00    -0.237 OA
ATOM     84  O   UNL A   1      48.811  26.353  36.543  1.00  0.00    -0.744 OA
ENDBRANCH  80  81
ENDBRANCH  59  73
BRANCH  60  85
ATOM     85  C   UNL A   1      36.727  33.180  30.831  1.00  0.00     0.058 A 
ATOM     86  C   UNL A   1      36.926  34.169  29.855  1.00  0.00     0.135 A 
ATOM     87  C   UNL A   1      35.402  32.875  31.186  1.00  0.00     0.135 A 
ATOM     88  F   UNL A   1      38.172  34.508  29.489  1.00  0.00    -0.206 F 
ATOM     89  C   UNL A   1      35.858  34.844  29.269  1.00  0.00     0.059 A 
ATOM     90  C   UNL A   1      34.318  33.514  30.593  1.00  0.00     0.059 A 
ATOM     91  F   UNL A   1      35.153  31.933  32.108  1.00  0.00    -0.206 F 
ATOM     92  C   UNL A   1      34.557  34.508  29.645  1.00  0.00     0.060 A 
BRANCH  92  93
ATOM     93  S   UNL A   1      33.177  35.377  28.869  1.00  0.00     0.124 S 
ATOM     94  O   UNL A   1      32.527  34.297  28.134  1.00  0.00    -0.237 OA
ATOM     95  O   UNL A   1      32.448  35.889  30.025  1.00  0.00    -0.237 OA
ATOM     96  O   UNL A   1      33.834  36.390  28.050  1.00  0.00    -0.744 OA
ENDBRANCH  92  93
ENDBRANCH  60  85
BRANCH  72  97
ATOM     97  C   UNL A   1      39.812  33.868  37.064  1.00  0.00     0.058 A 
ATOM     98  C   UNL A   1      40.406  35.139  37.120  1.00  0.00     0.135 A 
ATOM     99  C   UNL A   1      38.936  33.513  38.105  1.00  0.00     0.135 A 
ATOM    100  F   UNL A   1      41.255  35.530  36.156  1.00  0.00    -0.206 F 
ATOM    101  C   UNL A   1      40.162  36.011  38.177  1.00  0.00     0.059 A 
ATOM    102  C   UNL A   1      38.651  34.381  39.154  1.00  0.00     0.059 A 
ATOM    103  F   UNL A   1      38.329  32.315  38.098  1.00  0.00    -0.206 F 
ATOM    104  C   UNL A   1      39.279  35.625  39.188  1.00  0.00     0.060 A 
BRANCH 104 105
ATOM    105  S   UNL A   1      38.944  36.782  40.534  1.00  0.00     0.124 S 
ATOM    106  O   UNL A   1      38.321  37.892  39.820  1.00  0.00    -0.237 OA
ATOM    107  O   UNL A   1      38.059  36.007  41.398  1.00  0.00    -0.237 OA
ATOM    108  O   UNL A   1      40.268  37.055  41.086  1.00  0.00    -0.744 OA
ENDBRANCH 104 105
ENDBRANCH  72  97
ENDBRANCH  46  47
ENDBRANCH  39  41
ENDBRANCH  38  39
ENDBRANCH  37  38
ENDBRANCH  36  37
ENDBRANCH  35  36
ENDBRANCH  34  35
ENDBRANCH   1  34
TORSDOF 25
ENDMDL
MODEL 3
REMARK VINA RESULT:     -10.7      5.886     12.181
REMARK SMILES [NH3+][C@H]1CN(C(=O)OCC2c3ccccc3-c3ccccc32)C[C@@H]1C(=O)OCCOCCOCCOC(=O)c1ccc(-c2c3nc(c(-c4c(F)cc(S(=O)(=O)[O-])cc4F)c4ccc([nH]4)c(-c4c(F)cc(S(=O)(=O)[O-])cc4F)c4nc(c(-c5c(F)cc(S(=O)(=O)[O-])cc5F)c5ccc2[nH]5)C=C4)C=C3)cc1
REMARK SMILES IDX 30 1 29 2 28 3 27 4 26 5 24 6 25 7 23 8 2 9 3 10 4 11 22 12
REMARK SMILES IDX 1 13 5 17 6 18 7 19 8 20 9 21 10 22 21 23 11 24 15 25 16 26
REMARK SMILES IDX 20 27 12 28 14 29 17 30 19 31 13 32 18 33 31 34 32 35 33 36
REMARK SMILES IDX 34 37 35 38 36 39 37 40 38 41 39 42 103 43 40 44 102 45
REMARK SMILES IDX 41 46 42 47 43 48 96 49 44 50 101 51 95 52 97 53 45 54
REMARK SMILES IDX 100 55 94 56 93 57 46 59 80 60 59 61 79 62 60 63 63 64 78 65
REMARK SMILES IDX 98 66 61 67 62 68 77 70 99 71 64 72 47 73 48 74 57 75 49 76
REMARK SMILES IDX 50 77 56 78 58 79 51 80 52 81 53 82 54 83 55 84 81 85 82 86
REMARK SMILES IDX 91 87 83 88 84 89 90 90 92 91 85 92 86 93 87 94 88 95 89 96
REMARK SMILES IDX 65 97 66 98 75 99 67 100 68 101 74 102 76 103 69 104 70 105
REMARK SMILES IDX 71 106 72 107 73 108
REMARK H PARENT 1 14 1 15 1 16 97 58 63 69
REMARK Flexibility Score: inf
ROOT
ATOM      1  C   UNL A   1      33.311  33.664  28.401  1.00  0.00     0.188 C 
ENDROOT
BRANCH   1   2
ATOM      2  O   UNL A   1      34.148  32.642  27.920  1.00  0.00    -0.376 OA
BRANCH   2   3
ATOM      3  C   UNL A   1      33.621  31.352  27.680  1.00  0.00     0.202 C 
BRANCH   3   4
ATOM      4  C   UNL A   1      32.812  30.926  26.436  1.00  0.00     0.261 C 
BRANCH   4   5
ATOM      5  O   UNL A   1      32.373  29.567  26.326  1.00  0.00    -0.463 OA
BRANCH   5   6
ATOM      6  C   UNL A   1      33.254  28.696  25.759  1.00  0.00     0.316 C 
ATOM      7  O   UNL A   1      34.021  27.996  26.404  1.00  0.00    -0.252 OA
BRANCH   6   8
ATOM      8  C   UNL A   1      33.095  28.675  24.239  1.00  0.00     0.178 C 
ATOM      9  C   UNL A   1      31.641  28.914  23.770  1.00  0.00     0.216 C 
ATOM     10  C   UNL A   1      30.970  27.553  24.022  1.00  0.00     0.188 C 
ATOM     11  N   UNL A   1      32.075  26.609  23.995  1.00  0.00    -0.301 N 
ATOM     12  C   UNL A   1      33.348  27.260  23.761  1.00  0.00     0.145 C 
BRANCH   9  13
ATOM     13  N   UNL A   1      31.555  29.302  22.350  1.00  0.00    -0.353 N 
ATOM     14  H   UNL A   1      32.282  28.820  21.822  1.00  0.00     0.344 HD
ATOM     15  H   UNL A   1      31.685  30.310  22.264  1.00  0.00     0.344 HD
ATOM     16  H   UNL A   1      30.640  29.045  21.982  1.00  0.00     0.344 HD
ENDBRANCH   9  13
BRANCH  11  17
ATOM     17  C   UNL A   1      32.022  25.381  24.583  1.00  0.00     0.410 C 
ATOM     18  O   UNL A   1      31.034  24.653  24.506  1.00  0.00    -0.224 OA
BRANCH  17  19
ATOM     19  O   UNL A   1      33.160  25.082  25.258  1.00  0.00    -0.448 OA
BRANCH  19  20
ATOM     20  C   UNL A   1      33.258  23.706  25.677  1.00  0.00     0.248 C 
BRANCH  20  21
ATOM     21  C   UNL A   1      34.158  22.944  24.698  1.00  0.00     0.088 C 
ATOM     22  C   UNL A   1      35.612  22.843  25.133  1.00  0.00    -0.029 A 
ATOM     23  C   UNL A   1      33.769  21.483  24.540  1.00  0.00    -0.029 A 
ATOM     24  C   UNL A   1      36.497  23.869  25.435  1.00  0.00     0.005 A 
ATOM     25  C   UNL A   1      36.017  21.494  25.148  1.00  0.00    -0.014 A 
ATOM     26  C   UNL A   1      34.886  20.659  24.795  1.00  0.00    -0.014 A 
ATOM     27  C   UNL A   1      32.534  20.955  24.191  1.00  0.00     0.005 A 
ATOM     28  C   UNL A   1      37.811  23.539  25.756  1.00  0.00     0.000 A 
ATOM     29  C   UNL A   1      37.325  21.167  25.467  1.00  0.00     0.009 A 
ATOM     30  C   UNL A   1      34.766  19.284  24.712  1.00  0.00     0.009 A 
ATOM     31  C   UNL A   1      32.415  19.569  24.114  1.00  0.00     0.000 A 
ATOM     32  C   UNL A   1      38.222  22.199  25.769  1.00  0.00     0.001 A 
ATOM     33  C   UNL A   1      33.521  18.742  24.373  1.00  0.00     0.001 A 
ENDBRANCH  20  21
ENDBRANCH  19  20
ENDBRANCH  17  19
ENDBRANCH  11  17
ENDBRANCH   6   8
ENDBRANCH   5   6
ENDBRANCH   4   5
ENDBRANCH   3   4
ENDBRANCH   2   3
ENDBRANCH   1   2
BRANCH   1  34
ATOM     34  C   UNL A   1      33.983  34.622  29.415  1.00  0.00     0.188 C 
BRANCH  34  35
ATOM     35  O   UNL A   1      33.956  34.316  30.798  1.00  0.00    -0.376 OA
BRANCH  35  36
ATOM     36  C   UNL A   1      34.449  33.061  31.234  1.00  0.00     0.202 C 
BRANCH  36  37
ATOM     37  C   UNL A   1      35.929  32.848  31.609  1.00  0.00     0.261 C 
BRANCH  37  38
ATOM     38  O   UNL A   1      36.700  31.972  30.771  1.00  0.00    -0.460 OA
BRANCH  38  39
ATOM     39  C   UNL A   1      36.972  30.746  31.288  1.00  0.00     0.338 C 
ATOM     40  O   UNL A   1      36.279  30.109  32.062  1.00  0.00    -0.246 OA
BRANCH  39  41
ATOM     41  C   UNL A   1      38.180  30.185  30.643  1.00  0.00     0.060 A 
ATOM     42  C   UNL A   1      39.204  29.664  31.450  1.00  0.00     0.016 A 
ATOM     43  C   UNL A   1      38.334  30.232  29.258  1.00  0.00     0.016 A 
ATOM     44  C   UNL A   1      40.393  29.209  30.874  1.00  0.00     0.010 A 
ATOM     45  C   UNL A   1      39.536  29.798  28.685  1.00  0.00     0.010 A 
ATOM     46  C   UNL A   1      40.583  29.311  29.491  1.00  0.00    -0.014 A 
BRANCH  46  47
ATOM     47  C   UNL A   1      41.927  29.073  28.902  1.00  0.00     0.031 A 
ATOM     48  C   UNL A   1      42.263  27.694  28.399  1.00  0.00     0.074 A 
ATOM     49  C   UNL A   1      42.835  30.062  28.805  1.00  0.00     0.049 A 
ATOM     50  N   UNL A   1      43.393  27.230  27.930  1.00  0.00    -0.248 NA
ATOM     51  C   UNL A   1      41.175  26.703  28.436  1.00  0.00     0.031 C 
ATOM     52  C   UNL A   1      42.619  31.452  29.206  1.00  0.00     0.029 A 
ATOM     53  N   UNL A   1      44.131  30.043  28.349  1.00  0.00    -0.354 N 
ATOM     54  C   UNL A   1      43.159  25.892  27.631  1.00  0.00     0.074 A 
ATOM     55  C   UNL A   1      41.786  25.613  27.995  1.00  0.00     0.031 C 
ATOM     56  C   UNL A   1      43.750  32.149  28.993  1.00  0.00     0.029 A 
ATOM     57  C   UNL A   1      44.782  31.248  28.480  1.00  0.00     0.049 A 
ATOM     58  H   UNL A   1      44.555  29.241  27.965  1.00  0.00     0.167 HD
ATOM     59  C   UNL A   1      44.008  24.981  27.099  1.00  0.00     0.037 A 
ATOM     60  C   UNL A   1      46.069  31.578  28.244  1.00  0.00     0.037 A 
ATOM     61  C   UNL A   1      45.374  25.266  26.740  1.00  0.00     0.049 A 
ATOM     62  C   UNL A   1      47.021  30.525  27.731  1.00  0.00     0.074 A 
ATOM     63  C   UNL A   1      46.310  24.414  26.178  1.00  0.00     0.029 A 
ATOM     64  N   UNL A   1      46.005  26.489  26.918  1.00  0.00    -0.354 N 
ATOM     65  N   UNL A   1      46.784  29.267  27.437  1.00  0.00    -0.248 NA
ATOM     66  C   UNL A   1      48.417  30.934  27.518  1.00  0.00     0.031 C 
ATOM     67  C   UNL A   1      47.522  25.104  26.075  1.00  0.00     0.029 A 
ATOM     68  C   UNL A   1      47.326  26.406  26.506  1.00  0.00     0.049 A 
ATOM     69  H   UNL A   1      45.577  27.296  27.284  1.00  0.00     0.167 HD
ATOM     70  C   UNL A   1      47.991  28.748  26.972  1.00  0.00     0.074 A 
ATOM     71  C   UNL A   1      48.953  29.830  27.016  1.00  0.00     0.031 C 
ATOM     72  C   UNL A   1      48.274  27.493  26.542  1.00  0.00     0.037 A 
BRANCH  59  73
ATOM     73  C   UNL A   1      43.498  23.578  26.907  1.00  0.00     0.058 A 
ATOM     74  C   UNL A   1      43.284  22.708  27.988  1.00  0.00     0.135 A 
ATOM     75  C   UNL A   1      43.185  23.108  25.620  1.00  0.00     0.135 A 
ATOM     76  F   UNL A   1      43.579  23.096  29.238  1.00  0.00    -0.206 F 
ATOM     77  C   UNL A   1      42.807  21.413  27.797  1.00  0.00     0.059 A 
ATOM     78  C   UNL A   1      42.677  21.829  25.409  1.00  0.00     0.059 A 
ATOM     79  F   UNL A   1      43.371  23.896  24.549  1.00  0.00    -0.206 F 
ATOM     80  C   UNL A   1      42.506  20.984  26.503  1.00  0.00     0.060 A 
BRANCH  80  81
ATOM     81  S   UNL A   1      41.886  19.305  26.275  1.00  0.00     0.124 S 
ATOM     82  O   UNL A   1      40.457  19.542  26.104  1.00  0.00    -0.237 OA
ATOM     83  O   UNL A   1      42.604  18.869  25.080  1.00  0.00    -0.237 OA
ATOM     84  O   UNL A   1      42.265  18.628  27.512  1.00  0.00    -0.744 OA
ENDBRANCH  80  81
ENDBRANCH  59  73
BRANCH  60  85
ATOM     85  C   UNL A   1      46.548  32.962  28.516  1.00  0.00     0.058 A 
ATOM     86  C   UNL A   1      46.507  33.955  27.524  1.00  0.00     0.135 A 
ATOM     87  C   UNL A   1      47.074  33.317  29.769  1.00  0.00     0.135 A 
ATOM     88  F   UNL A   1      46.026  33.665  26.305  1.00  0.00    -0.206 F 
ATOM     89  C   UNL A   1      46.987  35.241  27.757  1.00  0.00     0.059 A 
ATOM     90  C   UNL A   1      47.531  34.603  30.035  1.00  0.00     0.059 A 
ATOM     91  F   UNL A   1      47.131  32.409  30.755  1.00  0.00    -0.206 F 
ATOM     92  C   UNL A   1      47.497  35.555  29.017  1.00  0.00     0.060 A 
BRANCH  92  93
ATOM     93  S   UNL A   1      48.103  37.230  29.317  1.00  0.00     0.124 S 
ATOM     94  O   UNL A   1      48.491  37.647  27.974  1.00  0.00    -0.237 OA
ATOM     95  O   UNL A   1      46.924  37.888  29.872  1.00  0.00    -0.237 OA
ATOM     96  O   UNL A   1      49.201  37.028  30.257  1.00  0.00    -0.744 OA
ENDBRANCH  92  93
ENDBRANCH  60  85
BRANCH  72  97
ATOM     97  C   UNL A   1      49.667  27.221  26.034  1.00  0.00     0.058 A 
ATOM     98  C   UNL A   1      50.716  26.849  26.891  1.00  0.00     0.135 A 
ATOM     99  C   UNL A   1      49.940  27.272  24.656  1.00  0.00     0.135 A 
ATOM    100  F   UNL A   1      50.515  26.787  28.217  1.00  0.00    -0.206 F 
ATOM    101  C   UNL A   1      51.988  26.565  26.403  1.00  0.00     0.059 A 
ATOM    102  C   UNL A   1      51.195  26.960  24.143  1.00  0.00     0.059 A 
ATOM    103  F   UNL A   1      48.972  27.609  23.788  1.00  0.00    -0.206 F 
ATOM    104  C   UNL A   1      52.218  26.620  25.027  1.00  0.00     0.060 A 
BRANCH 104 105
ATOM    105  S   UNL A   1      53.865  26.214  24.406  1.00  0.00     0.124 S 
ATOM    106  O   UNL A   1      53.964  24.797  24.739  1.00  0.00    -0.237 OA
ATOM    107  O   UNL A   1      53.747  26.525  22.985  1.00  0.00    -0.237 OA
ATOM    108  O   UNL A   1      54.743  27.100  25.165  1.00  0.00    -0.744 OA
ENDBRANCH 104 105
ENDBRANCH  72  97
ENDBRANCH  46  47
ENDBRANCH  39  41
ENDBRANCH  38  39
ENDBRANCH  37  38
ENDBRANCH  36  37
ENDBRANCH  35  36
ENDBRANCH  34  35
ENDBRANCH   1  34
TORSDOF 25
ENDMDL
