MODEL 1
REMARK VINA RESULT:     -11.0      0.000      0.000
REMARK SMILES Cc1cc(NS(=O)(=O)c2ccc(NC(=O)[C@@H]3CCCC[C@@H]3C(=O)OCCOCCOCCOC(=O)c3ccc(-c4c5nc(c(-c6c(F)cc(S(=O)(=O)[O-])cc6F)c6ccc([nH]6)c(-c6c(F)cc(S(=O)(=O)[O-])cc6F)c6nc(c(-c7c(F)cc(S(=O)(=O)[O-])cc7F)c7ccc4[nH]7)C=C6)C=C5)cc3)cc2)no1
REMARK SMILES IDX 28 1 27 2 26 3 25 4 24 5 22 6 23 7 21 8 16 9 17 10 18 11
REMARK SMILES IDX 20 12 19 13 14 14 13 15 15 17 12 18 9 19 10 20 103 21 11 22
REMARK SMILES IDX 102 23 6 24 7 25 8 26 5 27 4 29 1 30 2 31 3 32 105 33 104 34
REMARK SMILES IDX 29 35 30 36 31 37 32 38 33 39 34 40 35 41 36 42 37 43 101 44
REMARK SMILES IDX 38 45 100 46 39 47 40 48 41 49 94 50 42 51 99 52 93 53 95 54
REMARK SMILES IDX 43 55 98 56 92 57 91 58 44 60 78 61 57 62 77 63 58 64 61 65
REMARK SMILES IDX 76 66 96 67 59 68 60 69 75 71 97 72 62 73 45 74 46 75 55 76
REMARK SMILES IDX 47 77 48 78 54 79 56 80 49 81 50 82 51 83 52 84 53 85 79 86
REMARK SMILES IDX 80 87 89 88 81 89 82 90 88 91 90 92 83 93 84 94 85 95 86 96
REMARK SMILES IDX 87 97 63 98 64 99 73 100 65 101 66 102 72 103 74 104 67 105
REMARK SMILES IDX 68 106 69 107 70 108 71 109
REMARK H PARENT 13 16 5 28 95 59 61 70
REMARK Flexibility Score: inf
ROOT
ATOM      1  C   UNL A   1      34.296  31.116  27.996  1.00  0.00     0.188 C 
ENDROOT
BRANCH   1   2
ATOM      2  O   UNL A   1      34.918  29.899  27.612  1.00  0.00    -0.376 OA
BRANCH   2   3
ATOM      3  C   UNL A   1      34.130  28.807  27.166  1.00  0.00     0.202 C 
BRANCH   3   4
ATOM      4  C   UNL A   1      34.367  28.243  25.758  1.00  0.00     0.261 C 
BRANCH   4   5
ATOM      5  O   UNL A   1      33.614  28.828  24.670  1.00  0.00    -0.463 OA
BRANCH   5   6
ATOM      6  C   UNL A   1      33.347  27.971  23.652  1.00  0.00     0.309 C 
ATOM      7  O   UNL A   1      34.023  27.953  22.627  1.00  0.00    -0.252 OA
BRANCH   6   8
ATOM      8  C   UNL A   1      32.051  27.147  23.812  1.00  0.00     0.111 C 
ATOM      9  C   UNL A   1      31.076  26.857  22.607  1.00  0.00     0.093 C 
ATOM     10  C   UNL A   1      30.178  28.053  22.285  1.00  0.00     0.014 C 
ATOM     11  C   UNL A   1      29.644  28.923  23.414  1.00  0.00     0.001 C 
ATOM     12  C   UNL A   1      31.251  27.849  24.948  1.00  0.00     0.016 C 
ATOM     13  C   UNL A   1      30.662  29.184  24.483  1.00  0.00     0.001 C 
BRANCH   9  14
ATOM     14  C   UNL A   1      31.715  25.968  21.478  1.00  0.00     0.228 C 
ATOM     15  N   UNL A   1      32.432  24.800  21.546  1.00  0.00    -0.326 N 
ATOM     16  H   UNL A   1      32.663  24.483  20.643  1.00  0.00     0.169 HD
ATOM     17  O   UNL A   1      31.586  26.390  20.312  1.00  0.00    -0.274 OA
BRANCH  15  18
ATOM     18  C   UNL A   1      32.938  23.919  22.525  1.00  0.00     0.041 A 
ATOM     19  C   UNL A   1      34.069  22.040  24.331  1.00  0.00     0.088 A 
ATOM     20  C   UNL A   1      32.884  21.788  23.671  1.00  0.00     0.024 A 
ATOM     21  C   UNL A   1      34.712  23.258  24.096  1.00  0.00     0.024 A 
ATOM     22  C   UNL A   1      32.278  22.792  22.934  1.00  0.00     0.027 A 
ATOM     23  C   UNL A   1      34.163  24.174  23.164  1.00  0.00     0.027 A 
BRANCH  19  24
ATOM     24  S   UNL A   1      34.666  20.905  25.574  1.00  0.00     0.263 S 
ATOM     25  O   UNL A   1      33.752  20.992  26.701  1.00  0.00    -0.201 OA
ATOM     26  O   UNL A   1      36.066  21.205  25.728  1.00  0.00    -0.201 OA
BRANCH  24  27
ATOM     27  N   UNL A   1      34.603  19.354  24.931  1.00  0.00    -0.261 N 
ATOM     28  H   UNL A   1      35.281  19.125  24.255  1.00  0.00     0.182 HD
BRANCH  27  29
ATOM     29  C   UNL A   1      33.689  18.360  25.260  1.00  0.00     0.183 A 
ATOM     30  C   UNL A   1      32.462  14.907  25.470  1.00  0.00     0.091 C 
ATOM     31  C   UNL A   1      32.848  16.330  25.440  1.00  0.00     0.135 A 
ATOM     32  C   UNL A   1      34.046  17.004  25.465  1.00  0.00     0.096 A 
ATOM     33  O   UNL A   1      31.836  17.230  25.316  1.00  0.00    -0.360 OA
ATOM     34  N   UNL A   1      32.362  18.506  25.222  1.00  0.00    -0.061 NA
ENDBRANCH  27  29
ENDBRANCH  24  27
ENDBRANCH  19  24
ENDBRANCH  15  18
ENDBRANCH   9  14
ENDBRANCH   6   8
ENDBRANCH   5   6
ENDBRANCH   4   5
ENDBRANCH   3   4
ENDBRANCH   2   3
ENDBRANCH   1   2
BRANCH   1  35
ATOM     35  C   UNL A   1      35.094  32.426  27.967  1.00  0.00     0.188 C 
BRANCH  35  36
ATOM     36  O   UNL A   1      36.068  32.585  28.980  1.00  0.00    -0.376 OA
BRANCH  36  37
ATOM     37  C   UNL A   1      35.606  33.152  30.196  1.00  0.00     0.202 C 
BRANCH  37  38
ATOM     38  C   UNL A   1      35.652  32.206  31.399  1.00  0.00     0.261 C 
BRANCH  38  39
ATOM     39  O   UNL A   1      36.993  31.788  31.729  1.00  0.00    -0.460 OA
BRANCH  39  40
ATOM     40  C   UNL A   1      37.318  30.503  31.466  1.00  0.00     0.338 C 
ATOM     41  O   UNL A   1      36.635  29.522  31.700  1.00  0.00    -0.246 OA
BRANCH  40  42
ATOM     42  C   UNL A   1      38.653  30.451  30.823  1.00  0.00     0.060 A 
ATOM     43  C   UNL A   1      38.773  30.316  29.438  1.00  0.00     0.016 A 
ATOM     44  C   UNL A   1      39.796  30.400  31.617  1.00  0.00     0.016 A 
ATOM     45  C   UNL A   1      40.010  30.025  28.858  1.00  0.00     0.010 A 
ATOM     46  C   UNL A   1      41.049  30.173  31.026  1.00  0.00     0.010 A 
ATOM     47  C   UNL A   1      41.162  29.920  29.648  1.00  0.00    -0.014 A 
BRANCH  47  48
ATOM     48  C   UNL A   1      42.447  29.485  29.032  1.00  0.00     0.031 A 
ATOM     49  C   UNL A   1      42.694  28.030  28.709  1.00  0.00     0.074 A 
ATOM     50  C   UNL A   1      43.372  30.396  28.667  1.00  0.00     0.049 A 
ATOM     51  N   UNL A   1      43.659  27.506  27.995  1.00  0.00    -0.248 NA
ATOM     52  C   UNL A   1      41.696  27.048  29.155  1.00  0.00     0.031 C 
ATOM     53  C   UNL A   1      43.248  31.847  28.826  1.00  0.00     0.029 A 
ATOM     54  N   UNL A   1      44.614  30.231  28.102  1.00  0.00    -0.354 N 
ATOM     55  C   UNL A   1      43.338  26.163  27.840  1.00  0.00     0.074 A 
ATOM     56  C   UNL A   1      42.100  25.941  28.547  1.00  0.00     0.031 C 
ATOM     57  C   UNL A   1      44.381  32.433  28.408  1.00  0.00     0.029 A 
ATOM     58  C   UNL A   1      45.337  31.397  28.027  1.00  0.00     0.049 A 
ATOM     59  H   UNL A   1      44.952  29.362  27.784  1.00  0.00     0.167 HD
ATOM     60  C   UNL A   1      44.021  25.195  27.186  1.00  0.00     0.037 A 
ATOM     61  C   UNL A   1      46.645  31.603  27.769  1.00  0.00     0.037 A 
ATOM     62  C   UNL A   1      45.376  25.340  26.724  1.00  0.00     0.049 A 
ATOM     63  C   UNL A   1      47.519  30.430  27.430  1.00  0.00     0.074 A 
ATOM     64  C   UNL A   1      46.207  24.377  26.179  1.00  0.00     0.029 A 
ATOM     65  N   UNL A   1      46.136  26.491  26.862  1.00  0.00    -0.354 N 
ATOM     66  N   UNL A   1      47.170  29.185  27.205  1.00  0.00    -0.248 NA
ATOM     67  C   UNL A   1      48.963  30.678  27.333  1.00  0.00     0.031 C 
ATOM     68  C   UNL A   1      47.499  24.915  26.098  1.00  0.00     0.029 A 
ATOM     69  C   UNL A   1      47.450  26.237  26.512  1.00  0.00     0.049 A 
ATOM     70  H   UNL A   1      45.791  27.362  27.165  1.00  0.00     0.167 HD
ATOM     71  C   UNL A   1      48.350  28.505  26.922  1.00  0.00     0.074 A 
ATOM     72  C   UNL A   1      49.421  29.478  27.000  1.00  0.00     0.031 C 
ATOM     73  C   UNL A   1      48.522  27.195  26.615  1.00  0.00     0.037 A 
BRANCH  60  74
ATOM     74  C   UNL A   1      43.355  23.861  27.026  1.00  0.00     0.058 A 
ATOM     75  C   UNL A   1      42.608  23.557  25.876  1.00  0.00     0.135 A 
ATOM     76  C   UNL A   1      43.507  22.860  27.997  1.00  0.00     0.135 A 
ATOM     77  F   UNL A   1      42.423  24.490  24.927  1.00  0.00    -0.206 F 
ATOM     78  C   UNL A   1      42.039  22.299  25.692  1.00  0.00     0.059 A 
ATOM     79  C   UNL A   1      42.953  21.595  27.832  1.00  0.00     0.059 A 
ATOM     80  F   UNL A   1      44.200  23.112  29.117  1.00  0.00    -0.206 F 
ATOM     81  C   UNL A   1      42.219  21.324  26.677  1.00  0.00     0.060 A 
BRANCH  81  82
ATOM     82  S   UNL A   1      41.492  19.690  26.422  1.00  0.00     0.124 S 
ATOM     83  O   UNL A   1      40.121  20.031  26.057  1.00  0.00    -0.237 OA
ATOM     84  O   UNL A   1      42.319  19.147  25.350  1.00  0.00    -0.237 OA
ATOM     85  O   UNL A   1      41.649  19.042  27.721  1.00  0.00    -0.744 OA
ENDBRANCH  81  82
ENDBRANCH  60  74
BRANCH  61  86
ATOM     86  C   UNL A   1      47.219  32.962  27.960  1.00  0.00     0.058 A 
ATOM     87  C   UNL A   1      47.834  33.346  29.157  1.00  0.00     0.135 A 
ATOM     88  C   UNL A   1      47.167  33.905  26.917  1.00  0.00     0.135 A 
ATOM     89  F   UNL A   1      47.888  32.489  30.189  1.00  0.00    -0.206 F 
ATOM     90  C   UNL A   1      48.389  34.613  29.313  1.00  0.00     0.059 A 
ATOM     91  C   UNL A   1      47.741  35.164  27.038  1.00  0.00     0.059 A 
ATOM     92  F   UNL A   1      46.582  33.588  25.752  1.00  0.00    -0.206 F 
ATOM     93  C   UNL A   1      48.344  35.511  28.243  1.00  0.00     0.060 A 
BRANCH  93  94
ATOM     94  S   UNL A   1      49.130  37.127  28.425  1.00  0.00     0.124 S 
ATOM     95  O   UNL A   1      48.489  37.885  27.357  1.00  0.00    -0.237 OA
ATOM     96  O   UNL A   1      48.755  37.498  29.786  1.00  0.00    -0.237 OA
ATOM     97  O   UNL A   1      50.546  36.833  28.232  1.00  0.00    -0.744 OA
ENDBRANCH  93  94
ENDBRANCH  61  86
BRANCH  73  98
ATOM     98  C   UNL A   1      49.921  26.728  26.324  1.00  0.00     0.058 A 
ATOM     99  C   UNL A   1      50.723  26.135  27.311  1.00  0.00     0.135 A 
ATOM    100  C   UNL A   1      50.451  26.839  25.028  1.00  0.00     0.135 A 
ATOM    101  F   UNL A   1      50.267  26.013  28.568  1.00  0.00    -0.206 F 
ATOM    102  C   UNL A   1      52.011  25.692  27.031  1.00  0.00     0.059 A 
ATOM    103  C   UNL A   1      51.725  26.376  24.718  1.00  0.00     0.059 A 
ATOM    104  F   UNL A   1      49.722  27.390  24.044  1.00  0.00    -0.206 F 
ATOM    105  C   UNL A   1      52.503  25.817  25.730  1.00  0.00     0.060 A 
BRANCH 105 106
ATOM    106  S   UNL A   1      54.168  25.218  25.369  1.00  0.00     0.124 S 
ATOM    107  O   UNL A   1      53.909  23.823  25.030  1.00  0.00    -0.237 OA
ATOM    108  O   UNL A   1      54.575  26.075  24.259  1.00  0.00    -0.237 OA
ATOM    109  O   UNL A   1      54.887  25.440  26.621  1.00  0.00    -0.744 OA
ENDBRANCH 105 106
ENDBRANCH  73  98
ENDBRANCH  47  48
ENDBRANCH  40  42
ENDBRANCH  39  40
ENDBRANCH  38  39
ENDBRANCH  37  38
ENDBRANCH  36  37
ENDBRANCH  35  36
ENDBRANCH   1  35
TORSDOF 25
ENDMDL
MODEL 2
REMARK VINA RESULT:      -9.7      6.037     11.620
REMARK SMILES Cc1cc(NS(=O)(=O)c2ccc(NC(=O)[C@@H]3CCCC[C@@H]3C(=O)OCCOCCOCCOC(=O)c3ccc(-c4c5nc(c(-c6c(F)cc(S(=O)(=O)[O-])cc6F)c6ccc([nH]6)c(-c6c(F)cc(S(=O)(=O)[O-])cc6F)c6nc(c(-c7c(F)cc(S(=O)(=O)[O-])cc7F)c7ccc4[nH]7)C=C6)C=C5)cc3)cc2)no1
REMARK SMILES IDX 28 1 27 2 26 3 25 4 24 5 22 6 23 7 21 8 16 9 17 10 18 11
REMARK SMILES IDX 20 12 19 13 14 14 13 15 15 17 12 18 9 19 10 20 103 21 11 22
REMARK SMILES IDX 102 23 6 24 7 25 8 26 5 27 4 29 1 30 2 31 3 32 105 33 104 34
REMARK SMILES IDX 29 35 30 36 31 37 32 38 33 39 34 40 35 41 36 42 37 43 101 44
REMARK SMILES IDX 38 45 100 46 39 47 40 48 41 49 94 50 42 51 99 52 93 53 95 54
REMARK SMILES IDX 43 55 98 56 92 57 91 58 44 60 78 61 57 62 77 63 58 64 61 65
REMARK SMILES IDX 76 66 96 67 59 68 60 69 75 71 97 72 62 73 45 74 46 75 55 76
REMARK SMILES IDX 47 77 48 78 54 79 56 80 49 81 50 82 51 83 52 84 53 85 79 86
REMARK SMILES IDX 80 87 89 88 81 89 82 90 88 91 90 92 83 93 84 94 85 95 86 96
REMARK SMILES IDX 87 97 63 98 64 99 73 100 65 101 66 102 72 103 74 104 67 105
REMARK SMILES IDX 68 106 69 107 70 108 71 109
REMARK H PARENT 13 16 5 28 95 59 61 70
REMARK Flexibility Score: inf
ROOT
ATOM      1  C   UNL A   1      43.957  19.469  25.399  1.00  0.00     0.188 C 
ENDROOT
BRANCH   1   2
ATOM      2  O   UNL A   1      42.903  18.933  26.186  1.00  0.00    -0.376 OA
BRANCH   2   3
ATOM      3  C   UNL A   1      41.605  19.501  26.121  1.00  0.00     0.202 C 
BRANCH   3   4
ATOM      4  C   UNL A   1      41.137  20.422  27.256  1.00  0.00     0.261 C 
BRANCH   4   5
ATOM      5  O   UNL A   1      41.860  21.659  27.453  1.00  0.00    -0.463 OA
BRANCH   5   6
ATOM      6  C   UNL A   1      41.075  22.724  27.754  1.00  0.00     0.309 C 
ATOM      7  O   UNL A   1      39.890  22.766  27.430  1.00  0.00    -0.252 OA
BRANCH   6   8
ATOM      8  C   UNL A   1      41.813  23.926  28.382  1.00  0.00     0.111 C 
ATOM      9  C   UNL A   1      42.684  24.926  27.529  1.00  0.00     0.093 C 
ATOM     10  C   UNL A   1      44.065  24.355  27.197  1.00  0.00     0.014 C 
ATOM     11  C   UNL A   1      44.796  23.501  28.221  1.00  0.00     0.001 C 
ATOM     12  C   UNL A   1      42.700  23.323  29.510  1.00  0.00     0.016 C 
ATOM     13  C   UNL A   1      43.890  22.547  28.941  1.00  0.00     0.001 C 
BRANCH   9  14
ATOM     14  C   UNL A   1      41.853  25.754  26.483  1.00  0.00     0.228 C 
ATOM     15  N   UNL A   1      40.962  26.785  26.650  1.00  0.00    -0.326 N 
ATOM     16  H   UNL A   1      40.636  27.105  25.778  1.00  0.00     0.169 HD
ATOM     17  O   UNL A   1      41.985  25.418  25.290  1.00  0.00    -0.274 OA
BRANCH  15  18
ATOM     18  C   UNL A   1      40.375  27.522  27.700  1.00  0.00     0.041 A 
ATOM     19  C   UNL A   1      39.032  29.069  29.669  1.00  0.00     0.088 A 
ATOM     20  C   UNL A   1      39.986  29.622  28.840  1.00  0.00     0.024 A 
ATOM     21  C   UNL A   1      38.736  27.712  29.526  1.00  0.00     0.024 A 
ATOM     22  C   UNL A   1      40.739  28.804  28.013  1.00  0.00     0.027 A 
ATOM     23  C   UNL A   1      39.381  26.954  28.515  1.00  0.00     0.027 A 
BRANCH  19  24
ATOM     24  S   UNL A   1      38.324  30.033  30.995  1.00  0.00     0.263 S 
ATOM     25  O   UNL A   1      39.428  30.470  31.836  1.00  0.00    -0.201 OA
ATOM     26  O   UNL A   1      37.258  29.228  31.530  1.00  0.00    -0.201 OA
BRANCH  24  27
ATOM     27  N   UNL A   1      37.581  31.379  30.317  1.00  0.00    -0.261 N 
ATOM     28  H   UNL A   1      37.988  31.746  29.500  1.00  0.00     0.182 HD
BRANCH  27  29
ATOM     29  C   UNL A   1      36.448  32.026  30.796  1.00  0.00     0.183 A 
ATOM     30  C   UNL A   1      34.150  33.223  33.395  1.00  0.00     0.091 C 
ATOM     31  C   UNL A   1      34.997  32.794  32.267  1.00  0.00     0.135 A 
ATOM     32  C   UNL A   1      36.340  32.548  32.108  1.00  0.00     0.096 A 
ATOM     33  O   UNL A   1      34.356  32.521  31.099  1.00  0.00    -0.360 OA
ATOM     34  N   UNL A   1      35.270  32.057  30.169  1.00  0.00    -0.061 NA
ENDBRANCH  27  29
ENDBRANCH  24  27
ENDBRANCH  19  24
ENDBRANCH  15  18
ENDBRANCH   9  14
ENDBRANCH   6   8
ENDBRANCH   5   6
ENDBRANCH   4   5
ENDBRANCH   3   4
ENDBRANCH   2   3
ENDBRANCH   1   2
BRANCH   1  35
ATOM     35  C   UNL A   1      44.119  20.990  25.271  1.00  0.00     0.188 C 
BRANCH  35  36
ATOM     36  O   UNL A   1      45.343  21.441  24.726  1.00  0.00    -0.376 OA
BRANCH  36  37
ATOM     37  C   UNL A   1      45.272  22.624  23.943  1.00  0.00     0.202 C 
BRANCH  37  38
ATOM     38  C   UNL A   1      46.564  23.443  23.909  1.00  0.00     0.261 C 
BRANCH  38  39
ATOM     39  O   UNL A   1      46.659  24.385  24.998  1.00  0.00    -0.460 OA
BRANCH  39  40
ATOM     40  C   UNL A   1      47.099  25.626  24.699  1.00  0.00     0.338 C 
ATOM     41  O   UNL A   1      47.708  25.956  23.696  1.00  0.00    -0.246 OA
BRANCH  40  42
ATOM     42  C   UNL A   1      46.720  26.562  25.784  1.00  0.00     0.060 A 
ATOM     43  C   UNL A   1      47.570  26.775  26.872  1.00  0.00     0.016 A 
ATOM     44  C   UNL A   1      45.449  27.131  25.789  1.00  0.00     0.016 A 
ATOM     45  C   UNL A   1      47.119  27.460  28.002  1.00  0.00     0.010 A 
ATOM     46  C   UNL A   1      45.019  27.876  26.898  1.00  0.00     0.010 A 
ATOM     47  C   UNL A   1      45.825  27.995  28.043  1.00  0.00    -0.014 A 
BRANCH  47  48
ATOM     48  C   UNL A   1      45.316  28.611  29.301  1.00  0.00     0.031 A 
ATOM     49  C   UNL A   1      45.080  27.768  30.532  1.00  0.00     0.074 A 
ATOM     50  C   UNL A   1      45.148  29.946  29.388  1.00  0.00     0.049 A 
ATOM     51  N   UNL A   1      44.836  28.163  31.757  1.00  0.00    -0.248 NA
ATOM     52  C   UNL A   1      45.225  26.311  30.404  1.00  0.00     0.031 C 
ATOM     53  C   UNL A   1      45.418  30.911  28.319  1.00  0.00     0.029 A 
ATOM     54  N   UNL A   1      44.687  30.723  30.425  1.00  0.00    -0.354 N 
ATOM     55  C   UNL A   1      44.883  27.021  32.547  1.00  0.00     0.074 A 
ATOM     56  C   UNL A   1      45.160  25.910  31.668  1.00  0.00     0.031 C 
ATOM     57  C   UNL A   1      45.081  32.139  28.742  1.00  0.00     0.029 A 
ATOM     58  C   UNL A   1      44.499  32.039  30.077  1.00  0.00     0.049 A 
ATOM     59  H   UNL A   1      44.508  30.370  31.327  1.00  0.00     0.167 HD
ATOM     60  C   UNL A   1      44.693  26.902  33.881  1.00  0.00     0.037 A 
ATOM     61  C   UNL A   1      43.852  33.032  30.719  1.00  0.00     0.037 A 
ATOM     62  C   UNL A   1      44.148  27.942  34.712  1.00  0.00     0.049 A 
ATOM     63  C   UNL A   1      43.267  32.767  32.077  1.00  0.00     0.074 A 
ATOM     64  C   UNL A   1      43.782  27.877  36.045  1.00  0.00     0.029 A 
ATOM     65  N   UNL A   1      43.780  29.199  34.258  1.00  0.00    -0.354 N 
ATOM     66  N   UNL A   1      43.403  31.706  32.836  1.00  0.00    -0.248 NA
ATOM     67  C   UNL A   1      42.422  33.819  32.658  1.00  0.00     0.031 C 
ATOM     68  C   UNL A   1      43.088  29.052  36.362  1.00  0.00     0.029 A 
ATOM     69  C   UNL A   1      43.099  29.882  35.251  1.00  0.00     0.049 A 
ATOM     70  H   UNL A   1      43.975  29.555  33.361  1.00  0.00     0.167 HD
ATOM     71  C   UNL A   1      42.675  31.969  33.993  1.00  0.00     0.074 A 
ATOM     72  C   UNL A   1      42.106  33.292  33.834  1.00  0.00     0.031 C 
ATOM     73  C   UNL A   1      42.508  31.186  35.087  1.00  0.00     0.037 A 
BRANCH  60  74
ATOM     74  C   UNL A   1      44.976  25.568  34.507  1.00  0.00     0.058 A 
ATOM     75  C   UNL A   1      43.954  24.621  34.689  1.00  0.00     0.135 A 
ATOM     76  C   UNL A   1      46.280  25.210  34.877  1.00  0.00     0.135 A 
ATOM     77  F   UNL A   1      42.687  24.927  34.363  1.00  0.00    -0.206 F 
ATOM     78  C   UNL A   1      44.220  23.358  35.212  1.00  0.00     0.059 A 
ATOM     79  C   UNL A   1      46.571  23.952  35.396  1.00  0.00     0.059 A 
ATOM     80  F   UNL A   1      47.284  26.088  34.735  1.00  0.00    -0.206 F 
ATOM     81  C   UNL A   1      45.535  23.034  35.561  1.00  0.00     0.060 A 
BRANCH  81  82
ATOM     82  S   UNL A   1      45.874  21.386  36.222  1.00  0.00     0.124 S 
ATOM     83  O   UNL A   1      45.659  21.592  37.650  1.00  0.00    -0.237 OA
ATOM     84  O   UNL A   1      44.875  20.568  35.541  1.00  0.00    -0.237 OA
ATOM     85  O   UNL A   1      47.257  21.140  35.826  1.00  0.00    -0.744 OA
ENDBRANCH  81  82
ENDBRANCH  60  74
BRANCH  61  86
ATOM     86  C   UNL A   1      43.614  34.321  30.017  1.00  0.00     0.058 A 
ATOM     87  C   UNL A   1      44.573  35.340  29.991  1.00  0.00     0.135 A 
ATOM     88  C   UNL A   1      42.401  34.544  29.339  1.00  0.00     0.135 A 
ATOM     89  F   UNL A   1      45.737  35.183  30.641  1.00  0.00    -0.206 F 
ATOM     90  C   UNL A   1      44.346  36.532  29.308  1.00  0.00     0.059 A 
ATOM     91  C   UNL A   1      42.164  35.712  28.626  1.00  0.00     0.059 A 
ATOM     92  F   UNL A   1      41.446  33.602  29.340  1.00  0.00    -0.206 F 
ATOM     93  C   UNL A   1      43.141  36.704  28.622  1.00  0.00     0.060 A 
BRANCH  93  94
ATOM     94  S   UNL A   1      42.881  38.222  27.679  1.00  0.00     0.124 S 
ATOM     95  O   UNL A   1      42.487  39.154  28.728  1.00  0.00    -0.237 OA
ATOM     96  O   UNL A   1      44.196  38.442  27.087  1.00  0.00    -0.237 OA
ATOM     97  O   UNL A   1      41.831  37.851  26.734  1.00  0.00    -0.744 OA
ENDBRANCH  93  94
ENDBRANCH  61  86
BRANCH  73  98
ATOM     98  C   UNL A   1      41.684  31.737  36.216  1.00  0.00     0.058 A 
ATOM     99  C   UNL A   1      42.267  32.431  37.287  1.00  0.00     0.135 A 
ATOM    100  C   UNL A   1      40.285  31.604  36.206  1.00  0.00     0.135 A 
ATOM    101  F   UNL A   1      43.600  32.579  37.350  1.00  0.00    -0.206 F 
ATOM    102  C   UNL A   1      41.497  32.951  38.322  1.00  0.00     0.059 A 
ATOM    103  C   UNL A   1      39.493  32.141  37.214  1.00  0.00     0.059 A 
ATOM    104  F   UNL A   1      39.675  30.957  35.199  1.00  0.00    -0.206 F 
ATOM    105  C   UNL A   1      40.110  32.801  38.276  1.00  0.00     0.060 A 
BRANCH 105 106
ATOM    106  S   UNL A   1      39.114  33.499  39.611  1.00  0.00     0.124 S 
ATOM    107  O   UNL A   1      39.796  34.766  39.852  1.00  0.00    -0.237 OA
ATOM    108  O   UNL A   1      37.792  33.596  38.999  1.00  0.00    -0.237 OA
ATOM    109  O   UNL A   1      39.233  32.507  40.676  1.00  0.00    -0.744 OA
ENDBRANCH 105 106
ENDBRANCH  73  98
ENDBRANCH  47  48
ENDBRANCH  40  42
ENDBRANCH  39  40
ENDBRANCH  38  39
ENDBRANCH  37  38
ENDBRANCH  36  37
ENDBRANCH  35  36
ENDBRANCH   1  35
TORSDOF 25
ENDMDL
MODEL 3
REMARK VINA RESULT:      -8.9      4.647     11.465
REMARK SMILES Cc1cc(NS(=O)(=O)c2ccc(NC(=O)[C@@H]3CCCC[C@@H]3C(=O)OCCOCCOCCOC(=O)c3ccc(-c4c5nc(c(-c6c(F)cc(S(=O)(=O)[O-])cc6F)c6ccc([nH]6)c(-c6c(F)cc(S(=O)(=O)[O-])cc6F)c6nc(c(-c7c(F)cc(S(=O)(=O)[O-])cc7F)c7ccc4[nH]7)C=C6)C=C5)cc3)cc2)no1
REMARK SMILES IDX 28 1 27 2 26 3 25 4 24 5 22 6 23 7 21 8 16 9 17 10 18 11
REMARK SMILES IDX 20 12 19 13 14 14 13 15 15 17 12 18 9 19 10 20 103 21 11 22
REMARK SMILES IDX 102 23 6 24 7 25 8 26 5 27 4 29 1 30 2 31 3 32 105 33 104 34
REMARK SMILES IDX 29 35 30 36 31 37 32 38 33 39 34 40 35 41 36 42 37 43 101 44
REMARK SMILES IDX 38 45 100 46 39 47 40 48 41 49 94 50 42 51 99 52 93 53 95 54
REMARK SMILES IDX 43 55 98 56 92 57 91 58 44 60 78 61 57 62 77 63 58 64 61 65
REMARK SMILES IDX 76 66 96 67 59 68 60 69 75 71 97 72 62 73 45 74 46 75 55 76
REMARK SMILES IDX 47 77 48 78 54 79 56 80 49 81 50 82 51 83 52 84 53 85 79 86
REMARK SMILES IDX 80 87 89 88 81 89 82 90 88 91 90 92 83 93 84 94 85 95 86 96
REMARK SMILES IDX 87 97 63 98 64 99 73 100 65 101 66 102 72 103 74 104 67 105
REMARK SMILES IDX 68 106 69 107 70 108 71 109
REMARK H PARENT 13 16 5 28 95 59 61 70
REMARK Flexibility Score: inf
ROOT
ATOM      1  C   UNL A   1      41.538  25.725  28.443  1.00  0.00     0.188 C 
ENDROOT
BRANCH   1   2
ATOM      2  O   UNL A   1      40.400  26.538  28.689  1.00  0.00    -0.376 OA
BRANCH   2   3
ATOM      3  C   UNL A   1      40.034  27.550  27.765  1.00  0.00     0.202 C 
BRANCH   3   4
ATOM      4  C   UNL A   1      38.860  28.478  28.103  1.00  0.00     0.261 C 
BRANCH   4   5
ATOM      5  O   UNL A   1      39.039  29.409  29.196  1.00  0.00    -0.463 OA
BRANCH   5   6
ATOM      6  C   UNL A   1      38.137  30.423  29.220  1.00  0.00     0.309 C 
ATOM      7  O   UNL A   1      38.483  31.598  29.120  1.00  0.00    -0.252 OA
BRANCH   6   8
ATOM      8  C   UNL A   1      36.685  30.003  29.536  1.00  0.00     0.111 C 
ATOM      9  C   UNL A   1      35.468  30.996  29.403  1.00  0.00     0.093 C 
ATOM     10  C   UNL A   1      35.365  31.953  30.594  1.00  0.00     0.014 C 
ATOM     11  C   UNL A   1      35.705  31.458  31.992  1.00  0.00     0.001 C 
ATOM     12  C   UNL A   1      36.724  29.447  30.989  1.00  0.00     0.016 C 
ATOM     13  C   UNL A   1      36.908  30.563  32.020  1.00  0.00     0.001 C 
BRANCH   9  14
ATOM     14  C   UNL A   1      35.199  31.472  27.929  1.00  0.00     0.228 C 
ATOM     15  N   UNL A   1      34.505  30.881  26.903  1.00  0.00    -0.326 N 
ATOM     16  H   UNL A   1      34.501  31.463  26.108  1.00  0.00     0.169 HD
ATOM     17  O   UNL A   1      35.718  32.556  27.601  1.00  0.00    -0.274 OA
BRANCH  15  18
ATOM     18  C   UNL A   1      33.794  29.689  26.647  1.00  0.00     0.041 A 
ATOM     19  C   UNL A   1      32.514  27.183  26.260  1.00  0.00     0.088 A 
ATOM     20  C   UNL A   1      33.533  27.611  25.434  1.00  0.00     0.024 A 
ATOM     21  C   UNL A   1      32.111  28.019  27.304  1.00  0.00     0.024 A 
ATOM     22  C   UNL A   1      34.015  28.905  25.548  1.00  0.00     0.027 A 
ATOM     23  C   UNL A   1      32.780  29.251  27.516  1.00  0.00     0.027 A 
BRANCH  19  24
ATOM     24  S   UNL A   1      31.631  25.675  25.892  1.00  0.00     0.263 S 
ATOM     25  O   UNL A   1      31.629  25.529  24.445  1.00  0.00    -0.201 OA
ATOM     26  O   UNL A   1      30.399  25.760  26.631  1.00  0.00    -0.201 OA
BRANCH  24  27
ATOM     27  N   UNL A   1      32.481  24.397  26.574  1.00  0.00    -0.261 N 
ATOM     28  H   UNL A   1      33.176  24.627  27.232  1.00  0.00     0.182 HD
BRANCH  27  29
ATOM     29  C   UNL A   1      32.302  23.046  26.301  1.00  0.00     0.183 A 
ATOM     30  C   UNL A   1      33.332  19.724  25.127  1.00  0.00     0.091 C 
ATOM     31  C   UNL A   1      32.807  21.009  25.625  1.00  0.00     0.135 A 
ATOM     32  C   UNL A   1      33.367  22.116  26.216  1.00  0.00     0.096 A 
ATOM     33  O   UNL A   1      31.476  21.229  25.447  1.00  0.00    -0.360 OA
ATOM     34  N   UNL A   1      31.156  22.500  25.890  1.00  0.00    -0.061 NA
ENDBRANCH  27  29
ENDBRANCH  24  27
ENDBRANCH  19  24
ENDBRANCH  15  18
ENDBRANCH   9  14
ENDBRANCH   6   8
ENDBRANCH   5   6
ENDBRANCH   4   5
ENDBRANCH   3   4
ENDBRANCH   2   3
ENDBRANCH   1   2
BRANCH   1  35
ATOM     35  C   UNL A   1      41.383  24.404  27.677  1.00  0.00     0.188 C 
BRANCH  35  36
ATOM     36  O   UNL A   1      42.582  23.728  27.352  1.00  0.00    -0.376 OA
BRANCH  36  37
ATOM     37  C   UNL A   1      42.916  23.691  25.973  1.00  0.00     0.202 C 
BRANCH  37  38
ATOM     38  C   UNL A   1      44.199  24.442  25.609  1.00  0.00     0.261 C 
BRANCH  38  39
ATOM     39  O   UNL A   1      44.250  25.769  26.173  1.00  0.00    -0.460 OA
BRANCH  39  40
ATOM     40  C   UNL A   1      45.199  26.003  27.106  1.00  0.00     0.338 C 
ATOM     41  O   UNL A   1      46.159  25.295  27.355  1.00  0.00    -0.246 OA
BRANCH  40  42
ATOM     42  C   UNL A   1      44.909  27.281  27.799  1.00  0.00     0.060 A 
ATOM     43  C   UNL A   1      44.139  28.269  27.180  1.00  0.00     0.016 A 
ATOM     44  C   UNL A   1      45.519  27.555  29.021  1.00  0.00     0.016 A 
ATOM     45  C   UNL A   1      44.066  29.554  27.722  1.00  0.00     0.010 A 
ATOM     46  C   UNL A   1      45.392  28.828  29.597  1.00  0.00     0.010 A 
ATOM     47  C   UNL A   1      44.717  29.860  28.924  1.00  0.00    -0.014 A 
BRANCH  47  48
ATOM     48  C   UNL A   1      44.736  31.265  29.422  1.00  0.00     0.031 A 
ATOM     49  C   UNL A   1      45.855  32.204  29.040  1.00  0.00     0.074 A 
ATOM     50  C   UNL A   1      43.703  31.747  30.143  1.00  0.00     0.049 A 
ATOM     51  N   UNL A   1      45.927  33.501  29.212  1.00  0.00    -0.248 NA
ATOM     52  C   UNL A   1      46.992  31.649  28.291  1.00  0.00     0.031 C 
ATOM     53  C   UNL A   1      42.503  30.997  30.520  1.00  0.00     0.029 A 
ATOM     54  N   UNL A   1      43.510  32.986  30.708  1.00  0.00    -0.354 N 
ATOM     55  C   UNL A   1      47.062  33.918  28.527  1.00  0.00     0.074 A 
ATOM     56  C   UNL A   1      47.663  32.741  27.949  1.00  0.00     0.031 C 
ATOM     57  C   UNL A   1      41.721  31.776  31.285  1.00  0.00     0.029 A 
ATOM     58  C   UNL A   1      42.399  33.048  31.516  1.00  0.00     0.049 A 
ATOM     59  H   UNL A   1      44.109  33.752  30.550  1.00  0.00     0.167 HD
ATOM     60  C   UNL A   1      47.571  35.166  28.405  1.00  0.00     0.037 A 
ATOM     61  C   UNL A   1      42.017  33.982  32.410  1.00  0.00     0.037 A 
ATOM     62  C   UNL A   1      47.144  36.289  29.198  1.00  0.00     0.049 A 
ATOM     63  C   UNL A   1      42.842  35.227  32.568  1.00  0.00     0.074 A 
ATOM     64  C   UNL A   1      47.690  37.559  29.255  1.00  0.00     0.029 A 
ATOM     65  N   UNL A   1      46.144  36.240  30.156  1.00  0.00    -0.354 N 
ATOM     66  N   UNL A   1      43.858  35.634  31.845  1.00  0.00    -0.248 NA
ATOM     67  C   UNL A   1      42.488  36.128  33.673  1.00  0.00     0.031 C 
ATOM     68  C   UNL A   1      47.097  38.238  30.328  1.00  0.00     0.029 A 
ATOM     69  C   UNL A   1      46.124  37.420  30.881  1.00  0.00     0.049 A 
ATOM     70  H   UNL A   1      45.537  35.479  30.300  1.00  0.00     0.167 HD
ATOM     71  C   UNL A   1      44.255  36.849  32.398  1.00  0.00     0.074 A 
ATOM     72  C   UNL A   1      43.365  37.111  33.510  1.00  0.00     0.031 C 
ATOM     73  C   UNL A   1      45.259  37.672  32.006  1.00  0.00     0.037 A 
BRANCH  60  74
ATOM     74  C   UNL A   1      48.717  35.361  27.457  1.00  0.00     0.058 A 
ATOM     75  C   UNL A   1      50.046  35.222  27.889  1.00  0.00     0.135 A 
ATOM     76  C   UNL A   1      48.489  35.631  26.100  1.00  0.00     0.135 A 
ATOM     77  F   UNL A   1      50.312  34.979  29.183  1.00  0.00    -0.206 F 
ATOM     78  C   UNL A   1      51.113  35.340  27.002  1.00  0.00     0.059 A 
ATOM     79  C   UNL A   1      49.539  35.746  25.194  1.00  0.00     0.059 A 
ATOM     80  F   UNL A   1      47.236  35.785  25.647  1.00  0.00    -0.206 F 
ATOM     81  C   UNL A   1      50.847  35.600  25.654  1.00  0.00     0.060 A 
BRANCH  81  82
ATOM     82  S   UNL A   1      52.237  35.733  24.507  1.00  0.00     0.124 S 
ATOM     83  O   UNL A   1      51.998  37.041  23.906  1.00  0.00    -0.237 OA
ATOM     84  O   UNL A   1      53.386  35.645  25.401  1.00  0.00    -0.237 OA
ATOM     85  O   UNL A   1      52.051  34.592  23.615  1.00  0.00    -0.744 OA
ENDBRANCH  81  82
ENDBRANCH  60  74
BRANCH  61  86
ATOM     86  C   UNL A   1      40.869  33.699  33.313  1.00  0.00     0.058 A 
ATOM     87  C   UNL A   1      41.014  32.944  34.482  1.00  0.00     0.135 A 
ATOM     88  C   UNL A   1      39.591  34.204  33.012  1.00  0.00     0.135 A 
ATOM     89  F   UNL A   1      42.209  32.421  34.801  1.00  0.00    -0.206 F 
ATOM     90  C   UNL A   1      39.936  32.707  35.331  1.00  0.00     0.059 A 
ATOM     91  C   UNL A   1      38.507  34.007  33.858  1.00  0.00     0.059 A 
ATOM     92  F   UNL A   1      39.398  34.927  31.898  1.00  0.00    -0.206 F 
ATOM     93  C   UNL A   1      38.688  33.251  35.013  1.00  0.00     0.060 A 
BRANCH  93  94
ATOM     94  S   UNL A   1      37.310  33.002  36.153  1.00  0.00     0.124 S 
ATOM     95  O   UNL A   1      36.184  33.477  35.357  1.00  0.00    -0.237 OA
ATOM     96  O   UNL A   1      37.366  31.563  36.390  1.00  0.00    -0.237 OA
ATOM     97  O   UNL A   1      37.671  33.833  37.298  1.00  0.00    -0.744 OA
ENDBRANCH  93  94
ENDBRANCH  61  86
BRANCH  73  98
ATOM     98  C   UNL A   1      45.450  38.949  32.774  1.00  0.00     0.058 A 
ATOM     99  C   UNL A   1      46.394  39.057  33.807  1.00  0.00     0.135 A 
ATOM    100  C   UNL A   1      44.704  40.093  32.445  1.00  0.00     0.135 A 
ATOM    101  F   UNL A   1      47.126  37.991  34.166  1.00  0.00    -0.206 F 
ATOM    102  C   UNL A   1      46.575  40.247  34.504  1.00  0.00     0.059 A 
ATOM    103  C   UNL A   1      44.890  41.301  33.109  1.00  0.00     0.059 A 
ATOM    104  F   UNL A   1      43.794  40.047  31.459  1.00  0.00    -0.206 F 
ATOM    105  C   UNL A   1      45.817  41.364  34.147  1.00  0.00     0.060 A 
BRANCH 105 106
ATOM    106  S   UNL A   1      46.074  42.912  35.041  1.00  0.00     0.124 S 
ATOM    107  O   UNL A   1      46.202  42.437  36.415  1.00  0.00    -0.237 OA
ATOM    108  O   UNL A   1      47.297  43.426  34.432  1.00  0.00    -0.237 OA
ATOM    109  O   UNL A   1      44.865  43.676  34.749  1.00  0.00    -0.744 OA
ENDBRANCH 105 106
ENDBRANCH  73  98
ENDBRANCH  47  48
ENDBRANCH  40  42
ENDBRANCH  39  40
ENDBRANCH  38  39
ENDBRANCH  37  38
ENDBRANCH  36  37
ENDBRANCH  35  36
ENDBRANCH   1  35
TORSDOF 25
ENDMDL
