MODEL 1
REMARK VINA RESULT:      -9.4      0.000      0.000
REMARK SMILES C=CCN(CC(=O)OCCOCCOCCOC(=O)c1ccc(-c2c3nc(c(-c4c(F)cc(S(=O)(=O)[O-])cc4F)c4ccc([nH]4)c(-c4c(F)cc(S(=O)(=O)[O-])cc4F)c4nc(c(-c5c(F)cc(S(=O)(=O)[O-])cc5F)c5ccc2[nH]5)C=C4)C=C3)cc1)c1ccc([N+](=O)[O-])cc1Br
REMARK SMILES IDX 12 1 11 2 10 3 9 4 8 5 6 6 7 7 5 8 4 9 3 10 2 11 1 12 86 13
REMARK SMILES IDX 87 14 94 15 88 16 93 17 95 18 89 19 90 20 91 21 92 22 13 23
REMARK SMILES IDX 14 24 15 25 16 26 17 27 18 28 19 29 20 30 21 31 85 32 22 33
REMARK SMILES IDX 84 34 23 35 24 36 25 37 78 38 26 39 83 40 77 41 79 42 27 43
REMARK SMILES IDX 82 44 76 45 75 46 28 48 62 49 41 50 61 51 42 52 45 53 60 54
REMARK SMILES IDX 80 55 43 56 44 57 59 59 81 60 46 61 29 62 30 63 39 64 31 65
REMARK SMILES IDX 32 66 38 67 40 68 33 69 34 70 35 71 36 72 37 73 63 74 64 75
REMARK SMILES IDX 73 76 65 77 66 78 72 79 74 80 67 81 68 82 69 83 70 84 71 85
REMARK SMILES IDX 47 86 48 87 57 88 49 89 50 90 56 91 58 92 51 93 52 94 53 95
REMARK SMILES IDX 54 96 55 97
REMARK H PARENT 79 47 45 58
REMARK Flexibility Score: inf
ROOT
ATOM      1  C   UNL A   1      31.707  28.410  24.698  1.00  0.00     0.188 C 
ENDROOT
BRANCH   1   2
ATOM      2  O   UNL A   1      30.632  27.486  24.705  1.00  0.00    -0.376 OA
BRANCH   2   3
ATOM      3  C   UNL A   1      30.060  27.154  23.453  1.00  0.00     0.202 C 
BRANCH   3   4
ATOM      4  C   UNL A   1      31.022  26.525  22.440  1.00  0.00     0.261 C 
BRANCH   4   5
ATOM      5  O   UNL A   1      31.616  25.280  22.897  1.00  0.00    -0.462 OA
BRANCH   5   6
ATOM      6  C   UNL A   1      32.955  25.147  22.680  1.00  0.00     0.325 C 
ATOM      7  O   UNL A   1      33.743  26.085  22.791  1.00  0.00    -0.250 OA
BRANCH   6   8
ATOM      8  C   UNL A   1      33.467  23.735  22.320  1.00  0.00     0.239 C 
BRANCH   8   9
ATOM      9  N   UNL A   1      33.629  22.698  23.372  1.00  0.00    -0.356 N 
BRANCH   9  10
ATOM     10  C   UNL A   1      32.508  21.780  23.616  1.00  0.00     0.144 C 
BRANCH  10  11
ATOM     11  C   UNL A   1      32.981  20.389  23.890  1.00  0.00    -0.014 C 
ATOM     12  C   UNL A   1      32.292  19.477  24.594  1.00  0.00     0.006 C 
ENDBRANCH  10  11
ENDBRANCH   9  10
BRANCH   9  13
ATOM     13  C   UNL A   1      34.725  22.700  24.241  1.00  0.00     0.052 A 
ATOM     14  C   UNL A   1      35.962  22.231  23.787  1.00  0.00     0.034 A 
ATOM     15  C   UNL A   1      34.747  23.222  25.559  1.00  0.00     0.048 A 
ATOM     16  C   UNL A   1      37.159  22.494  24.473  1.00  0.00     0.088 A 
ATOM     17  C   UNL A   1      35.941  23.568  26.223  1.00  0.00     0.103 A 
ATOM     18  Br  UNL A   1      33.261  23.031  26.748  1.00  0.00    -0.048 Br
ATOM     19  C   UNL A   1      37.153  23.225  25.650  1.00  0.00     0.270 A 
BRANCH  19  20
ATOM     20  N   UNL A   1      38.418  23.550  26.313  1.00  0.00     0.062 N 
ATOM     21  O   UNL A   1      39.270  22.654  26.398  1.00  0.00    -0.258 OA
ATOM     22  O   UNL A   1      38.556  24.706  26.735  1.00  0.00    -0.258 OA
ENDBRANCH  19  20
ENDBRANCH   9  13
ENDBRANCH   8   9
ENDBRANCH   6   8
ENDBRANCH   5   6
ENDBRANCH   4   5
ENDBRANCH   3   4
ENDBRANCH   2   3
ENDBRANCH   1   2
BRANCH   1  23
ATOM     23  C   UNL A   1      31.549  29.742  25.463  1.00  0.00     0.188 C 
BRANCH  23  24
ATOM     24  O   UNL A   1      32.728  30.420  25.866  1.00  0.00    -0.376 OA
BRANCH  24  25
ATOM     25  C   UNL A   1      33.155  30.206  27.206  1.00  0.00     0.202 C 
BRANCH  25  26
ATOM     26  C   UNL A   1      34.528  30.790  27.546  1.00  0.00     0.261 C 
BRANCH  26  27
ATOM     27  O   UNL A   1      35.442  29.784  28.043  1.00  0.00    -0.460 OA
BRANCH  27  28
ATOM     28  C   UNL A   1      36.180  30.186  29.106  1.00  0.00     0.338 C 
ATOM     29  O   UNL A   1      35.752  30.392  30.230  1.00  0.00    -0.246 OA
BRANCH  28  30
ATOM     30  C   UNL A   1      37.630  30.309  28.816  1.00  0.00     0.060 A 
ATOM     31  C   UNL A   1      38.150  29.890  27.593  1.00  0.00     0.016 A 
ATOM     32  C   UNL A   1      38.494  30.486  29.895  1.00  0.00     0.016 A 
ATOM     33  C   UNL A   1      39.476  29.449  27.512  1.00  0.00     0.010 A 
ATOM     34  C   UNL A   1      39.855  30.175  29.766  1.00  0.00     0.010 A 
ATOM     35  C   UNL A   1      40.356  29.578  28.596  1.00  0.00    -0.014 A 
BRANCH  35  36
ATOM     36  C   UNL A   1      41.757  29.045  28.553  1.00  0.00     0.031 A 
ATOM     37  C   UNL A   1      42.937  29.978  28.748  1.00  0.00     0.074 A 
ATOM     38  C   UNL A   1      42.006  27.736  28.338  1.00  0.00     0.049 A 
ATOM     39  N   UNL A   1      44.196  29.800  28.435  1.00  0.00    -0.248 NA
ATOM     40  C   UNL A   1      42.658  31.286  29.366  1.00  0.00     0.031 C 
ATOM     41  C   UNL A   1      40.998  26.681  28.222  1.00  0.00     0.029 A 
ATOM     42  N   UNL A   1      43.197  27.066  28.163  1.00  0.00    -0.354 N 
ATOM     43  C   UNL A   1      44.843  30.997  28.738  1.00  0.00     0.074 A 
ATOM     44  C   UNL A   1      43.838  31.886  29.281  1.00  0.00     0.031 C 
ATOM     45  C   UNL A   1      41.606  25.503  28.026  1.00  0.00     0.029 A 
ATOM     46  C   UNL A   1      43.035  25.733  27.864  1.00  0.00     0.049 A 
ATOM     47  H   UNL A   1      44.077  27.498  28.245  1.00  0.00     0.167 HD
ATOM     48  C   UNL A   1      46.148  31.323  28.565  1.00  0.00     0.037 A 
ATOM     49  C   UNL A   1      43.908  24.806  27.421  1.00  0.00     0.037 A 
ATOM     50  C   UNL A   1      47.156  30.406  28.088  1.00  0.00     0.049 A 
ATOM     51  C   UNL A   1      45.336  25.199  27.174  1.00  0.00     0.074 A 
ATOM     52  C   UNL A   1      48.505  30.637  27.880  1.00  0.00     0.029 A 
ATOM     53  N   UNL A   1      46.930  29.075  27.766  1.00  0.00    -0.354 N 
ATOM     54  N   UNL A   1      45.912  26.362  27.352  1.00  0.00    -0.248 NA
ATOM     55  C   UNL A   1      46.226  24.159  26.640  1.00  0.00     0.031 C 
ATOM     56  C   UNL A   1      49.086  29.461  27.391  1.00  0.00     0.029 A 
ATOM     57  C   UNL A   1      48.110  28.479  27.347  1.00  0.00     0.049 A 
ATOM     58  H   UNL A   1      46.059  28.620  27.824  1.00  0.00     0.167 HD
ATOM     59  C   UNL A   1      47.237  26.191  26.968  1.00  0.00     0.074 A 
ATOM     60  C   UNL A   1      47.379  24.807  26.565  1.00  0.00     0.031 C 
ATOM     61  C   UNL A   1      48.244  27.099  26.952  1.00  0.00     0.037 A 
BRANCH  48  62
ATOM     62  C   UNL A   1      46.568  32.747  28.835  1.00  0.00     0.058 A 
ATOM     63  C   UNL A   1      47.085  33.162  30.071  1.00  0.00     0.135 A 
ATOM     64  C   UNL A   1      46.502  33.702  27.804  1.00  0.00     0.135 A 
ATOM     65  F   UNL A   1      47.165  32.298  31.095  1.00  0.00    -0.206 F 
ATOM     66  C   UNL A   1      47.497  34.477  30.284  1.00  0.00     0.059 A 
ATOM     67  C   UNL A   1      46.933  35.013  27.985  1.00  0.00     0.059 A 
ATOM     68  F   UNL A   1      46.023  33.361  26.597  1.00  0.00    -0.206 F 
ATOM     69  C   UNL A   1      47.417  35.396  29.235  1.00  0.00     0.060 A 
BRANCH  69  70
ATOM     70  S   UNL A   1      47.965  37.094  29.519  1.00  0.00     0.124 S 
ATOM     71  O   UNL A   1      49.126  37.178  28.639  1.00  0.00    -0.237 OA
ATOM     72  O   UNL A   1      46.802  37.873  29.109  1.00  0.00    -0.237 OA
ATOM     73  O   UNL A   1      48.262  37.122  30.948  1.00  0.00    -0.744 OA
ENDBRANCH  69  70
ENDBRANCH  48  62
BRANCH  49  74
ATOM     74  C   UNL A   1      43.427  23.433  27.104  1.00  0.00     0.058 A 
ATOM     75  C   UNL A   1      43.157  23.046  25.784  1.00  0.00     0.135 A 
ATOM     76  C   UNL A   1      43.256  22.472  28.115  1.00  0.00     0.135 A 
ATOM     77  F   UNL A   1      43.290  23.932  24.785  1.00  0.00    -0.206 F 
ATOM     78  C   UNL A   1      42.737  21.756  25.475  1.00  0.00     0.059 A 
ATOM     79  C   UNL A   1      42.870  21.168  27.828  1.00  0.00     0.059 A 
ATOM     80  F   UNL A   1      43.508  22.788  29.395  1.00  0.00    -0.206 F 
ATOM     81  C   UNL A   1      42.605  20.821  26.504  1.00  0.00     0.060 A 
BRANCH  81  82
ATOM     82  S   UNL A   1      42.132  19.130  26.087  1.00  0.00     0.124 S 
ATOM     83  O   UNL A   1      42.495  18.415  27.305  1.00  0.00    -0.237 OA
ATOM     84  O   UNL A   1      40.702  19.266  25.829  1.00  0.00    -0.237 OA
ATOM     85  O   UNL A   1      42.946  18.834  24.913  1.00  0.00    -0.744 OA
ENDBRANCH  81  82
ENDBRANCH  49  74
BRANCH  61  86
ATOM     86  C   UNL A   1      49.601  26.610  26.528  1.00  0.00     0.058 A 
ATOM     87  C   UNL A   1      49.992  26.580  25.181  1.00  0.00     0.135 A 
ATOM     88  C   UNL A   1      50.529  26.177  27.490  1.00  0.00     0.135 A 
ATOM     89  F   UNL A   1      49.140  26.971  24.221  1.00  0.00    -0.206 F 
ATOM     90  C   UNL A   1      51.244  26.107  24.799  1.00  0.00     0.059 A 
ATOM     91  C   UNL A   1      51.796  25.727  27.133  1.00  0.00     0.059 A 
ATOM     92  F   UNL A   1      50.208  26.193  28.794  1.00  0.00    -0.206 F 
ATOM     93  C   UNL A   1      52.139  25.681  25.783  1.00  0.00     0.060 A 
BRANCH  93  94
ATOM     94  S   UNL A   1      53.764  25.080  25.277  1.00  0.00     0.124 S 
ATOM     95  O   UNL A   1      53.447  23.732  24.815  1.00  0.00    -0.237 OA
ATOM     96  O   UNL A   1      54.141  26.034  24.238  1.00  0.00    -0.237 OA
ATOM     97  O   UNL A   1      54.551  25.154  26.504  1.00  0.00    -0.744 OA
ENDBRANCH  93  94
ENDBRANCH  61  86
ENDBRANCH  35  36
ENDBRANCH  28  30
ENDBRANCH  27  28
ENDBRANCH  26  27
ENDBRANCH  25  26
ENDBRANCH  24  25
ENDBRANCH  23  24
ENDBRANCH   1  23
TORSDOF 25
ENDMDL
MODEL 2
REMARK VINA RESULT:      -9.3      5.658      9.594
REMARK SMILES C=CCN(CC(=O)OCCOCCOCCOC(=O)c1ccc(-c2c3nc(c(-c4c(F)cc(S(=O)(=O)[O-])cc4F)c4ccc([nH]4)c(-c4c(F)cc(S(=O)(=O)[O-])cc4F)c4nc(c(-c5c(F)cc(S(=O)(=O)[O-])cc5F)c5ccc2[nH]5)C=C4)C=C3)cc1)c1ccc([N+](=O)[O-])cc1Br
REMARK SMILES IDX 12 1 11 2 10 3 9 4 8 5 6 6 7 7 5 8 4 9 3 10 2 11 1 12 86 13
REMARK SMILES IDX 87 14 94 15 88 16 93 17 95 18 89 19 90 20 91 21 92 22 13 23
REMARK SMILES IDX 14 24 15 25 16 26 17 27 18 28 19 29 20 30 21 31 85 32 22 33
REMARK SMILES IDX 84 34 23 35 24 36 25 37 78 38 26 39 83 40 77 41 79 42 27 43
REMARK SMILES IDX 82 44 76 45 75 46 28 48 62 49 41 50 61 51 42 52 45 53 60 54
REMARK SMILES IDX 80 55 43 56 44 57 59 59 81 60 46 61 29 62 30 63 39 64 31 65
REMARK SMILES IDX 32 66 38 67 40 68 33 69 34 70 35 71 36 72 37 73 63 74 64 75
REMARK SMILES IDX 73 76 65 77 66 78 72 79 74 80 67 81 68 82 69 83 70 84 71 85
REMARK SMILES IDX 47 86 48 87 57 88 49 89 50 90 56 91 58 92 51 93 52 94 53 95
REMARK SMILES IDX 54 96 55 97
REMARK H PARENT 79 47 45 58
REMARK Flexibility Score: inf
ROOT
ATOM      1  C   UNL A   1      31.666  28.759  22.986  1.00  0.00     0.188 C 
ENDROOT
BRANCH   1   2
ATOM      2  O   UNL A   1      31.574  27.348  22.897  1.00  0.00    -0.376 OA
BRANCH   2   3
ATOM      3  C   UNL A   1      32.653  26.598  23.427  1.00  0.00     0.202 C 
BRANCH   3   4
ATOM      4  C   UNL A   1      33.355  25.669  22.433  1.00  0.00     0.261 C 
BRANCH   4   5
ATOM      5  O   UNL A   1      32.567  24.504  22.067  1.00  0.00    -0.462 OA
BRANCH   5   6
ATOM      6  C   UNL A   1      32.570  23.479  22.966  1.00  0.00     0.325 C 
ATOM      7  O   UNL A   1      31.537  22.978  23.408  1.00  0.00    -0.250 OA
BRANCH   6   8
ATOM      8  C   UNL A   1      33.949  22.928  23.390  1.00  0.00     0.239 C 
BRANCH   8   9
ATOM      9  N   UNL A   1      34.135  22.304  24.726  1.00  0.00    -0.356 N 
BRANCH   9  10
ATOM     10  C   UNL A   1      34.320  23.191  25.884  1.00  0.00     0.144 C 
BRANCH  10  11
ATOM     11  C   UNL A   1      34.143  22.459  27.176  1.00  0.00    -0.014 C 
ATOM     12  C   UNL A   1      32.997  22.416  27.873  1.00  0.00     0.006 C 
ENDBRANCH  10  11
ENDBRANCH   9  10
BRANCH   9  13
ATOM     13  C   UNL A   1      34.324  20.926  24.873  1.00  0.00     0.052 A 
ATOM     14  C   UNL A   1      33.216  20.100  25.086  1.00  0.00     0.034 A 
ATOM     15  C   UNL A   1      35.553  20.231  24.741  1.00  0.00     0.048 A 
ATOM     16  C   UNL A   1      33.279  18.707  24.922  1.00  0.00     0.088 A 
ATOM     17  C   UNL A   1      35.624  18.845  24.493  1.00  0.00     0.103 A 
ATOM     18  Br  UNL A   1      37.201  20.958  25.386  1.00  0.00    -0.048 Br
ATOM     19  C   UNL A   1      34.465  18.091  24.554  1.00  0.00     0.270 A 
BRANCH  19  20
ATOM     20  N   UNL A   1      34.494  16.646  24.319  1.00  0.00     0.062 N 
ATOM     21  O   UNL A   1      34.056  16.232  23.236  1.00  0.00    -0.258 OA
ATOM     22  O   UNL A   1      34.966  15.935  25.215  1.00  0.00    -0.258 OA
ENDBRANCH  19  20
ENDBRANCH   9  13
ENDBRANCH   8   9
ENDBRANCH   6   8
ENDBRANCH   5   6
ENDBRANCH   4   5
ENDBRANCH   3   4
ENDBRANCH   2   3
ENDBRANCH   1   2
BRANCH   1  23
ATOM     23  C   UNL A   1      30.633  29.520  23.847  1.00  0.00     0.188 C 
BRANCH  23  24
ATOM     24  O   UNL A   1      31.076  30.085  25.070  1.00  0.00    -0.376 OA
BRANCH  24  25
ATOM     25  C   UNL A   1      31.884  29.255  25.896  1.00  0.00     0.202 C 
BRANCH  25  26
ATOM     26  C   UNL A   1      33.270  29.818  26.217  1.00  0.00     0.261 C 
BRANCH  26  27
ATOM     27  O   UNL A   1      33.347  30.342  27.564  1.00  0.00    -0.460 OA
BRANCH  27  28
ATOM     28  C   UNL A   1      34.204  31.382  27.703  1.00  0.00     0.338 C 
ATOM     29  O   UNL A   1      33.889  32.560  27.751  1.00  0.00    -0.246 OA
BRANCH  28  30
ATOM     30  C   UNL A   1      35.622  30.973  27.862  1.00  0.00     0.060 A 
ATOM     31  C   UNL A   1      35.959  29.636  28.059  1.00  0.00     0.016 A 
ATOM     32  C   UNL A   1      36.550  31.961  28.187  1.00  0.00     0.016 A 
ATOM     33  C   UNL A   1      37.120  29.305  28.770  1.00  0.00     0.010 A 
ATOM     34  C   UNL A   1      37.775  31.612  28.772  1.00  0.00     0.010 A 
ATOM     35  C   UNL A   1      38.050  30.285  29.146  1.00  0.00    -0.014 A 
BRANCH  35  36
ATOM     36  C   UNL A   1      39.260  29.961  29.970  1.00  0.00     0.031 A 
ATOM     37  C   UNL A   1      40.310  29.002  29.443  1.00  0.00     0.074 A 
ATOM     38  C   UNL A   1      39.446  30.505  31.192  1.00  0.00     0.049 A 
ATOM     39  N   UNL A   1      41.237  28.347  30.096  1.00  0.00    -0.248 NA
ATOM     40  C   UNL A   1      40.306  28.739  27.994  1.00  0.00     0.031 C 
ATOM     41  C   UNL A   1      38.590  31.515  31.818  1.00  0.00     0.029 A 
ATOM     42  N   UNL A   1      40.417  30.270  32.139  1.00  0.00    -0.354 N 
ATOM     43  C   UNL A   1      41.871  27.535  29.158  1.00  0.00     0.074 A 
ATOM     44  C   UNL A   1      41.233  27.796  27.885  1.00  0.00     0.031 C 
ATOM     45  C   UNL A   1      39.085  31.833  33.021  1.00  0.00     0.029 A 
ATOM     46  C   UNL A   1      40.209  30.955  33.315  1.00  0.00     0.049 A 
ATOM     47  H   UNL A   1      41.185  29.673  31.990  1.00  0.00     0.167 HD
ATOM     48  C   UNL A   1      42.878  26.645  29.347  1.00  0.00     0.037 A 
ATOM     49  C   UNL A   1      40.788  30.840  34.528  1.00  0.00     0.037 A 
ATOM     50  C   UNL A   1      43.553  26.443  30.607  1.00  0.00     0.049 A 
ATOM     51  C   UNL A   1      41.857  29.808  34.738  1.00  0.00     0.074 A 
ATOM     52  C   UNL A   1      44.585  25.569  30.903  1.00  0.00     0.029 A 
ATOM     53  N   UNL A   1      43.278  27.139  31.776  1.00  0.00    -0.354 N 
ATOM     54  N   UNL A   1      42.368  28.964  33.875  1.00  0.00    -0.248 NA
ATOM     55  C   UNL A   1      42.410  29.695  36.094  1.00  0.00     0.031 C 
ATOM     56  C   UNL A   1      44.905  25.705  32.259  1.00  0.00     0.029 A 
ATOM     57  C   UNL A   1      44.110  26.704  32.796  1.00  0.00     0.049 A 
ATOM     58  H   UNL A   1      42.592  27.839  31.868  1.00  0.00     0.167 HD
ATOM     59  C   UNL A   1      43.315  28.230  34.579  1.00  0.00     0.074 A 
ATOM     60  C   UNL A   1      43.317  28.741  35.935  1.00  0.00     0.031 C 
ATOM     61  C   UNL A   1      44.110  27.222  34.141  1.00  0.00     0.037 A 
BRANCH  48  62
ATOM     62  C   UNL A   1      43.285  25.773  28.186  1.00  0.00     0.058 A 
ATOM     63  C   UNL A   1      44.287  26.143  27.276  1.00  0.00     0.135 A 
ATOM     64  C   UNL A   1      42.693  24.508  28.021  1.00  0.00     0.135 A 
ATOM     65  F   UNL A   1      44.882  27.341  27.377  1.00  0.00    -0.206 F 
ATOM     66  C   UNL A   1      44.667  25.304  26.230  1.00  0.00     0.059 A 
ATOM     67  C   UNL A   1      43.076  23.641  27.001  1.00  0.00     0.059 A 
ATOM     68  F   UNL A   1      41.733  24.096  28.865  1.00  0.00    -0.206 F 
ATOM     69  C   UNL A   1      44.056  24.054  26.100  1.00  0.00     0.060 A 
BRANCH  69  70
ATOM     70  S   UNL A   1      44.567  22.970  24.749  1.00  0.00     0.124 S 
ATOM     71  O   UNL A   1      45.634  23.753  24.132  1.00  0.00    -0.237 OA
ATOM     72  O   UNL A   1      44.993  21.767  25.455  1.00  0.00    -0.237 OA
ATOM     73  O   UNL A   1      43.355  22.826  23.948  1.00  0.00    -0.744 OA
ENDBRANCH  69  70
ENDBRANCH  48  62
BRANCH  49  74
ATOM     74  C   UNL A   1      40.300  31.677  35.658  1.00  0.00     0.058 A 
ATOM     75  C   UNL A   1      39.055  31.436  36.255  1.00  0.00     0.135 A 
ATOM     76  C   UNL A   1      41.086  32.717  36.183  1.00  0.00     0.135 A 
ATOM     77  F   UNL A   1      38.261  30.465  35.779  1.00  0.00    -0.206 F 
ATOM     78  C   UNL A   1      38.605  32.193  37.331  1.00  0.00     0.059 A 
ATOM     79  C   UNL A   1      40.673  33.465  37.280  1.00  0.00     0.059 A 
ATOM     80  F   UNL A   1      42.290  32.985  35.654  1.00  0.00    -0.206 F 
ATOM     81  C   UNL A   1      39.426  33.200  37.843  1.00  0.00     0.060 A 
BRANCH  81  82
ATOM     82  S   UNL A   1      38.868  34.129  39.287  1.00  0.00     0.124 S 
ATOM     83  O   UNL A   1      38.796  35.484  38.754  1.00  0.00    -0.237 OA
ATOM     84  O   UNL A   1      37.590  33.491  39.587  1.00  0.00    -0.237 OA
ATOM     85  O   UNL A   1      39.923  33.889  40.267  1.00  0.00    -0.744 OA
ENDBRANCH  81  82
ENDBRANCH  49  74
BRANCH  61  86
ATOM     86  C   UNL A   1      45.084  26.640  35.128  1.00  0.00     0.058 A 
ATOM     87  C   UNL A   1      44.773  25.512  35.901  1.00  0.00     0.135 A 
ATOM     88  C   UNL A   1      46.355  27.216  35.289  1.00  0.00     0.135 A 
ATOM     89  F   UNL A   1      43.567  24.931  35.795  1.00  0.00    -0.206 F 
ATOM     90  C   UNL A   1      45.675  24.993  36.825  1.00  0.00     0.059 A 
ATOM     91  C   UNL A   1      47.284  26.697  36.186  1.00  0.00     0.059 A 
ATOM     92  F   UNL A   1      46.707  28.293  34.568  1.00  0.00    -0.206 F 
ATOM     93  C   UNL A   1      46.929  25.595  36.962  1.00  0.00     0.060 A 
BRANCH  93  94
ATOM     94  S   UNL A   1      48.095  24.907  38.155  1.00  0.00     0.124 S 
ATOM     95  O   UNL A   1      47.682  25.573  39.386  1.00  0.00    -0.237 OA
ATOM     96  O   UNL A   1      47.813  23.477  38.082  1.00  0.00    -0.237 OA
ATOM     97  O   UNL A   1      49.396  25.311  37.630  1.00  0.00    -0.744 OA
ENDBRANCH  93  94
ENDBRANCH  61  86
ENDBRANCH  35  36
ENDBRANCH  28  30
ENDBRANCH  27  28
ENDBRANCH  26  27
ENDBRANCH  25  26
ENDBRANCH  24  25
ENDBRANCH  23  24
ENDBRANCH   1  23
TORSDOF 25
ENDMDL
MODEL 3
REMARK VINA RESULT:      -9.0      4.541      5.876
REMARK SMILES C=CCN(CC(=O)OCCOCCOCCOC(=O)c1ccc(-c2c3nc(c(-c4c(F)cc(S(=O)(=O)[O-])cc4F)c4ccc([nH]4)c(-c4c(F)cc(S(=O)(=O)[O-])cc4F)c4nc(c(-c5c(F)cc(S(=O)(=O)[O-])cc5F)c5ccc2[nH]5)C=C4)C=C3)cc1)c1ccc([N+](=O)[O-])cc1Br
REMARK SMILES IDX 12 1 11 2 10 3 9 4 8 5 6 6 7 7 5 8 4 9 3 10 2 11 1 12 86 13
REMARK SMILES IDX 87 14 94 15 88 16 93 17 95 18 89 19 90 20 91 21 92 22 13 23
REMARK SMILES IDX 14 24 15 25 16 26 17 27 18 28 19 29 20 30 21 31 85 32 22 33
REMARK SMILES IDX 84 34 23 35 24 36 25 37 78 38 26 39 83 40 77 41 79 42 27 43
REMARK SMILES IDX 82 44 76 45 75 46 28 48 62 49 41 50 61 51 42 52 45 53 60 54
REMARK SMILES IDX 80 55 43 56 44 57 59 59 81 60 46 61 29 62 30 63 39 64 31 65
REMARK SMILES IDX 32 66 38 67 40 68 33 69 34 70 35 71 36 72 37 73 63 74 64 75
REMARK SMILES IDX 73 76 65 77 66 78 72 79 74 80 67 81 68 82 69 83 70 84 71 85
REMARK SMILES IDX 47 86 48 87 57 88 49 89 50 90 56 91 58 92 51 93 52 94 53 95
REMARK SMILES IDX 54 96 55 97
REMARK H PARENT 79 47 45 58
REMARK Flexibility Score: inf
ROOT
ATOM      1  C   UNL A   1      32.030  25.995  26.104  1.00  0.00     0.188 C 
ENDROOT
BRANCH   1   2
ATOM      2  O   UNL A   1      30.699  25.649  26.446  1.00  0.00    -0.376 OA
BRANCH   2   3
ATOM      3  C   UNL A   1      30.379  24.270  26.470  1.00  0.00     0.202 C 
BRANCH   3   4
ATOM      4  C   UNL A   1      31.542  23.322  26.162  1.00  0.00     0.261 C 
BRANCH   4   5
ATOM      5  O   UNL A   1      32.511  23.220  27.240  1.00  0.00    -0.462 OA
BRANCH   5   6
ATOM      6  C   UNL A   1      33.370  22.164  27.168  1.00  0.00     0.325 C 
ATOM      7  O   UNL A   1      34.353  22.055  27.900  1.00  0.00    -0.250 OA
BRANCH   6   8
ATOM      8  C   UNL A   1      33.039  21.064  26.137  1.00  0.00     0.239 C 
BRANCH   8   9
ATOM      9  N   UNL A   1      33.798  20.967  24.863  1.00  0.00    -0.356 N 
BRANCH   9  10
ATOM     10  C   UNL A   1      34.661  19.794  24.660  1.00  0.00     0.144 C 
BRANCH  10  11
ATOM     11  C   UNL A   1      33.864  18.533  24.560  1.00  0.00    -0.014 C 
ATOM     12  C   UNL A   1      34.380  17.333  24.249  1.00  0.00     0.006 C 
ENDBRANCH  10  11
ENDBRANCH   9  10
BRANCH   9  13
ATOM     13  C   UNL A   1      33.855  22.033  23.960  1.00  0.00     0.052 A 
ATOM     14  C   UNL A   1      32.964  22.070  22.883  1.00  0.00     0.034 A 
ATOM     15  C   UNL A   1      34.693  23.173  24.062  1.00  0.00     0.048 A 
ATOM     16  C   UNL A   1      32.741  23.237  22.135  1.00  0.00     0.088 A 
ATOM     17  C   UNL A   1      34.430  24.377  23.379  1.00  0.00     0.103 A 
ATOM     18  Br  UNL A   1      36.496  23.051  24.691  1.00  0.00    -0.048 Br
ATOM     19  C   UNL A   1      33.421  24.407  22.432  1.00  0.00     0.270 A 
BRANCH  19  20
ATOM     20  N   UNL A   1      33.124  25.632  21.687  1.00  0.00     0.062 N 
ATOM     21  O   UNL A   1      33.926  26.572  21.785  1.00  0.00    -0.258 OA
ATOM     22  O   UNL A   1      32.094  25.643  21.000  1.00  0.00    -0.258 OA
ENDBRANCH  19  20
ENDBRANCH   9  13
ENDBRANCH   8   9
ENDBRANCH   6   8
ENDBRANCH   5   6
ENDBRANCH   4   5
ENDBRANCH   3   4
ENDBRANCH   2   3
ENDBRANCH   1   2
BRANCH   1  23
ATOM     23  C   UNL A   1      32.270  27.223  25.199  1.00  0.00     0.188 C 
BRANCH  23  24
ATOM     24  O   UNL A   1      32.834  28.384  25.790  1.00  0.00    -0.376 OA
BRANCH  24  25
ATOM     25  C   UNL A   1      32.193  28.873  26.963  1.00  0.00     0.202 C 
BRANCH  25  26
ATOM     26  C   UNL A   1      32.383  30.368  27.225  1.00  0.00     0.261 C 
BRANCH  26  27
ATOM     27  O   UNL A   1      33.679  30.839  26.782  1.00  0.00    -0.460 OA
BRANCH  27  28
ATOM     28  C   UNL A   1      34.434  31.382  27.767  1.00  0.00     0.338 C 
ATOM     29  O   UNL A   1      34.058  32.221  28.569  1.00  0.00    -0.246 OA
BRANCH  28  30
ATOM     30  C   UNL A   1      35.804  30.818  27.851  1.00  0.00     0.060 A 
ATOM     31  C   UNL A   1      36.002  29.444  27.977  1.00  0.00     0.016 A 
ATOM     32  C   UNL A   1      36.844  31.685  28.180  1.00  0.00     0.016 A 
ATOM     33  C   UNL A   1      37.145  28.960  28.625  1.00  0.00     0.010 A 
ATOM     34  C   UNL A   1      38.044  31.182  28.700  1.00  0.00     0.010 A 
ATOM     35  C   UNL A   1      38.188  29.817  29.005  1.00  0.00    -0.014 A 
BRANCH  35  36
ATOM     36  C   UNL A   1      39.384  29.328  29.765  1.00  0.00     0.031 A 
ATOM     37  C   UNL A   1      39.828  30.034  31.031  1.00  0.00     0.074 A 
ATOM     38  C   UNL A   1      40.096  28.260  29.345  1.00  0.00     0.049 A 
ATOM     39  N   UNL A   1      40.983  29.988  31.645  1.00  0.00    -0.248 NA
ATOM     40  C   UNL A   1      38.844  30.916  31.683  1.00  0.00     0.031 C 
ATOM     41  C   UNL A   1      39.763  27.404  28.205  1.00  0.00     0.029 A 
ATOM     42  N   UNL A   1      41.265  27.715  29.829  1.00  0.00    -0.354 N 
ATOM     43  C   UNL A   1      40.896  30.892  32.703  1.00  0.00     0.074 A 
ATOM     44  C   UNL A   1      39.564  31.457  32.657  1.00  0.00     0.031 C 
ATOM     45  C   UNL A   1      40.680  26.434  28.093  1.00  0.00     0.029 A 
ATOM     46  C   UNL A   1      41.741  26.675  29.063  1.00  0.00     0.049 A 
ATOM     47  H   UNL A   1      41.716  28.038  30.642  1.00  0.00     0.167 HD
ATOM     48  C   UNL A   1      41.844  31.227  33.613  1.00  0.00     0.037 A 
ATOM     49  C   UNL A   1      42.927  26.034  29.068  1.00  0.00     0.037 A 
ATOM     50  C   UNL A   1      43.145  30.607  33.693  1.00  0.00     0.049 A 
ATOM     51  C   UNL A   1      43.989  26.459  30.039  1.00  0.00     0.074 A 
ATOM     52  C   UNL A   1      44.176  30.873  34.579  1.00  0.00     0.029 A 
ATOM     53  N   UNL A   1      43.588  29.582  32.869  1.00  0.00    -0.354 N 
ATOM     54  N   UNL A   1      43.939  27.394  30.957  1.00  0.00    -0.248 NA
ATOM     55  C   UNL A   1      45.278  25.760  29.959  1.00  0.00     0.031 C 
ATOM     56  C   UNL A   1      45.256  30.040  34.264  1.00  0.00     0.029 A 
ATOM     57  C   UNL A   1      44.879  29.216  33.217  1.00  0.00     0.049 A 
ATOM     58  H   UNL A   1      43.063  29.175  32.143  1.00  0.00     0.167 HD
ATOM     59  C   UNL A   1      45.184  27.384  31.575  1.00  0.00     0.074 A 
ATOM     60  C   UNL A   1      45.959  26.339  30.937  1.00  0.00     0.031 C 
ATOM     61  C   UNL A   1      45.642  28.171  32.580  1.00  0.00     0.037 A 
BRANCH  48  62
ATOM     62  C   UNL A   1      41.545  32.354  34.571  1.00  0.00     0.058 A 
ATOM     63  C   UNL A   1      40.885  32.154  35.793  1.00  0.00     0.135 A 
ATOM     64  C   UNL A   1      41.986  33.657  34.276  1.00  0.00     0.135 A 
ATOM     65  F   UNL A   1      40.434  30.936  36.125  1.00  0.00    -0.206 F 
ATOM     66  C   UNL A   1      40.650  33.208  36.675  1.00  0.00     0.059 A 
ATOM     67  C   UNL A   1      41.788  34.719  35.154  1.00  0.00     0.059 A 
ATOM     68  F   UNL A   1      42.630  33.908  33.124  1.00  0.00    -0.206 F 
ATOM     69  C   UNL A   1      41.106  34.488  36.346  1.00  0.00     0.060 A 
BRANCH  69  70
ATOM     70  S   UNL A   1      40.807  35.842  37.504  1.00  0.00     0.124 S 
ATOM     71  O   UNL A   1      40.756  35.133  38.778  1.00  0.00    -0.237 OA
ATOM     72  O   UNL A   1      41.974  36.693  37.300  1.00  0.00    -0.237 OA
ATOM     73  O   UNL A   1      39.538  36.405  37.051  1.00  0.00    -0.744 OA
ENDBRANCH  69  70
ENDBRANCH  48  62
BRANCH  49  74
ATOM     74  C   UNL A   1      43.195  24.977  28.055  1.00  0.00     0.058 A 
ATOM     75  C   UNL A   1      43.738  25.293  26.802  1.00  0.00     0.135 A 
ATOM     76  C   UNL A   1      42.942  23.623  28.335  1.00  0.00     0.135 A 
ATOM     77  F   UNL A   1      43.983  26.572  26.481  1.00  0.00    -0.206 F 
ATOM     78  C   UNL A   1      44.022  24.307  25.862  1.00  0.00     0.059 A 
ATOM     79  C   UNL A   1      43.248  22.617  27.426  1.00  0.00     0.059 A 
ATOM     80  F   UNL A   1      42.431  23.264  29.523  1.00  0.00    -0.206 F 
ATOM     81  C   UNL A   1      43.781  22.970  26.188  1.00  0.00     0.060 A 
BRANCH  81  82
ATOM     82  S   UNL A   1      44.221  21.691  24.992  1.00  0.00     0.124 S 
ATOM     83  O   UNL A   1      45.588  21.376  25.390  1.00  0.00    -0.237 OA
ATOM     84  O   UNL A   1      43.223  20.661  25.263  1.00  0.00    -0.237 OA
ATOM     85  O   UNL A   1      44.076  22.369  23.708  1.00  0.00    -0.744 OA
ENDBRANCH  81  82
ENDBRANCH  49  74
BRANCH  61  86
ATOM     86  C   UNL A   1      47.032  27.897  33.085  1.00  0.00     0.058 A 
ATOM     87  C   UNL A   1      47.281  26.966  34.105  1.00  0.00     0.135 A 
ATOM     88  C   UNL A   1      48.132  28.567  32.526  1.00  0.00     0.135 A 
ATOM     89  F   UNL A   1      46.263  26.307  34.681  1.00  0.00    -0.206 F 
ATOM     90  C   UNL A   1      48.569  26.734  34.578  1.00  0.00     0.059 A 
ATOM     91  C   UNL A   1      49.431  28.330  32.963  1.00  0.00     0.059 A 
ATOM     92  F   UNL A   1      47.950  29.462  31.541  1.00  0.00    -0.206 F 
ATOM     93  C   UNL A   1      49.638  27.423  34.001  1.00  0.00     0.060 A 
BRANCH  93  94
ATOM     94  S   UNL A   1      51.306  27.106  34.614  1.00  0.00     0.124 S 
ATOM     95  O   UNL A   1      52.115  27.881  33.678  1.00  0.00    -0.237 OA
ATOM     96  O   UNL A   1      51.243  27.624  35.977  1.00  0.00    -0.237 OA
ATOM     97  O   UNL A   1      51.439  25.657  34.506  1.00  0.00    -0.744 OA
ENDBRANCH  93  94
ENDBRANCH  61  86
ENDBRANCH  35  36
ENDBRANCH  28  30
ENDBRANCH  27  28
ENDBRANCH  26  27
ENDBRANCH  25  26
ENDBRANCH  24  25
ENDBRANCH  23  24
ENDBRANCH   1  23
TORSDOF 25
ENDMDL
