MODEL 1
REMARK VINA RESULT:      -9.4      0.000      0.000
REMARK SMILES O=C(/C=C/c1ccccc1Oc1cccc(Cl)c1)OCCOCCOCCOC(=O)c1ccc(-c2c3nc(c(-c4c(F)cc(S(=O)(=O)[O-])cc4F)c4ccc([nH]4)c(-c4c(F)cc(S(=O)(=O)[O-])cc4F)c4nc(c(-c5c(F)cc(S(=O)(=O)[O-])cc5F)c5ccc2[nH]5)C=C4)C=C3)cc1
REMARK SMILES IDX 23 1 22 2 21 3 20 4 19 5 2 6 1 7 3 8 4 9 5 10 6 11 10 12
REMARK SMILES IDX 7 13 9 14 8 15 11 16 12 17 13 18 18 19 14 20 16 21 15 22
REMARK SMILES IDX 17 23 24 24 25 25 26 26 27 27 28 28 29 29 30 30 31 31 32 32
REMARK SMILES IDX 96 33 33 34 95 35 34 36 35 37 36 38 89 39 37 40 94 41 88 42
REMARK SMILES IDX 90 43 38 44 93 45 87 46 86 47 39 49 73 50 52 51 72 52 53 53
REMARK SMILES IDX 56 54 71 55 91 56 54 57 55 58 70 60 92 61 57 62 40 63 41 64
REMARK SMILES IDX 50 65 42 66 43 67 49 68 51 69 44 70 45 71 46 72 47 73 48 74
REMARK SMILES IDX 74 75 75 76 84 77 76 78 77 79 83 80 85 81 78 82 79 83 80 84
REMARK SMILES IDX 81 85 82 86 58 87 59 88 68 89 60 90 61 91 67 92 69 93 62 94
REMARK SMILES IDX 63 95 64 96 65 97 66 98
REMARK H PARENT 90 48 56 59
REMARK Flexibility Score: inf
ROOT
ATOM      1  C   UNL A   1      47.223  21.159  39.630  1.00  0.00     0.188 C 
ENDROOT
BRANCH   1   2
ATOM      2  O   UNL A   1      46.195  20.185  39.445  1.00  0.00    -0.376 OA
BRANCH   2   3
ATOM      3  C   UNL A   1      46.641  19.044  38.711  1.00  0.00     0.202 C 
BRANCH   3   4
ATOM      4  C   UNL A   1      46.145  17.759  39.373  1.00  0.00     0.261 C 
BRANCH   4   5
ATOM      5  O   UNL A   1      44.713  17.557  39.406  1.00  0.00    -0.460 OA
BRANCH   5   6
ATOM      6  C   UNL A   1      44.054  16.516  38.862  1.00  0.00     0.330 C 
ATOM      7  O   UNL A   1      43.872  16.437  37.651  1.00  0.00    -0.247 OA
BRANCH   6   8
ATOM      8  C   UNL A   1      43.517  15.466  39.746  1.00  0.00     0.094 C 
ATOM      9  C   UNL A   1      42.435  15.596  40.527  1.00  0.00     0.019 C 
BRANCH   9  10
ATOM     10  C   UNL A   1      42.025  14.515  41.431  1.00  0.00     0.017 A 
ATOM     11  C   UNL A   1      41.405  13.409  40.811  1.00  0.00     0.012 A 
ATOM     12  C   UNL A   1      42.175  14.513  42.831  1.00  0.00     0.134 A 
ATOM     13  C   UNL A   1      40.932  12.330  41.558  1.00  0.00     0.001 A 
ATOM     14  C   UNL A   1      41.691  13.417  43.567  1.00  0.00     0.048 A 
ATOM     15  C   UNL A   1      41.075  12.334  42.939  1.00  0.00     0.004 A 
BRANCH  12  16
ATOM     16  O   UNL A   1      42.666  15.510  43.653  1.00  0.00    -0.457 OA
BRANCH  16  17
ATOM     17  C   UNL A   1      43.956  15.943  43.515  1.00  0.00     0.128 A 
ATOM     18  C   UNL A   1      45.019  15.051  43.656  1.00  0.00     0.047 A 
ATOM     19  C   UNL A   1      44.187  17.305  43.321  1.00  0.00     0.067 A 
ATOM     20  C   UNL A   1      46.328  15.518  43.526  1.00  0.00     0.005 A 
ATOM     21  C   UNL A   1      45.494  17.757  43.163  1.00  0.00     0.044 A 
ATOM     22  C   UNL A   1      46.566  16.870  43.264  1.00  0.00     0.021 A 
ATOM     23  Cl  UNL A   1      45.779  19.412  42.786  1.00  0.00    -0.084 Cl
ENDBRANCH  16  17
ENDBRANCH  12  16
ENDBRANCH   9  10
ENDBRANCH   6   8
ENDBRANCH   5   6
ENDBRANCH   4   5
ENDBRANCH   3   4
ENDBRANCH   2   3
ENDBRANCH   1   2
BRANCH   1  24
ATOM     24  C   UNL A   1      47.632  21.814  38.311  1.00  0.00     0.188 C 
BRANCH  24  25
ATOM     25  O   UNL A   1      47.064  23.081  37.982  1.00  0.00    -0.376 OA
BRANCH  25  26
ATOM     26  C   UNL A   1      46.519  23.877  39.024  1.00  0.00     0.202 C 
BRANCH  26  27
ATOM     27  C   UNL A   1      47.232  25.202  39.304  1.00  0.00     0.261 C 
BRANCH  27  28
ATOM     28  O   UNL A   1      46.390  26.197  39.914  1.00  0.00    -0.460 OA
BRANCH  28  29
ATOM     29  C   UNL A   1      46.573  27.454  39.440  1.00  0.00     0.338 C 
ATOM     30  O   UNL A   1      47.297  28.316  39.904  1.00  0.00    -0.246 OA
BRANCH  29  31
ATOM     31  C   UNL A   1      45.801  27.672  38.203  1.00  0.00     0.060 A 
ATOM     32  C   UNL A   1      46.210  28.699  37.344  1.00  0.00     0.016 A 
ATOM     33  C   UNL A   1      44.575  27.030  38.007  1.00  0.00     0.016 A 
ATOM     34  C   UNL A   1      45.357  29.140  36.330  1.00  0.00     0.010 A 
ATOM     35  C   UNL A   1      43.719  27.479  36.994  1.00  0.00     0.010 A 
ATOM     36  C   UNL A   1      44.084  28.571  36.186  1.00  0.00    -0.014 A 
BRANCH  36  37
ATOM     37  C   UNL A   1      43.068  29.236  35.329  1.00  0.00     0.031 A 
ATOM     38  C   UNL A   1      42.274  30.387  35.894  1.00  0.00     0.074 A 
ATOM     39  C   UNL A   1      42.860  28.842  34.060  1.00  0.00     0.049 A 
ATOM     40  N   UNL A   1      41.298  31.070  35.350  1.00  0.00    -0.248 NA
ATOM     41  C   UNL A   1      42.626  30.824  37.255  1.00  0.00     0.031 C 
ATOM     42  C   UNL A   1      43.582  27.772  33.374  1.00  0.00     0.029 A 
ATOM     43  N   UNL A   1      41.965  29.300  33.124  1.00  0.00    -0.354 N 
ATOM     44  C   UNL A   1      40.917  32.011  36.299  1.00  0.00     0.074 A 
ATOM     45  C   UNL A   1      41.751  31.798  37.463  1.00  0.00     0.031 C 
ATOM     46  C   UNL A   1      43.089  27.645  32.129  1.00  0.00     0.029 A 
ATOM     47  C   UNL A   1      42.000  28.604  31.941  1.00  0.00     0.049 A 
ATOM     48  H   UNL A   1      41.356  30.056  33.287  1.00  0.00     0.167 HD
ATOM     49  C   UNL A   1      39.963  32.970  36.213  1.00  0.00     0.037 A 
ATOM     50  C   UNL A   1      41.226  28.711  30.842  1.00  0.00     0.037 A 
ATOM     51  C   UNL A   1      39.133  33.194  35.059  1.00  0.00     0.049 A 
ATOM     52  C   UNL A   1      40.129  29.744  30.791  1.00  0.00     0.074 A 
ATOM     53  C   UNL A   1      38.149  34.152  34.879  1.00  0.00     0.029 A 
ATOM     54  N   UNL A   1      39.184  32.451  33.891  1.00  0.00    -0.354 N 
ATOM     55  N   UNL A   1      39.784  30.629  31.695  1.00  0.00    -0.248 NA
ATOM     56  C   UNL A   1      39.311  29.787  29.568  1.00  0.00     0.031 C 
ATOM     57  C   UNL A   1      37.581  33.965  33.613  1.00  0.00     0.029 A 
ATOM     58  C   UNL A   1      38.238  32.916  32.992  1.00  0.00     0.049 A 
ATOM     59  H   UNL A   1      39.802  31.703  33.723  1.00  0.00     0.167 HD
ATOM     60  C   UNL A   1      38.727  31.347  31.141  1.00  0.00     0.074 A 
ATOM     61  C   UNL A   1      38.494  30.800  29.821  1.00  0.00     0.031 C 
ATOM     62  C   UNL A   1      38.016  32.369  31.678  1.00  0.00     0.037 A 
BRANCH  49  63
ATOM     63  C   UNL A   1      39.751  33.847  37.414  1.00  0.00     0.058 A 
ATOM     64  C   UNL A   1      40.394  35.087  37.541  1.00  0.00     0.135 A 
ATOM     65  C   UNL A   1      38.864  33.457  38.430  1.00  0.00     0.135 A 
ATOM     66  F   UNL A   1      41.264  35.497  36.604  1.00  0.00    -0.206 F 
ATOM     67  C   UNL A   1      40.179  35.905  38.645  1.00  0.00     0.059 A 
ATOM     68  C   UNL A   1      38.620  34.269  39.533  1.00  0.00     0.059 A 
ATOM     69  F   UNL A   1      38.226  32.279  38.356  1.00  0.00    -0.206 F 
ATOM     70  C   UNL A   1      39.292  35.486  39.638  1.00  0.00     0.060 A 
BRANCH  70  71
ATOM     71  S   UNL A   1      39.016  36.559  41.063  1.00  0.00     0.124 S 
ATOM     72  O   UNL A   1      38.069  35.768  41.843  1.00  0.00    -0.237 OA
ATOM     73  O   UNL A   1      40.356  36.682  41.630  1.00  0.00    -0.237 OA
ATOM     74  O   UNL A   1      38.477  37.779  40.471  1.00  0.00    -0.744 OA
ENDBRANCH  70  71
ENDBRANCH  49  63
BRANCH  50  75
ATOM     75  C   UNL A   1      41.438  27.791  29.695  1.00  0.00     0.058 A 
ATOM     76  C   UNL A   1      42.556  27.920  28.860  1.00  0.00     0.135 A 
ATOM     77  C   UNL A   1      40.512  26.777  29.403  1.00  0.00     0.135 A 
ATOM     78  F   UNL A   1      43.460  28.883  29.095  1.00  0.00    -0.206 F 
ATOM     79  C   UNL A   1      42.742  27.088  27.761  1.00  0.00     0.059 A 
ATOM     80  C   UNL A   1      40.687  25.921  28.323  1.00  0.00     0.059 A 
ATOM     81  F   UNL A   1      39.431  26.607  30.181  1.00  0.00    -0.206 F 
ATOM     82  C   UNL A   1      41.799  26.093  27.500  1.00  0.00     0.060 A 
BRANCH  82  83
ATOM     83  S   UNL A   1      42.061  24.989  26.095  1.00  0.00     0.124 S 
ATOM     84  O   UNL A   1      43.440  24.566  26.310  1.00  0.00    -0.237 OA
ATOM     85  O   UNL A   1      41.039  23.970  26.305  1.00  0.00    -0.237 OA
ATOM     86  O   UNL A   1      41.839  25.861  24.945  1.00  0.00    -0.744 OA
ENDBRANCH  82  83
ENDBRANCH  50  75
BRANCH  62  87
ATOM     87  C   UNL A   1      36.936  32.986  30.833  1.00  0.00     0.058 A 
ATOM     88  C   UNL A   1      37.199  34.063  29.973  1.00  0.00     0.135 A 
ATOM     89  C   UNL A   1      35.633  32.462  30.846  1.00  0.00     0.135 A 
ATOM     90  F   UNL A   1      38.427  34.604  29.926  1.00  0.00    -0.206 F 
ATOM     91  C   UNL A   1      36.204  34.614  29.171  1.00  0.00     0.059 A 
ATOM     92  C   UNL A   1      34.627  32.982  30.038  1.00  0.00     0.059 A 
ATOM     93  F   UNL A   1      35.331  31.424  31.643  1.00  0.00    -0.206 F 
ATOM     94  C   UNL A   1      34.920  34.068  29.211  1.00  0.00     0.060 A 
BRANCH  94  95
ATOM     95  S   UNL A   1      33.641  34.768  28.144  1.00  0.00     0.124 S 
ATOM     96  O   UNL A   1      33.269  35.970  28.884  1.00  0.00    -0.237 OA
ATOM     97  O   UNL A   1      34.360  34.991  26.894  1.00  0.00    -0.237 OA
ATOM     98  O   UNL A   1      32.628  33.719  28.098  1.00  0.00    -0.744 OA
ENDBRANCH  94  95
ENDBRANCH  62  87
ENDBRANCH  36  37
ENDBRANCH  29  31
ENDBRANCH  28  29
ENDBRANCH  27  28
ENDBRANCH  26  27
ENDBRANCH  25  26
ENDBRANCH  24  25
ENDBRANCH   1  24
TORSDOF 23
ENDMDL
MODEL 2
REMARK VINA RESULT:      -9.2      6.540     12.992
REMARK SMILES O=C(/C=C/c1ccccc1Oc1cccc(Cl)c1)OCCOCCOCCOC(=O)c1ccc(-c2c3nc(c(-c4c(F)cc(S(=O)(=O)[O-])cc4F)c4ccc([nH]4)c(-c4c(F)cc(S(=O)(=O)[O-])cc4F)c4nc(c(-c5c(F)cc(S(=O)(=O)[O-])cc5F)c5ccc2[nH]5)C=C4)C=C3)cc1
REMARK SMILES IDX 23 1 22 2 21 3 20 4 19 5 2 6 1 7 3 8 4 9 5 10 6 11 10 12
REMARK SMILES IDX 7 13 9 14 8 15 11 16 12 17 13 18 18 19 14 20 16 21 15 22
REMARK SMILES IDX 17 23 24 24 25 25 26 26 27 27 28 28 29 29 30 30 31 31 32 32
REMARK SMILES IDX 96 33 33 34 95 35 34 36 35 37 36 38 89 39 37 40 94 41 88 42
REMARK SMILES IDX 90 43 38 44 93 45 87 46 86 47 39 49 73 50 52 51 72 52 53 53
REMARK SMILES IDX 56 54 71 55 91 56 54 57 55 58 70 60 92 61 57 62 40 63 41 64
REMARK SMILES IDX 50 65 42 66 43 67 49 68 51 69 44 70 45 71 46 72 47 73 48 74
REMARK SMILES IDX 74 75 75 76 84 77 76 78 77 79 83 80 85 81 78 82 79 83 80 84
REMARK SMILES IDX 81 85 82 86 58 87 59 88 68 89 60 90 61 91 67 92 69 93 62 94
REMARK SMILES IDX 63 95 64 96 65 97 66 98
REMARK H PARENT 90 48 56 59
REMARK Flexibility Score: inf
ROOT
ATOM      1  C   UNL A   1      46.420  24.271  25.499  1.00  0.00     0.188 C 
ENDROOT
BRANCH   1   2
ATOM      2  O   UNL A   1      47.173  23.869  26.644  1.00  0.00    -0.376 OA
BRANCH   2   3
ATOM      3  C   UNL A   1      48.177  24.817  27.006  1.00  0.00     0.202 C 
BRANCH   3   4
ATOM      4  C   UNL A   1      47.898  25.382  28.398  1.00  0.00     0.261 C 
BRANCH   4   5
ATOM      5  O   UNL A   1      48.808  26.398  28.879  1.00  0.00    -0.460 OA
BRANCH   5   6
ATOM      6  C   UNL A   1      48.457  27.620  29.324  1.00  0.00     0.330 C 
ATOM      7  O   UNL A   1      49.129  28.210  30.165  1.00  0.00    -0.247 OA
BRANCH   6   8
ATOM      8  C   UNL A   1      47.226  28.245  28.810  1.00  0.00     0.094 C 
ATOM      9  C   UNL A   1      46.384  28.997  29.533  1.00  0.00     0.019 C 
BRANCH   9  10
ATOM     10  C   UNL A   1      45.142  29.512  28.946  1.00  0.00     0.017 A 
ATOM     11  C   UNL A   1      44.978  29.270  27.566  1.00  0.00     0.012 A 
ATOM     12  C   UNL A   1      44.146  30.233  29.633  1.00  0.00     0.134 A 
ATOM     13  C   UNL A   1      43.860  29.740  26.875  1.00  0.00     0.001 A 
ATOM     14  C   UNL A   1      43.027  30.699  28.919  1.00  0.00     0.048 A 
ATOM     15  C   UNL A   1      42.883  30.455  27.554  1.00  0.00     0.004 A 
BRANCH  12  16
ATOM     16  O   UNL A   1      44.132  30.658  30.948  1.00  0.00    -0.457 OA
BRANCH  16  17
ATOM     17  C   UNL A   1      44.871  31.743  31.329  1.00  0.00     0.128 A 
ATOM     18  C   UNL A   1      45.982  31.586  32.159  1.00  0.00     0.047 A 
ATOM     19  C   UNL A   1      44.442  33.014  30.945  1.00  0.00     0.067 A 
ATOM     20  C   UNL A   1      46.713  32.709  32.548  1.00  0.00     0.005 A 
ATOM     21  C   UNL A   1      45.194  34.126  31.312  1.00  0.00     0.044 A 
ATOM     22  C   UNL A   1      46.328  33.980  32.111  1.00  0.00     0.021 A 
ATOM     23  Cl  UNL A   1      44.747  35.682  30.727  1.00  0.00    -0.084 Cl
ENDBRANCH  16  17
ENDBRANCH  12  16
ENDBRANCH   9  10
ENDBRANCH   6   8
ENDBRANCH   5   6
ENDBRANCH   4   5
ENDBRANCH   3   4
ENDBRANCH   2   3
ENDBRANCH   1   2
BRANCH   1  24
ATOM     24  C   UNL A   1      46.628  23.323  24.318  1.00  0.00     0.188 C 
BRANCH  24  25
ATOM     25  O   UNL A   1      46.596  21.919  24.564  1.00  0.00    -0.376 OA
BRANCH  25  26
ATOM     26  C   UNL A   1      45.473  21.369  25.238  1.00  0.00     0.202 C 
BRANCH  26  27
ATOM     27  C   UNL A   1      44.157  21.361  24.459  1.00  0.00     0.261 C 
BRANCH  27  28
ATOM     28  O   UNL A   1      43.341  22.526  24.684  1.00  0.00    -0.460 OA
BRANCH  28  29
ATOM     29  C   UNL A   1      42.287  22.322  25.511  1.00  0.00     0.338 C 
ATOM     30  O   UNL A   1      41.730  21.265  25.746  1.00  0.00    -0.246 OA
BRANCH  29  31
ATOM     31  C   UNL A   1      41.889  23.574  26.182  1.00  0.00     0.060 A 
ATOM     32  C   UNL A   1      42.700  24.702  26.006  1.00  0.00     0.016 A 
ATOM     33  C   UNL A   1      40.870  23.575  27.138  1.00  0.00     0.016 A 
ATOM     34  C   UNL A   1      42.543  25.809  26.841  1.00  0.00     0.010 A 
ATOM     35  C   UNL A   1      40.720  24.685  27.979  1.00  0.00     0.010 A 
ATOM     36  C   UNL A   1      41.590  25.784  27.869  1.00  0.00    -0.014 A 
BRANCH  36  37
ATOM     37  C   UNL A   1      41.631  26.812  28.942  1.00  0.00     0.031 A 
ATOM     38  C   UNL A   1      42.687  26.712  30.013  1.00  0.00     0.074 A 
ATOM     39  C   UNL A   1      40.757  27.835  28.962  1.00  0.00     0.049 A 
ATOM     40  N   UNL A   1      42.870  27.458  31.073  1.00  0.00    -0.248 NA
ATOM     41  C   UNL A   1      43.668  25.623  29.869  1.00  0.00     0.031 C 
ATOM     42  C   UNL A   1      39.710  28.076  27.971  1.00  0.00     0.029 A 
ATOM     43  N   UNL A   1      40.610  28.859  29.865  1.00  0.00    -0.354 N 
ATOM     44  C   UNL A   1      43.978  26.929  31.725  1.00  0.00     0.074 A 
ATOM     45  C   UNL A   1      44.415  25.785  30.953  1.00  0.00     0.031 C 
ATOM     46  C   UNL A   1      39.018  29.172  28.329  1.00  0.00     0.029 A 
ATOM     47  C   UNL A   1      39.554  29.691  29.588  1.00  0.00     0.049 A 
ATOM     48  H   UNL A   1      41.207  28.985  30.638  1.00  0.00     0.167 HD
ATOM     49  C   UNL A   1      44.583  27.356  32.860  1.00  0.00     0.037 A 
ATOM     50  C   UNL A   1      39.060  30.736  30.282  1.00  0.00     0.037 A 
ATOM     51  C   UNL A   1      44.161  28.495  33.631  1.00  0.00     0.049 A 
ATOM     52  C   UNL A   1      39.711  31.156  31.576  1.00  0.00     0.074 A 
ATOM     53  C   UNL A   1      44.723  29.008  34.789  1.00  0.00     0.029 A 
ATOM     54  N   UNL A   1      43.071  29.296  33.329  1.00  0.00    -0.354 N 
ATOM     55  N   UNL A   1      40.761  30.649  32.176  1.00  0.00    -0.248 NA
ATOM     56  C   UNL A   1      39.103  32.291  32.289  1.00  0.00     0.031 C 
ATOM     57  C   UNL A   1      43.952  30.100  35.205  1.00  0.00     0.029 A 
ATOM     58  C   UNL A   1      42.933  30.288  34.286  1.00  0.00     0.049 A 
ATOM     59  H   UNL A   1      42.483  29.179  32.548  1.00  0.00     0.167 HD
ATOM     60  C   UNL A   1      40.951  31.416  33.322  1.00  0.00     0.074 A 
ATOM     61  C   UNL A   1      39.915  32.426  33.329  1.00  0.00     0.031 C 
ATOM     62  C   UNL A   1      41.901  31.294  34.282  1.00  0.00     0.037 A 
BRANCH  49  63
ATOM     63  C   UNL A   1      45.767  26.573  33.351  1.00  0.00     0.058 A 
ATOM     64  C   UNL A   1      45.613  25.346  34.012  1.00  0.00     0.135 A 
ATOM     65  C   UNL A   1      47.071  27.039  33.122  1.00  0.00     0.135 A 
ATOM     66  F   UNL A   1      44.385  24.865  34.269  1.00  0.00    -0.206 F 
ATOM     67  C   UNL A   1      46.713  24.613  34.447  1.00  0.00     0.059 A 
ATOM     68  C   UNL A   1      48.186  26.313  33.531  1.00  0.00     0.059 A 
ATOM     69  F   UNL A   1      47.272  28.208  32.496  1.00  0.00    -0.206 F 
ATOM     70  C   UNL A   1      47.996  25.107  34.204  1.00  0.00     0.060 A 
BRANCH  70  71
ATOM     71  S   UNL A   1      49.416  24.144  34.768  1.00  0.00     0.124 S 
ATOM     72  O   UNL A   1      49.707  24.781  36.049  1.00  0.00    -0.237 OA
ATOM     73  O   UNL A   1      48.872  22.792  34.842  1.00  0.00    -0.237 OA
ATOM     74  O   UNL A   1      50.408  24.359  33.720  1.00  0.00    -0.744 OA
ENDBRANCH  70  71
ENDBRANCH  49  63
BRANCH  50  75
ATOM     75  C   UNL A   1      37.857  31.453  29.786  1.00  0.00     0.058 A 
ATOM     76  C   UNL A   1      37.955  32.741  29.242  1.00  0.00     0.135 A 
ATOM     77  C   UNL A   1      36.584  30.867  29.866  1.00  0.00     0.135 A 
ATOM     78  F   UNL A   1      39.150  33.343  29.157  1.00  0.00    -0.206 F 
ATOM     79  C   UNL A   1      36.829  33.434  28.811  1.00  0.00     0.059 A 
ATOM     80  C   UNL A   1      35.447  31.532  29.423  1.00  0.00     0.059 A 
ATOM     81  F   UNL A   1      36.441  29.630  30.369  1.00  0.00    -0.206 F 
ATOM     82  C   UNL A   1      35.579  32.821  28.908  1.00  0.00     0.060 A 
BRANCH  82  83
ATOM     83  S   UNL A   1      34.122  33.709  28.313  1.00  0.00     0.124 S 
ATOM     84  O   UNL A   1      33.268  32.609  27.882  1.00  0.00    -0.237 OA
ATOM     85  O   UNL A   1      33.688  34.427  29.506  1.00  0.00    -0.237 OA
ATOM     86  O   UNL A   1      34.661  34.548  27.246  1.00  0.00    -0.744 OA
ENDBRANCH  82  83
ENDBRANCH  50  75
BRANCH  62  87
ATOM     87  C   UNL A   1      41.888  32.291  35.407  1.00  0.00     0.058 A 
ATOM     88  C   UNL A   1      42.683  33.447  35.375  1.00  0.00     0.135 A 
ATOM     89  C   UNL A   1      41.033  32.115  36.507  1.00  0.00     0.135 A 
ATOM     90  F   UNL A   1      43.521  33.662  34.348  1.00  0.00    -0.206 F 
ATOM     91  C   UNL A   1      42.648  34.383  36.404  1.00  0.00     0.059 A 
ATOM     92  C   UNL A   1      40.965  33.047  37.538  1.00  0.00     0.059 A 
ATOM     93  F   UNL A   1      40.244  31.031  36.581  1.00  0.00    -0.206 F 
ATOM     94  C   UNL A   1      41.786  34.174  37.483  1.00  0.00     0.060 A 
BRANCH  94  95
ATOM     95  S   UNL A   1      41.723  35.409  38.800  1.00  0.00     0.124 S 
ATOM     96  O   UNL A   1      42.225  36.595  38.114  1.00  0.00    -0.237 OA
ATOM     97  O   UNL A   1      40.305  35.430  39.147  1.00  0.00    -0.237 OA
ATOM     98  O   UNL A   1      42.603  34.856  39.825  1.00  0.00    -0.744 OA
ENDBRANCH  94  95
ENDBRANCH  62  87
ENDBRANCH  36  37
ENDBRANCH  29  31
ENDBRANCH  28  29
ENDBRANCH  27  28
ENDBRANCH  26  27
ENDBRANCH  25  26
ENDBRANCH  24  25
ENDBRANCH   1  24
TORSDOF 23
ENDMDL
MODEL 3
REMARK VINA RESULT:      -9.1     10.046     15.182
REMARK SMILES O=C(/C=C/c1ccccc1Oc1cccc(Cl)c1)OCCOCCOCCOC(=O)c1ccc(-c2c3nc(c(-c4c(F)cc(S(=O)(=O)[O-])cc4F)c4ccc([nH]4)c(-c4c(F)cc(S(=O)(=O)[O-])cc4F)c4nc(c(-c5c(F)cc(S(=O)(=O)[O-])cc5F)c5ccc2[nH]5)C=C4)C=C3)cc1
REMARK SMILES IDX 23 1 22 2 21 3 20 4 19 5 2 6 1 7 3 8 4 9 5 10 6 11 10 12
REMARK SMILES IDX 7 13 9 14 8 15 11 16 12 17 13 18 18 19 14 20 16 21 15 22
REMARK SMILES IDX 17 23 24 24 25 25 26 26 27 27 28 28 29 29 30 30 31 31 32 32
REMARK SMILES IDX 96 33 33 34 95 35 34 36 35 37 36 38 89 39 37 40 94 41 88 42
REMARK SMILES IDX 90 43 38 44 93 45 87 46 86 47 39 49 73 50 52 51 72 52 53 53
REMARK SMILES IDX 56 54 71 55 91 56 54 57 55 58 70 60 92 61 57 62 40 63 41 64
REMARK SMILES IDX 50 65 42 66 43 67 49 68 51 69 44 70 45 71 46 72 47 73 48 74
REMARK SMILES IDX 74 75 75 76 84 77 76 78 77 79 83 80 85 81 78 82 79 83 80 84
REMARK SMILES IDX 81 85 82 86 58 87 59 88 68 89 60 90 61 91 67 92 69 93 62 94
REMARK SMILES IDX 63 95 64 96 65 97 66 98
REMARK H PARENT 90 48 56 59
REMARK Flexibility Score: inf
ROOT
ATOM      1  C   UNL A   1      32.316  28.517  27.196  1.00  0.00     0.188 C 
ENDROOT
BRANCH   1   2
ATOM      2  O   UNL A   1      31.282  27.972  26.376  1.00  0.00    -0.376 OA
BRANCH   2   3
ATOM      3  C   UNL A   1      31.782  27.107  25.357  1.00  0.00     0.202 C 
BRANCH   3   4
ATOM      4  C   UNL A   1      33.242  27.436  25.048  1.00  0.00     0.261 C 
BRANCH   4   5
ATOM      5  O   UNL A   1      34.073  26.340  24.601  1.00  0.00    -0.460 OA
BRANCH   5   6
ATOM      6  C   UNL A   1      34.030  25.078  25.072  1.00  0.00     0.330 C 
ATOM      7  O   UNL A   1      34.391  24.811  26.213  1.00  0.00    -0.247 OA
BRANCH   6   8
ATOM      8  C   UNL A   1      33.567  23.997  24.185  1.00  0.00     0.094 C 
ATOM      9  C   UNL A   1      33.026  22.842  24.596  1.00  0.00     0.019 C 
BRANCH   9  10
ATOM     10  C   UNL A   1      32.665  21.794  23.634  1.00  0.00     0.017 A 
ATOM     11  C   UNL A   1      32.337  22.248  22.339  1.00  0.00     0.012 A 
ATOM     12  C   UNL A   1      32.598  20.415  23.908  1.00  0.00     0.134 A 
ATOM     13  C   UNL A   1      31.939  21.359  21.339  1.00  0.00     0.001 A 
ATOM     14  C   UNL A   1      32.194  19.535  22.888  1.00  0.00     0.048 A 
ATOM     15  C   UNL A   1      31.868  20.001  21.614  1.00  0.00     0.004 A 
BRANCH  12  16
ATOM     16  O   UNL A   1      32.789  19.758  25.109  1.00  0.00    -0.457 OA
BRANCH  16  17
ATOM     17  C   UNL A   1      33.305  18.492  25.128  1.00  0.00     0.128 A 
ATOM     18  C   UNL A   1      34.594  18.248  24.653  1.00  0.00     0.047 A 
ATOM     19  C   UNL A   1      32.488  17.442  25.548  1.00  0.00     0.067 A 
ATOM     20  C   UNL A   1      35.096  16.945  24.668  1.00  0.00     0.005 A 
ATOM     21  C   UNL A   1      33.007  16.151  25.588  1.00  0.00     0.044 A 
ATOM     22  C   UNL A   1      34.307  15.897  25.151  1.00  0.00     0.021 A 
ATOM     23  Cl  UNL A   1      32.051  14.873  26.234  1.00  0.00    -0.084 Cl
ENDBRANCH  16  17
ENDBRANCH  12  16
ENDBRANCH   9  10
ENDBRANCH   6   8
ENDBRANCH   5   6
ENDBRANCH   4   5
ENDBRANCH   3   4
ENDBRANCH   2   3
ENDBRANCH   1   2
BRANCH   1  24
ATOM     24  C   UNL A   1      32.255  30.044  27.251  1.00  0.00     0.188 C 
BRANCH  24  25
ATOM     25  O   UNL A   1      33.386  30.748  27.759  1.00  0.00    -0.376 OA
BRANCH  25  26
ATOM     26  C   UNL A   1      34.660  30.506  27.177  1.00  0.00     0.202 C 
BRANCH  26  27
ATOM     27  C   UNL A   1      35.867  31.037  27.951  1.00  0.00     0.261 C 
BRANCH  27  28
ATOM     28  O   UNL A   1      35.666  31.091  29.376  1.00  0.00    -0.460 OA
BRANCH  28  29
ATOM     29  C   UNL A   1      36.388  30.184  30.079  1.00  0.00     0.338 C 
ATOM     30  O   UNL A   1      35.961  29.341  30.847  1.00  0.00    -0.246 OA
BRANCH  29  31
ATOM     31  C   UNL A   1      37.824  30.291  29.765  1.00  0.00     0.060 A 
ATOM     32  C   UNL A   1      38.211  30.225  28.421  1.00  0.00     0.016 A 
ATOM     33  C   UNL A   1      38.781  30.229  30.782  1.00  0.00     0.016 A 
ATOM     34  C   UNL A   1      39.553  30.021  28.091  1.00  0.00     0.010 A 
ATOM     35  C   UNL A   1      40.125  30.017  30.448  1.00  0.00     0.010 A 
ATOM     36  C   UNL A   1      40.508  29.859  29.104  1.00  0.00    -0.014 A 
BRANCH  36  37
ATOM     37  C   UNL A   1      41.859  29.336  28.772  1.00  0.00     0.031 A 
ATOM     38  C   UNL A   1      43.031  30.285  28.771  1.00  0.00     0.074 A 
ATOM     39  C   UNL A   1      42.054  28.035  28.491  1.00  0.00     0.049 A 
ATOM     40  N   UNL A   1      44.281  30.061  28.452  1.00  0.00    -0.248 NA
ATOM     41  C   UNL A   1      42.756  31.671  29.184  1.00  0.00     0.031 C 
ATOM     42  C   UNL A   1      41.020  27.002  28.492  1.00  0.00     0.029 A 
ATOM     43  N   UNL A   1      43.200  27.366  28.138  1.00  0.00    -0.354 N 
ATOM     44  C   UNL A   1      44.940  31.274  28.619  1.00  0.00     0.074 A 
ATOM     45  C   UNL A   1      43.947  32.237  29.047  1.00  0.00     0.031 C 
ATOM     46  C   UNL A   1      41.577  25.830  28.141  1.00  0.00     0.029 A 
ATOM     47  C   UNL A   1      42.999  26.036  27.862  1.00  0.00     0.049 A 
ATOM     48  H   UNL A   1      44.083  27.799  28.088  1.00  0.00     0.167 HD
ATOM     49  C   UNL A   1      46.251  31.563  28.438  1.00  0.00     0.037 A 
ATOM     50  C   UNL A   1      43.857  25.098  27.413  1.00  0.00     0.037 A 
ATOM     51  C   UNL A   1      47.246  30.612  28.019  1.00  0.00     0.049 A 
ATOM     52  C   UNL A   1      45.299  25.457  27.158  1.00  0.00     0.074 A 
ATOM     53  C   UNL A   1      48.603  30.815  27.822  1.00  0.00     0.029 A 
ATOM     54  N   UNL A   1      46.997  29.281  27.727  1.00  0.00    -0.354 N 
ATOM     55  N   UNL A   1      45.907  26.606  27.326  1.00  0.00    -0.248 NA
ATOM     56  C   UNL A   1      46.171  24.386  26.648  1.00  0.00     0.031 C 
ATOM     57  C   UNL A   1      49.166  29.613  27.378  1.00  0.00     0.029 A 
ATOM     58  C   UNL A   1      48.168  28.654  27.334  1.00  0.00     0.049 A 
ATOM     59  H   UNL A   1      46.116  28.844  27.790  1.00  0.00     0.167 HD
ATOM     60  C   UNL A   1      47.234  26.391  26.964  1.00  0.00     0.074 A 
ATOM     61  C   UNL A   1      47.344  25.001  26.576  1.00  0.00     0.031 C 
ATOM     62  C   UNL A   1      48.269  27.268  26.955  1.00  0.00     0.037 A 
BRANCH  49  63
ATOM     63  C   UNL A   1      46.688  32.980  28.679  1.00  0.00     0.058 A 
ATOM     64  C   UNL A   1      47.268  33.373  29.894  1.00  0.00     0.135 A 
ATOM     65  C   UNL A   1      46.559  33.944  27.667  1.00  0.00     0.135 A 
ATOM     66  F   UNL A   1      47.399  32.492  30.898  1.00  0.00    -0.206 F 
ATOM     67  C   UNL A   1      47.691  34.682  30.105  1.00  0.00     0.059 A 
ATOM     68  C   UNL A   1      46.992  35.254  27.850  1.00  0.00     0.059 A 
ATOM     69  F   UNL A   1      46.008  33.618  26.488  1.00  0.00    -0.206 F 
ATOM     70  C   UNL A   1      47.545  35.616  29.078  1.00  0.00     0.060 A 
BRANCH  70  71
ATOM     71  S   UNL A   1      48.102  37.310  29.361  1.00  0.00     0.124 S 
ATOM     72  O   UNL A   1      47.202  37.736  30.429  1.00  0.00    -0.237 OA
ATOM     73  O   UNL A   1      49.498  37.123  29.746  1.00  0.00    -0.237 OA
ATOM     74  O   UNL A   1      47.894  37.956  28.070  1.00  0.00    -0.744 OA
ENDBRANCH  70  71
ENDBRANCH  49  63
BRANCH  50  75
ATOM     75  C   UNL A   1      43.372  23.720  27.141  1.00  0.00     0.058 A 
ATOM     76  C   UNL A   1      43.006  23.324  25.848  1.00  0.00     0.135 A 
ATOM     77  C   UNL A   1      43.249  22.782  28.178  1.00  0.00     0.135 A 
ATOM     78  F   UNL A   1      43.096  24.192  24.829  1.00  0.00    -0.206 F 
ATOM     79  C   UNL A   1      42.514  22.048  25.592  1.00  0.00     0.059 A 
ATOM     80  C   UNL A   1      42.779  21.496  27.942  1.00  0.00     0.059 A 
ATOM     81  F   UNL A   1      43.598  23.112  29.431  1.00  0.00    -0.206 F 
ATOM     82  C   UNL A   1      42.402  21.142  26.648  1.00  0.00     0.060 A 
BRANCH  82  83
ATOM     83  S   UNL A   1      41.799  19.474  26.307  1.00  0.00     0.124 S 
ATOM     84  O   UNL A   1      42.143  18.782  27.543  1.00  0.00    -0.237 OA
ATOM     85  O   UNL A   1      40.377  19.700  26.074  1.00  0.00    -0.237 OA
ATOM     86  O   UNL A   1      42.565  19.081  25.127  1.00  0.00    -0.744 OA
ENDBRANCH  82  83
ENDBRANCH  50  75
BRANCH  62  87
ATOM     87  C   UNL A   1      49.618  26.749  26.541  1.00  0.00     0.058 A 
ATOM     88  C   UNL A   1      50.412  25.988  27.412  1.00  0.00     0.135 A 
ATOM     89  C   UNL A   1      50.102  26.974  25.242  1.00  0.00     0.135 A 
ATOM     90  F   UNL A   1      49.999  25.746  28.666  1.00  0.00    -0.206 F 
ATOM     91  C   UNL A   1      51.649  25.485  27.017  1.00  0.00     0.059 A 
ATOM     92  C   UNL A   1      51.325  26.464  24.818  1.00  0.00     0.059 A 
ATOM     93  F   UNL A   1      49.376  27.688  24.366  1.00  0.00    -0.206 F 
ATOM     94  C   UNL A   1      52.098  25.730  25.718  1.00  0.00     0.060 A 
BRANCH  94  95
ATOM     95  S   UNL A   1      53.689  25.047  25.202  1.00  0.00     0.124 S 
ATOM     96  O   UNL A   1      53.835  25.620  23.868  1.00  0.00    -0.237 OA
ATOM     97  O   UNL A   1      54.600  25.566  26.217  1.00  0.00    -0.237 OA
ATOM     98  O   UNL A   1      53.469  23.605  25.247  1.00  0.00    -0.744 OA
ENDBRANCH  94  95
ENDBRANCH  62  87
ENDBRANCH  36  37
ENDBRANCH  29  31
ENDBRANCH  28  29
ENDBRANCH  27  28
ENDBRANCH  26  27
ENDBRANCH  25  26
ENDBRANCH  24  25
ENDBRANCH   1  24
TORSDOF 23
ENDMDL
