MODEL 1
REMARK VINA RESULT:     -10.2      0.000      0.000
REMARK SMILES COc1ccc(OC)c([C@H](C(=O)OCCOCCOCCOC(=O)c2ccc(-c3c4nc(c(-c5c(F)cc(S(=O)(=O)[O-])cc5F)c5ccc([nH]5)c(-c5c(F)cc(S(=O)(=O)[O-])cc5F)c5nc(c(-c6c(F)cc(S(=O)(=O)[O-])cc6F)c6ccc3[nH]6)C=C5)C=C4)cc2)[NH+]2CC[NH+](Cc3nccn3C)CC2)c1
REMARK SMILES IDX 17 1 16 2 15 3 14 4 13 5 11 6 12 7 10 8 9 9 3 10 4 11 104 12
REMARK SMILES IDX 5 13 6 14 2 15 1 16 7 17 8 18 91 19 92 20 103 21 93 23
REMARK SMILES IDX 102 24 94 25 95 27 96 28 97 29 100 30 98 31 99 32 101 33
REMARK SMILES IDX 18 34 19 35 20 36 21 37 22 38 23 39 24 40 25 41 26 42 90 43
REMARK SMILES IDX 27 44 89 45 28 46 29 47 30 48 83 49 31 50 88 51 82 52 84 53
REMARK SMILES IDX 32 54 87 55 81 56 80 57 33 59 67 60 46 61 66 62 47 63 50 64
REMARK SMILES IDX 65 65 85 66 48 67 49 68 64 70 86 71 51 72 34 73 35 74 44 75
REMARK SMILES IDX 36 76 37 77 43 78 45 79 38 80 39 81 40 82 41 83 42 84 68 85
REMARK SMILES IDX 69 86 78 87 70 88 71 89 77 90 79 91 72 92 73 93 74 94 75 95
REMARK SMILES IDX 76 96 52 97 53 98 62 99 54 100 55 101 61 102 63 103 56 104
REMARK SMILES IDX 57 105 58 106 59 107 60 108
REMARK H PARENT 91 22 94 26 84 58 50 69
REMARK Flexibility Score: inf
ROOT
ATOM      1  C   UNL A   1      35.715  31.781  27.837  1.00  0.00     0.188 C 
ENDROOT
BRANCH   1   2
ATOM      2  O   UNL A   1      34.869  30.675  28.031  1.00  0.00    -0.376 OA
BRANCH   2   3
ATOM      3  C   UNL A   1      34.950  29.547  27.190  1.00  0.00     0.202 C 
BRANCH   3   4
ATOM      4  C   UNL A   1      33.768  28.689  26.722  1.00  0.00     0.261 C 
BRANCH   4   5
ATOM      5  O   UNL A   1      33.967  27.349  26.257  1.00  0.00    -0.459 OA
BRANCH   5   6
ATOM      6  C   UNL A   1      33.751  27.171  24.924  1.00  0.00     0.370 C 
ATOM      7  O   UNL A   1      33.968  28.054  24.091  1.00  0.00    -0.245 OA
BRANCH   6   8
ATOM      8  C   UNL A   1      33.062  25.865  24.508  1.00  0.00     0.330 C 
BRANCH   8   9
ATOM      9  C   UNL A   1      33.398  24.504  25.139  1.00  0.00     0.067 A 
ATOM     10  C   UNL A   1      35.036  22.730  25.656  1.00  0.00     0.119 A 
ATOM     11  C   UNL A   1      34.034  21.971  26.249  1.00  0.00     0.050 A 
ATOM     12  C   UNL A   1      34.721  23.994  25.143  1.00  0.00     0.060 A 
ATOM     13  C   UNL A   1      32.729  22.450  26.293  1.00  0.00     0.051 A 
ATOM     14  C   UNL A   1      32.400  23.695  25.736  1.00  0.00     0.128 A 
BRANCH  10  15
ATOM     15  O   UNL A   1      36.250  22.103  25.610  1.00  0.00    -0.497 OA
ATOM     16  C   UNL A   1      36.313  20.756  25.167  1.00  0.00     0.278 C 
ENDBRANCH  10  15
BRANCH  14  17
ATOM     17  O   UNL A   1      31.044  23.899  25.682  1.00  0.00    -0.496 OA
ATOM     18  C   UNL A   1      30.258  23.334  26.723  1.00  0.00     0.278 C 
ENDBRANCH  14  17
ENDBRANCH   8   9
BRANCH   8  19
ATOM     19  N   UNL A   1      31.607  26.105  24.375  1.00  0.00    -0.310 N 
ATOM     20  C   UNL A   1      31.062  27.211  25.165  1.00  0.00     0.325 C 
ATOM     21  C   UNL A   1      31.144  26.119  22.977  1.00  0.00     0.325 C 
ATOM     22  H   UNL A   1      31.200  25.278  24.814  1.00  0.00     0.349 HD
ATOM     23  C   UNL A   1      30.894  28.578  24.465  1.00  0.00     0.324 C 
ATOM     24  C   UNL A   1      31.027  27.502  22.281  1.00  0.00     0.324 C 
ATOM     25  N   UNL A   1      30.444  28.594  23.067  1.00  0.00    -0.319 N 
ATOM     26  H   UNL A   1      30.813  29.453  22.658  1.00  0.00     0.348 HD
BRANCH  25  27
ATOM     27  C   UNL A   1      28.985  28.729  22.921  1.00  0.00     0.339 C 
BRANCH  27  28
ATOM     28  C   UNL A   1      28.534  29.985  22.241  1.00  0.00     0.164 A 
ATOM     29  N   UNL A   1      28.038  30.043  21.017  1.00  0.00    -0.236 NA
ATOM     30  N   UNL A   1      28.686  31.255  22.751  1.00  0.00    -0.333 N 
ATOM     31  C   UNL A   1      28.063  31.363  20.664  1.00  0.00     0.131 A 
ATOM     32  C   UNL A   1      28.462  32.137  21.725  1.00  0.00     0.107 A 
ATOM     33  C   UNL A   1      29.128  31.652  24.067  1.00  0.00     0.151 C 
ENDBRANCH  27  28
ENDBRANCH  25  27
ENDBRANCH   8  19
ENDBRANCH   6   8
ENDBRANCH   5   6
ENDBRANCH   4   5
ENDBRANCH   3   4
ENDBRANCH   2   3
ENDBRANCH   1   2
BRANCH   1  34
ATOM     34  C   UNL A   1      35.127  33.110  28.353  1.00  0.00     0.188 C 
BRANCH  34  35
ATOM     35  O   UNL A   1      35.426  33.551  29.666  1.00  0.00    -0.376 OA
BRANCH  35  36
ATOM     36  C   UNL A   1      34.803  32.892  30.757  1.00  0.00     0.202 C 
BRANCH  36  37
ATOM     37  C   UNL A   1      35.640  32.111  31.792  1.00  0.00     0.261 C 
BRANCH  37  38
ATOM     38  O   UNL A   1      37.067  32.250  31.714  1.00  0.00    -0.460 OA
BRANCH  38  39
ATOM     39  C   UNL A   1      37.801  31.370  32.455  1.00  0.00     0.338 C 
ATOM     40  O   UNL A   1      37.510  30.918  33.540  1.00  0.00    -0.246 OA
BRANCH  39  41
ATOM     41  C   UNL A   1      38.909  30.841  31.607  1.00  0.00     0.060 A 
ATOM     42  C   UNL A   1      39.895  30.033  32.203  1.00  0.00     0.016 A 
ATOM     43  C   UNL A   1      38.957  31.101  30.239  1.00  0.00     0.016 A 
ATOM     44  C   UNL A   1      40.928  29.490  31.437  1.00  0.00     0.010 A 
ATOM     45  C   UNL A   1      40.019  30.597  29.481  1.00  0.00     0.010 A 
ATOM     46  C   UNL A   1      41.023  29.811  30.080  1.00  0.00    -0.014 A 
BRANCH  46  47
ATOM     47  C   UNL A   1      42.279  29.549  29.333  1.00  0.00     0.031 A 
ATOM     48  C   UNL A   1      42.467  28.173  28.754  1.00  0.00     0.074 A 
ATOM     49  C   UNL A   1      43.240  30.480  29.192  1.00  0.00     0.049 A 
ATOM     50  N   UNL A   1      43.528  27.632  28.217  1.00  0.00    -0.248 NA
ATOM     51  C   UNL A   1      41.294  27.283  28.802  1.00  0.00     0.031 C 
ATOM     52  C   UNL A   1      43.153  31.867  29.644  1.00  0.00     0.029 A 
ATOM     53  N   UNL A   1      44.498  30.382  28.645  1.00  0.00    -0.354 N 
ATOM     54  C   UNL A   1      43.158  26.333  27.884  1.00  0.00     0.074 A 
ATOM     55  C   UNL A   1      41.783  26.162  28.294  1.00  0.00     0.031 C 
ATOM     56  C   UNL A   1      44.321  32.482  29.387  1.00  0.00     0.029 A 
ATOM     57  C   UNL A   1      45.253  31.522  28.795  1.00  0.00     0.049 A 
ATOM     58  H   UNL A   1      44.826  29.574  28.191  1.00  0.00     0.167 HD
ATOM     59  C   UNL A   1      43.901  25.371  27.291  1.00  0.00     0.037 A 
ATOM     60  C   UNL A   1      46.556  31.746  28.525  1.00  0.00     0.037 A 
ATOM     61  C   UNL A   1      45.271  25.549  26.887  1.00  0.00     0.049 A 
ATOM     62  C   UNL A   1      47.395  30.629  27.951  1.00  0.00     0.074 A 
ATOM     63  C   UNL A   1      46.108  24.642  26.263  1.00  0.00     0.029 A 
ATOM     64  N   UNL A   1      46.008  26.708  27.083  1.00  0.00    -0.354 N 
ATOM     65  N   UNL A   1      47.037  29.408  27.626  1.00  0.00    -0.248 NA
ATOM     66  C   UNL A   1      48.818  30.914  27.717  1.00  0.00     0.031 C 
ATOM     67  C   UNL A   1      47.369  25.232  26.133  1.00  0.00     0.029 A 
ATOM     68  C   UNL A   1      47.302  26.527  26.624  1.00  0.00     0.049 A 
ATOM     69  H   UNL A   1      45.663  27.536  27.488  1.00  0.00     0.167 HD
ATOM     70  C   UNL A   1      48.182  28.790  27.132  1.00  0.00     0.074 A 
ATOM     71  C   UNL A   1      49.243  29.776  27.184  1.00  0.00     0.031 C 
ATOM     72  C   UNL A   1      48.346  27.521  26.681  1.00  0.00     0.037 A 
BRANCH  59  73
ATOM     73  C   UNL A   1      43.260  24.027  27.079  1.00  0.00     0.058 A 
ATOM     74  C   UNL A   1      42.707  23.654  25.844  1.00  0.00     0.135 A 
ATOM     75  C   UNL A   1      43.221  23.089  28.123  1.00  0.00     0.135 A 
ATOM     76  F   UNL A   1      42.696  24.520  24.818  1.00  0.00    -0.206 F 
ATOM     77  C   UNL A   1      42.117  22.408  25.658  1.00  0.00     0.059 A 
ATOM     78  C   UNL A   1      42.664  21.825  27.951  1.00  0.00     0.059 A 
ATOM     79  F   UNL A   1      43.729  23.396  29.327  1.00  0.00    -0.206 F 
ATOM     80  C   UNL A   1      42.103  21.500  26.718  1.00  0.00     0.060 A 
BRANCH  80  81
ATOM     81  S   UNL A   1      41.346  19.882  26.455  1.00  0.00     0.124 S 
ATOM     82  O   UNL A   1      41.503  19.269  27.771  1.00  0.00    -0.237 OA
ATOM     83  O   UNL A   1      39.980  20.235  26.080  1.00  0.00    -0.237 OA
ATOM     84  O   UNL A   1      42.154  19.296  25.391  1.00  0.00    -0.744 OA
ENDBRANCH  80  81
ENDBRANCH  59  73
BRANCH  60  85
ATOM     85  C   UNL A   1      47.168  33.071  28.828  1.00  0.00     0.058 A 
ATOM     86  C   UNL A   1      47.160  34.107  27.882  1.00  0.00     0.135 A 
ATOM     87  C   UNL A   1      47.784  33.325  30.065  1.00  0.00     0.135 A 
ATOM     88  F   UNL A   1      46.606  33.910  26.677  1.00  0.00    -0.206 F 
ATOM     89  C   UNL A   1      47.743  35.343  28.147  1.00  0.00     0.059 A 
ATOM     90  C   UNL A   1      48.348  34.562  30.364  1.00  0.00     0.059 A 
ATOM     91  F   UNL A   1      47.822  32.370  31.006  1.00  0.00    -0.206 F 
ATOM     92  C   UNL A   1      48.327  35.564  29.395  1.00  0.00     0.060 A 
BRANCH  92  93
ATOM     93  S   UNL A   1      49.018  37.195  29.751  1.00  0.00     0.124 S 
ATOM     94  O   UNL A   1      49.662  36.970  31.039  1.00  0.00    -0.237 OA
ATOM     95  O   UNL A   1      49.913  37.400  28.615  1.00  0.00    -0.237 OA
ATOM     96  O   UNL A   1      47.842  38.061  29.773  1.00  0.00    -0.744 OA
ENDBRANCH  92  93
ENDBRANCH  60  85
BRANCH  72  97
ATOM     97  C   UNL A   1      49.712  27.122  26.186  1.00  0.00     0.058 A 
ATOM     98  C   UNL A   1      50.701  26.645  27.059  1.00  0.00     0.135 A 
ATOM     99  C   UNL A   1      50.007  27.147  24.812  1.00  0.00     0.135 A 
ATOM    100  F   UNL A   1      50.473  26.607  28.382  1.00  0.00    -0.206 F 
ATOM    101  C   UNL A   1      51.941  26.221  26.591  1.00  0.00     0.059 A 
ATOM    102  C   UNL A   1      51.230  26.698  24.320  1.00  0.00     0.059 A 
ATOM    103  F   UNL A   1      49.094  27.583  23.931  1.00  0.00    -0.206 F 
ATOM    104  C   UNL A   1      52.194  26.244  25.218  1.00  0.00     0.060 A 
BRANCH 104 105
ATOM    105  S   UNL A   1      53.789  25.645  24.623  1.00  0.00     0.124 S 
ATOM    106  O   UNL A   1      54.696  26.154  25.647  1.00  0.00    -0.237 OA
ATOM    107  O   UNL A   1      53.594  24.198  24.612  1.00  0.00    -0.237 OA
ATOM    108  O   UNL A   1      53.917  26.265  23.308  1.00  0.00    -0.744 OA
ENDBRANCH 104 105
ENDBRANCH  72  97
ENDBRANCH  46  47
ENDBRANCH  39  41
ENDBRANCH  38  39
ENDBRANCH  37  38
ENDBRANCH  36  37
ENDBRANCH  35  36
ENDBRANCH  34  35
ENDBRANCH   1  34
TORSDOF 26
ENDMDL
MODEL 2
REMARK VINA RESULT:     -10.0      1.547      4.460
REMARK SMILES COc1ccc(OC)c([C@H](C(=O)OCCOCCOCCOC(=O)c2ccc(-c3c4nc(c(-c5c(F)cc(S(=O)(=O)[O-])cc5F)c5ccc([nH]5)c(-c5c(F)cc(S(=O)(=O)[O-])cc5F)c5nc(c(-c6c(F)cc(S(=O)(=O)[O-])cc6F)c6ccc3[nH]6)C=C5)C=C4)cc2)[NH+]2CC[NH+](Cc3nccn3C)CC2)c1
REMARK SMILES IDX 17 1 16 2 15 3 14 4 13 5 11 6 12 7 10 8 9 9 3 10 4 11 104 12
REMARK SMILES IDX 5 13 6 14 2 15 1 16 7 17 8 18 91 19 92 20 103 21 93 23
REMARK SMILES IDX 102 24 94 25 95 27 96 28 97 29 100 30 98 31 99 32 101 33
REMARK SMILES IDX 18 34 19 35 20 36 21 37 22 38 23 39 24 40 25 41 26 42 90 43
REMARK SMILES IDX 27 44 89 45 28 46 29 47 30 48 83 49 31 50 88 51 82 52 84 53
REMARK SMILES IDX 32 54 87 55 81 56 80 57 33 59 67 60 46 61 66 62 47 63 50 64
REMARK SMILES IDX 65 65 85 66 48 67 49 68 64 70 86 71 51 72 34 73 35 74 44 75
REMARK SMILES IDX 36 76 37 77 43 78 45 79 38 80 39 81 40 82 41 83 42 84 68 85
REMARK SMILES IDX 69 86 78 87 70 88 71 89 77 90 79 91 72 92 73 93 74 94 75 95
REMARK SMILES IDX 76 96 52 97 53 98 62 99 54 100 55 101 61 102 63 103 56 104
REMARK SMILES IDX 57 105 58 106 59 107 60 108
REMARK H PARENT 91 22 94 26 84 58 50 69
REMARK Flexibility Score: inf
ROOT
ATOM      1  C   UNL A   1      33.386  31.515  27.678  1.00  0.00     0.188 C 
ENDROOT
BRANCH   1   2
ATOM      2  O   UNL A   1      32.645  31.095  26.560  1.00  0.00    -0.376 OA
BRANCH   2   3
ATOM      3  C   UNL A   1      31.969  29.859  26.565  1.00  0.00     0.202 C 
BRANCH   3   4
ATOM      4  C   UNL A   1      32.552  28.514  26.116  1.00  0.00     0.261 C 
BRANCH   4   5
ATOM      5  O   UNL A   1      33.389  28.421  24.958  1.00  0.00    -0.459 OA
BRANCH   5   6
ATOM      6  C   UNL A   1      32.723  28.453  23.770  1.00  0.00     0.370 C 
ATOM      7  O   UNL A   1      33.160  29.039  22.777  1.00  0.00    -0.245 OA
BRANCH   6   8
ATOM      8  C   UNL A   1      31.308  27.861  23.759  1.00  0.00     0.330 C 
BRANCH   8   9
ATOM      9  C   UNL A   1      30.081  28.637  23.254  1.00  0.00     0.067 A 
ATOM     10  C   UNL A   1      29.068  30.721  22.398  1.00  0.00     0.119 A 
ATOM     11  C   UNL A   1      27.821  30.108  22.368  1.00  0.00     0.050 A 
ATOM     12  C   UNL A   1      30.184  29.977  22.803  1.00  0.00     0.060 A 
ATOM     13  C   UNL A   1      27.684  28.785  22.774  1.00  0.00     0.051 A 
ATOM     14  C   UNL A   1      28.790  28.052  23.226  1.00  0.00     0.128 A 
BRANCH  10  15
ATOM     15  O   UNL A   1      29.043  32.043  22.052  1.00  0.00    -0.497 OA
ATOM     16  C   UNL A   1      28.017  32.510  21.190  1.00  0.00     0.278 C 
ENDBRANCH  10  15
BRANCH  14  17
ATOM     17  O   UNL A   1      28.427  26.850  23.781  1.00  0.00    -0.496 OA
ATOM     18  C   UNL A   1      27.063  26.684  24.140  1.00  0.00     0.278 C 
ENDBRANCH  14  17
ENDBRANCH   8   9
BRANCH   8  19
ATOM     19  N   UNL A   1      31.366  26.469  23.258  1.00  0.00    -0.310 N 
ATOM     20  C   UNL A   1      32.278  26.227  22.137  1.00  0.00     0.325 C 
ATOM     21  C   UNL A   1      31.500  25.468  24.330  1.00  0.00     0.325 C 
ATOM     22  H   UNL A   1      30.443  26.339  22.843  1.00  0.00     0.349 HD
ATOM     23  C   UNL A   1      33.690  25.690  22.465  1.00  0.00     0.324 C 
ATOM     24  C   UNL A   1      32.933  24.979  24.670  1.00  0.00     0.324 C 
ATOM     25  N   UNL A   1      33.827  24.701  23.541  1.00  0.00    -0.319 N 
ATOM     26  H   UNL A   1      34.773  24.808  23.908  1.00  0.00     0.348 HD
BRANCH  25  27
ATOM     27  C   UNL A   1      33.784  23.308  23.068  1.00  0.00     0.339 C 
BRANCH  27  28
ATOM     28  C   UNL A   1      34.367  22.304  24.014  1.00  0.00     0.164 A 
ATOM     29  N   UNL A   1      35.662  22.105  24.196  1.00  0.00    -0.236 NA
ATOM     30  N   UNL A   1      33.640  21.377  24.726  1.00  0.00    -0.333 N 
ATOM     31  C   UNL A   1      35.767  20.918  24.866  1.00  0.00     0.131 A 
ATOM     32  C   UNL A   1      34.525  20.445  25.207  1.00  0.00     0.107 A 
ATOM     33  C   UNL A   1      32.208  21.268  24.866  1.00  0.00     0.151 C 
ENDBRANCH  27  28
ENDBRANCH  25  27
ENDBRANCH   8  19
ENDBRANCH   6   8
ENDBRANCH   5   6
ENDBRANCH   4   5
ENDBRANCH   3   4
ENDBRANCH   2   3
ENDBRANCH   1   2
BRANCH   1  34
ATOM     34  C   UNL A   1      34.896  31.216  27.570  1.00  0.00     0.188 C 
BRANCH  34  35
ATOM     35  O   UNL A   1      35.838  32.248  27.806  1.00  0.00    -0.376 OA
BRANCH  35  36
ATOM     36  C   UNL A   1      35.731  32.998  29.006  1.00  0.00     0.202 C 
BRANCH  36  37
ATOM     37  C   UNL A   1      36.991  33.419  29.792  1.00  0.00     0.261 C 
BRANCH  37  38
ATOM     38  O   UNL A   1      37.299  32.668  30.977  1.00  0.00    -0.460 OA
BRANCH  38  39
ATOM     39  C   UNL A   1      37.155  31.314  30.888  1.00  0.00     0.338 C 
ATOM     40  O   UNL A   1      36.132  30.683  31.032  1.00  0.00    -0.246 OA
BRANCH  39  41
ATOM     41  C   UNL A   1      38.412  30.738  30.327  1.00  0.00     0.060 A 
ATOM     42  C   UNL A   1      39.488  30.481  31.197  1.00  0.00     0.016 A 
ATOM     43  C   UNL A   1      38.518  30.417  28.976  1.00  0.00     0.016 A 
ATOM     44  C   UNL A   1      40.669  29.909  30.719  1.00  0.00     0.010 A 
ATOM     45  C   UNL A   1      39.719  29.890  28.487  1.00  0.00     0.010 A 
ATOM     46  C   UNL A   1      40.808  29.657  29.350  1.00  0.00    -0.014 A 
BRANCH  46  47
ATOM     47  C   UNL A   1      42.148  29.391  28.769  1.00  0.00     0.031 A 
ATOM     48  C   UNL A   1      42.438  27.988  28.310  1.00  0.00     0.074 A 
ATOM     49  C   UNL A   1      43.093  30.343  28.674  1.00  0.00     0.049 A 
ATOM     50  N   UNL A   1      43.568  27.450  27.933  1.00  0.00    -0.248 NA
ATOM     51  C   UNL A   1      41.291  27.063  28.286  1.00  0.00     0.031 C 
ATOM     52  C   UNL A   1      42.917  31.752  29.018  1.00  0.00     0.029 A 
ATOM     53  N   UNL A   1      44.407  30.254  28.280  1.00  0.00    -0.354 N 
ATOM     54  C   UNL A   1      43.273  26.120  27.649  1.00  0.00     0.074 A 
ATOM     55  C   UNL A   1      41.865  25.929  27.914  1.00  0.00     0.031 C 
ATOM     56  C   UNL A   1      44.091  32.390  28.852  1.00  0.00     0.029 A 
ATOM     57  C   UNL A   1      45.110  31.426  28.436  1.00  0.00     0.049 A 
ATOM     58  H   UNL A   1      44.807  29.430  27.921  1.00  0.00     0.167 HD
ATOM     59  C   UNL A   1      44.105  25.148  27.211  1.00  0.00     0.037 A 
ATOM     60  C   UNL A   1      46.429  31.677  28.300  1.00  0.00     0.037 A 
ATOM     61  C   UNL A   1      45.506  25.347  26.953  1.00  0.00     0.049 A 
ATOM     62  C   UNL A   1      47.358  30.554  27.901  1.00  0.00     0.074 A 
ATOM     63  C   UNL A   1      46.434  24.431  26.489  1.00  0.00     0.029 A 
ATOM     64  N   UNL A   1      46.185  26.540  27.151  1.00  0.00    -0.354 N 
ATOM     65  N   UNL A   1      47.072  29.304  27.621  1.00  0.00    -0.248 NA
ATOM     66  C   UNL A   1      48.790  30.873  27.809  1.00  0.00     0.031 C 
ATOM     67  C   UNL A   1      47.685  25.054  26.462  1.00  0.00     0.029 A 
ATOM     68  C   UNL A   1      47.527  26.375  26.854  1.00  0.00     0.049 A 
ATOM     69  H   UNL A   1      45.774  27.380  27.457  1.00  0.00     0.167 HD
ATOM     70  C   UNL A   1      48.282  28.695  27.303  1.00  0.00     0.074 A 
ATOM     71  C   UNL A   1      49.303  29.718  27.406  1.00  0.00     0.031 C 
ATOM     72  C   UNL A   1      48.531  27.405  26.960  1.00  0.00     0.037 A 
BRANCH  59  73
ATOM     73  C   UNL A   1      43.528  23.772  27.020  1.00  0.00     0.058 A 
ATOM     74  C   UNL A   1      43.223  22.938  28.108  1.00  0.00     0.135 A 
ATOM     75  C   UNL A   1      43.254  23.291  25.729  1.00  0.00     0.135 A 
ATOM     76  F   UNL A   1      43.485  23.337  29.362  1.00  0.00    -0.206 F 
ATOM     77  C   UNL A   1      42.688  21.667  27.920  1.00  0.00     0.059 A 
ATOM     78  C   UNL A   1      42.692  22.036  25.520  1.00  0.00     0.059 A 
ATOM     79  F   UNL A   1      43.534  24.045  24.655  1.00  0.00    -0.206 F 
ATOM     80  C   UNL A   1      42.424  21.226  26.622  1.00  0.00     0.060 A 
BRANCH  80  81
ATOM     81  S   UNL A   1      41.718  19.580  26.399  1.00  0.00     0.124 S 
ATOM     82  O   UNL A   1      42.405  19.129  25.192  1.00  0.00    -0.237 OA
ATOM     83  O   UNL A   1      42.102  18.907  27.635  1.00  0.00    -0.237 OA
ATOM     84  O   UNL A   1      40.290  19.840  26.247  1.00  0.00    -0.744 OA
ENDBRANCH  80  81
ENDBRANCH  59  73
BRANCH  60  85
ATOM     85  C   UNL A   1      46.966  33.039  28.579  1.00  0.00     0.058 A 
ATOM     86  C   UNL A   1      47.003  34.023  27.580  1.00  0.00     0.135 A 
ATOM     87  C   UNL A   1      47.464  33.381  29.847  1.00  0.00     0.135 A 
ATOM     88  F   UNL A   1      46.561  33.741  26.345  1.00  0.00    -0.206 F 
ATOM     89  C   UNL A   1      47.518  35.293  27.823  1.00  0.00     0.059 A 
ATOM     90  C   UNL A   1      47.957  34.653  30.123  1.00  0.00     0.059 A 
ATOM     91  F   UNL A   1      47.455  32.479  30.840  1.00  0.00    -0.206 F 
ATOM     92  C   UNL A   1      47.985  35.601  29.102  1.00  0.00     0.060 A 
BRANCH  92  93
ATOM     93  S   UNL A   1      48.586  37.275  29.423  1.00  0.00     0.124 S 
ATOM     94  O   UNL A   1      47.552  38.086  28.793  1.00  0.00    -0.237 OA
ATOM     95  O   UNL A   1      48.625  37.309  30.883  1.00  0.00    -0.237 OA
ATOM     96  O   UNL A   1      49.892  37.295  28.771  1.00  0.00    -0.744 OA
ENDBRANCH  92  93
ENDBRANCH  60  85
BRANCH  72  97
ATOM     97  C   UNL A   1      49.955  27.023  26.650  1.00  0.00     0.058 A 
ATOM     98  C   UNL A   1      50.813  26.517  27.638  1.00  0.00     0.135 A 
ATOM     99  C   UNL A   1      50.441  27.093  25.334  1.00  0.00     0.135 A 
ATOM    100  F   UNL A   1      50.401  26.435  28.913  1.00  0.00    -0.206 F 
ATOM    101  C   UNL A   1      52.108  26.108  27.337  1.00  0.00     0.059 A 
ATOM    102  C   UNL A   1      51.722  26.660  25.004  1.00  0.00     0.059 A 
ATOM    103  F   UNL A   1      49.659  27.559  24.347  1.00  0.00    -0.206 F 
ATOM    104  C   UNL A   1      52.552  26.177  26.014  1.00  0.00     0.060 A 
BRANCH 104 105
ATOM    105  S   UNL A   1      54.218  25.597  25.632  1.00  0.00     0.124 S 
ATOM    106  O   UNL A   1      54.788  26.760  24.958  1.00  0.00    -0.237 OA
ATOM    107  O   UNL A   1      54.757  25.304  26.956  1.00  0.00    -0.237 OA
ATOM    108  O   UNL A   1      53.987  24.432  24.783  1.00  0.00    -0.744 OA
ENDBRANCH 104 105
ENDBRANCH  72  97
ENDBRANCH  46  47
ENDBRANCH  39  41
ENDBRANCH  38  39
ENDBRANCH  37  38
ENDBRANCH  36  37
ENDBRANCH  35  36
ENDBRANCH  34  35
ENDBRANCH   1  34
TORSDOF 26
ENDMDL
MODEL 3
REMARK VINA RESULT:      -9.6      1.591      8.874
REMARK SMILES COc1ccc(OC)c([C@H](C(=O)OCCOCCOCCOC(=O)c2ccc(-c3c4nc(c(-c5c(F)cc(S(=O)(=O)[O-])cc5F)c5ccc([nH]5)c(-c5c(F)cc(S(=O)(=O)[O-])cc5F)c5nc(c(-c6c(F)cc(S(=O)(=O)[O-])cc6F)c6ccc3[nH]6)C=C5)C=C4)cc2)[NH+]2CC[NH+](Cc3nccn3C)CC2)c1
REMARK SMILES IDX 17 1 16 2 15 3 14 4 13 5 11 6 12 7 10 8 9 9 3 10 4 11 104 12
REMARK SMILES IDX 5 13 6 14 2 15 1 16 7 17 8 18 91 19 92 20 103 21 93 23
REMARK SMILES IDX 102 24 94 25 95 27 96 28 97 29 100 30 98 31 99 32 101 33
REMARK SMILES IDX 18 34 19 35 20 36 21 37 22 38 23 39 24 40 25 41 26 42 90 43
REMARK SMILES IDX 27 44 89 45 28 46 29 47 30 48 83 49 31 50 88 51 82 52 84 53
REMARK SMILES IDX 32 54 87 55 81 56 80 57 33 59 67 60 46 61 66 62 47 63 50 64
REMARK SMILES IDX 65 65 85 66 48 67 49 68 64 70 86 71 51 72 34 73 35 74 44 75
REMARK SMILES IDX 36 76 37 77 43 78 45 79 38 80 39 81 40 82 41 83 42 84 68 85
REMARK SMILES IDX 69 86 78 87 70 88 71 89 77 90 79 91 72 92 73 93 74 94 75 95
REMARK SMILES IDX 76 96 52 97 53 98 62 99 54 100 55 101 61 102 63 103 56 104
REMARK SMILES IDX 57 105 58 106 59 107 60 108
REMARK H PARENT 91 22 94 26 84 58 50 69
REMARK Flexibility Score: inf
ROOT
ATOM      1  C   UNL A   1      32.984  31.215  27.488  1.00  0.00     0.188 C 
ENDROOT
BRANCH   1   2
ATOM      2  O   UNL A   1      32.134  30.710  26.488  1.00  0.00    -0.376 OA
BRANCH   2   3
ATOM      3  C   UNL A   1      31.813  29.339  26.437  1.00  0.00     0.202 C 
BRANCH   3   4
ATOM      4  C   UNL A   1      32.731  28.220  25.931  1.00  0.00     0.261 C 
BRANCH   4   5
ATOM      5  O   UNL A   1      33.413  28.334  24.677  1.00  0.00    -0.459 OA
BRANCH   5   6
ATOM      6  C   UNL A   1      32.597  28.380  23.587  1.00  0.00     0.370 C 
ATOM      7  O   UNL A   1      32.884  29.011  22.567  1.00  0.00    -0.245 OA
BRANCH   6   8
ATOM      8  C   UNL A   1      31.211  27.741  23.739  1.00  0.00     0.330 C 
BRANCH   8   9
ATOM      9  C   UNL A   1      29.907  28.481  23.399  1.00  0.00     0.067 A 
ATOM     10  C   UNL A   1      28.692  30.586  22.959  1.00  0.00     0.119 A 
ATOM     11  C   UNL A   1      27.504  29.877  22.826  1.00  0.00     0.050 A 
ATOM     12  C   UNL A   1      29.880  29.886  23.207  1.00  0.00     0.060 A 
ATOM     13  C   UNL A   1      27.495  28.495  22.976  1.00  0.00     0.051 A 
ATOM     14  C   UNL A   1      28.674  27.795  23.273  1.00  0.00     0.128 A 
BRANCH  10  15
ATOM     15  O   UNL A   1      28.541  31.941  22.869  1.00  0.00    -0.497 OA
ATOM     16  C   UNL A   1      29.282  32.778  23.743  1.00  0.00     0.278 C 
ENDBRANCH  10  15
BRANCH  14  17
ATOM     17  O   UNL A   1      28.433  26.483  23.595  1.00  0.00    -0.496 OA
ATOM     18  C   UNL A   1      28.132  26.190  24.953  1.00  0.00     0.278 C 
ENDBRANCH  14  17
ENDBRANCH   8   9
BRANCH   8  19
ATOM     19  N   UNL A   1      31.252  26.358  23.210  1.00  0.00    -0.310 N 
ATOM     20  C   UNL A   1      31.987  26.170  21.957  1.00  0.00     0.325 C 
ATOM     21  C   UNL A   1      31.598  25.354  24.231  1.00  0.00     0.325 C 
ATOM     22  H   UNL A   1      30.282  26.188  22.943  1.00  0.00     0.349 HD
ATOM     23  C   UNL A   1      33.455  25.697  22.051  1.00  0.00     0.324 C 
ATOM     24  C   UNL A   1      33.087  24.930  24.335  1.00  0.00     0.324 C 
ATOM     25  N   UNL A   1      33.804  24.705  23.075  1.00  0.00    -0.319 N 
ATOM     26  H   UNL A   1      34.790  24.853  23.291  1.00  0.00     0.348 HD
BRANCH  25  27
ATOM     27  C   UNL A   1      33.750  23.316  22.591  1.00  0.00     0.339 C 
BRANCH  27  28
ATOM     28  C   UNL A   1      34.192  22.286  23.584  1.00  0.00     0.164 A 
ATOM     29  N   UNL A   1      33.376  21.513  24.282  1.00  0.00    -0.236 NA
ATOM     30  N   UNL A   1      35.493  22.089  23.989  1.00  0.00    -0.333 N 
ATOM     31  C   UNL A   1      34.138  20.969  25.279  1.00  0.00     0.131 A 
ATOM     32  C   UNL A   1      35.457  21.312  25.119  1.00  0.00     0.107 A 
ATOM     33  C   UNL A   1      36.702  22.670  23.456  1.00  0.00     0.151 C 
ENDBRANCH  27  28
ENDBRANCH  25  27
ENDBRANCH   8  19
ENDBRANCH   6   8
ENDBRANCH   5   6
ENDBRANCH   4   5
ENDBRANCH   3   4
ENDBRANCH   2   3
ENDBRANCH   1   2
BRANCH   1  34
ATOM     34  C   UNL A   1      34.471  30.872  27.270  1.00  0.00     0.188 C 
BRANCH  34  35
ATOM     35  O   UNL A   1      35.476  31.709  27.817  1.00  0.00    -0.376 OA
BRANCH  35  36
ATOM     36  C   UNL A   1      35.203  32.385  29.033  1.00  0.00     0.202 C 
BRANCH  36  37
ATOM     37  C   UNL A   1      36.342  32.764  30.002  1.00  0.00     0.261 C 
BRANCH  37  38
ATOM     38  O   UNL A   1      36.532  31.918  31.147  1.00  0.00    -0.460 OA
BRANCH  38  39
ATOM     39  C   UNL A   1      36.687  30.586  30.893  1.00  0.00     0.338 C 
ATOM     40  O   UNL A   1      35.810  29.756  30.816  1.00  0.00    -0.246 OA
BRANCH  39  41
ATOM     41  C   UNL A   1      38.097  30.344  30.466  1.00  0.00     0.060 A 
ATOM     42  C   UNL A   1      38.354  30.034  29.118  1.00  0.00     0.016 A 
ATOM     43  C   UNL A   1      39.153  30.461  31.366  1.00  0.00     0.016 A 
ATOM     44  C   UNL A   1      39.661  29.836  28.670  1.00  0.00     0.010 A 
ATOM     45  C   UNL A   1      40.460  30.215  30.928  1.00  0.00     0.010 A 
ATOM     46  C   UNL A   1      40.718  29.876  29.585  1.00  0.00    -0.014 A 
BRANCH  46  47
ATOM     47  C   UNL A   1      42.048  29.329  29.220  1.00  0.00     0.031 A 
ATOM     48  C   UNL A   1      43.203  30.293  29.167  1.00  0.00     0.074 A 
ATOM     49  C   UNL A   1      42.234  28.032  28.913  1.00  0.00     0.049 A 
ATOM     50  N   UNL A   1      44.416  30.117  28.714  1.00  0.00    -0.248 NA
ATOM     51  C   UNL A   1      42.944  31.645  29.690  1.00  0.00     0.031 C 
ATOM     52  C   UNL A   1      41.217  26.987  28.992  1.00  0.00     0.029 A 
ATOM     53  N   UNL A   1      43.351  27.382  28.445  1.00  0.00    -0.354 N 
ATOM     54  C   UNL A   1      45.057  31.341  28.875  1.00  0.00     0.074 A 
ATOM     55  C   UNL A   1      44.095  32.254  29.451  1.00  0.00     0.031 C 
ATOM     56  C   UNL A   1      41.747  25.830  28.553  1.00  0.00     0.029 A 
ATOM     57  C   UNL A   1      43.125  26.065  28.120  1.00  0.00     0.049 A 
ATOM     58  H   UNL A   1      44.228  27.817  28.352  1.00  0.00     0.167 HD
ATOM     59  C   UNL A   1      46.331  31.672  28.567  1.00  0.00     0.037 A 
ATOM     60  C   UNL A   1      43.925  25.169  27.505  1.00  0.00     0.037 A 
ATOM     61  C   UNL A   1      47.281  30.758  27.992  1.00  0.00     0.049 A 
ATOM     62  C   UNL A   1      45.314  25.585  27.083  1.00  0.00     0.074 A 
ATOM     63  C   UNL A   1      48.604  30.988  27.658  1.00  0.00     0.029 A 
ATOM     64  N   UNL A   1      47.004  29.442  27.650  1.00  0.00    -0.354 N 
ATOM     65  N   UNL A   1      45.918  26.739  27.250  1.00  0.00    -0.248 NA
ATOM     66  C   UNL A   1      46.127  24.583  26.378  1.00  0.00     0.031 C 
ATOM     67  C   UNL A   1      49.110  29.830  27.061  1.00  0.00     0.029 A 
ATOM     68  C   UNL A   1      48.121  28.858  27.076  1.00  0.00     0.049 A 
ATOM     69  H   UNL A   1      46.143  28.989  27.795  1.00  0.00     0.167 HD
ATOM     70  C   UNL A   1      47.185  26.594  26.690  1.00  0.00     0.074 A 
ATOM     71  C   UNL A   1      47.268  25.235  26.195  1.00  0.00     0.031 C 
ATOM     72  C   UNL A   1      48.189  27.502  26.590  1.00  0.00     0.037 A 
BRANCH  59  73
ATOM     73  C   UNL A   1      46.760  33.093  28.811  1.00  0.00     0.058 A 
ATOM     74  C   UNL A   1      47.340  33.496  30.024  1.00  0.00     0.135 A 
ATOM     75  C   UNL A   1      46.610  34.060  27.803  1.00  0.00     0.135 A 
ATOM     76  F   UNL A   1      47.486  32.619  31.030  1.00  0.00    -0.206 F 
ATOM     77  C   UNL A   1      47.735  34.813  30.238  1.00  0.00     0.059 A 
ATOM     78  C   UNL A   1      47.026  35.376  27.985  1.00  0.00     0.059 A 
ATOM     79  F   UNL A   1      46.055  33.730  26.627  1.00  0.00    -0.206 F 
ATOM     80  C   UNL A   1      47.575  35.745  29.212  1.00  0.00     0.060 A 
BRANCH  80  81
ATOM     81  S   UNL A   1      48.105  37.446  29.502  1.00  0.00     0.124 S 
ATOM     82  O   UNL A   1      48.485  37.397  30.911  1.00  0.00    -0.237 OA
ATOM     83  O   UNL A   1      49.205  37.595  28.555  1.00  0.00    -0.237 OA
ATOM     84  O   UNL A   1      46.912  38.231  29.203  1.00  0.00    -0.744 OA
ENDBRANCH  80  81
ENDBRANCH  59  73
BRANCH  60  85
ATOM     85  C   UNL A   1      43.426  23.795  27.211  1.00  0.00     0.058 A 
ATOM     86  C   UNL A   1      43.050  23.422  25.913  1.00  0.00     0.135 A 
ATOM     87  C   UNL A   1      43.305  22.831  28.227  1.00  0.00     0.135 A 
ATOM     88  F   UNL A   1      43.125  24.311  24.912  1.00  0.00    -0.206 F 
ATOM     89  C   UNL A   1      42.567  22.147  25.630  1.00  0.00     0.059 A 
ATOM     90  C   UNL A   1      42.852  21.541  27.963  1.00  0.00     0.059 A 
ATOM     91  F   UNL A   1      43.649  23.134  29.487  1.00  0.00    -0.206 F 
ATOM     92  C   UNL A   1      42.479  21.211  26.661  1.00  0.00     0.060 A 
BRANCH  92  93
ATOM     93  S   UNL A   1      41.917  19.540  26.267  1.00  0.00     0.124 S 
ATOM     94  O   UNL A   1      40.478  19.733  26.144  1.00  0.00    -0.237 OA
ATOM     95  O   UNL A   1      42.634  19.263  25.025  1.00  0.00    -0.237 OA
ATOM     96  O   UNL A   1      42.355  18.756  27.419  1.00  0.00    -0.744 OA
ENDBRANCH  92  93
ENDBRANCH  60  85
BRANCH  72  97
ATOM     97  C   UNL A   1      49.473  27.060  25.939  1.00  0.00     0.058 A 
ATOM     98  C   UNL A   1      49.697  27.223  24.564  1.00  0.00     0.135 A 
ATOM     99  C   UNL A   1      50.521  26.537  26.715  1.00  0.00     0.135 A 
ATOM    100  F   UNL A   1      48.726  27.713  23.775  1.00  0.00    -0.206 F 
ATOM    101  C   UNL A   1      50.907  26.869  23.977  1.00  0.00     0.059 A 
ATOM    102  C   UNL A   1      51.751  26.205  26.153  1.00  0.00     0.059 A 
ATOM    103  F   UNL A   1      50.366  26.369  28.038  1.00  0.00    -0.206 F 
ATOM    104  C   UNL A   1      51.932  26.367  24.781  1.00  0.00     0.060 A 
BRANCH 104 105
ATOM    105  S   UNL A   1      53.513  25.959  24.012  1.00  0.00     0.124 S 
ATOM    106  O   UNL A   1      53.168  25.992  22.594  1.00  0.00    -0.237 OA
ATOM    107  O   UNL A   1      54.376  27.039  24.480  1.00  0.00    -0.237 OA
ATOM    108  O   UNL A   1      53.823  24.638  24.550  1.00  0.00    -0.744 OA
ENDBRANCH 104 105
ENDBRANCH  72  97
ENDBRANCH  46  47
ENDBRANCH  39  41
ENDBRANCH  38  39
ENDBRANCH  37  38
ENDBRANCH  36  37
ENDBRANCH  35  36
ENDBRANCH  34  35
ENDBRANCH   1  34
TORSDOF 26
ENDMDL
