MODEL 1
REMARK VINA RESULT:      -9.4      0.000      0.000
REMARK SMILES Cc1ccccc1-c1nc(CC(=O)OCCOCCOCCOC(=O)c2ccc(-c3c4nc(c(-c5c(F)cc(S(=O)(=O)[O-])cc5F)c5ccc([nH]5)c(-c5c(F)cc(S(=O)(=O)[O-])cc5F)c5nc(c(-c6c(F)cc(S(=O)(=O)[O-])cc6F)c6ccc3[nH]6)C=C5)C=C4)cc2)cs1
REMARK SMILES IDX 19 1 18 2 17 3 16 4 15 5 14 6 12 7 13 8 11 9 10 10 8 11 9 12
REMARK SMILES IDX 93 13 92 14 7 15 1 16 2 17 3 18 4 19 6 20 5 21 20 22 21 23
REMARK SMILES IDX 22 24 23 25 24 26 25 27 26 28 27 29 91 30 28 31 90 32 29 33
REMARK SMILES IDX 30 34 31 35 84 36 32 37 89 38 83 39 85 40 33 41 88 42 82 43
REMARK SMILES IDX 81 44 34 46 68 47 47 48 67 49 48 50 51 51 66 52 86 53 49 54
REMARK SMILES IDX 50 55 65 57 87 58 52 59 35 60 36 61 45 62 37 63 38 64 44 65
REMARK SMILES IDX 46 66 39 67 40 68 41 69 42 70 43 71 69 72 70 73 79 74 71 75
REMARK SMILES IDX 72 76 78 77 80 78 73 79 74 80 75 81 76 82 77 83 53 84 54 85
REMARK SMILES IDX 63 86 55 87 56 88 62 89 64 90 57 91 58 92 59 93 60 94 61 95
REMARK H PARENT 85 45 51 56
REMARK Flexibility Score: inf
ROOT
ATOM      1  C   UNL A   1      35.628  33.706  28.718  1.00  0.00     0.188 C 
ENDROOT
BRANCH   1   2
ATOM      2  C   UNL A   1      34.439  32.747  28.635  1.00  0.00     0.188 C 
BRANCH   2   3
ATOM      3  O   UNL A   1      34.777  31.359  28.660  1.00  0.00    -0.376 OA
BRANCH   3   4
ATOM      4  C   UNL A   1      34.463  30.590  27.489  1.00  0.00     0.202 C 
BRANCH   4   5
ATOM      5  C   UNL A   1      32.965  30.375  27.245  1.00  0.00     0.261 C 
BRANCH   5   6
ATOM      6  O   UNL A   1      32.443  29.640  26.082  1.00  0.00    -0.463 OA
BRANCH   6   7
ATOM      7  C   UNL A   1      31.502  29.950  25.111  1.00  0.00     0.311 C 
ATOM      8  O   UNL A   1      30.707  30.832  25.163  1.00  0.00    -0.252 OA
BRANCH   7   9
ATOM      9  C   UNL A   1      31.627  28.848  24.035  1.00  0.00     0.179 C 
BRANCH   9  10
ATOM     10  C   UNL A   1      31.483  27.356  24.195  1.00  0.00     0.063 A 
ATOM     11  C   UNL A   1      32.383  25.358  24.179  1.00  0.00     0.123 A 
ATOM     12  N   UNL A   1      32.382  26.537  23.572  1.00  0.00    -0.240 NA
ATOM     13  S   UNL A   1      30.931  24.991  24.991  1.00  0.00    -0.122 S 
ATOM     14  C   UNL A   1      30.792  26.680  25.212  1.00  0.00     0.091 A 
BRANCH  11  15
ATOM     15  C   UNL A   1      33.575  24.522  24.205  1.00  0.00     0.013 A 
ATOM     16  C   UNL A   1      32.721  22.493  22.779  1.00  0.00     0.045 C 
ATOM     17  C   UNL A   1      33.708  23.225  23.657  1.00  0.00    -0.041 A 
ATOM     18  C   UNL A   1      34.846  22.479  24.016  1.00  0.00     0.004 A 
ATOM     19  C   UNL A   1      35.789  22.969  24.921  1.00  0.00     0.000 A 
ATOM     20  C   UNL A   1      34.565  25.010  25.083  1.00  0.00     0.011 A 
ATOM     21  C   UNL A   1      35.649  24.237  25.458  1.00  0.00     0.001 A 
ENDBRANCH  11  15
ENDBRANCH   9  10
ENDBRANCH   7   9
ENDBRANCH   6   7
ENDBRANCH   5   6
ENDBRANCH   4   5
ENDBRANCH   3   4
ENDBRANCH   2   3
ENDBRANCH   1   2
BRANCH   1  22
ATOM     22  O   UNL A   1      36.069  33.689  30.070  1.00  0.00    -0.376 OA
BRANCH  22  23
ATOM     23  C   UNL A   1      37.471  33.638  30.287  1.00  0.00     0.202 C 
BRANCH  23  24
ATOM     24  C   UNL A   1      38.126  32.317  29.848  1.00  0.00     0.261 C 
BRANCH  24  25
ATOM     25  O   UNL A   1      38.485  31.527  31.003  1.00  0.00    -0.460 OA
BRANCH  25  26
ATOM     26  C   UNL A   1      37.644  30.502  31.340  1.00  0.00     0.338 C 
ATOM     27  O   UNL A   1      36.551  30.642  31.862  1.00  0.00    -0.246 OA
BRANCH  26  28
ATOM     28  C   UNL A   1      38.415  29.213  31.339  1.00  0.00     0.060 A 
ATOM     29  C   UNL A   1      39.625  29.052  32.019  1.00  0.00     0.016 A 
ATOM     30  C   UNL A   1      38.197  28.390  30.263  1.00  0.00     0.016 A 
ATOM     31  C   UNL A   1      40.652  28.202  31.521  1.00  0.00     0.010 A 
ATOM     32  C   UNL A   1      39.327  27.865  29.644  1.00  0.00     0.010 A 
ATOM     33  C   UNL A   1      40.575  27.701  30.219  1.00  0.00    -0.014 A 
BRANCH  33  34
ATOM     34  C   UNL A   1      41.741  27.505  29.283  1.00  0.00     0.031 A 
ATOM     35  C   UNL A   1      42.631  26.302  28.988  1.00  0.00     0.074 A 
ATOM     36  C   UNL A   1      41.912  28.574  28.475  1.00  0.00     0.049 A 
ATOM     37  N   UNL A   1      43.835  26.335  28.488  1.00  0.00    -0.248 NA
ATOM     38  C   UNL A   1      42.275  24.893  29.217  1.00  0.00     0.031 C 
ATOM     39  C   UNL A   1      42.697  28.717  27.265  1.00  0.00     0.029 A 
ATOM     40  N   UNL A   1      41.522  29.873  28.773  1.00  0.00    -0.354 N 
ATOM     41  C   UNL A   1      44.176  25.016  28.151  1.00  0.00     0.074 A 
ATOM     42  C   UNL A   1      43.439  24.246  29.097  1.00  0.00     0.031 C 
ATOM     43  C   UNL A   1      42.961  30.024  27.091  1.00  0.00     0.029 A 
ATOM     44  C   UNL A   1      42.481  30.738  28.267  1.00  0.00     0.049 A 
ATOM     45  H   UNL A   1      40.707  30.134  29.258  1.00  0.00     0.167 HD
ATOM     46  C   UNL A   1      44.803  24.720  26.962  1.00  0.00     0.037 A 
ATOM     47  C   UNL A   1      43.233  31.413  29.191  1.00  0.00     0.037 A 
ATOM     48  C   UNL A   1      45.394  25.955  26.447  1.00  0.00     0.049 A 
ATOM     49  C   UNL A   1      44.689  30.917  29.195  1.00  0.00     0.074 A 
ATOM     50  C   UNL A   1      45.276  26.801  25.362  1.00  0.00     0.029 A 
ATOM     51  N   UNL A   1      46.173  26.639  27.349  1.00  0.00    -0.354 N 
ATOM     52  N   UNL A   1      45.157  30.025  28.354  1.00  0.00    -0.248 NA
ATOM     53  C   UNL A   1      45.738  31.351  30.120  1.00  0.00     0.031 C 
ATOM     54  C   UNL A   1      45.911  28.050  25.712  1.00  0.00     0.029 A 
ATOM     55  C   UNL A   1      46.442  27.928  26.985  1.00  0.00     0.049 A 
ATOM     56  H   UNL A   1      46.506  26.236  28.183  1.00  0.00     0.167 HD
ATOM     57  C   UNL A   1      46.456  29.708  28.637  1.00  0.00     0.074 A 
ATOM     58  C   UNL A   1      46.789  30.594  29.739  1.00  0.00     0.031 C 
ATOM     59  C   UNL A   1      47.147  28.718  27.989  1.00  0.00     0.037 A 
BRANCH  46  60
ATOM     60  C   UNL A   1      44.822  23.372  26.188  1.00  0.00     0.058 A 
ATOM     61  C   UNL A   1      43.653  22.569  26.121  1.00  0.00     0.135 A 
ATOM     62  C   UNL A   1      45.932  22.758  25.551  1.00  0.00     0.135 A 
ATOM     63  F   UNL A   1      42.492  22.991  26.640  1.00  0.00    -0.206 F 
ATOM     64  C   UNL A   1      43.604  21.287  25.534  1.00  0.00     0.059 A 
ATOM     65  C   UNL A   1      45.907  21.487  24.951  1.00  0.00     0.059 A 
ATOM     66  F   UNL A   1      47.129  23.336  25.467  1.00  0.00    -0.206 F 
ATOM     67  C   UNL A   1      44.742  20.746  24.955  1.00  0.00     0.060 A 
BRANCH  67  68
ATOM     68  S   UNL A   1      44.696  19.090  24.233  1.00  0.00     0.124 S 
ATOM     69  O   UNL A   1      44.477  19.375  22.818  1.00  0.00    -0.237 OA
ATOM     70  O   UNL A   1      46.013  18.566  24.580  1.00  0.00    -0.237 OA
ATOM     71  O   UNL A   1      43.572  18.451  24.914  1.00  0.00    -0.744 OA
ENDBRANCH  67  68
ENDBRANCH  46  60
BRANCH  47  72
ATOM     72  C   UNL A   1      42.367  32.010  30.296  1.00  0.00     0.058 A 
ATOM     73  C   UNL A   1      42.414  31.370  31.569  1.00  0.00     0.135 A 
ATOM     74  C   UNL A   1      41.737  33.265  30.294  1.00  0.00     0.135 A 
ATOM     75  F   UNL A   1      42.993  30.162  31.685  1.00  0.00    -0.206 F 
ATOM     76  C   UNL A   1      41.982  31.964  32.761  1.00  0.00     0.059 A 
ATOM     77  C   UNL A   1      41.258  33.873  31.484  1.00  0.00     0.059 A 
ATOM     78  F   UNL A   1      41.668  33.984  29.164  1.00  0.00    -0.206 F 
ATOM     79  C   UNL A   1      41.409  33.227  32.718  1.00  0.00     0.060 A 
BRANCH  79  80
ATOM     80  S   UNL A   1      40.926  34.059  34.272  1.00  0.00     0.124 S 
ATOM     81  O   UNL A   1      40.913  32.950  35.218  1.00  0.00    -0.237 OA
ATOM     82  O   UNL A   1      41.990  35.037  34.478  1.00  0.00    -0.237 OA
ATOM     83  O   UNL A   1      39.618  34.617  33.945  1.00  0.00    -0.744 OA
ENDBRANCH  79  80
ENDBRANCH  47  72
BRANCH  59  84
ATOM     84  C   UNL A   1      48.555  28.303  28.357  1.00  0.00     0.058 A 
ATOM     85  C   UNL A   1      49.623  28.444  27.464  1.00  0.00     0.135 A 
ATOM     86  C   UNL A   1      48.855  27.633  29.572  1.00  0.00     0.135 A 
ATOM     87  F   UNL A   1      49.437  29.033  26.271  1.00  0.00    -0.206 F 
ATOM     88  C   UNL A   1      50.909  27.990  27.772  1.00  0.00     0.059 A 
ATOM     89  C   UNL A   1      50.104  27.109  29.868  1.00  0.00     0.059 A 
ATOM     90  F   UNL A   1      47.957  27.507  30.559  1.00  0.00    -0.206 F 
ATOM     91  C   UNL A   1      51.138  27.326  28.979  1.00  0.00     0.060 A 
BRANCH  91  92
ATOM     92  S   UNL A   1      52.796  26.784  29.422  1.00  0.00     0.124 S 
ATOM     93  O   UNL A   1      53.463  28.037  29.761  1.00  0.00    -0.237 OA
ATOM     94  O   UNL A   1      52.513  25.892  30.541  1.00  0.00    -0.237 OA
ATOM     95  O   UNL A   1      53.277  26.135  28.205  1.00  0.00    -0.744 OA
ENDBRANCH  91  92
ENDBRANCH  59  84
ENDBRANCH  33  34
ENDBRANCH  26  28
ENDBRANCH  25  26
ENDBRANCH  24  25
ENDBRANCH  23  24
ENDBRANCH  22  23
ENDBRANCH   1  22
TORSDOF 22
ENDMDL
MODEL 2
REMARK VINA RESULT:      -9.2      3.880      9.697
REMARK SMILES Cc1ccccc1-c1nc(CC(=O)OCCOCCOCCOC(=O)c2ccc(-c3c4nc(c(-c5c(F)cc(S(=O)(=O)[O-])cc5F)c5ccc([nH]5)c(-c5c(F)cc(S(=O)(=O)[O-])cc5F)c5nc(c(-c6c(F)cc(S(=O)(=O)[O-])cc6F)c6ccc3[nH]6)C=C5)C=C4)cc2)cs1
REMARK SMILES IDX 19 1 18 2 17 3 16 4 15 5 14 6 12 7 13 8 11 9 10 10 8 11 9 12
REMARK SMILES IDX 93 13 92 14 7 15 1 16 2 17 3 18 4 19 6 20 5 21 20 22 21 23
REMARK SMILES IDX 22 24 23 25 24 26 25 27 26 28 27 29 91 30 28 31 90 32 29 33
REMARK SMILES IDX 30 34 31 35 84 36 32 37 89 38 83 39 85 40 33 41 88 42 82 43
REMARK SMILES IDX 81 44 34 46 68 47 47 48 67 49 48 50 51 51 66 52 86 53 49 54
REMARK SMILES IDX 50 55 65 57 87 58 52 59 35 60 36 61 45 62 37 63 38 64 44 65
REMARK SMILES IDX 46 66 39 67 40 68 41 69 42 70 43 71 69 72 70 73 79 74 71 75
REMARK SMILES IDX 72 76 78 77 80 78 73 79 74 80 75 81 76 82 77 83 53 84 54 85
REMARK SMILES IDX 63 86 55 87 56 88 62 89 64 90 57 91 58 92 59 93 60 94 61 95
REMARK H PARENT 85 45 51 56
REMARK Flexibility Score: inf
ROOT
ATOM      1  C   UNL A   1      34.857  33.774  28.383  1.00  0.00     0.188 C 
ENDROOT
BRANCH   1   2
ATOM      2  C   UNL A   1      35.205  34.187  29.813  1.00  0.00     0.188 C 
BRANCH   2   3
ATOM      3  O   UNL A   1      34.209  33.885  30.792  1.00  0.00    -0.376 OA
BRANCH   3   4
ATOM      4  C   UNL A   1      34.436  32.735  31.620  1.00  0.00     0.202 C 
BRANCH   4   5
ATOM      5  C   UNL A   1      35.831  32.665  32.252  1.00  0.00     0.261 C 
BRANCH   5   6
ATOM      6  O   UNL A   1      36.447  33.803  32.953  1.00  0.00    -0.463 OA
BRANCH   6   7
ATOM      7  C   UNL A   1      37.655  33.965  33.615  1.00  0.00     0.311 C 
ATOM      8  O   UNL A   1      38.016  34.946  34.182  1.00  0.00    -0.252 OA
BRANCH   7   9
ATOM      9  C   UNL A   1      38.459  32.672  33.352  1.00  0.00     0.179 C 
BRANCH   9  10
ATOM     10  C   UNL A   1      39.891  32.528  32.905  1.00  0.00     0.063 A 
ATOM     11  C   UNL A   1      41.518  33.110  31.558  1.00  0.00     0.123 A 
ATOM     12  N   UNL A   1      40.218  32.861  31.621  1.00  0.00    -0.240 NA
ATOM     13  S   UNL A   1      42.435  32.334  32.766  1.00  0.00    -0.122 S 
ATOM     14  C   UNL A   1      41.028  32.472  33.725  1.00  0.00     0.091 A 
BRANCH  11  15
ATOM     15  C   UNL A   1      42.063  34.045  30.584  1.00  0.00     0.013 A 
ATOM     16  C   UNL A   1      39.850  34.744  29.360  1.00  0.00     0.045 C 
ATOM     17  C   UNL A   1      41.347  34.711  29.561  1.00  0.00    -0.041 A 
ATOM     18  C   UNL A   1      42.092  35.363  28.561  1.00  0.00     0.004 A 
ATOM     19  C   UNL A   1      43.487  35.315  28.538  1.00  0.00     0.000 A 
ATOM     20  C   UNL A   1      43.473  34.050  30.561  1.00  0.00     0.011 A 
ATOM     21  C   UNL A   1      44.181  34.657  29.539  1.00  0.00     0.001 A 
ENDBRANCH  11  15
ENDBRANCH   9  10
ENDBRANCH   7   9
ENDBRANCH   6   7
ENDBRANCH   5   6
ENDBRANCH   4   5
ENDBRANCH   3   4
ENDBRANCH   2   3
ENDBRANCH   1   2
BRANCH   1  22
ATOM     22  O   UNL A   1      33.705  32.944  28.469  1.00  0.00    -0.376 OA
BRANCH  22  23
ATOM     23  C   UNL A   1      33.822  31.628  27.953  1.00  0.00     0.202 C 
BRANCH  23  24
ATOM     24  C   UNL A   1      35.270  31.194  27.665  1.00  0.00     0.261 C 
BRANCH  24  25
ATOM     25  O   UNL A   1      35.793  30.424  28.769  1.00  0.00    -0.460 OA
BRANCH  25  26
ATOM     26  C   UNL A   1      37.093  30.655  29.126  1.00  0.00     0.338 C 
ATOM     27  O   UNL A   1      37.617  31.756  29.173  1.00  0.00    -0.246 OA
BRANCH  26  28
ATOM     28  C   UNL A   1      37.858  29.363  29.063  1.00  0.00     0.060 A 
ATOM     29  C   UNL A   1      38.427  28.764  30.190  1.00  0.00     0.016 A 
ATOM     30  C   UNL A   1      38.428  29.067  27.851  1.00  0.00     0.016 A 
ATOM     31  C   UNL A   1      39.640  28.024  30.107  1.00  0.00     0.010 A 
ATOM     32  C   UNL A   1      39.755  28.652  27.874  1.00  0.00     0.010 A 
ATOM     33  C   UNL A   1      40.418  28.084  28.948  1.00  0.00    -0.014 A 
BRANCH  33  34
ATOM     34  C   UNL A   1      41.926  28.087  28.902  1.00  0.00     0.031 A 
ATOM     35  C   UNL A   1      42.944  29.190  28.634  1.00  0.00     0.074 A 
ATOM     36  C   UNL A   1      42.435  26.905  29.314  1.00  0.00     0.049 A 
ATOM     37  N   UNL A   1      44.169  29.028  28.218  1.00  0.00    -0.248 NA
ATOM     38  C   UNL A   1      42.712  30.633  28.805  1.00  0.00     0.031 C 
ATOM     39  C   UNL A   1      43.788  26.552  29.697  1.00  0.00     0.029 A 
ATOM     40  N   UNL A   1      41.780  25.683  29.245  1.00  0.00    -0.354 N 
ATOM     41  C   UNL A   1      44.816  30.267  28.349  1.00  0.00     0.074 A 
ATOM     42  C   UNL A   1      43.751  31.199  28.182  1.00  0.00     0.031 C 
ATOM     43  C   UNL A   1      43.928  25.222  29.553  1.00  0.00     0.029 A 
ATOM     44  C   UNL A   1      42.715  24.709  28.929  1.00  0.00     0.049 A 
ATOM     45  H   UNL A   1      40.818  25.534  29.395  1.00  0.00     0.167 HD
ATOM     46  C   UNL A   1      46.093  30.357  28.854  1.00  0.00     0.037 A 
ATOM     47  C   UNL A   1      42.598  24.139  27.689  1.00  0.00     0.037 A 
ATOM     48  C   UNL A   1      46.708  29.034  28.758  1.00  0.00     0.049 A 
ATOM     49  C   UNL A   1      43.757  24.560  26.770  1.00  0.00     0.074 A 
ATOM     50  C   UNL A   1      47.207  28.046  29.585  1.00  0.00     0.029 A 
ATOM     51  N   UNL A   1      46.624  28.450  27.517  1.00  0.00    -0.354 N 
ATOM     52  N   UNL A   1      44.769  25.298  27.165  1.00  0.00    -0.248 NA
ATOM     53  C   UNL A   1      43.895  24.214  25.354  1.00  0.00     0.031 C 
ATOM     54  C   UNL A   1      47.297  26.832  28.808  1.00  0.00     0.029 A 
ATOM     55  C   UNL A   1      46.893  27.110  27.513  1.00  0.00     0.049 A 
ATOM     56  H   UNL A   1      46.391  28.953  26.703  1.00  0.00     0.167 HD
ATOM     57  C   UNL A   1      45.606  25.589  26.125  1.00  0.00     0.074 A 
ATOM     58  C   UNL A   1      45.032  24.857  25.010  1.00  0.00     0.031 C 
ATOM     59  C   UNL A   1      46.674  26.440  26.235  1.00  0.00     0.037 A 
BRANCH  46  60
ATOM     60  C   UNL A   1      46.782  31.576  29.528  1.00  0.00     0.058 A 
ATOM     61  C   UNL A   1      47.107  32.728  28.765  1.00  0.00     0.135 A 
ATOM     62  C   UNL A   1      47.219  31.685  30.875  1.00  0.00     0.135 A 
ATOM     63  F   UNL A   1      46.750  32.827  27.476  1.00  0.00    -0.206 F 
ATOM     64  C   UNL A   1      47.824  33.835  29.264  1.00  0.00     0.059 A 
ATOM     65  C   UNL A   1      47.926  32.781  31.399  1.00  0.00     0.059 A 
ATOM     66  F   UNL A   1      47.003  30.737  31.785  1.00  0.00    -0.206 F 
ATOM     67  C   UNL A   1      48.240  33.852  30.587  1.00  0.00     0.060 A 
BRANCH  67  68
ATOM     68  S   UNL A   1      49.190  35.250  31.225  1.00  0.00     0.124 S 
ATOM     69  O   UNL A   1      49.819  34.681  32.412  1.00  0.00    -0.237 OA
ATOM     70  O   UNL A   1      50.085  35.548  30.111  1.00  0.00    -0.237 OA
ATOM     71  O   UNL A   1      48.171  36.263  31.493  1.00  0.00    -0.744 OA
ENDBRANCH  67  68
ENDBRANCH  46  60
BRANCH  47  72
ATOM     72  C   UNL A   1      41.155  23.750  27.381  1.00  0.00     0.058 A 
ATOM     73  C   UNL A   1      40.379  24.688  26.639  1.00  0.00     0.135 A 
ATOM     74  C   UNL A   1      40.576  22.477  27.501  1.00  0.00     0.135 A 
ATOM     75  F   UNL A   1      40.838  25.940  26.464  1.00  0.00    -0.206 F 
ATOM     76  C   UNL A   1      39.189  24.369  25.974  1.00  0.00     0.059 A 
ATOM     77  C   UNL A   1      39.353  22.138  26.866  1.00  0.00     0.059 A 
ATOM     78  F   UNL A   1      41.231  21.495  28.141  1.00  0.00    -0.206 F 
ATOM     79  C   UNL A   1      38.679  23.083  26.081  1.00  0.00     0.060 A 
BRANCH  79  80
ATOM     80  S   UNL A   1      37.180  22.619  25.145  1.00  0.00     0.124 S 
ATOM     81  O   UNL A   1      36.145  22.706  26.168  1.00  0.00    -0.237 OA
ATOM     82  O   UNL A   1      37.105  23.635  24.100  1.00  0.00    -0.237 OA
ATOM     83  O   UNL A   1      37.492  21.270  24.686  1.00  0.00    -0.744 OA
ENDBRANCH  79  80
ENDBRANCH  47  72
BRANCH  59  84
ATOM     84  C   UNL A   1      47.553  26.837  25.068  1.00  0.00     0.058 A 
ATOM     85  C   UNL A   1      47.061  27.596  23.999  1.00  0.00     0.135 A 
ATOM     86  C   UNL A   1      48.882  26.360  24.924  1.00  0.00     0.135 A 
ATOM     87  F   UNL A   1      45.803  28.064  24.022  1.00  0.00    -0.206 F 
ATOM     88  C   UNL A   1      47.848  27.897  22.884  1.00  0.00     0.059 A 
ATOM     89  C   UNL A   1      49.656  26.584  23.795  1.00  0.00     0.059 A 
ATOM     90  F   UNL A   1      49.515  25.701  25.904  1.00  0.00    -0.206 F 
ATOM     91  C   UNL A   1      49.145  27.388  22.795  1.00  0.00     0.060 A 
BRANCH  91  92
ATOM     92  S   UNL A   1      50.197  27.810  21.396  1.00  0.00     0.124 S 
ATOM     93  O   UNL A   1      51.372  26.972  21.615  1.00  0.00    -0.237 OA
ATOM     94  O   UNL A   1      49.345  27.427  20.275  1.00  0.00    -0.237 OA
ATOM     95  O   UNL A   1      50.417  29.244  21.558  1.00  0.00    -0.744 OA
ENDBRANCH  91  92
ENDBRANCH  59  84
ENDBRANCH  33  34
ENDBRANCH  26  28
ENDBRANCH  25  26
ENDBRANCH  24  25
ENDBRANCH  23  24
ENDBRANCH  22  23
ENDBRANCH   1  22
TORSDOF 22
ENDMDL
MODEL 3
REMARK VINA RESULT:      -9.1      3.671      9.883
REMARK SMILES Cc1ccccc1-c1nc(CC(=O)OCCOCCOCCOC(=O)c2ccc(-c3c4nc(c(-c5c(F)cc(S(=O)(=O)[O-])cc5F)c5ccc([nH]5)c(-c5c(F)cc(S(=O)(=O)[O-])cc5F)c5nc(c(-c6c(F)cc(S(=O)(=O)[O-])cc6F)c6ccc3[nH]6)C=C5)C=C4)cc2)cs1
REMARK SMILES IDX 19 1 18 2 17 3 16 4 15 5 14 6 12 7 13 8 11 9 10 10 8 11 9 12
REMARK SMILES IDX 93 13 92 14 7 15 1 16 2 17 3 18 4 19 6 20 5 21 20 22 21 23
REMARK SMILES IDX 22 24 23 25 24 26 25 27 26 28 27 29 91 30 28 31 90 32 29 33
REMARK SMILES IDX 30 34 31 35 84 36 32 37 89 38 83 39 85 40 33 41 88 42 82 43
REMARK SMILES IDX 81 44 34 46 68 47 47 48 67 49 48 50 51 51 66 52 86 53 49 54
REMARK SMILES IDX 50 55 65 57 87 58 52 59 35 60 36 61 45 62 37 63 38 64 44 65
REMARK SMILES IDX 46 66 39 67 40 68 41 69 42 70 43 71 69 72 70 73 79 74 71 75
REMARK SMILES IDX 72 76 78 77 80 78 73 79 74 80 75 81 76 82 77 83 53 84 54 85
REMARK SMILES IDX 63 86 55 87 56 88 62 89 64 90 57 91 58 92 59 93 60 94 61 95
REMARK H PARENT 85 45 51 56
REMARK Flexibility Score: inf
ROOT
ATOM      1  C   UNL A   1      38.949  27.450  31.962  1.00  0.00     0.188 C 
ENDROOT
BRANCH   1   2
ATOM      2  C   UNL A   1      38.177  28.723  32.312  1.00  0.00     0.188 C 
BRANCH   2   3
ATOM      3  O   UNL A   1      36.912  28.863  31.663  1.00  0.00    -0.376 OA
BRANCH   3   4
ATOM      4  C   UNL A   1      36.686  30.076  30.930  1.00  0.00     0.202 C 
BRANCH   4   5
ATOM      5  C   UNL A   1      36.243  29.875  29.476  1.00  0.00     0.261 C 
BRANCH   5   6
ATOM      6  O   UNL A   1      35.591  30.931  28.687  1.00  0.00    -0.463 OA
BRANCH   6   7
ATOM      7  C   UNL A   1      34.505  30.935  27.823  1.00  0.00     0.311 C 
ATOM      8  O   UNL A   1      33.748  31.835  27.656  1.00  0.00    -0.252 OA
BRANCH   7   9
ATOM      9  C   UNL A   1      34.424  29.506  27.241  1.00  0.00     0.179 C 
BRANCH   9  10
ATOM     10  C   UNL A   1      33.239  28.805  26.627  1.00  0.00     0.063 A 
ATOM     11  C   UNL A   1      32.341  27.738  24.938  1.00  0.00     0.123 A 
ATOM     12  N   UNL A   1      33.143  28.740  25.266  1.00  0.00    -0.240 NA
ATOM     13  S   UNL A   1      31.214  27.323  26.146  1.00  0.00    -0.122 S 
ATOM     14  C   UNL A   1      32.406  27.860  27.245  1.00  0.00     0.091 A 
BRANCH  11  15
ATOM     15  C   UNL A   1      32.504  27.018  23.682  1.00  0.00     0.013 A 
ATOM     16  C   UNL A   1      30.377  27.871  22.406  1.00  0.00     0.045 C 
ATOM     17  C   UNL A   1      31.604  27.010  22.591  1.00  0.00    -0.041 A 
ATOM     18  C   UNL A   1      31.809  26.048  21.584  1.00  0.00     0.004 A 
ATOM     19  C   UNL A   1      32.827  25.097  21.674  1.00  0.00     0.000 A 
ATOM     20  C   UNL A   1      33.550  26.074  23.727  1.00  0.00     0.011 A 
ATOM     21  C   UNL A   1      33.700  25.108  22.748  1.00  0.00     0.001 A 
ENDBRANCH  11  15
ENDBRANCH   9  10
ENDBRANCH   7   9
ENDBRANCH   6   7
ENDBRANCH   5   6
ENDBRANCH   4   5
ENDBRANCH   3   4
ENDBRANCH   2   3
ENDBRANCH   1   2
BRANCH   1  22
ATOM     22  O   UNL A   1      38.528  27.066  30.658  1.00  0.00    -0.376 OA
BRANCH  22  23
ATOM     23  C   UNL A   1      39.547  26.733  29.728  1.00  0.00     0.202 C 
BRANCH  23  24
ATOM     24  C   UNL A   1      39.062  25.877  28.545  1.00  0.00     0.261 C 
BRANCH  24  25
ATOM     25  O   UNL A   1      39.818  24.649  28.471  1.00  0.00    -0.460 OA
BRANCH  25  26
ATOM     26  C   UNL A   1      40.593  24.464  27.359  1.00  0.00     0.338 C 
ATOM     27  O   UNL A   1      40.480  23.534  26.578  1.00  0.00    -0.246 OA
BRANCH  26  28
ATOM     28  C   UNL A   1      41.819  25.327  27.465  1.00  0.00     0.060 A 
ATOM     29  C   UNL A   1      42.611  25.380  28.614  1.00  0.00     0.016 A 
ATOM     30  C   UNL A   1      41.845  26.426  26.644  1.00  0.00     0.016 A 
ATOM     31  C   UNL A   1      43.277  26.577  29.005  1.00  0.00     0.010 A 
ATOM     32  C   UNL A   1      42.209  27.632  27.233  1.00  0.00     0.010 A 
ATOM     33  C   UNL A   1      42.957  27.788  28.387  1.00  0.00    -0.014 A 
BRANCH  33  34
ATOM     34  C   UNL A   1      42.892  29.132  29.070  1.00  0.00     0.031 A 
ATOM     35  C   UNL A   1      41.748  30.113  29.301  1.00  0.00     0.074 A 
ATOM     36  C   UNL A   1      44.052  29.423  29.699  1.00  0.00     0.049 A 
ATOM     37  N   UNL A   1      41.859  31.392  29.527  1.00  0.00    -0.248 NA
ATOM     38  C   UNL A   1      40.316  29.775  29.312  1.00  0.00     0.031 C 
ATOM     39  C   UNL A   1      44.350  30.438  30.690  1.00  0.00     0.029 A 
ATOM     40  N   UNL A   1      45.300  28.927  29.347  1.00  0.00    -0.354 N 
ATOM     41  C   UNL A   1      40.595  31.851  29.929  1.00  0.00     0.074 A 
ATOM     42  C   UNL A   1      39.707  30.964  29.253  1.00  0.00     0.031 C 
ATOM     43  C   UNL A   1      45.672  30.679  30.657  1.00  0.00     0.029 A 
ATOM     44  C   UNL A   1      46.234  29.934  29.538  1.00  0.00     0.049 A 
ATOM     45  H   UNL A   1      45.488  28.018  29.020  1.00  0.00     0.167 HD
ATOM     46  C   UNL A   1      40.452  32.724  30.982  1.00  0.00     0.037 A 
ATOM     47  C   UNL A   1      46.808  30.447  28.405  1.00  0.00     0.037 A 
ATOM     48  C   UNL A   1      41.748  33.358  31.219  1.00  0.00     0.049 A 
ATOM     49  C   UNL A   1      46.340  31.889  28.146  1.00  0.00     0.074 A 
ATOM     50  C   UNL A   1      42.715  33.435  32.202  1.00  0.00     0.029 A 
ATOM     51  N   UNL A   1      42.334  33.902  30.101  1.00  0.00    -0.354 N 
ATOM     52  N   UNL A   1      45.561  32.559  28.964  1.00  0.00    -0.248 NA
ATOM     53  C   UNL A   1      46.678  32.702  26.977  1.00  0.00     0.031 C 
ATOM     54  C   UNL A   1      43.924  33.931  31.588  1.00  0.00     0.029 A 
ATOM     55  C   UNL A   1      43.662  34.188  30.253  1.00  0.00     0.049 A 
ATOM     56  H   UNL A   1      41.842  34.070  29.266  1.00  0.00     0.167 HD
ATOM     57  C   UNL A   1      45.234  33.782  28.447  1.00  0.00     0.074 A 
ATOM     58  C   UNL A   1      45.990  33.840  27.208  1.00  0.00     0.031 C 
ATOM     59  C   UNL A   1      44.340  34.634  29.040  1.00  0.00     0.037 A 
BRANCH  46  60
ATOM     60  C   UNL A   1      39.205  32.960  31.880  1.00  0.00     0.058 A 
ATOM     61  C   UNL A   1      38.090  33.684  31.382  1.00  0.00     0.135 A 
ATOM     62  C   UNL A   1      39.037  32.584  33.239  1.00  0.00     0.135 A 
ATOM     63  F   UNL A   1      38.048  34.099  30.109  1.00  0.00    -0.206 F 
ATOM     64  C   UNL A   1      36.964  34.036  32.155  1.00  0.00     0.059 A 
ATOM     65  C   UNL A   1      37.921  32.915  34.027  1.00  0.00     0.059 A 
ATOM     66  F   UNL A   1      39.943  31.877  33.912  1.00  0.00    -0.206 F 
ATOM     67  C   UNL A   1      36.888  33.653  33.485  1.00  0.00     0.060 A 
BRANCH  67  68
ATOM     68  S   UNL A   1      35.465  34.132  34.491  1.00  0.00     0.124 S 
ATOM     69  O   UNL A   1      34.436  33.205  34.030  1.00  0.00    -0.237 OA
ATOM     70  O   UNL A   1      35.958  33.913  35.846  1.00  0.00    -0.237 OA
ATOM     71  O   UNL A   1      35.243  35.530  34.127  1.00  0.00    -0.744 OA
ENDBRANCH  67  68
ENDBRANCH  46  60
BRANCH  47  72
ATOM     72  C   UNL A   1      47.256  29.345  27.450  1.00  0.00     0.058 A 
ATOM     73  C   UNL A   1      46.378  29.030  26.372  1.00  0.00     0.135 A 
ATOM     74  C   UNL A   1      48.540  28.787  27.342  1.00  0.00     0.135 A 
ATOM     75  F   UNL A   1      45.123  29.510  26.375  1.00  0.00    -0.206 F 
ATOM     76  C   UNL A   1      46.766  28.323  25.227  1.00  0.00     0.059 A 
ATOM     77  C   UNL A   1      48.946  28.037  26.208  1.00  0.00     0.059 A 
ATOM     78  F   UNL A   1      49.470  29.046  28.274  1.00  0.00    -0.206 F 
ATOM     79  C   UNL A   1      48.061  27.832  25.141  1.00  0.00     0.060 A 
BRANCH  79  80
ATOM     80  S   UNL A   1      48.615  26.991  23.617  1.00  0.00     0.124 S 
ATOM     81  O   UNL A   1      48.012  27.817  22.579  1.00  0.00    -0.237 OA
ATOM     82  O   UNL A   1      50.071  27.064  23.700  1.00  0.00    -0.237 OA
ATOM     83  O   UNL A   1      48.047  25.655  23.762  1.00  0.00    -0.744 OA
ENDBRANCH  79  80
ENDBRANCH  47  72
BRANCH  59  84
ATOM     84  C   UNL A   1      43.907  35.950  28.429  1.00  0.00     0.058 A 
ATOM     85  C   UNL A   1      44.248  37.178  29.007  1.00  0.00     0.135 A 
ATOM     86  C   UNL A   1      43.030  36.017  27.316  1.00  0.00     0.135 A 
ATOM     87  F   UNL A   1      45.045  37.222  30.087  1.00  0.00    -0.206 F 
ATOM     88  C   UNL A   1      43.785  38.392  28.490  1.00  0.00     0.059 A 
ATOM     89  C   UNL A   1      42.500  37.202  26.830  1.00  0.00     0.059 A 
ATOM     90  F   UNL A   1      42.692  34.931  26.606  1.00  0.00    -0.206 F 
ATOM     91  C   UNL A   1      42.914  38.391  27.399  1.00  0.00     0.060 A 
BRANCH  91  92
ATOM     92  S   UNL A   1      42.351  39.942  26.680  1.00  0.00     0.124 S 
ATOM     93  O   UNL A   1      42.291  40.829  27.837  1.00  0.00    -0.237 OA
ATOM     94  O   UNL A   1      43.418  40.216  25.724  1.00  0.00    -0.237 OA
ATOM     95  O   UNL A   1      41.058  39.596  26.096  1.00  0.00    -0.744 OA
ENDBRANCH  91  92
ENDBRANCH  59  84
ENDBRANCH  33  34
ENDBRANCH  26  28
ENDBRANCH  25  26
ENDBRANCH  24  25
ENDBRANCH  23  24
ENDBRANCH  22  23
ENDBRANCH   1  22
TORSDOF 22
ENDMDL
