MODEL 1
REMARK VINA RESULT:      -9.8      0.000      0.000
REMARK SMILES O=C(CC[NH+]1CCC(n2nccc2NC(=O)c2ccccc2Cl)CC1)OCCOCCOCCOC(=O)c1ccc(-c2c3nc(c(-c4c(F)cc(S(=O)(=O)[O-])cc4F)c4ccc([nH]4)c(-c4c(F)cc(S(=O)(=O)[O-])cc4F)c4nc(c(-c5c(F)cc(S(=O)(=O)[O-])cc5F)c5ccc2[nH]5)C=C4)C=C3)cc1
REMARK SMILES IDX 30 1 29 2 28 3 27 4 26 5 2 6 1 7 3 8 4 9 5 10 6 11 25 12
REMARK SMILES IDX 7 14 24 15 8 16 9 17 10 18 13 19 11 20 12 21 14 22 15 23
REMARK SMILES IDX 16 25 17 26 18 27 22 28 19 29 21 30 23 31 20 32 31 33 32 34
REMARK SMILES IDX 33 35 34 36 35 37 36 38 37 39 38 40 39 41 103 42 40 43
REMARK SMILES IDX 102 44 41 45 42 46 43 47 96 48 44 49 101 50 95 51 97 52
REMARK SMILES IDX 45 53 100 54 94 55 93 56 46 58 80 59 59 60 79 61 60 62 63 63
REMARK SMILES IDX 78 64 98 65 61 66 62 67 77 69 99 70 64 71 47 72 48 73 57 74
REMARK SMILES IDX 49 75 50 76 56 77 58 78 51 79 52 80 53 81 54 82 55 83 81 84
REMARK SMILES IDX 82 85 91 86 83 87 84 88 90 89 92 90 85 91 86 92 87 93 88 94
REMARK SMILES IDX 89 95 65 96 66 97 75 98 67 99 68 100 74 101 76 102 69 103
REMARK SMILES IDX 70 104 71 105 72 106 73 107
REMARK H PARENT 5 13 14 24 97 57 63 68
REMARK Flexibility Score: inf
ROOT
ATOM      1  C   UNL A   1      39.053  34.382  34.694  1.00  0.00     0.188 C 
ENDROOT
BRANCH   1   2
ATOM      2  O   UNL A   1      38.346  34.947  33.612  1.00  0.00    -0.376 OA
BRANCH   2   3
ATOM      3  C   UNL A   1      37.327  34.171  33.028  1.00  0.00     0.202 C 
BRANCH   3   4
ATOM      4  C   UNL A   1      37.616  33.452  31.713  1.00  0.00     0.261 C 
BRANCH   4   5
ATOM      5  O   UNL A   1      36.602  33.434  30.685  1.00  0.00    -0.463 OA
BRANCH   5   6
ATOM      6  C   UNL A   1      35.720  32.449  30.407  1.00  0.00     0.311 C 
ATOM      7  O   UNL A   1      35.543  31.528  31.200  1.00  0.00    -0.252 OA
BRANCH   6   8
ATOM      8  C   UNL A   1      34.958  32.527  29.127  1.00  0.00     0.184 C 
BRANCH   8   9
ATOM      9  C   UNL A   1      35.572  31.691  28.008  1.00  0.00     0.274 C 
BRANCH   9  10
ATOM     10  N   UNL A   1      34.597  30.847  27.298  1.00  0.00    -0.334 N 
ATOM     11  C   UNL A   1      34.798  29.423  27.554  1.00  0.00     0.264 C 
ATOM     12  C   UNL A   1      33.193  31.202  27.581  1.00  0.00     0.264 C 
ATOM     13  H   UNL A   1      34.772  31.035  26.311  1.00  0.00     0.348 HD
ATOM     14  C   UNL A   1      33.969  28.615  26.558  1.00  0.00     0.089 C 
ATOM     15  C   UNL A   1      32.307  30.562  26.510  1.00  0.00     0.089 C 
ATOM     16  C   UNL A   1      32.492  29.050  26.496  1.00  0.00     0.121 C 
BRANCH  16  17
ATOM     17  N   UNL A   1      31.804  28.316  25.434  1.00  0.00    -0.246 N 
ATOM     18  N   UNL A   1      31.775  28.945  24.234  1.00  0.00    -0.179 NA
ATOM     19  C   UNL A   1      31.035  27.156  25.436  1.00  0.00     0.131 A 
ATOM     20  C   UNL A   1      30.828  28.311  23.552  1.00  0.00     0.137 A 
ATOM     21  C   UNL A   1      30.288  27.242  24.277  1.00  0.00     0.069 A 
BRANCH  19  22
ATOM     22  N   UNL A   1      30.963  26.141  26.386  1.00  0.00    -0.307 N 
ATOM     23  C   UNL A   1      31.660  24.880  26.405  1.00  0.00     0.258 C 
ATOM     24  H   UNL A   1      30.358  26.308  27.145  1.00  0.00     0.171 HD
ATOM     25  O   UNL A   1      31.301  24.095  27.265  1.00  0.00    -0.269 OA
BRANCH  23  26
ATOM     26  C   UNL A   1      32.716  24.534  25.442  1.00  0.00     0.058 A 
ATOM     27  C   UNL A   1      34.031  24.915  25.751  1.00  0.00     0.015 A 
ATOM     28  C   UNL A   1      32.452  23.786  24.290  1.00  0.00     0.053 A 
ATOM     29  C   UNL A   1      35.088  24.447  24.969  1.00  0.00     0.001 A 
ATOM     30  C   UNL A   1      33.518  23.303  23.525  1.00  0.00     0.021 A 
ATOM     31  Cl  UNL A   1      30.847  23.409  23.779  1.00  0.00    -0.083 Cl
ATOM     32  C   UNL A   1      34.833  23.615  23.878  1.00  0.00     0.002 A 
ENDBRANCH  23  26
ENDBRANCH  19  22
ENDBRANCH  16  17
ENDBRANCH   9  10
ENDBRANCH   8   9
ENDBRANCH   6   8
ENDBRANCH   5   6
ENDBRANCH   4   5
ENDBRANCH   3   4
ENDBRANCH   2   3
ENDBRANCH   1   2
BRANCH   1  33
ATOM     33  C   UNL A   1      39.688  35.426  35.637  1.00  0.00     0.188 C 
BRANCH  33  34
ATOM     34  O   UNL A   1      40.214  35.082  36.918  1.00  0.00    -0.376 OA
BRANCH  34  35
ATOM     35  C   UNL A   1      41.541  34.639  37.188  1.00  0.00     0.202 C 
BRANCH  35  36
ATOM     36  C   UNL A   1      42.763  35.544  37.263  1.00  0.00     0.261 C 
BRANCH  36  37
ATOM     37  O   UNL A   1      43.281  35.794  35.978  1.00  0.00    -0.460 OA
BRANCH  37  38
ATOM     38  C   UNL A   1      44.317  36.654  35.992  1.00  0.00     0.338 C 
ATOM     39  O   UNL A   1      45.311  36.592  36.688  1.00  0.00    -0.246 OA
BRANCH  38  40
ATOM     40  C   UNL A   1      44.037  37.746  35.047  1.00  0.00     0.060 A 
ATOM     41  C   UNL A   1      43.060  37.399  34.124  1.00  0.00     0.016 A 
ATOM     42  C   UNL A   1      45.080  38.638  34.768  1.00  0.00     0.016 A 
ATOM     43  C   UNL A   1      43.437  37.491  32.820  1.00  0.00     0.010 A 
ATOM     44  C   UNL A   1      45.461  38.731  33.465  1.00  0.00     0.010 A 
ATOM     45  C   UNL A   1      44.699  38.031  32.538  1.00  0.00    -0.014 A 
BRANCH  45  46
ATOM     46  C   UNL A   1      45.139  37.966  31.176  1.00  0.00     0.031 A 
ATOM     47  C   UNL A   1      44.222  38.749  30.338  1.00  0.00     0.074 A 
ATOM     48  C   UNL A   1      46.251  37.315  30.805  1.00  0.00     0.049 A 
ATOM     49  N   UNL A   1      43.239  38.290  29.641  1.00  0.00    -0.248 NA
ATOM     50  C   UNL A   1      44.162  40.200  30.585  1.00  0.00     0.031 C 
ATOM     51  C   UNL A   1      47.301  36.739  31.649  1.00  0.00     0.029 A 
ATOM     52  N   UNL A   1      46.723  37.118  29.551  1.00  0.00    -0.354 N 
ATOM     53  C   UNL A   1      42.655  39.421  29.096  1.00  0.00     0.074 A 
ATOM     54  C   UNL A   1      43.029  40.509  29.952  1.00  0.00     0.031 C 
ATOM     55  C   UNL A   1      48.386  36.478  30.884  1.00  0.00     0.029 A 
ATOM     56  C   UNL A   1      48.063  36.754  29.493  1.00  0.00     0.049 A 
ATOM     57  H   UNL A   1      46.164  37.224  28.749  1.00  0.00     0.167 HD
ATOM     58  C   UNL A   1      42.304  39.416  27.783  1.00  0.00     0.037 A 
ATOM     59  C   UNL A   1      48.833  36.808  28.376  1.00  0.00     0.037 A 
ATOM     60  C   UNL A   1      42.158  38.055  27.304  1.00  0.00     0.049 A 
ATOM     61  C   UNL A   1      47.897  36.811  27.211  1.00  0.00     0.074 A 
ATOM     62  C   UNL A   1      41.419  36.955  27.702  1.00  0.00     0.029 A 
ATOM     63  N   UNL A   1      43.159  37.560  26.498  1.00  0.00    -0.354 N 
ATOM     64  N   UNL A   1      47.137  35.795  26.895  1.00  0.00    -0.248 NA
ATOM     65  C   UNL A   1      47.442  38.099  26.706  1.00  0.00     0.031 C 
ATOM     66  C   UNL A   1      42.263  35.828  27.476  1.00  0.00     0.029 A 
ATOM     67  C   UNL A   1      43.445  36.279  26.889  1.00  0.00     0.049 A 
ATOM     68  H   UNL A   1      43.597  38.047  25.763  1.00  0.00     0.167 HD
ATOM     69  C   UNL A   1      45.914  36.355  26.544  1.00  0.00     0.074 A 
ATOM     70  C   UNL A   1      46.190  37.779  26.365  1.00  0.00     0.031 C 
ATOM     71  C   UNL A   1      44.747  35.666  26.729  1.00  0.00     0.037 A 
BRANCH  58  72
ATOM     72  C   UNL A   1      42.609  40.576  26.852  1.00  0.00     0.058 A 
ATOM     73  C   UNL A   1      41.607  40.966  25.943  1.00  0.00     0.135 A 
ATOM     74  C   UNL A   1      43.897  41.105  26.590  1.00  0.00     0.135 A 
ATOM     75  F   UNL A   1      40.339  40.555  26.108  1.00  0.00    -0.206 F 
ATOM     76  C   UNL A   1      41.887  41.701  24.793  1.00  0.00     0.059 A 
ATOM     77  C   UNL A   1      44.189  41.874  25.475  1.00  0.00     0.059 A 
ATOM     78  F   UNL A   1      44.971  40.858  27.343  1.00  0.00    -0.206 F 
ATOM     79  C   UNL A   1      43.190  42.125  24.557  1.00  0.00     0.060 A 
BRANCH  79  80
ATOM     80  S   UNL A   1      43.588  42.978  23.028  1.00  0.00     0.124 S 
ATOM     81  O   UNL A   1      42.983  44.284  23.265  1.00  0.00    -0.237 OA
ATOM     82  O   UNL A   1      45.046  42.930  23.036  1.00  0.00    -0.237 OA
ATOM     83  O   UNL A   1      42.944  42.155  22.009  1.00  0.00    -0.744 OA
ENDBRANCH  79  80
ENDBRANCH  58  72
BRANCH  59  84
ATOM     84  C   UNL A   1      50.249  37.257  28.273  1.00  0.00     0.058 A 
ATOM     85  C   UNL A   1      51.202  36.494  27.572  1.00  0.00     0.135 A 
ATOM     86  C   UNL A   1      50.642  38.566  28.616  1.00  0.00     0.135 A 
ATOM     87  F   UNL A   1      50.912  35.242  27.185  1.00  0.00    -0.206 F 
ATOM     88  C   UNL A   1      52.445  37.016  27.188  1.00  0.00     0.059 A 
ATOM     89  C   UNL A   1      51.878  39.102  28.258  1.00  0.00     0.059 A 
ATOM     90  F   UNL A   1      49.803  39.409  29.234  1.00  0.00    -0.206 F 
ATOM     91  C   UNL A   1      52.765  38.332  27.520  1.00  0.00     0.060 A 
BRANCH  91  92
ATOM     92  S   UNL A   1      54.288  39.074  26.887  1.00  0.00     0.124 S 
ATOM     93  O   UNL A   1      54.491  40.183  27.812  1.00  0.00    -0.237 OA
ATOM     94  O   UNL A   1      55.237  37.971  26.992  1.00  0.00    -0.237 OA
ATOM     95  O   UNL A   1      53.935  39.460  25.522  1.00  0.00    -0.744 OA
ENDBRANCH  91  92
ENDBRANCH  59  84
BRANCH  71  96
ATOM     96  C   UNL A   1      44.833  34.182  26.972  1.00  0.00     0.058 A 
ATOM     97  C   UNL A   1      45.150  33.582  28.204  1.00  0.00     0.135 A 
ATOM     98  C   UNL A   1      44.455  33.329  25.925  1.00  0.00     0.135 A 
ATOM     99  F   UNL A   1      45.418  34.328  29.286  1.00  0.00    -0.206 F 
ATOM    100  C   UNL A   1      45.145  32.194  28.368  1.00  0.00     0.059 A 
ATOM    101  C   UNL A   1      44.409  31.947  26.074  1.00  0.00     0.059 A 
ATOM    102  F   UNL A   1      44.078  33.843  24.741  1.00  0.00    -0.206 F 
ATOM    103  C   UNL A   1      44.775  31.383  27.294  1.00  0.00     0.060 A 
BRANCH 103 104
ATOM    104  S   UNL A   1      44.723  29.592  27.512  1.00  0.00     0.124 S 
ATOM    105  O   UNL A   1      43.309  29.356  27.783  1.00  0.00    -0.237 OA
ATOM    106  O   UNL A   1      45.213  29.102  26.228  1.00  0.00    -0.237 OA
ATOM    107  O   UNL A   1      45.621  29.360  28.641  1.00  0.00    -0.744 OA
ENDBRANCH 103 104
ENDBRANCH  71  96
ENDBRANCH  45  46
ENDBRANCH  38  40
ENDBRANCH  37  38
ENDBRANCH  36  37
ENDBRANCH  35  36
ENDBRANCH  34  35
ENDBRANCH  33  34
ENDBRANCH   1  33
TORSDOF 25
ENDMDL
MODEL 2
REMARK VINA RESULT:      -9.4      5.674      8.976
REMARK SMILES O=C(CC[NH+]1CCC(n2nccc2NC(=O)c2ccccc2Cl)CC1)OCCOCCOCCOC(=O)c1ccc(-c2c3nc(c(-c4c(F)cc(S(=O)(=O)[O-])cc4F)c4ccc([nH]4)c(-c4c(F)cc(S(=O)(=O)[O-])cc4F)c4nc(c(-c5c(F)cc(S(=O)(=O)[O-])cc5F)c5ccc2[nH]5)C=C4)C=C3)cc1
REMARK SMILES IDX 30 1 29 2 28 3 27 4 26 5 2 6 1 7 3 8 4 9 5 10 6 11 25 12
REMARK SMILES IDX 7 14 24 15 8 16 9 17 10 18 13 19 11 20 12 21 14 22 15 23
REMARK SMILES IDX 16 25 17 26 18 27 22 28 19 29 21 30 23 31 20 32 31 33 32 34
REMARK SMILES IDX 33 35 34 36 35 37 36 38 37 39 38 40 39 41 103 42 40 43
REMARK SMILES IDX 102 44 41 45 42 46 43 47 96 48 44 49 101 50 95 51 97 52
REMARK SMILES IDX 45 53 100 54 94 55 93 56 46 58 80 59 59 60 79 61 60 62 63 63
REMARK SMILES IDX 78 64 98 65 61 66 62 67 77 69 99 70 64 71 47 72 48 73 57 74
REMARK SMILES IDX 49 75 50 76 56 77 58 78 51 79 52 80 53 81 54 82 55 83 81 84
REMARK SMILES IDX 82 85 91 86 83 87 84 88 90 89 92 90 85 91 86 92 87 93 88 94
REMARK SMILES IDX 89 95 65 96 66 97 75 98 67 99 68 100 74 101 76 102 69 103
REMARK SMILES IDX 70 104 71 105 72 106 73 107
REMARK H PARENT 5 13 14 24 97 57 63 68
REMARK Flexibility Score: inf
ROOT
ATOM      1  C   UNL A   1      35.476  33.339  29.371  1.00  0.00     0.188 C 
ENDROOT
BRANCH   1   2
ATOM      2  O   UNL A   1      34.252  32.688  29.109  1.00  0.00    -0.376 OA
BRANCH   2   3
ATOM      3  C   UNL A   1      34.106  32.061  27.857  1.00  0.00     0.202 C 
BRANCH   3   4
ATOM      4  C   UNL A   1      33.725  30.583  27.819  1.00  0.00     0.261 C 
BRANCH   4   5
ATOM      5  O   UNL A   1      32.422  30.207  27.326  1.00  0.00    -0.463 OA
BRANCH   5   6
ATOM      6  C   UNL A   1      32.032  29.007  26.844  1.00  0.00     0.311 C 
ATOM      7  O   UNL A   1      31.471  28.193  27.573  1.00  0.00    -0.252 OA
BRANCH   6   8
ATOM      8  C   UNL A   1      32.283  28.712  25.403  1.00  0.00     0.184 C 
BRANCH   8   9
ATOM      9  C   UNL A   1      31.119  27.998  24.722  1.00  0.00     0.274 C 
BRANCH   9  10
ATOM     10  N   UNL A   1      31.360  26.565  24.488  1.00  0.00    -0.334 N 
ATOM     11  C   UNL A   1      30.436  25.713  25.232  1.00  0.00     0.264 C 
ATOM     12  C   UNL A   1      31.334  26.187  23.061  1.00  0.00     0.264 C 
ATOM     13  H   UNL A   1      32.307  26.409  24.834  1.00  0.00     0.348 HD
ATOM     14  C   UNL A   1      30.939  24.272  25.187  1.00  0.00     0.089 C 
ATOM     15  C   UNL A   1      31.986  24.811  22.914  1.00  0.00     0.089 C 
ATOM     16  C   UNL A   1      31.255  23.778  23.762  1.00  0.00     0.121 C 
BRANCH  16  17
ATOM     17  N   UNL A   1      31.847  22.442  23.820  1.00  0.00    -0.246 N 
ATOM     18  N   UNL A   1      31.933  21.805  22.627  1.00  0.00    -0.179 NA
ATOM     19  C   UNL A   1      32.211  21.618  24.881  1.00  0.00     0.131 A 
ATOM     20  C   UNL A   1      32.138  20.533  22.946  1.00  0.00     0.137 A 
ATOM     21  C   UNL A   1      32.247  20.351  24.330  1.00  0.00     0.069 A 
BRANCH  19  22
ATOM     22  N   UNL A   1      32.446  21.941  26.214  1.00  0.00    -0.307 N 
ATOM     23  C   UNL A   1      33.695  22.279  26.848  1.00  0.00     0.258 C 
ATOM     24  H   UNL A   1      31.655  21.938  26.801  1.00  0.00     0.171 HD
ATOM     25  O   UNL A   1      33.662  22.364  28.063  1.00  0.00    -0.269 OA
BRANCH  23  26
ATOM     26  C   UNL A   1      34.943  22.486  26.098  1.00  0.00     0.058 A 
ATOM     27  C   UNL A   1      35.808  21.390  25.954  1.00  0.00     0.015 A 
ATOM     28  C   UNL A   1      35.240  23.704  25.476  1.00  0.00     0.053 A 
ATOM     29  C   UNL A   1      36.903  21.483  25.095  1.00  0.00     0.001 A 
ATOM     30  C   UNL A   1      36.328  23.781  24.601  1.00  0.00     0.021 A 
ATOM     31  Cl  UNL A   1      34.296  25.127  25.729  1.00  0.00    -0.083 Cl
ATOM     32  C   UNL A   1      37.143  22.667  24.395  1.00  0.00     0.002 A 
ENDBRANCH  23  26
ENDBRANCH  19  22
ENDBRANCH  16  17
ENDBRANCH   9  10
ENDBRANCH   8   9
ENDBRANCH   6   8
ENDBRANCH   5   6
ENDBRANCH   4   5
ENDBRANCH   3   4
ENDBRANCH   2   3
ENDBRANCH   1   2
BRANCH   1  33
ATOM     33  C   UNL A   1      36.701  32.641  28.743  1.00  0.00     0.188 C 
BRANCH  33  34
ATOM     34  O   UNL A   1      38.021  32.801  29.258  1.00  0.00    -0.376 OA
BRANCH  34  35
ATOM     35  C   UNL A   1      38.703  31.889  30.117  1.00  0.00     0.202 C 
BRANCH  35  36
ATOM     36  C   UNL A   1      38.229  31.481  31.505  1.00  0.00     0.261 C 
BRANCH  36  37
ATOM     37  O   UNL A   1      38.210  30.080  31.636  1.00  0.00    -0.460 OA
BRANCH  37  38
ATOM     38  C   UNL A   1      38.612  29.664  32.851  1.00  0.00     0.338 C 
ATOM     39  O   UNL A   1      38.381  30.192  33.920  1.00  0.00    -0.246 OA
BRANCH  38  40
ATOM     40  C   UNL A   1      39.449  28.464  32.686  1.00  0.00     0.060 A 
ATOM     41  C   UNL A   1      40.539  28.466  33.545  1.00  0.00     0.016 A 
ATOM     42  C   UNL A   1      39.464  27.860  31.423  1.00  0.00     0.016 A 
ATOM     43  C   UNL A   1      41.754  28.373  32.939  1.00  0.00     0.010 A 
ATOM     44  C   UNL A   1      40.677  27.768  30.813  1.00  0.00     0.010 A 
ATOM     45  C   UNL A   1      41.782  28.166  31.554  1.00  0.00    -0.014 A 
BRANCH  45  46
ATOM     46  C   UNL A   1      43.064  28.235  30.918  1.00  0.00     0.031 A 
ATOM     47  C   UNL A   1      43.106  29.419  30.051  1.00  0.00     0.074 A 
ATOM     48  C   UNL A   1      44.041  27.348  31.160  1.00  0.00     0.049 A 
ATOM     49  N   UNL A   1      42.899  29.445  28.778  1.00  0.00    -0.248 NA
ATOM     50  C   UNL A   1      43.006  30.734  30.707  1.00  0.00     0.031 C 
ATOM     51  C   UNL A   1      44.102  26.312  32.194  1.00  0.00     0.029 A 
ATOM     52  N   UNL A   1      45.255  27.262  30.568  1.00  0.00    -0.354 N 
ATOM     53  C   UNL A   1      42.987  30.788  28.451  1.00  0.00     0.074 A 
ATOM     54  C   UNL A   1      42.713  31.508  29.661  1.00  0.00     0.031 C 
ATOM     55  C   UNL A   1      45.378  25.874  32.302  1.00  0.00     0.029 A 
ATOM     56  C   UNL A   1      46.185  26.508  31.272  1.00  0.00     0.049 A 
ATOM     57  H   UNL A   1      45.462  27.698  29.710  1.00  0.00     0.167 HD
ATOM     58  C   UNL A   1      43.696  31.155  27.351  1.00  0.00     0.037 A 
ATOM     59  C   UNL A   1      47.526  26.532  31.057  1.00  0.00     0.037 A 
ATOM     60  C   UNL A   1      43.830  30.035  26.439  1.00  0.00     0.049 A 
ATOM     61  C   UNL A   1      47.727  27.065  29.675  1.00  0.00     0.074 A 
ATOM     62  C   UNL A   1      42.945  29.175  25.815  1.00  0.00     0.029 A 
ATOM     63  N   UNL A   1      45.058  29.416  26.379  1.00  0.00    -0.354 N 
ATOM     64  N   UNL A   1      47.351  26.429  28.596  1.00  0.00    -0.248 NA
ATOM     65  C   UNL A   1      47.888  28.503  29.516  1.00  0.00     0.031 C 
ATOM     66  C   UNL A   1      43.593  27.904  25.804  1.00  0.00     0.029 A 
ATOM     67  C   UNL A   1      44.866  28.060  26.355  1.00  0.00     0.049 A 
ATOM     68  H   UNL A   1      45.930  29.872  26.358  1.00  0.00     0.167 HD
ATOM     69  C   UNL A   1      46.814  27.408  27.770  1.00  0.00     0.074 A 
ATOM     70  C   UNL A   1      47.250  28.675  28.354  1.00  0.00     0.031 C 
ATOM     71  C   UNL A   1      45.824  27.107  26.876  1.00  0.00     0.037 A 
BRANCH  58  72
ATOM     72  C   UNL A   1      44.674  32.317  27.360  1.00  0.00     0.058 A 
ATOM     73  C   UNL A   1      44.606  33.237  26.297  1.00  0.00     0.135 A 
ATOM     74  C   UNL A   1      45.843  32.402  28.156  1.00  0.00     0.135 A 
ATOM     75  F   UNL A   1      43.531  33.275  25.494  1.00  0.00    -0.206 F 
ATOM     76  C   UNL A   1      45.670  34.073  25.965  1.00  0.00     0.059 A 
ATOM     77  C   UNL A   1      46.895  33.257  27.869  1.00  0.00     0.059 A 
ATOM     78  F   UNL A   1      46.084  31.622  29.212  1.00  0.00    -0.206 F 
ATOM     79  C   UNL A   1      46.821  34.053  26.745  1.00  0.00     0.060 A 
BRANCH  79  80
ATOM     80  S   UNL A   1      48.241  35.043  26.267  1.00  0.00     0.124 S 
ATOM     81  O   UNL A   1      48.770  34.264  25.154  1.00  0.00    -0.237 OA
ATOM     82  O   UNL A   1      47.610  36.314  25.926  1.00  0.00    -0.237 OA
ATOM     83  O   UNL A   1      49.058  35.060  27.476  1.00  0.00    -0.744 OA
ENDBRANCH  79  80
ENDBRANCH  58  72
BRANCH  59  84
ATOM     84  C   UNL A   1      48.608  26.515  32.080  1.00  0.00     0.058 A 
ATOM     85  C   UNL A   1      49.757  25.721  31.907  1.00  0.00     0.135 A 
ATOM     86  C   UNL A   1      48.675  27.476  33.109  1.00  0.00     0.135 A 
ATOM     87  F   UNL A   1      49.794  24.791  30.939  1.00  0.00    -0.206 F 
ATOM     88  C   UNL A   1      50.918  25.905  32.669  1.00  0.00     0.059 A 
ATOM     89  C   UNL A   1      49.813  27.668  33.890  1.00  0.00     0.059 A 
ATOM     90  F   UNL A   1      47.667  28.330  33.335  1.00  0.00    -0.206 F 
ATOM     91  C   UNL A   1      50.942  26.898  33.648  1.00  0.00     0.060 A 
BRANCH  91  92
ATOM     92  S   UNL A   1      52.483  27.262  34.522  1.00  0.00     0.124 S 
ATOM     93  O   UNL A   1      53.272  26.066  34.255  1.00  0.00    -0.237 OA
ATOM     94  O   UNL A   1      52.930  28.486  33.866  1.00  0.00    -0.237 OA
ATOM     95  O   UNL A   1      52.053  27.426  35.910  1.00  0.00    -0.744 OA
ENDBRANCH  91  92
ENDBRANCH  59  84
BRANCH  71  96
ATOM     96  C   UNL A   1      45.584  25.656  26.549  1.00  0.00     0.058 A 
ATOM     97  C   UNL A   1      44.708  24.804  27.245  1.00  0.00     0.135 A 
ATOM     98  C   UNL A   1      46.189  25.143  25.391  1.00  0.00     0.135 A 
ATOM     99  F   UNL A   1      44.007  25.249  28.298  1.00  0.00    -0.206 F 
ATOM    100  C   UNL A   1      44.489  23.485  26.839  1.00  0.00     0.059 A 
ATOM    101  C   UNL A   1      45.959  23.844  24.948  1.00  0.00     0.059 A 
ATOM    102  F   UNL A   1      46.986  25.927  24.645  1.00  0.00    -0.206 F 
ATOM    103  C   UNL A   1      45.123  23.013  25.688  1.00  0.00     0.060 A 
BRANCH 103 104
ATOM    104  S   UNL A   1      44.809  21.324  25.134  1.00  0.00     0.124 S 
ATOM    105  O   UNL A   1      46.066  20.657  25.452  1.00  0.00    -0.237 OA
ATOM    106  O   UNL A   1      43.659  20.934  25.945  1.00  0.00    -0.237 OA
ATOM    107  O   UNL A   1      44.528  21.479  23.708  1.00  0.00    -0.744 OA
ENDBRANCH 103 104
ENDBRANCH  71  96
ENDBRANCH  45  46
ENDBRANCH  38  40
ENDBRANCH  37  38
ENDBRANCH  36  37
ENDBRANCH  35  36
ENDBRANCH  34  35
ENDBRANCH  33  34
ENDBRANCH   1  33
TORSDOF 25
ENDMDL
MODEL 3
REMARK VINA RESULT:      -9.3      5.797      8.113
REMARK SMILES O=C(CC[NH+]1CCC(n2nccc2NC(=O)c2ccccc2Cl)CC1)OCCOCCOCCOC(=O)c1ccc(-c2c3nc(c(-c4c(F)cc(S(=O)(=O)[O-])cc4F)c4ccc([nH]4)c(-c4c(F)cc(S(=O)(=O)[O-])cc4F)c4nc(c(-c5c(F)cc(S(=O)(=O)[O-])cc5F)c5ccc2[nH]5)C=C4)C=C3)cc1
REMARK SMILES IDX 30 1 29 2 28 3 27 4 26 5 2 6 1 7 3 8 4 9 5 10 6 11 25 12
REMARK SMILES IDX 7 14 24 15 8 16 9 17 10 18 13 19 11 20 12 21 14 22 15 23
REMARK SMILES IDX 16 25 17 26 18 27 22 28 19 29 21 30 23 31 20 32 31 33 32 34
REMARK SMILES IDX 33 35 34 36 35 37 36 38 37 39 38 40 39 41 103 42 40 43
REMARK SMILES IDX 102 44 41 45 42 46 43 47 96 48 44 49 101 50 95 51 97 52
REMARK SMILES IDX 45 53 100 54 94 55 93 56 46 58 80 59 59 60 79 61 60 62 63 63
REMARK SMILES IDX 78 64 98 65 61 66 62 67 77 69 99 70 64 71 47 72 48 73 57 74
REMARK SMILES IDX 49 75 50 76 56 77 58 78 51 79 52 80 53 81 54 82 55 83 81 84
REMARK SMILES IDX 82 85 91 86 83 87 84 88 90 89 92 90 85 91 86 92 87 93 88 94
REMARK SMILES IDX 89 95 65 96 66 97 75 98 67 99 68 100 74 101 76 102 69 103
REMARK SMILES IDX 70 104 71 105 72 106 73 107
REMARK H PARENT 5 13 14 24 97 57 63 68
REMARK Flexibility Score: inf
ROOT
ATOM      1  C   UNL A   1      37.900  30.711  33.093  1.00  0.00     0.188 C 
ENDROOT
BRANCH   1   2
ATOM      2  O   UNL A   1      37.793  31.443  31.893  1.00  0.00    -0.376 OA
BRANCH   2   3
ATOM      3  C   UNL A   1      36.586  31.341  31.176  1.00  0.00     0.202 C 
BRANCH   3   4
ATOM      4  C   UNL A   1      36.106  32.547  30.374  1.00  0.00     0.261 C 
BRANCH   4   5
ATOM      5  O   UNL A   1      34.885  32.442  29.610  1.00  0.00    -0.463 OA
BRANCH   5   6
ATOM      6  C   UNL A   1      34.747  32.425  28.266  1.00  0.00     0.311 C 
ATOM      7  O   UNL A   1      35.234  33.318  27.577  1.00  0.00    -0.252 OA
BRANCH   6   8
ATOM      8  C   UNL A   1      34.009  31.285  27.649  1.00  0.00     0.184 C 
BRANCH   8   9
ATOM      9  C   UNL A   1      34.723  29.946  27.813  1.00  0.00     0.274 C 
BRANCH   9  10
ATOM     10  N   UNL A   1      33.888  28.785  27.465  1.00  0.00    -0.334 N 
ATOM     11  C   UNL A   1      32.461  29.099  27.474  1.00  0.00     0.264 C 
ATOM     12  C   UNL A   1      34.245  28.166  26.174  1.00  0.00     0.264 C 
ATOM     13  H   UNL A   1      34.082  28.105  28.201  1.00  0.00     0.348 HD
ATOM     14  C   UNL A   1      31.663  27.798  27.416  1.00  0.00     0.089 C 
ATOM     15  C   UNL A   1      33.616  26.772  26.115  1.00  0.00     0.089 C 
ATOM     16  C   UNL A   1      32.104  26.861  26.275  1.00  0.00     0.121 C 
BRANCH  16  17
ATOM     17  N   UNL A   1      31.380  25.593  26.368  1.00  0.00    -0.246 N 
ATOM     18  N   UNL A   1      31.918  24.692  27.225  1.00  0.00    -0.179 NA
ATOM     19  C   UNL A   1      30.322  25.056  25.640  1.00  0.00     0.131 A 
ATOM     20  C   UNL A   1      31.352  23.539  26.890  1.00  0.00     0.137 A 
ATOM     21  C   UNL A   1      30.410  23.696  25.867  1.00  0.00     0.069 A 
BRANCH  19  22
ATOM     22  N   UNL A   1      29.395  25.694  24.821  1.00  0.00    -0.307 N 
ATOM     23  C   UNL A   1      29.637  26.637  23.758  1.00  0.00     0.258 C 
ATOM     24  H   UNL A   1      28.451  25.471  24.990  1.00  0.00     0.171 HD
ATOM     25  O   UNL A   1      28.645  27.175  23.298  1.00  0.00    -0.269 OA
BRANCH  23  26
ATOM     26  C   UNL A   1      30.984  26.961  23.267  1.00  0.00     0.058 A 
ATOM     27  C   UNL A   1      31.705  25.945  22.621  1.00  0.00     0.015 A 
ATOM     28  C   UNL A   1      31.517  28.251  23.362  1.00  0.00     0.053 A 
ATOM     29  C   UNL A   1      32.901  26.253  21.972  1.00  0.00     0.001 A 
ATOM     30  C   UNL A   1      32.705  28.555  22.691  1.00  0.00     0.021 A 
ATOM     31  Cl  UNL A   1      30.748  29.506  24.264  1.00  0.00    -0.083 Cl
ATOM     32  C   UNL A   1      33.383  27.563  21.979  1.00  0.00     0.002 A 
ENDBRANCH  23  26
ENDBRANCH  19  22
ENDBRANCH  16  17
ENDBRANCH   9  10
ENDBRANCH   8   9
ENDBRANCH   6   8
ENDBRANCH   5   6
ENDBRANCH   4   5
ENDBRANCH   3   4
ENDBRANCH   2   3
ENDBRANCH   1   2
BRANCH   1  33
ATOM     33  C   UNL A   1      39.350  30.342  33.472  1.00  0.00     0.188 C 
BRANCH  33  34
ATOM     34  O   UNL A   1      39.667  29.570  34.629  1.00  0.00    -0.376 OA
BRANCH  34  35
ATOM     35  C   UNL A   1      40.583  29.938  35.657  1.00  0.00     0.202 C 
BRANCH  35  36
ATOM     36  C   UNL A   1      41.723  29.063  36.162  1.00  0.00     0.261 C 
BRANCH  36  37
ATOM     37  O   UNL A   1      41.442  27.701  35.943  1.00  0.00    -0.460 OA
BRANCH  37  38
ATOM     38  C   UNL A   1      42.151  26.887  36.748  1.00  0.00     0.338 C 
ATOM     39  O   UNL A   1      41.913  26.614  37.908  1.00  0.00    -0.246 OA
BRANCH  38  40
ATOM     40  C   UNL A   1      43.328  26.402  36.010  1.00  0.00     0.060 A 
ATOM     41  C   UNL A   1      44.349  27.341  35.981  1.00  0.00     0.016 A 
ATOM     42  C   UNL A   1      43.106  25.472  34.986  1.00  0.00     0.016 A 
ATOM     43  C   UNL A   1      44.764  27.708  34.738  1.00  0.00     0.010 A 
ATOM     44  C   UNL A   1      43.517  25.837  33.741  1.00  0.00     0.010 A 
ATOM     45  C   UNL A   1      44.221  27.030  33.638  1.00  0.00    -0.014 A 
BRANCH  45  46
ATOM     46  C   UNL A   1      44.546  27.541  32.341  1.00  0.00     0.031 A 
ATOM     47  C   UNL A   1      43.795  28.780  32.109  1.00  0.00     0.074 A 
ATOM     48  C   UNL A   1      45.444  26.952  31.536  1.00  0.00     0.049 A 
ATOM     49  N   UNL A   1      42.689  28.896  31.456  1.00  0.00    -0.248 NA
ATOM     50  C   UNL A   1      44.101  29.923  32.986  1.00  0.00     0.031 C 
ATOM     51  C   UNL A   1      46.374  25.863  31.843  1.00  0.00     0.029 A 
ATOM     52  N   UNL A   1      45.776  27.291  30.268  1.00  0.00    -0.354 N 
ATOM     53  C   UNL A   1      42.361  30.236  31.582  1.00  0.00     0.074 A 
ATOM     54  C   UNL A   1      43.039  30.697  32.760  1.00  0.00     0.031 C 
ATOM     55  C   UNL A   1      47.316  25.803  30.872  1.00  0.00     0.029 A 
ATOM     56  C   UNL A   1      46.982  26.760  29.829  1.00  0.00     0.049 A 
ATOM     57  H   UNL A   1      45.210  27.865  29.704  1.00  0.00     0.167 HD
ATOM     58  C   UNL A   1      41.939  30.919  30.486  1.00  0.00     0.037 A 
ATOM     59  C   UNL A   1      47.672  27.195  28.743  1.00  0.00     0.037 A 
ATOM     60  C   UNL A   1      41.440  30.001  29.480  1.00  0.00     0.049 A 
ATOM     61  C   UNL A   1      46.693  27.922  27.879  1.00  0.00     0.074 A 
ATOM     62  C   UNL A   1      40.484  29.001  29.461  1.00  0.00     0.029 A 
ATOM     63  N   UNL A   1      42.240  29.774  28.383  1.00  0.00    -0.354 N 
ATOM     64  N   UNL A   1      45.693  27.337  27.273  1.00  0.00    -0.248 NA
ATOM     65  C   UNL A   1      46.532  29.354  28.089  1.00  0.00     0.031 C 
ATOM     66  C   UNL A   1      41.016  27.983  28.615  1.00  0.00     0.029 A 
ATOM     67  C   UNL A   1      42.233  28.433  28.104  1.00  0.00     0.049 A 
ATOM     68  H   UNL A   1      42.736  30.462  27.882  1.00  0.00     0.167 HD
ATOM     69  C   UNL A   1      44.622  28.210  27.421  1.00  0.00     0.074 A 
ATOM     70  C   UNL A   1      45.220  29.470  27.856  1.00  0.00     0.031 C 
ATOM     71  C   UNL A   1      43.338  27.743  27.470  1.00  0.00     0.037 A 
BRANCH  58  72
ATOM     72  C   UNL A   1      42.455  32.304  30.138  1.00  0.00     0.058 A 
ATOM     73  C   UNL A   1      41.513  33.343  30.022  1.00  0.00     0.135 A 
ATOM     74  C   UNL A   1      43.740  32.597  29.618  1.00  0.00     0.135 A 
ATOM     75  F   UNL A   1      40.270  33.195  30.510  1.00  0.00    -0.206 F 
ATOM     76  C   UNL A   1      41.780  34.518  29.323  1.00  0.00     0.059 A 
ATOM     77  C   UNL A   1      44.040  33.776  28.956  1.00  0.00     0.059 A 
ATOM     78  F   UNL A   1      44.766  31.743  29.643  1.00  0.00    -0.206 F 
ATOM     79  C   UNL A   1      43.041  34.710  28.770  1.00  0.00     0.060 A 
BRANCH  79  80
ATOM     80  S   UNL A   1      43.367  36.168  27.774  1.00  0.00     0.124 S 
ATOM     81  O   UNL A   1      42.944  37.230  28.678  1.00  0.00    -0.237 OA
ATOM     82  O   UNL A   1      44.803  36.049  27.543  1.00  0.00    -0.237 OA
ATOM     83  O   UNL A   1      42.529  35.962  26.597  1.00  0.00    -0.744 OA
ENDBRANCH  79  80
ENDBRANCH  58  72
BRANCH  59  84
ATOM     84  C   UNL A   1      49.145  27.371  28.616  1.00  0.00     0.058 A 
ATOM     85  C   UNL A   1      49.882  26.648  27.659  1.00  0.00     0.135 A 
ATOM     86  C   UNL A   1      49.824  28.442  29.233  1.00  0.00     0.135 A 
ATOM     87  F   UNL A   1      49.314  25.623  27.005  1.00  0.00    -0.206 F 
ATOM     88  C   UNL A   1      51.189  27.000  27.296  1.00  0.00     0.059 A 
ATOM     89  C   UNL A   1      51.128  28.802  28.899  1.00  0.00     0.059 A 
ATOM     90  F   UNL A   1      49.211  29.239  30.119  1.00  0.00    -0.206 F 
ATOM     91  C   UNL A   1      51.797  28.094  27.911  1.00  0.00     0.060 A 
BRANCH  91  92
ATOM     92  S   UNL A   1      53.414  28.665  27.336  1.00  0.00     0.124 S 
ATOM     93  O   UNL A   1      53.834  29.533  28.429  1.00  0.00    -0.237 OA
ATOM     94  O   UNL A   1      54.151  27.415  27.191  1.00  0.00    -0.237 OA
ATOM     95  O   UNL A   1      53.104  29.350  26.082  1.00  0.00    -0.744 OA
ENDBRANCH  91  92
ENDBRANCH  59  84
BRANCH  71  96
ATOM     96  C   UNL A   1      43.079  26.334  27.004  1.00  0.00     0.058 A 
ATOM     97  C   UNL A   1      42.867  25.951  25.667  1.00  0.00     0.135 A 
ATOM     98  C   UNL A   1      43.171  25.307  27.956  1.00  0.00     0.135 A 
ATOM     99  F   UNL A   1      42.873  26.860  24.681  1.00  0.00    -0.206 F 
ATOM    100  C   UNL A   1      42.700  24.612  25.305  1.00  0.00     0.059 A 
ATOM    101  C   UNL A   1      43.042  23.965  27.614  1.00  0.00     0.059 A 
ATOM    102  F   UNL A   1      43.437  25.602  29.240  1.00  0.00    -0.206 F 
ATOM    103  C   UNL A   1      42.786  23.625  26.288  1.00  0.00     0.060 A 
BRANCH 103 104
ATOM    104  S   UNL A   1      42.615  21.890  25.819  1.00  0.00     0.124 S 
ATOM    105  O   UNL A   1      43.602  21.761  24.753  1.00  0.00    -0.237 OA
ATOM    106  O   UNL A   1      42.928  21.193  27.063  1.00  0.00    -0.237 OA
ATOM    107  O   UNL A   1      41.221  21.787  25.393  1.00  0.00    -0.744 OA
ENDBRANCH 103 104
ENDBRANCH  71  96
ENDBRANCH  45  46
ENDBRANCH  38  40
ENDBRANCH  37  38
ENDBRANCH  36  37
ENDBRANCH  35  36
ENDBRANCH  34  35
ENDBRANCH  33  34
ENDBRANCH   1  33
TORSDOF 25
ENDMDL
