MODEL 1
REMARK VINA RESULT:     -10.8      0.000      0.000
REMARK SMILES Cc1ccccc1/[NH+]=C1\S[C@@H](CC(=O)Nc2ccc(C(=O)OCCOCCOCCOC(=O)c3ccc(-c4c5nc(c(-c6c(F)cc(S(=O)(=O)[O-])cc6F)c6ccc([nH]6)c(-c6c(F)cc(S(=O)(=O)[O-])cc6F)c6nc(c(-c7c(F)cc(S(=O)(=O)[O-])cc7F)c7ccc4[nH]7)C=C6)C=C5)cc3)cc2)C(=O)N1C
REMARK SMILES IDX 26 1 25 2 24 3 23 4 22 5 20 6 21 7 19 8 16 9 17 10 101 11
REMARK SMILES IDX 18 12 100 13 15 14 13 15 14 16 12 18 11 19 8 20 9 21 10 23
REMARK SMILES IDX 104 24 102 25 105 26 103 27 7 28 1 29 2 30 3 31 4 32 6 33
REMARK SMILES IDX 5 34 27 35 28 36 29 37 30 38 31 39 32 40 33 41 34 42 35 43
REMARK SMILES IDX 99 44 36 45 98 46 37 47 38 48 39 49 92 50 40 51 97 52 91 53
REMARK SMILES IDX 93 54 41 55 96 56 90 57 89 58 42 60 76 61 55 62 75 63 56 64
REMARK SMILES IDX 59 65 74 66 94 67 57 68 58 69 73 71 95 72 60 73 43 74 44 75
REMARK SMILES IDX 53 76 45 77 46 78 52 79 54 80 47 81 48 82 49 83 50 84 51 85
REMARK SMILES IDX 77 86 78 87 87 88 79 89 80 90 86 91 88 92 81 93 82 94 83 95
REMARK SMILES IDX 84 96 85 97 61 98 62 99 71 100 63 101 64 102 70 103 72 104
REMARK SMILES IDX 65 105 66 106 67 107 68 108 69 109
REMARK H PARENT 15 17 8 22 93 59 59 70
REMARK Flexibility Score: inf
ROOT
ATOM      1  C   UNL A   1      45.526  25.424  25.056  1.00  0.00     0.188 C 
ENDROOT
BRANCH   1   2
ATOM      2  O   UNL A   1      44.204  24.929  24.756  1.00  0.00    -0.376 OA
BRANCH   2   3
ATOM      3  C   UNL A   1      43.798  23.563  24.734  1.00  0.00     0.202 C 
BRANCH   3   4
ATOM      4  C   UNL A   1      43.972  22.479  26.048  1.00  0.00     0.261 C 
BRANCH   4   5
ATOM      5  O   UNL A   1      42.862  22.255  27.249  1.00  0.00    -0.460 OA
BRANCH   5   6
ATOM      6  C   UNL A   1      41.803  22.744  27.995  1.00  0.00     0.338 C 
ATOM      7  O   UNL A   1      41.880  23.233  29.114  1.00  0.00    -0.246 OA
BRANCH   6   8
ATOM      8  C   UNL A   1      40.386  22.689  27.411  1.00  0.00     0.060 A 
ATOM      9  C   UNL A   1      38.223  22.991  25.634  1.00  0.00     0.041 A 
ATOM     10  C   UNL A   1      38.537  24.006  26.535  1.00  0.00     0.027 A 
ATOM     11  C   UNL A   1      38.785  21.731  25.799  1.00  0.00     0.027 A 
ATOM     12  C   UNL A   1      39.628  23.858  27.405  1.00  0.00     0.018 A 
ATOM     13  C   UNL A   1      39.894  21.588  26.657  1.00  0.00     0.018 A 
BRANCH   9  14
ATOM     14  N   UNL A   1      37.615  23.373  24.422  1.00  0.00    -0.326 N 
ATOM     15  C   UNL A   1      36.315  23.023  24.097  1.00  0.00     0.226 C 
ATOM     16  O   UNL A   1      35.966  22.995  22.914  1.00  0.00    -0.275 OA
ATOM     17  H   UNL A   1      38.134  23.910  23.780  1.00  0.00     0.169 HD
BRANCH  15  18
ATOM     18  C   UNL A   1      35.327  22.671  25.194  1.00  0.00     0.128 C 
BRANCH  18  19
ATOM     19  C   UNL A   1      33.920  23.221  25.022  1.00  0.00     0.183 C 
ATOM     20  N   UNL A   1      31.183  25.614  25.956  1.00  0.00    -0.234 N 
ATOM     21  C   UNL A   1      32.154  24.778  25.994  1.00  0.00     0.319 C 
ATOM     22  H   UNL A   1      30.331  25.219  26.255  1.00  0.00     0.313 HD
ATOM     23  S   UNL A   1      33.842  24.923  25.659  1.00  0.00    -0.022 SA
ATOM     24  N   UNL A   1      31.883  23.460  26.265  1.00  0.00    -0.193 N 
ATOM     25  C   UNL A   1      32.730  22.539  25.679  1.00  0.00     0.324 C 
ATOM     26  C   UNL A   1      30.682  23.073  26.978  1.00  0.00     0.301 C 
ATOM     27  O   UNL A   1      32.466  21.347  25.542  1.00  0.00    -0.245 OA
BRANCH  20  28
ATOM     28  C   UNL A   1      31.053  26.959  25.588  1.00  0.00     0.128 A 
ATOM     29  C   UNL A   1      32.169  28.225  27.555  1.00  0.00     0.049 C 
ATOM     30  C   UNL A   1      31.561  28.128  26.191  1.00  0.00    -0.004 A 
ATOM     31  C   UNL A   1      31.492  29.355  25.492  1.00  0.00     0.008 A 
ATOM     32  C   UNL A   1      30.966  29.442  24.209  1.00  0.00     0.001 A 
ATOM     33  C   UNL A   1      30.499  27.091  24.296  1.00  0.00     0.052 A 
ATOM     34  C   UNL A   1      30.460  28.304  23.608  1.00  0.00     0.004 A 
ENDBRANCH  20  28
ENDBRANCH  18  19
ENDBRANCH  15  18
ENDBRANCH   9  14
ENDBRANCH   6   8
ENDBRANCH   5   6
ENDBRANCH   4   5
ENDBRANCH   3   4
ENDBRANCH   2   3
ENDBRANCH   1   2
BRANCH   1  35
ATOM     35  C   UNL A   1      46.783  24.578  24.843  1.00  0.00     0.188 C 
BRANCH  35  36
ATOM     36  O   UNL A   1      47.630  24.648  25.976  1.00  0.00    -0.376 OA
BRANCH  36  37
ATOM     37  C   UNL A   1      48.698  25.574  25.889  1.00  0.00     0.202 C 
BRANCH  37  38
ATOM     38  C   UNL A   1      48.330  27.008  26.324  1.00  0.00     0.261 C 
BRANCH  38  39
ATOM     39  O   UNL A   1      47.387  27.028  27.425  1.00  0.00    -0.460 OA
BRANCH  39  40
ATOM     40  C   UNL A   1      47.619  27.920  28.472  1.00  0.00     0.338 C 
ATOM     41  O   UNL A   1      48.710  28.165  28.871  1.00  0.00    -0.246 OA
BRANCH  40  42
ATOM     42  C   UNL A   1      46.330  28.631  28.841  1.00  0.00     0.060 A 
ATOM     43  C   UNL A   1      46.127  29.803  29.584  1.00  0.00     0.016 A 
ATOM     44  C   UNL A   1      45.201  27.961  28.553  1.00  0.00     0.016 A 
ATOM     45  C   UNL A   1      44.803  30.188  30.128  1.00  0.00     0.010 A 
ATOM     46  C   UNL A   1      44.092  28.246  29.348  1.00  0.00     0.010 A 
ATOM     47  C   UNL A   1      43.670  29.370  30.065  1.00  0.00    -0.014 A 
BRANCH  47  48
ATOM     48  C   UNL A   1      42.253  29.495  30.888  1.00  0.00     0.031 A 
ATOM     49  C   UNL A   1      40.888  30.411  30.790  1.00  0.00     0.074 A 
ATOM     50  C   UNL A   1      42.136  28.697  31.976  1.00  0.00     0.049 A 
ATOM     51  N   UNL A   1      40.375  31.102  31.805  1.00  0.00    -0.248 NA
ATOM     52  C   UNL A   1      39.916  30.519  29.682  1.00  0.00     0.031 C 
ATOM     53  C   UNL A   1      40.954  28.482  32.815  1.00  0.00     0.029 A 
ATOM     54  N   UNL A   1      43.146  27.997  32.631  1.00  0.00    -0.354 N 
ATOM     55  C   UNL A   1      39.120  31.635  31.427  1.00  0.00     0.074 A 
ATOM     56  C   UNL A   1      38.944  31.333  30.065  1.00  0.00     0.031 C 
ATOM     57  C   UNL A   1      41.353  27.978  33.991  1.00  0.00     0.029 A 
ATOM     58  C   UNL A   1      42.800  27.914  33.981  1.00  0.00     0.049 A 
ATOM     59  H   UNL A   1      43.960  27.629  32.216  1.00  0.00     0.167 HD
ATOM     60  C   UNL A   1      38.130  32.164  32.199  1.00  0.00     0.037 A 
ATOM     61  C   UNL A   1      43.643  28.371  34.946  1.00  0.00     0.037 A 
ATOM     62  C   UNL A   1      38.312  31.789  33.564  1.00  0.00     0.049 A 
ATOM     63  C   UNL A   1      43.049  29.479  35.779  1.00  0.00     0.074 A 
ATOM     64  C   UNL A   1      37.830  30.715  34.288  1.00  0.00     0.029 A 
ATOM     65  N   UNL A   1      39.373  32.321  34.261  1.00  0.00    -0.354 N 
ATOM     66  N   UNL A   1      41.917  30.074  35.516  1.00  0.00    -0.248 NA
ATOM     67  C   UNL A   1      43.690  30.024  36.972  1.00  0.00     0.031 C 
ATOM     68  C   UNL A   1      38.694  30.530  35.391  1.00  0.00     0.029 A 
ATOM     69  C   UNL A   1      39.628  31.551  35.373  1.00  0.00     0.049 A 
ATOM     70  H   UNL A   1      39.873  33.128  34.003  1.00  0.00     0.167 HD
ATOM     71  C   UNL A   1      41.715  31.099  36.406  1.00  0.00     0.074 A 
ATOM     72  C   UNL A   1      42.830  30.996  37.325  1.00  0.00     0.031 C 
ATOM     73  C   UNL A   1      40.661  31.959  36.299  1.00  0.00     0.037 A 
BRANCH  60  74
ATOM     74  C   UNL A   1      36.853  32.722  31.570  1.00  0.00     0.058 A 
ATOM     75  C   UNL A   1      35.936  31.949  30.837  1.00  0.00     0.135 A 
ATOM     76  C   UNL A   1      36.564  34.110  31.617  1.00  0.00     0.135 A 
ATOM     77  F   UNL A   1      36.080  30.619  30.741  1.00  0.00    -0.206 F 
ATOM     78  C   UNL A   1      34.871  32.518  30.118  1.00  0.00     0.059 A 
ATOM     79  C   UNL A   1      35.525  34.705  30.881  1.00  0.00     0.059 A 
ATOM     80  F   UNL A   1      37.347  34.930  32.334  1.00  0.00    -0.206 F 
ATOM     81  C   UNL A   1      34.689  33.901  30.115  1.00  0.00     0.060 A 
BRANCH  81  82
ATOM     82  S   UNL A   1      33.438  34.624  29.017  1.00  0.00     0.124 S 
ATOM     83  O   UNL A   1      33.079  33.495  28.161  1.00  0.00    -0.237 OA
ATOM     84  O   UNL A   1      32.408  35.050  29.958  1.00  0.00    -0.237 OA
ATOM     85  O   UNL A   1      34.145  35.703  28.334  1.00  0.00    -0.744 OA
ENDBRANCH  81  82
ENDBRANCH  60  74
BRANCH  61  86
ATOM     86  C   UNL A   1      45.082  28.127  34.632  1.00  0.00     0.058 A 
ATOM     87  C   UNL A   1      45.805  29.210  34.087  1.00  0.00     0.135 A 
ATOM     88  C   UNL A   1      45.828  27.077  35.182  1.00  0.00     0.135 A 
ATOM     89  F   UNL A   1      45.149  30.247  33.541  1.00  0.00    -0.206 F 
ATOM     90  C   UNL A   1      47.185  29.321  34.212  1.00  0.00     0.059 A 
ATOM     91  C   UNL A   1      47.226  27.158  35.302  1.00  0.00     0.059 A 
ATOM     92  F   UNL A   1      45.208  26.033  35.753  1.00  0.00    -0.206 F 
ATOM     93  C   UNL A   1      47.882  28.314  34.869  1.00  0.00     0.060 A 
BRANCH  93  94
ATOM     94  S   UNL A   1      49.611  28.652  35.298  1.00  0.00     0.124 S 
ATOM     95  O   UNL A   1      50.313  27.574  34.611  1.00  0.00    -0.237 OA
ATOM     96  O   UNL A   1      49.789  29.987  34.728  1.00  0.00    -0.237 OA
ATOM     97  O   UNL A   1      49.612  28.579  36.754  1.00  0.00    -0.744 OA
ENDBRANCH  93  94
ENDBRANCH  61  86
BRANCH  73  98
ATOM     98  C   UNL A   1      40.430  33.243  37.068  1.00  0.00     0.058 A 
ATOM     99  C   UNL A   1      39.472  33.394  38.080  1.00  0.00     0.135 A 
ATOM    100  C   UNL A   1      41.316  34.342  36.900  1.00  0.00     0.135 A 
ATOM    101  F   UNL A   1      38.649  32.392  38.417  1.00  0.00    -0.206 F 
ATOM    102  C   UNL A   1      39.351  34.572  38.823  1.00  0.00     0.059 A 
ATOM    103  C   UNL A   1      41.256  35.495  37.673  1.00  0.00     0.059 A 
ATOM    104  F   UNL A   1      42.290  34.330  35.977  1.00  0.00    -0.206 F 
ATOM    105  C   UNL A   1      40.247  35.616  38.613  1.00  0.00     0.060 A 
BRANCH 105 106
ATOM    106  S   UNL A   1      40.134  37.129  39.582  1.00  0.00     0.124 S 
ATOM    107  O   UNL A   1      40.120  36.599  40.943  1.00  0.00    -0.237 OA
ATOM    108  O   UNL A   1      41.341  37.855  39.203  1.00  0.00    -0.237 OA
ATOM    109  O   UNL A   1      38.882  37.720  39.119  1.00  0.00    -0.744 OA
ENDBRANCH 105 106
ENDBRANCH  73  98
ENDBRANCH  47  48
ENDBRANCH  40  42
ENDBRANCH  39  40
ENDBRANCH  38  39
ENDBRANCH  37  38
ENDBRANCH  36  37
ENDBRANCH  35  36
ENDBRANCH   1  35
TORSDOF 24
ENDMDL
MODEL 2
REMARK VINA RESULT:     -10.2      1.723      2.691
REMARK SMILES Cc1ccccc1/[NH+]=C1\S[C@@H](CC(=O)Nc2ccc(C(=O)OCCOCCOCCOC(=O)c3ccc(-c4c5nc(c(-c6c(F)cc(S(=O)(=O)[O-])cc6F)c6ccc([nH]6)c(-c6c(F)cc(S(=O)(=O)[O-])cc6F)c6nc(c(-c7c(F)cc(S(=O)(=O)[O-])cc7F)c7ccc4[nH]7)C=C6)C=C5)cc3)cc2)C(=O)N1C
REMARK SMILES IDX 26 1 25 2 24 3 23 4 22 5 20 6 21 7 19 8 16 9 17 10 101 11
REMARK SMILES IDX 18 12 100 13 15 14 13 15 14 16 12 18 11 19 8 20 9 21 10 23
REMARK SMILES IDX 104 24 102 25 105 26 103 27 7 28 1 29 2 30 3 31 4 32 6 33
REMARK SMILES IDX 5 34 27 35 28 36 29 37 30 38 31 39 32 40 33 41 34 42 35 43
REMARK SMILES IDX 99 44 36 45 98 46 37 47 38 48 39 49 92 50 40 51 97 52 91 53
REMARK SMILES IDX 93 54 41 55 96 56 90 57 89 58 42 60 76 61 55 62 75 63 56 64
REMARK SMILES IDX 59 65 74 66 94 67 57 68 58 69 73 71 95 72 60 73 43 74 44 75
REMARK SMILES IDX 53 76 45 77 46 78 52 79 54 80 47 81 48 82 49 83 50 84 51 85
REMARK SMILES IDX 77 86 78 87 87 88 79 89 80 90 86 91 88 92 81 93 82 94 83 95
REMARK SMILES IDX 84 96 85 97 61 98 62 99 71 100 63 101 64 102 70 103 72 104
REMARK SMILES IDX 65 105 66 106 67 107 68 108 69 109
REMARK H PARENT 15 17 8 22 93 59 59 70
REMARK Flexibility Score: inf
ROOT
ATOM      1  C   UNL A   1      42.195  27.691  25.277  1.00  0.00     0.188 C 
ENDROOT
BRANCH   1   2
ATOM      2  O   UNL A   1      41.699  26.342  25.153  1.00  0.00    -0.376 OA
BRANCH   2   3
ATOM      3  C   UNL A   1      42.007  25.245  26.010  1.00  0.00     0.202 C 
BRANCH   3   4
ATOM      4  C   UNL A   1      40.900  24.528  27.101  1.00  0.00     0.261 C 
BRANCH   4   5
ATOM      5  O   UNL A   1      40.345  22.976  27.009  1.00  0.00    -0.460 OA
BRANCH   5   6
ATOM      6  C   UNL A   1      39.511  22.046  26.411  1.00  0.00     0.338 C 
ATOM      7  O   UNL A   1      39.676  20.832  26.409  1.00  0.00    -0.246 OA
BRANCH   6   8
ATOM      8  C   UNL A   1      38.258  22.528  25.670  1.00  0.00     0.060 A 
ATOM      9  C   UNL A   1      35.565  22.822  24.902  1.00  0.00     0.041 A 
ATOM     10  C   UNL A   1      36.361  21.846  24.307  1.00  0.00     0.027 A 
ATOM     11  C   UNL A   1      36.161  23.825  25.657  1.00  0.00     0.027 A 
ATOM     12  C   UNL A   1      37.697  21.690  24.708  1.00  0.00     0.018 A 
ATOM     13  C   UNL A   1      37.497  23.658  26.076  1.00  0.00     0.018 A 
BRANCH   9  14
ATOM     14  N   UNL A   1      34.183  22.563  24.983  1.00  0.00    -0.326 N 
ATOM     15  C   UNL A   1      33.238  23.349  24.344  1.00  0.00     0.226 C 
ATOM     16  O   UNL A   1      32.076  23.368  24.758  1.00  0.00    -0.275 OA
ATOM     17  H   UNL A   1      33.876  21.793  25.513  1.00  0.00     0.169 HD
BRANCH  15  18
ATOM     18  C   UNL A   1      33.636  24.190  23.144  1.00  0.00     0.128 C 
BRANCH  18  19
ATOM     19  C   UNL A   1      33.309  25.672  23.235  1.00  0.00     0.183 C 
ATOM     20  N   UNL A   1      32.312  28.710  25.202  1.00  0.00    -0.234 N 
ATOM     21  C   UNL A   1      32.396  27.520  24.732  1.00  0.00     0.319 C 
ATOM     22  H   UNL A   1      31.490  29.173  24.918  1.00  0.00     0.313 HD
ATOM     23  S   UNL A   1      33.550  26.253  24.941  1.00  0.00    -0.022 SA
ATOM     24  N   UNL A   1      31.474  27.109  23.801  1.00  0.00    -0.193 N 
ATOM     25  C   UNL A   1      31.923  26.187  22.876  1.00  0.00     0.324 C 
ATOM     26  C   UNL A   1      30.173  27.741  23.706  1.00  0.00     0.301 C 
ATOM     27  O   UNL A   1      31.364  25.953  21.807  1.00  0.00    -0.245 OA
BRANCH  20  28
ATOM     28  C   UNL A   1      33.119  29.504  26.027  1.00  0.00     0.128 A 
ATOM     29  C   UNL A   1      31.602  31.535  26.569  1.00  0.00     0.049 C 
ATOM     30  C   UNL A   1      32.822  30.685  26.738  1.00  0.00    -0.004 A 
ATOM     31  C   UNL A   1      33.744  31.167  27.696  1.00  0.00     0.008 A 
ATOM     32  C   UNL A   1      34.924  30.494  27.985  1.00  0.00     0.001 A 
ATOM     33  C   UNL A   1      34.341  28.863  26.327  1.00  0.00     0.052 A 
ATOM     34  C   UNL A   1      35.229  29.337  27.292  1.00  0.00     0.004 A 
ENDBRANCH  20  28
ENDBRANCH  18  19
ENDBRANCH  15  18
ENDBRANCH   9  14
ENDBRANCH   6   8
ENDBRANCH   5   6
ENDBRANCH   4   5
ENDBRANCH   3   4
ENDBRANCH   2   3
ENDBRANCH   1   2
BRANCH   1  35
ATOM     35  C   UNL A   1      43.608  27.999  25.778  1.00  0.00     0.188 C 
BRANCH  35  36
ATOM     36  O   UNL A   1      44.577  27.555  24.846  1.00  0.00    -0.376 OA
BRANCH  36  37
ATOM     37  C   UNL A   1      45.927  27.687  25.252  1.00  0.00     0.202 C 
BRANCH  37  38
ATOM     38  C   UNL A   1      46.440  26.526  26.130  1.00  0.00     0.261 C 
BRANCH  38  39
ATOM     39  O   UNL A   1      46.213  26.758  27.543  1.00  0.00    -0.460 OA
BRANCH  39  40
ATOM     40  C   UNL A   1      46.768  27.901  28.119  1.00  0.00     0.338 C 
ATOM     41  O   UNL A   1      47.900  28.216  27.947  1.00  0.00    -0.246 OA
BRANCH  40  42
ATOM     42  C   UNL A   1      45.681  28.725  28.785  1.00  0.00     0.060 A 
ATOM     43  C   UNL A   1      45.759  29.616  29.865  1.00  0.00     0.016 A 
ATOM     44  C   UNL A   1      44.427  28.446  28.393  1.00  0.00     0.016 A 
ATOM     45  C   UNL A   1      44.563  30.091  30.601  1.00  0.00     0.010 A 
ATOM     46  C   UNL A   1      43.417  28.702  29.319  1.00  0.00     0.010 A 
ATOM     47  C   UNL A   1      43.271  29.606  30.376  1.00  0.00    -0.014 A 
BRANCH  47  48
ATOM     48  C   UNL A   1      41.924  29.774  31.303  1.00  0.00     0.031 A 
ATOM     49  C   UNL A   1      40.573  30.715  31.293  1.00  0.00     0.074 A 
ATOM     50  C   UNL A   1      41.877  28.999  32.413  1.00  0.00     0.049 A 
ATOM     51  N   UNL A   1      40.152  31.435  32.330  1.00  0.00    -0.248 NA
ATOM     52  C   UNL A   1      39.520  30.822  30.261  1.00  0.00     0.031 C 
ATOM     53  C   UNL A   1      40.761  28.822  33.345  1.00  0.00     0.029 A 
ATOM     54  N   UNL A   1      42.923  28.291  33.002  1.00  0.00    -0.354 N 
ATOM     55  C   UNL A   1      38.882  31.985  32.039  1.00  0.00     0.074 A 
ATOM     56  C   UNL A   1      38.596  31.662  30.702  1.00  0.00     0.031 C 
ATOM     57  C   UNL A   1      41.240  28.332  34.496  1.00  0.00     0.029 A 
ATOM     58  C   UNL A   1      42.681  28.240  34.375  1.00  0.00     0.049 A 
ATOM     59  H   UNL A   1      43.694  27.899  32.532  1.00  0.00     0.167 HD
ATOM     60  C   UNL A   1      37.965  32.548  32.875  1.00  0.00     0.037 A 
ATOM     61  C   UNL A   1      43.604  28.697  35.263  1.00  0.00     0.037 A 
ATOM     62  C   UNL A   1      38.245  32.194  34.229  1.00  0.00     0.049 A 
ATOM     63  C   UNL A   1      43.096  29.832  36.117  1.00  0.00     0.074 A 
ATOM     64  C   UNL A   1      37.801  31.143  35.009  1.00  0.00     0.029 A 
ATOM     65  N   UNL A   1      39.366  32.718  34.831  1.00  0.00    -0.354 N 
ATOM     66  N   UNL A   1      41.958  30.444  35.930  1.00  0.00    -0.248 NA
ATOM     67  C   UNL A   1      43.838  30.386  37.246  1.00  0.00     0.031 C 
ATOM     68  C   UNL A   1      38.744  30.962  36.046  1.00  0.00     0.029 A 
ATOM     69  C   UNL A   1      39.693  31.964  35.935  1.00  0.00     0.049 A 
ATOM     70  H   UNL A   1      39.860  33.510  34.519  1.00  0.00     0.167 HD
ATOM     71  C   UNL A   1      41.845  31.489  36.814  1.00  0.00     0.074 A 
ATOM     72  C   UNL A   1      43.026  31.381  37.645  1.00  0.00     0.031 C 
ATOM     73  C   UNL A   1      40.802  32.368  36.771  1.00  0.00     0.037 A 
BRANCH  60  74
ATOM     74  C   UNL A   1      36.653  33.119  32.336  1.00  0.00     0.058 A 
ATOM     75  C   UNL A   1      35.715  32.373  31.602  1.00  0.00     0.135 A 
ATOM     76  C   UNL A   1      36.348  34.498  32.472  1.00  0.00     0.135 A 
ATOM     77  F   UNL A   1      35.872  31.053  31.426  1.00  0.00    -0.206 F 
ATOM     78  C   UNL A   1      34.610  32.964  30.964  1.00  0.00     0.059 A 
ATOM     79  C   UNL A   1      35.269  35.115  31.818  1.00  0.00     0.059 A 
ATOM     80  F   UNL A   1      37.152  35.290  33.199  1.00  0.00    -0.206 F 
ATOM     81  C   UNL A   1      34.410  34.341  31.046  1.00  0.00     0.060 A 
BRANCH  81  82
ATOM     82  S   UNL A   1      33.101  35.104  30.047  1.00  0.00     0.124 S 
ATOM     83  O   UNL A   1      32.023  35.279  31.018  1.00  0.00    -0.237 OA
ATOM     84  O   UNL A   1      33.737  36.333  29.586  1.00  0.00    -0.237 OA
ATOM     85  O   UNL A   1      32.826  34.116  29.007  1.00  0.00    -0.744 OA
ENDBRANCH  81  82
ENDBRANCH  60  74
BRANCH  61  86
ATOM     86  C   UNL A   1      45.009  28.419  34.844  1.00  0.00     0.058 A 
ATOM     87  C   UNL A   1      45.424  27.069  34.868  1.00  0.00     0.135 A 
ATOM     88  C   UNL A   1      45.783  29.308  34.087  1.00  0.00     0.135 A 
ATOM     89  F   UNL A   1      44.727  26.167  35.578  1.00  0.00    -0.206 F 
ATOM     90  C   UNL A   1      46.457  26.594  34.069  1.00  0.00     0.059 A 
ATOM     91  C   UNL A   1      46.844  28.853  33.286  1.00  0.00     0.059 A 
ATOM     92  F   UNL A   1      45.427  30.597  33.987  1.00  0.00    -0.206 F 
ATOM     93  C   UNL A   1      47.128  27.485  33.240  1.00  0.00     0.060 A 
BRANCH  93  94
ATOM     94  S   UNL A   1      48.229  26.777  31.986  1.00  0.00     0.124 S 
ATOM     95  O   UNL A   1      47.302  26.007  31.165  1.00  0.00    -0.237 OA
ATOM     96  O   UNL A   1      48.768  27.987  31.366  1.00  0.00    -0.237 OA
ATOM     97  O   UNL A   1      49.172  25.995  32.777  1.00  0.00    -0.744 OA
ENDBRANCH  93  94
ENDBRANCH  61  86
BRANCH  73  98
ATOM     98  C   UNL A   1      40.654  33.670  37.530  1.00  0.00     0.058 A 
ATOM     99  C   UNL A   1      39.856  33.832  38.670  1.00  0.00     0.135 A 
ATOM    100  C   UNL A   1      41.475  34.783  37.198  1.00  0.00     0.135 A 
ATOM    101  F   UNL A   1      39.121  32.822  39.156  1.00  0.00    -0.206 F 
ATOM    102  C   UNL A   1      39.817  35.029  39.390  1.00  0.00     0.059 A 
ATOM    103  C   UNL A   1      41.501  35.958  37.940  1.00  0.00     0.059 A 
ATOM    104  F   UNL A   1      42.299  34.764  36.140  1.00  0.00    -0.206 F 
ATOM    105  C   UNL A   1      40.642  36.086  39.018  1.00  0.00     0.060 A 
BRANCH 105 106
ATOM    106  S   UNL A   1      40.635  37.626  39.950  1.00  0.00     0.124 S 
ATOM    107  O   UNL A   1      39.421  38.262  39.448  1.00  0.00    -0.237 OA
ATOM    108  O   UNL A   1      40.580  37.172  41.336  1.00  0.00    -0.237 OA
ATOM    109  O   UNL A   1      41.891  38.254  39.553  1.00  0.00    -0.744 OA
ENDBRANCH 105 106
ENDBRANCH  73  98
ENDBRANCH  47  48
ENDBRANCH  40  42
ENDBRANCH  39  40
ENDBRANCH  38  39
ENDBRANCH  37  38
ENDBRANCH  36  37
ENDBRANCH  35  36
ENDBRANCH   1  35
TORSDOF 24
ENDMDL
MODEL 3
REMARK VINA RESULT:      -9.8      6.628     11.459
REMARK SMILES Cc1ccccc1/[NH+]=C1\S[C@@H](CC(=O)Nc2ccc(C(=O)OCCOCCOCCOC(=O)c3ccc(-c4c5nc(c(-c6c(F)cc(S(=O)(=O)[O-])cc6F)c6ccc([nH]6)c(-c6c(F)cc(S(=O)(=O)[O-])cc6F)c6nc(c(-c7c(F)cc(S(=O)(=O)[O-])cc7F)c7ccc4[nH]7)C=C6)C=C5)cc3)cc2)C(=O)N1C
REMARK SMILES IDX 26 1 25 2 24 3 23 4 22 5 20 6 21 7 19 8 16 9 17 10 101 11
REMARK SMILES IDX 18 12 100 13 15 14 13 15 14 16 12 18 11 19 8 20 9 21 10 23
REMARK SMILES IDX 104 24 102 25 105 26 103 27 7 28 1 29 2 30 3 31 4 32 6 33
REMARK SMILES IDX 5 34 27 35 28 36 29 37 30 38 31 39 32 40 33 41 34 42 35 43
REMARK SMILES IDX 99 44 36 45 98 46 37 47 38 48 39 49 92 50 40 51 97 52 91 53
REMARK SMILES IDX 93 54 41 55 96 56 90 57 89 58 42 60 76 61 55 62 75 63 56 64
REMARK SMILES IDX 59 65 74 66 94 67 57 68 58 69 73 71 95 72 60 73 43 74 44 75
REMARK SMILES IDX 53 76 45 77 46 78 52 79 54 80 47 81 48 82 49 83 50 84 51 85
REMARK SMILES IDX 77 86 78 87 87 88 79 89 80 90 86 91 88 92 81 93 82 94 83 95
REMARK SMILES IDX 84 96 85 97 61 98 62 99 71 100 63 101 64 102 70 103 72 104
REMARK SMILES IDX 65 105 66 106 67 107 68 108 69 109
REMARK H PARENT 15 17 8 22 93 59 59 70
REMARK Flexibility Score: inf
ROOT
ATOM      1  C   UNL A   1      35.933  32.508  31.345  1.00  0.00     0.188 C 
ENDROOT
BRANCH   1   2
ATOM      2  O   UNL A   1      35.298  32.007  30.149  1.00  0.00    -0.376 OA
BRANCH   2   3
ATOM      3  C   UNL A   1      35.923  31.791  28.887  1.00  0.00     0.202 C 
BRANCH   3   4
ATOM      4  C   UNL A   1      35.252  30.852  27.622  1.00  0.00     0.261 C 
BRANCH   4   5
ATOM      5  O   UNL A   1      33.703  30.284  27.579  1.00  0.00    -0.460 OA
BRANCH   5   6
ATOM      6  C   UNL A   1      32.582  29.943  26.841  1.00  0.00     0.338 C 
ATOM      7  O   UNL A   1      31.565  30.615  26.730  1.00  0.00    -0.246 OA
BRANCH   6   8
ATOM      8  C   UNL A   1      32.563  28.613  26.078  1.00  0.00     0.060 A 
ATOM      9  C   UNL A   1      32.487  26.755  23.963  1.00  0.00     0.041 A 
ATOM     10  C   UNL A   1      31.303  27.219  24.531  1.00  0.00     0.027 A 
ATOM     11  C   UNL A   1      33.694  26.983  24.613  1.00  0.00     0.027 A 
ATOM     12  C   UNL A   1      31.346  28.159  25.572  1.00  0.00     0.018 A 
ATOM     13  C   UNL A   1      33.740  27.943  25.645  1.00  0.00     0.018 A 
BRANCH   9  14
ATOM     14  N   UNL A   1      32.443  26.369  22.609  1.00  0.00    -0.326 N 
ATOM     15  C   UNL A   1      32.620  25.058  22.201  1.00  0.00     0.226 C 
ATOM     16  O   UNL A   1      32.992  24.819  21.050  1.00  0.00    -0.275 OA
ATOM     17  H   UNL A   1      32.278  27.059  21.925  1.00  0.00     0.169 HD
BRANCH  15  18
ATOM     18  C   UNL A   1      32.363  23.920  23.173  1.00  0.00     0.128 C 
BRANCH  18  19
ATOM     19  C   UNL A   1      33.361  22.773  23.128  1.00  0.00     0.183 C 
ATOM     20  N   UNL A   1      34.882  19.672  24.600  1.00  0.00    -0.234 N 
ATOM     21  C   UNL A   1      34.380  20.841  24.439  1.00  0.00     0.319 C 
ATOM     22  H   UNL A   1      35.849  19.697  24.784  1.00  0.00     0.313 HD
ATOM     23  S   UNL A   1      32.770  21.402  24.166  1.00  0.00    -0.022 SA
ATOM     24  N   UNL A   1      35.226  21.921  24.373  1.00  0.00    -0.193 N 
ATOM     25  C   UNL A   1      34.798  22.972  23.585  1.00  0.00     0.324 C 
ATOM     26  C   UNL A   1      36.552  21.871  24.956  1.00  0.00     0.301 C 
ATOM     27  O   UNL A   1      35.534  23.857  23.156  1.00  0.00    -0.245 OA
BRANCH  20  28
ATOM     28  C   UNL A   1      34.371  18.368  24.575  1.00  0.00     0.128 A 
ATOM     29  C   UNL A   1      32.400  18.532  22.899  1.00  0.00     0.049 C 
ATOM     30  C   UNL A   1      33.366  17.792  23.772  1.00  0.00    -0.004 A 
ATOM     31  C   UNL A   1      33.197  16.388  23.773  1.00  0.00     0.008 A 
ATOM     32  C   UNL A   1      34.015  15.550  24.520  1.00  0.00     0.001 A 
ATOM     33  C   UNL A   1      35.164  17.488  25.343  1.00  0.00     0.052 A 
ATOM     34  C   UNL A   1      35.002  16.103  25.316  1.00  0.00     0.004 A 
ENDBRANCH  20  28
ENDBRANCH  18  19
ENDBRANCH  15  18
ENDBRANCH   9  14
ENDBRANCH   6   8
ENDBRANCH   5   6
ENDBRANCH   4   5
ENDBRANCH   3   4
ENDBRANCH   2   3
ENDBRANCH   1   2
BRANCH   1  35
ATOM     35  C   UNL A   1      36.152  31.634  32.581  1.00  0.00     0.188 C 
BRANCH  35  36
ATOM     36  O   UNL A   1      35.775  32.327  33.757  1.00  0.00    -0.376 OA
BRANCH  36  37
ATOM     37  C   UNL A   1      35.799  33.740  33.671  1.00  0.00     0.202 C 
BRANCH  37  38
ATOM     38  C   UNL A   1      37.158  34.374  34.034  1.00  0.00     0.261 C 
BRANCH  38  39
ATOM     39  O   UNL A   1      37.408  34.370  35.462  1.00  0.00    -0.460 OA
BRANCH  39  40
ATOM     40  C   UNL A   1      38.314  33.437  35.967  1.00  0.00     0.338 C 
ATOM     41  O   UNL A   1      38.019  32.303  36.164  1.00  0.00    -0.246 OA
BRANCH  40  42
ATOM     42  C   UNL A   1      39.705  34.040  36.017  1.00  0.00     0.060 A 
ATOM     43  C   UNL A   1      40.193  35.121  36.765  1.00  0.00     0.016 A 
ATOM     44  C   UNL A   1      40.565  33.579  35.094  1.00  0.00     0.016 A 
ATOM     45  C   UNL A   1      41.482  35.788  36.463  1.00  0.00     0.010 A 
ATOM     46  C   UNL A   1      41.586  34.447  34.710  1.00  0.00     0.010 A 
ATOM     47  C   UNL A   1      42.266  35.493  35.342  1.00  0.00    -0.014 A 
BRANCH  47  48
ATOM     48  C   UNL A   1      43.515  36.343  34.696  1.00  0.00     0.031 A 
ATOM     49  C   UNL A   1      43.986  37.919  34.635  1.00  0.00     0.074 A 
ATOM     50  C   UNL A   1      44.396  35.621  33.964  1.00  0.00     0.049 A 
ATOM     51  N   UNL A   1      44.282  38.571  33.513  1.00  0.00    -0.248 NA
ATOM     52  C   UNL A   1      44.321  38.835  35.746  1.00  0.00     0.031 C 
ATOM     53  C   UNL A   1      45.669  36.064  33.390  1.00  0.00     0.029 A 
ATOM     54  N   UNL A   1      44.236  34.328  33.472  1.00  0.00    -0.354 N 
ATOM     55  C   UNL A   1      44.808  39.845  33.832  1.00  0.00     0.074 A 
ATOM     56  C   UNL A   1      44.701  39.992  35.225  1.00  0.00     0.031 C 
ATOM     57  C   UNL A   1      46.017  35.212  32.416  1.00  0.00     0.029 A 
ATOM     58  C   UNL A   1      44.957  34.234  32.280  1.00  0.00     0.049 A 
ATOM     59  H   UNL A   1      43.709  33.609  33.890  1.00  0.00     0.167 HD
ATOM     60  C   UNL A   1      45.484  40.729  33.046  1.00  0.00     0.037 A 
ATOM     61  C   UNL A   1      44.348  33.848  31.126  1.00  0.00     0.037 A 
ATOM     62  C   UNL A   1      45.978  40.076  31.877  1.00  0.00     0.049 A 
ATOM     63  C   UNL A   1      44.408  34.895  30.042  1.00  0.00     0.074 A 
ATOM     64  C   UNL A   1      47.185  39.453  31.621  1.00  0.00     0.029 A 
ATOM     65  N   UNL A   1      45.080  39.655  30.924  1.00  0.00    -0.354 N 
ATOM     66  N   UNL A   1      44.839  36.115  30.218  1.00  0.00    -0.248 NA
ATOM     67  C   UNL A   1      43.970  34.661  28.669  1.00  0.00     0.031 C 
ATOM     68  C   UNL A   1      46.974  38.552  30.553  1.00  0.00     0.029 A 
ATOM     69  C   UNL A   1      45.670  38.711  30.116  1.00  0.00     0.049 A 
ATOM     70  H   UNL A   1      44.155  39.981  30.834  1.00  0.00     0.167 HD
ATOM     71  C   UNL A   1      44.669  36.836  29.063  1.00  0.00     0.074 A 
ATOM     72  C   UNL A   1      44.165  35.868  28.111  1.00  0.00     0.031 C 
ATOM     73  C   UNL A   1      44.935  38.173  28.993  1.00  0.00     0.037 A 
BRANCH  60  74
ATOM     74  C   UNL A   1      45.935  42.084  33.592  1.00  0.00     0.058 A 
ATOM     75  C   UNL A   1      47.190  42.314  34.183  1.00  0.00     0.135 A 
ATOM     76  C   UNL A   1      45.049  43.191  33.616  1.00  0.00     0.135 A 
ATOM     77  F   UNL A   1      48.128  41.357  34.199  1.00  0.00    -0.206 F 
ATOM     78  C   UNL A   1      47.509  43.516  34.839  1.00  0.00     0.059 A 
ATOM     79  C   UNL A   1      45.334  44.390  34.293  1.00  0.00     0.059 A 
ATOM     80  F   UNL A   1      43.845  43.095  33.032  1.00  0.00    -0.206 F 
ATOM     81  C   UNL A   1      46.565  44.539  34.921  1.00  0.00     0.060 A 
BRANCH  81  82
ATOM     82  S   UNL A   1      46.926  45.992  35.947  1.00  0.00     0.124 S 
ATOM     83  O   UNL A   1      46.545  45.538  37.283  1.00  0.00    -0.237 OA
ATOM     84  O   UNL A   1      48.357  46.177  35.731  1.00  0.00    -0.237 OA
ATOM     85  O   UNL A   1      46.071  47.039  35.396  1.00  0.00    -0.744 OA
ENDBRANCH  81  82
ENDBRANCH  60  74
BRANCH  61  86
ATOM     86  C   UNL A   1      43.306  32.800  31.335  1.00  0.00     0.058 A 
ATOM     87  C   UNL A   1      41.960  33.226  31.297  1.00  0.00     0.135 A 
ATOM     88  C   UNL A   1      43.542  31.428  31.177  1.00  0.00     0.135 A 
ATOM     89  F   UNL A   1      41.665  34.528  31.446  1.00  0.00    -0.206 F 
ATOM     90  C   UNL A   1      40.917  32.367  30.971  1.00  0.00     0.059 A 
ATOM     91  C   UNL A   1      42.501  30.538  30.866  1.00  0.00     0.059 A 
ATOM     92  F   UNL A   1      44.798  30.957  31.164  1.00  0.00    -0.206 F 
ATOM     93  C   UNL A   1      41.204  31.033  30.704  1.00  0.00     0.060 A 
BRANCH  93  94
ATOM     94  S   UNL A   1      39.882  30.036  29.968  1.00  0.00     0.124 S 
ATOM     95  O   UNL A   1      40.609  29.244  28.982  1.00  0.00    -0.237 OA
ATOM     96  O   UNL A   1      39.398  29.300  31.137  1.00  0.00    -0.237 OA
ATOM     97  O   UNL A   1      38.972  31.038  29.428  1.00  0.00    -0.744 OA
ENDBRANCH  93  94
ENDBRANCH  61  86
BRANCH  73  98
ATOM     98  C   UNL A   1      44.599  39.128  27.868  1.00  0.00     0.058 A 
ATOM     99  C   UNL A   1      43.295  39.485  27.498  1.00  0.00     0.135 A 
ATOM    100  C   UNL A   1      45.636  39.853  27.217  1.00  0.00     0.135 A 
ATOM    101  F   UNL A   1      42.227  38.959  28.114  1.00  0.00    -0.206 F 
ATOM    102  C   UNL A   1      43.034  40.436  26.508  1.00  0.00     0.059 A 
ATOM    103  C   UNL A   1      45.396  40.849  26.279  1.00  0.00     0.059 A 
ATOM    104  F   UNL A   1      46.931  39.625  27.482  1.00  0.00    -0.206 F 
ATOM    105  C   UNL A   1      44.090  41.113  25.905  1.00  0.00     0.060 A 
BRANCH 105 106
ATOM    106  S   UNL A   1      43.777  42.368  24.653  1.00  0.00     0.124 S 
ATOM    107  O   UNL A   1      44.657  41.926  23.575  1.00  0.00    -0.237 OA
ATOM    108  O   UNL A   1      42.347  42.228  24.395  1.00  0.00    -0.237 OA
ATOM    109  O   UNL A   1      44.168  43.604  25.325  1.00  0.00    -0.744 OA
ENDBRANCH 105 106
ENDBRANCH  73  98
ENDBRANCH  47  48
ENDBRANCH  40  42
ENDBRANCH  39  40
ENDBRANCH  38  39
ENDBRANCH  37  38
ENDBRANCH  36  37
ENDBRANCH  35  36
ENDBRANCH   1  35
TORSDOF 24
ENDMDL
