MODEL 1
REMARK VINA RESULT:     -10.4      0.000      0.000
REMARK SMILES Cc1cc(Cl)c2c(c1)C=C(C(=O)OCCOCCOCCOC(=O)c1ccc(-c3c4nc(c(-c5c(F)cc(S(=O)(=O)[O-])cc5F)c5ccc([nH]5)c(-c5c(F)cc(S(=O)(=O)[O-])cc5F)c5nc(c(-c6c(F)cc(S(=O)(=O)[O-])cc6F)c6ccc3[nH]6)C=C5)C=C4)cc1)[C@@H](C(F)(F)F)O2
REMARK SMILES IDX 18 1 17 2 16 3 15 4 14 5 13 6 11 7 12 8 10 9 1 10 2 11 3 12
REMARK SMILES IDX 8 13 4 14 7 15 5 16 6 17 9 18 96 19 91 20 92 21 93 22 94 23
REMARK SMILES IDX 95 24 19 25 20 26 21 27 22 28 23 29 24 30 25 31 26 32 90 33
REMARK SMILES IDX 27 34 89 35 28 36 29 37 30 38 83 39 31 40 88 41 82 42 84 43
REMARK SMILES IDX 32 44 87 45 81 46 80 47 33 49 67 50 46 51 66 52 47 53 50 54
REMARK SMILES IDX 65 55 85 56 48 57 49 58 64 60 86 61 51 62 34 63 35 64 44 65
REMARK SMILES IDX 36 66 37 67 43 68 45 69 38 70 39 71 40 72 41 73 42 74 68 75
REMARK SMILES IDX 69 76 78 77 70 78 71 79 77 80 79 81 72 82 73 83 74 84 75 85
REMARK SMILES IDX 76 86 52 87 53 88 62 89 54 90 55 91 61 92 63 93 56 94 57 95
REMARK SMILES IDX 58 96 59 97 60 98
REMARK H PARENT 84 48 50 59
REMARK Flexibility Score: inf
ROOT
ATOM      1  C   UNL A   1      33.075  29.231  25.423  1.00  0.00     0.188 C 
ENDROOT
BRANCH   1   2
ATOM      2  C   UNL A   1      31.787  28.935  24.624  1.00  0.00     0.188 C 
BRANCH   2   3
ATOM      3  O   UNL A   1      31.552  27.653  24.083  1.00  0.00    -0.376 OA
BRANCH   3   4
ATOM      4  C   UNL A   1      30.434  26.871  24.457  1.00  0.00     0.202 C 
BRANCH   4   5
ATOM      5  C   UNL A   1      30.542  25.494  25.123  1.00  0.00     0.261 C 
BRANCH   5   6
ATOM      6  O   UNL A   1      31.868  24.996  25.308  1.00  0.00    -0.460 OA
BRANCH   6   7
ATOM      7  C   UNL A   1      32.008  24.121  26.333  1.00  0.00     0.338 C 
ATOM      8  O   UNL A   1      31.211  23.918  27.235  1.00  0.00    -0.246 OA
BRANCH   7   9
ATOM      9  C   UNL A   1      33.245  23.341  26.152  1.00  0.00     0.087 C 
ATOM     10  C   UNL A   1      39.376  23.986  26.115  1.00  0.00     0.044 C 
ATOM     11  C   UNL A   1      38.065  23.263  26.008  1.00  0.00    -0.049 A 
ATOM     12  C   UNL A   1      38.024  21.942  25.551  1.00  0.00     0.028 A 
ATOM     13  C   UNL A   1      36.863  23.917  26.301  1.00  0.00     0.015 A 
ATOM     14  C   UNL A   1      36.800  21.278  25.417  1.00  0.00     0.084 A 
ATOM     15  C   UNL A   1      35.633  23.261  26.146  1.00  0.00     0.019 A 
ATOM     16  Cl  UNL A   1      36.814  19.647  24.843  1.00  0.00    -0.080 Cl
ATOM     17  C   UNL A   1      35.598  21.932  25.716  1.00  0.00     0.146 A 
ATOM     18  C   UNL A   1      34.396  23.983  26.386  1.00  0.00     0.027 C 
ATOM     19  O   UNL A   1      34.432  21.227  25.575  1.00  0.00    -0.474 OA
ATOM     20  C   UNL A   1      33.158  21.908  25.710  1.00  0.00     0.316 C 
BRANCH  20  21
ATOM     21  C   UNL A   1      32.375  21.750  24.398  1.00  0.00     0.430 C 
ATOM     22  F   UNL A   1      32.852  22.575  23.435  1.00  0.00    -0.167 F 
ATOM     23  F   UNL A   1      32.472  20.492  23.904  1.00  0.00    -0.167 F 
ATOM     24  F   UNL A   1      31.060  22.023  24.552  1.00  0.00    -0.167 F 
ENDBRANCH  20  21
ENDBRANCH   7   9
ENDBRANCH   6   7
ENDBRANCH   5   6
ENDBRANCH   4   5
ENDBRANCH   3   4
ENDBRANCH   2   3
ENDBRANCH   1   2
BRANCH   1  25
ATOM     25  O   UNL A   1      33.163  30.376  26.251  1.00  0.00    -0.376 OA
BRANCH  25  26
ATOM     26  C   UNL A   1      33.548  30.208  27.608  1.00  0.00     0.202 C 
BRANCH  26  27
ATOM     27  C   UNL A   1      34.959  30.606  28.055  1.00  0.00     0.261 C 
BRANCH  27  28
ATOM     28  O   UNL A   1      35.742  29.497  28.522  1.00  0.00    -0.460 OA
BRANCH  28  29
ATOM     29  C   UNL A   1      36.406  29.708  29.687  1.00  0.00     0.338 C 
ATOM     30  O   UNL A   1      35.937  29.719  30.811  1.00  0.00    -0.246 OA
BRANCH  29  31
ATOM     31  C   UNL A   1      37.856  29.725  29.422  1.00  0.00     0.060 A 
ATOM     32  C   UNL A   1      38.282  29.716  28.087  1.00  0.00     0.016 A 
ATOM     33  C   UNL A   1      38.784  29.713  30.465  1.00  0.00     0.016 A 
ATOM     34  C   UNL A   1      39.642  29.676  27.790  1.00  0.00     0.010 A 
ATOM     35  C   UNL A   1      40.149  29.643  30.165  1.00  0.00     0.010 A 
ATOM     36  C   UNL A   1      40.581  29.596  28.827  1.00  0.00    -0.014 A 
BRANCH  36  37
ATOM     37  C   UNL A   1      41.985  29.256  28.497  1.00  0.00     0.031 A 
ATOM     38  C   UNL A   1      42.307  27.827  28.158  1.00  0.00     0.074 A 
ATOM     39  C   UNL A   1      42.941  30.200  28.445  1.00  0.00     0.049 A 
ATOM     40  N   UNL A   1      43.447  27.299  27.798  1.00  0.00    -0.248 NA
ATOM     41  C   UNL A   1      41.193  26.866  28.226  1.00  0.00     0.031 C 
ATOM     42  C   UNL A   1      42.742  31.624  28.711  1.00  0.00     0.029 A 
ATOM     43  N   UNL A   1      44.276  30.098  28.139  1.00  0.00    -0.354 N 
ATOM     44  C   UNL A   1      43.184  25.953  27.575  1.00  0.00     0.074 A 
ATOM     45  C   UNL A   1      41.788  25.734  27.882  1.00  0.00     0.031 C 
ATOM     46  C   UNL A   1      43.916  32.263  28.560  1.00  0.00     0.029 A 
ATOM     47  C   UNL A   1      44.952  31.293  28.205  1.00  0.00     0.049 A 
ATOM     48  H   UNL A   1      44.709  29.248  27.897  1.00  0.00     0.167 HD
ATOM     49  C   UNL A   1      44.024  24.989  27.135  1.00  0.00     0.037 A 
ATOM     50  C   UNL A   1      46.259  31.565  28.012  1.00  0.00     0.037 A 
ATOM     51  C   UNL A   1      45.415  25.201  26.848  1.00  0.00     0.049 A 
ATOM     52  C   UNL A   1      47.203  30.449  27.639  1.00  0.00     0.074 A 
ATOM     53  C   UNL A   1      46.348  24.287  26.389  1.00  0.00     0.029 A 
ATOM     54  N   UNL A   1      46.080  26.409  27.005  1.00  0.00    -0.354 N 
ATOM     55  N   UNL A   1      46.933  29.190  27.392  1.00  0.00    -0.248 NA
ATOM     56  C   UNL A   1      48.630  30.788  27.525  1.00  0.00     0.031 C 
ATOM     57  C   UNL A   1      47.587  24.930  26.315  1.00  0.00     0.029 A 
ATOM     58  C   UNL A   1      47.417  26.255  26.685  1.00  0.00     0.049 A 
ATOM     59  H   UNL A   1      45.661  27.249  27.300  1.00  0.00     0.167 HD
ATOM     60  C   UNL A   1      48.150  28.591  27.080  1.00  0.00     0.074 A 
ATOM     61  C   UNL A   1      49.157  29.628  27.155  1.00  0.00     0.031 C 
ATOM     62  C   UNL A   1      48.409  27.299  26.762  1.00  0.00     0.037 A 
BRANCH  49  63
ATOM     63  C   UNL A   1      43.460  23.612  26.943  1.00  0.00     0.058 A 
ATOM     64  C   UNL A   1      43.108  23.141  25.668  1.00  0.00     0.135 A 
ATOM     65  C   UNL A   1      43.308  22.740  28.032  1.00  0.00     0.135 A 
ATOM     66  F   UNL A   1      43.216  23.945  24.597  1.00  0.00    -0.206 F 
ATOM     67  C   UNL A   1      42.611  21.857  25.480  1.00  0.00     0.059 A 
ATOM     68  C   UNL A   1      42.834  21.442  27.864  1.00  0.00     0.059 A 
ATOM     69  F   UNL A   1      43.624  23.145  29.270  1.00  0.00    -0.206 F 
ATOM     70  C   UNL A   1      42.479  21.013  26.585  1.00  0.00     0.060 A 
BRANCH  70  71
ATOM     71  S   UNL A   1      41.846  19.345  26.319  1.00  0.00     0.124 S 
ATOM     72  O   UNL A   1      42.261  18.676  27.549  1.00  0.00    -0.237 OA
ATOM     73  O   UNL A   1      40.412  19.576  26.177  1.00  0.00    -0.237 OA
ATOM     74  O   UNL A   1      42.532  18.909  25.107  1.00  0.00    -0.744 OA
ENDBRANCH  70  71
ENDBRANCH  49  63
BRANCH  50  75
ATOM     75  C   UNL A   1      46.764  32.956  28.171  1.00  0.00     0.058 A 
ATOM     76  C   UNL A   1      46.751  33.855  27.094  1.00  0.00     0.135 A 
ATOM     77  C   UNL A   1      47.276  33.410  29.396  1.00  0.00     0.135 A 
ATOM     78  F   UNL A   1      46.284  33.463  25.899  1.00  0.00    -0.206 F 
ATOM     79  C   UNL A   1      47.237  35.153  27.223  1.00  0.00     0.059 A 
ATOM     80  C   UNL A   1      47.747  34.709  29.556  1.00  0.00     0.059 A 
ATOM     81  F   UNL A   1      47.307  32.589  30.458  1.00  0.00    -0.206 F 
ATOM     82  C   UNL A   1      47.730  35.572  28.461  1.00  0.00     0.060 A 
BRANCH  82  83
ATOM     83  S   UNL A   1      48.316  37.273  28.625  1.00  0.00     0.124 S 
ATOM     84  O   UNL A   1      47.115  37.953  29.095  1.00  0.00    -0.237 OA
ATOM     85  O   UNL A   1      49.393  37.131  29.598  1.00  0.00    -0.237 OA
ATOM     86  O   UNL A   1      48.744  37.612  27.271  1.00  0.00    -0.744 OA
ENDBRANCH  82  83
ENDBRANCH  50  75
BRANCH  62  87
ATOM     87  C   UNL A   1      49.832  26.910  26.472  1.00  0.00     0.058 A 
ATOM     88  C   UNL A   1      50.609  26.235  27.424  1.00  0.00     0.135 A 
ATOM     89  C   UNL A   1      50.378  27.098  25.192  1.00  0.00     0.135 A 
ATOM     90  F   UNL A   1      50.135  26.036  28.666  1.00  0.00    -0.206 F 
ATOM     91  C   UNL A   1      51.875  25.750  27.115  1.00  0.00     0.059 A 
ATOM     92  C   UNL A   1      51.633  26.601  24.854  1.00  0.00     0.059 A 
ATOM     93  F   UNL A   1      49.671  27.732  24.242  1.00  0.00    -0.206 F 
ATOM     94  C   UNL A   1      52.373  25.925  25.823  1.00  0.00     0.060 A 
BRANCH  94  95
ATOM     95  S   UNL A   1      53.980  25.207  25.413  1.00  0.00     0.124 S 
ATOM     96  O   UNL A   1      53.715  23.782  25.575  1.00  0.00    -0.237 OA
ATOM     97  O   UNL A   1      54.181  25.664  24.041  1.00  0.00    -0.237 OA
ATOM     98  O   UNL A   1      54.878  25.796  26.402  1.00  0.00    -0.744 OA
ENDBRANCH  94  95
ENDBRANCH  62  87
ENDBRANCH  36  37
ENDBRANCH  29  31
ENDBRANCH  28  29
ENDBRANCH  27  28
ENDBRANCH  26  27
ENDBRANCH  25  26
ENDBRANCH   1  25
TORSDOF 21
ENDMDL
MODEL 2
REMARK VINA RESULT:     -10.4      1.586      8.403
REMARK SMILES Cc1cc(Cl)c2c(c1)C=C(C(=O)OCCOCCOCCOC(=O)c1ccc(-c3c4nc(c(-c5c(F)cc(S(=O)(=O)[O-])cc5F)c5ccc([nH]5)c(-c5c(F)cc(S(=O)(=O)[O-])cc5F)c5nc(c(-c6c(F)cc(S(=O)(=O)[O-])cc6F)c6ccc3[nH]6)C=C5)C=C4)cc1)[C@@H](C(F)(F)F)O2
REMARK SMILES IDX 18 1 17 2 16 3 15 4 14 5 13 6 11 7 12 8 10 9 1 10 2 11 3 12
REMARK SMILES IDX 8 13 4 14 7 15 5 16 6 17 9 18 96 19 91 20 92 21 93 22 94 23
REMARK SMILES IDX 95 24 19 25 20 26 21 27 22 28 23 29 24 30 25 31 26 32 90 33
REMARK SMILES IDX 27 34 89 35 28 36 29 37 30 38 83 39 31 40 88 41 82 42 84 43
REMARK SMILES IDX 32 44 87 45 81 46 80 47 33 49 67 50 46 51 66 52 47 53 50 54
REMARK SMILES IDX 65 55 85 56 48 57 49 58 64 60 86 61 51 62 34 63 35 64 44 65
REMARK SMILES IDX 36 66 37 67 43 68 45 69 38 70 39 71 40 72 41 73 42 74 68 75
REMARK SMILES IDX 69 76 78 77 70 78 71 79 77 80 79 81 72 82 73 83 74 84 75 85
REMARK SMILES IDX 76 86 52 87 53 88 62 89 54 90 55 91 61 92 63 93 56 94 57 95
REMARK SMILES IDX 58 96 59 97 60 98
REMARK H PARENT 84 48 50 59
REMARK Flexibility Score: inf
ROOT
ATOM      1  C   UNL A   1      34.587  34.102  28.453  1.00  0.00     0.188 C 
ENDROOT
BRANCH   1   2
ATOM      2  C   UNL A   1      33.842  32.845  27.954  1.00  0.00     0.188 C 
BRANCH   2   3
ATOM      3  O   UNL A   1      34.555  31.698  27.544  1.00  0.00    -0.376 OA
BRANCH   3   4
ATOM      4  C   UNL A   1      33.942  30.427  27.442  1.00  0.00     0.202 C 
BRANCH   4   5
ATOM      5  C   UNL A   1      33.271  29.906  26.166  1.00  0.00     0.261 C 
BRANCH   5   6
ATOM      6  O   UNL A   1      33.483  28.524  25.872  1.00  0.00    -0.460 OA
BRANCH   6   7
ATOM      7  C   UNL A   1      32.510  27.692  26.316  1.00  0.00     0.338 C 
ATOM      8  O   UNL A   1      31.527  28.001  26.969  1.00  0.00    -0.246 OA
BRANCH   7   9
ATOM      9  C   UNL A   1      32.747  26.333  25.800  1.00  0.00     0.087 C 
ATOM     10  C   UNL A   1      37.310  22.344  24.666  1.00  0.00     0.044 C 
ATOM     11  C   UNL A   1      35.894  22.842  24.721  1.00  0.00    -0.049 A 
ATOM     12  C   UNL A   1      34.868  22.113  24.110  1.00  0.00     0.028 A 
ATOM     13  C   UNL A   1      35.591  24.068  25.323  1.00  0.00     0.015 A 
ATOM     14  C   UNL A   1      33.554  22.592  24.129  1.00  0.00     0.084 A 
ATOM     15  C   UNL A   1      34.278  24.561  25.322  1.00  0.00     0.019 A 
ATOM     16  Cl  UNL A   1      32.329  21.649  23.354  1.00  0.00    -0.080 Cl
ATOM     17  C   UNL A   1      33.250  23.817  24.737  1.00  0.00     0.146 A 
ATOM     18  C   UNL A   1      33.999  25.869  25.889  1.00  0.00     0.027 C 
ATOM     19  O   UNL A   1      31.944  24.229  24.732  1.00  0.00    -0.474 OA
ATOM     20  C   UNL A   1      31.608  25.561  25.198  1.00  0.00     0.316 C 
BRANCH  20  21
ATOM     21  C   UNL A   1      30.927  26.325  24.053  1.00  0.00     0.430 C 
ATOM     22  F   UNL A   1      30.293  25.481  23.203  1.00  0.00    -0.167 F 
ATOM     23  F   UNL A   1      29.983  27.182  24.512  1.00  0.00    -0.167 F 
ATOM     24  F   UNL A   1      31.808  27.047  23.325  1.00  0.00    -0.167 F 
ENDBRANCH  20  21
ENDBRANCH   7   9
ENDBRANCH   6   7
ENDBRANCH   5   6
ENDBRANCH   4   5
ENDBRANCH   3   4
ENDBRANCH   2   3
ENDBRANCH   1   2
BRANCH   1  25
ATOM     25  O   UNL A   1      35.315  34.075  29.667  1.00  0.00    -0.376 OA
BRANCH  25  26
ATOM     26  C   UNL A   1      34.703  33.502  30.815  1.00  0.00     0.202 C 
BRANCH  26  27
ATOM     27  C   UNL A   1      35.262  32.204  31.408  1.00  0.00     0.261 C 
BRANCH  27  28
ATOM     28  O   UNL A   1      36.200  31.542  30.547  1.00  0.00    -0.460 OA
BRANCH  28  29
ATOM     29  C   UNL A   1      36.748  30.408  31.052  1.00  0.00     0.338 C 
ATOM     30  O   UNL A   1      36.182  29.534  31.686  1.00  0.00    -0.246 OA
BRANCH  29  31
ATOM     31  C   UNL A   1      38.124  30.265  30.543  1.00  0.00     0.060 A 
ATOM     32  C   UNL A   1      38.313  30.239  29.155  1.00  0.00     0.016 A 
ATOM     33  C   UNL A   1      39.208  30.123  31.412  1.00  0.00     0.016 A 
ATOM     34  C   UNL A   1      39.589  30.051  28.629  1.00  0.00     0.010 A 
ATOM     35  C   UNL A   1      40.484  29.905  30.882  1.00  0.00     0.010 A 
ATOM     36  C   UNL A   1      40.674  29.840  29.489  1.00  0.00    -0.014 A 
BRANCH  36  37
ATOM     37  C   UNL A   1      41.953  29.350  28.923  1.00  0.00     0.031 A 
ATOM     38  C   UNL A   1      43.098  30.319  28.815  1.00  0.00     0.074 A 
ATOM     39  C   UNL A   1      42.113  28.065  28.563  1.00  0.00     0.049 A 
ATOM     40  N   UNL A   1      44.319  30.114  28.395  1.00  0.00    -0.248 NA
ATOM     41  C   UNL A   1      42.835  31.701  29.248  1.00  0.00     0.031 C 
ATOM     42  C   UNL A   1      41.091  27.024  28.659  1.00  0.00     0.029 A 
ATOM     43  N   UNL A   1      43.208  27.414  28.049  1.00  0.00    -0.354 N 
ATOM     44  C   UNL A   1      44.973  31.331  28.533  1.00  0.00     0.074 A 
ATOM     45  C   UNL A   1      44.006  32.282  29.035  1.00  0.00     0.031 C 
ATOM     46  C   UNL A   1      41.607  25.864  28.216  1.00  0.00     0.029 A 
ATOM     47  C   UNL A   1      42.988  26.083  27.786  1.00  0.00     0.049 A 
ATOM     48  H   UNL A   1      44.069  27.860  27.884  1.00  0.00     0.167 HD
ATOM     49  C   UNL A   1      46.269  31.627  28.284  1.00  0.00     0.037 A 
ATOM     50  C   UNL A   1      43.808  25.155  27.250  1.00  0.00     0.037 A 
ATOM     51  C   UNL A   1      47.226  30.689  27.768  1.00  0.00     0.049 A 
ATOM     52  C   UNL A   1      45.215  25.540  26.866  1.00  0.00     0.074 A 
ATOM     53  C   UNL A   1      48.566  30.893  27.490  1.00  0.00     0.029 A 
ATOM     54  N   UNL A   1      46.943  29.371  27.439  1.00  0.00    -0.354 N 
ATOM     55  N   UNL A   1      45.832  26.684  27.040  1.00  0.00    -0.248 NA
ATOM     56  C   UNL A   1      46.036  24.512  26.207  1.00  0.00     0.031 C 
ATOM     57  C   UNL A   1      49.082  29.712  26.947  1.00  0.00     0.029 A 
ATOM     58  C   UNL A   1      48.074  28.760  26.928  1.00  0.00     0.049 A 
ATOM     59  H   UNL A   1      46.067  28.937  27.552  1.00  0.00     0.167 HD
ATOM     60  C   UNL A   1      47.114  26.509  26.527  1.00  0.00     0.074 A 
ATOM     61  C   UNL A   1      47.190  25.145  26.048  1.00  0.00     0.031 C 
ATOM     62  C   UNL A   1      48.135  27.399  26.457  1.00  0.00     0.037 A 
BRANCH  49  63
ATOM     63  C   UNL A   1      46.726  33.029  28.562  1.00  0.00     0.058 A 
ATOM     64  C   UNL A   1      46.677  34.021  27.570  1.00  0.00     0.135 A 
ATOM     65  C   UNL A   1      47.178  33.397  29.838  1.00  0.00     0.135 A 
ATOM     66  F   UNL A   1      46.271  33.714  26.326  1.00  0.00    -0.206 F 
ATOM     67  C   UNL A   1      47.073  35.328  27.830  1.00  0.00     0.059 A 
ATOM     68  C   UNL A   1      47.558  34.704  30.127  1.00  0.00     0.059 A 
ATOM     69  F   UNL A   1      47.250  32.483  30.818  1.00  0.00    -0.206 F 
ATOM     70  C   UNL A   1      47.510  35.660  29.114  1.00  0.00     0.060 A 
BRANCH  70  71
ATOM     71  S   UNL A   1      48.006  37.365  29.435  1.00  0.00     0.124 S 
ATOM     72  O   UNL A   1      46.743  38.074  29.257  1.00  0.00    -0.237 OA
ATOM     73  O   UNL A   1      48.504  37.291  30.805  1.00  0.00    -0.237 OA
ATOM     74  O   UNL A   1      49.019  37.624  28.416  1.00  0.00    -0.744 OA
ENDBRANCH  70  71
ENDBRANCH  49  63
BRANCH  50  75
ATOM     75  C   UNL A   1      43.323  23.765  27.035  1.00  0.00     0.058 A 
ATOM     76  C   UNL A   1      42.925  23.329  25.763  1.00  0.00     0.135 A 
ATOM     77  C   UNL A   1      43.240  22.850  28.095  1.00  0.00     0.135 A 
ATOM     78  F   UNL A   1      42.973  24.172  24.720  1.00  0.00    -0.206 F 
ATOM     79  C   UNL A   1      42.452  22.038  25.549  1.00  0.00     0.059 A 
ATOM     80  C   UNL A   1      42.790  21.547  27.904  1.00  0.00     0.059 A 
ATOM     81  F   UNL A   1      43.611  23.217  29.332  1.00  0.00    -0.206 F 
ATOM     82  C   UNL A   1      42.392  21.152  26.628  1.00  0.00     0.060 A 
BRANCH  82  83
ATOM     83  S   UNL A   1      41.818  19.465  26.327  1.00  0.00     0.124 S 
ATOM     84  O   UNL A   1      42.532  19.126  25.103  1.00  0.00    -0.237 OA
ATOM     85  O   UNL A   1      42.257  18.776  27.536  1.00  0.00    -0.237 OA
ATOM     86  O   UNL A   1      40.373  19.623  26.193  1.00  0.00    -0.744 OA
ENDBRANCH  82  83
ENDBRANCH  50  75
BRANCH  62  87
ATOM     87  C   UNL A   1      49.430  26.947  25.841  1.00  0.00     0.058 A 
ATOM     88  C   UNL A   1      49.722  27.207  24.494  1.00  0.00     0.135 A 
ATOM     89  C   UNL A   1      50.435  26.369  26.632  1.00  0.00     0.135 A 
ATOM     90  F   UNL A   1      48.792  27.753  23.693  1.00  0.00    -0.206 F 
ATOM     91  C   UNL A   1      50.971  26.918  23.954  1.00  0.00     0.059 A 
ATOM     92  C   UNL A   1      51.699  26.092  26.118  1.00  0.00     0.059 A 
ATOM     93  F   UNL A   1      50.208  26.108  27.929  1.00  0.00    -0.206 F 
ATOM     94  C   UNL A   1      51.958  26.374  24.778  1.00  0.00     0.060 A 
BRANCH  94  95
ATOM     95  S   UNL A   1      53.602  26.092  24.084  1.00  0.00     0.124 S 
ATOM     96  O   UNL A   1      54.336  27.247  24.587  1.00  0.00    -0.237 OA
ATOM     97  O   UNL A   1      53.966  24.804  24.667  1.00  0.00    -0.237 OA
ATOM     98  O   UNL A   1      53.365  26.077  22.643  1.00  0.00    -0.744 OA
ENDBRANCH  94  95
ENDBRANCH  62  87
ENDBRANCH  36  37
ENDBRANCH  29  31
ENDBRANCH  28  29
ENDBRANCH  27  28
ENDBRANCH  26  27
ENDBRANCH  25  26
ENDBRANCH   1  25
TORSDOF 21
ENDMDL
MODEL 3
REMARK VINA RESULT:     -10.3      3.291      9.157
REMARK SMILES Cc1cc(Cl)c2c(c1)C=C(C(=O)OCCOCCOCCOC(=O)c1ccc(-c3c4nc(c(-c5c(F)cc(S(=O)(=O)[O-])cc5F)c5ccc([nH]5)c(-c5c(F)cc(S(=O)(=O)[O-])cc5F)c5nc(c(-c6c(F)cc(S(=O)(=O)[O-])cc6F)c6ccc3[nH]6)C=C5)C=C4)cc1)[C@@H](C(F)(F)F)O2
REMARK SMILES IDX 18 1 17 2 16 3 15 4 14 5 13 6 11 7 12 8 10 9 1 10 2 11 3 12
REMARK SMILES IDX 8 13 4 14 7 15 5 16 6 17 9 18 96 19 91 20 92 21 93 22 94 23
REMARK SMILES IDX 95 24 19 25 20 26 21 27 22 28 23 29 24 30 25 31 26 32 90 33
REMARK SMILES IDX 27 34 89 35 28 36 29 37 30 38 83 39 31 40 88 41 82 42 84 43
REMARK SMILES IDX 32 44 87 45 81 46 80 47 33 49 67 50 46 51 66 52 47 53 50 54
REMARK SMILES IDX 65 55 85 56 48 57 49 58 64 60 86 61 51 62 34 63 35 64 44 65
REMARK SMILES IDX 36 66 37 67 43 68 45 69 38 70 39 71 40 72 41 73 42 74 68 75
REMARK SMILES IDX 69 76 78 77 70 78 71 79 77 80 79 81 72 82 73 83 74 84 75 85
REMARK SMILES IDX 76 86 52 87 53 88 62 89 54 90 55 91 61 92 63 93 56 94 57 95
REMARK SMILES IDX 58 96 59 97 60 98
REMARK H PARENT 84 48 50 59
REMARK Flexibility Score: inf
ROOT
ATOM      1  C   UNL A   1      34.626  21.566  25.228  1.00  0.00     0.188 C 
ENDROOT
BRANCH   1   2
ATOM      2  C   UNL A   1      33.090  21.497  25.363  1.00  0.00     0.188 C 
BRANCH   2   3
ATOM      3  O   UNL A   1      32.289  22.627  25.089  1.00  0.00    -0.376 OA
BRANCH   3   4
ATOM      4  C   UNL A   1      31.822  22.921  23.786  1.00  0.00     0.202 C 
BRANCH   4   5
ATOM      5  C   UNL A   1      32.474  23.955  22.861  1.00  0.00     0.261 C 
BRANCH   5   6
ATOM      6  O   UNL A   1      33.201  24.999  23.511  1.00  0.00    -0.460 OA
BRANCH   6   7
ATOM      7  C   UNL A   1      33.351  26.129  22.778  1.00  0.00     0.338 C 
ATOM      8  O   UNL A   1      33.511  26.200  21.570  1.00  0.00    -0.246 OA
BRANCH   7   9
ATOM      9  C   UNL A   1      33.185  27.308  23.645  1.00  0.00     0.087 C 
ATOM     10  C   UNL A   1      35.547  29.936  28.697  1.00  0.00     0.044 C 
ATOM     11  C   UNL A   1      34.625  29.790  27.521  1.00  0.00    -0.049 A 
ATOM     12  C   UNL A   1      33.522  30.638  27.381  1.00  0.00     0.028 A 
ATOM     13  C   UNL A   1      34.818  28.766  26.585  1.00  0.00     0.015 A 
ATOM     14  C   UNL A   1      32.642  30.481  26.305  1.00  0.00     0.084 A 
ATOM     15  C   UNL A   1      33.924  28.593  25.519  1.00  0.00     0.019 A 
ATOM     16  Cl  UNL A   1      31.293  31.557  26.188  1.00  0.00    -0.080 Cl
ATOM     17  C   UNL A   1      32.839  29.460  25.366  1.00  0.00     0.146 A 
ATOM     18  C   UNL A   1      34.103  27.480  24.602  1.00  0.00     0.027 C 
ATOM     19  O   UNL A   1      31.950  29.362  24.329  1.00  0.00    -0.474 OA
ATOM     20  C   UNL A   1      32.014  28.225  23.431  1.00  0.00     0.316 C 
BRANCH  20  21
ATOM     21  C   UNL A   1      30.673  27.479  23.485  1.00  0.00     0.430 C 
ATOM     22  F   UNL A   1      29.642  28.331  23.707  1.00  0.00    -0.167 F 
ATOM     23  F   UNL A   1      30.401  26.849  22.316  1.00  0.00    -0.167 F 
ATOM     24  F   UNL A   1      30.645  26.546  24.462  1.00  0.00    -0.167 F 
ENDBRANCH  20  21
ENDBRANCH   7   9
ENDBRANCH   6   7
ENDBRANCH   5   6
ENDBRANCH   4   5
ENDBRANCH   3   4
ENDBRANCH   2   3
ENDBRANCH   1   2
BRANCH   1  25
ATOM     25  O   UNL A   1      35.224  22.128  24.074  1.00  0.00    -0.376 OA
BRANCH  25  26
ATOM     26  C   UNL A   1      36.629  22.343  24.071  1.00  0.00     0.202 C 
BRANCH  26  27
ATOM     27  C   UNL A   1      37.528  21.515  24.997  1.00  0.00     0.261 C 
BRANCH  27  28
ATOM     28  O   UNL A   1      37.980  22.241  26.150  1.00  0.00    -0.460 OA
BRANCH  28  29
ATOM     29  C   UNL A   1      39.296  22.095  26.446  1.00  0.00     0.338 C 
ATOM     30  O   UNL A   1      40.010  21.143  26.181  1.00  0.00    -0.246 OA
BRANCH  29  31
ATOM     31  C   UNL A   1      39.819  23.368  26.974  1.00  0.00     0.060 A 
ATOM     32  C   UNL A   1      39.438  24.553  26.329  1.00  0.00     0.016 A 
ATOM     33  C   UNL A   1      40.697  23.399  28.058  1.00  0.00     0.016 A 
ATOM     34  C   UNL A   1      39.950  25.775  26.759  1.00  0.00     0.010 A 
ATOM     35  C   UNL A   1      41.234  24.624  28.469  1.00  0.00     0.010 A 
ATOM     36  C   UNL A   1      40.884  25.812  27.803  1.00  0.00    -0.014 A 
BRANCH  36  37
ATOM     37  C   UNL A   1      41.636  27.065  28.046  1.00  0.00     0.031 A 
ATOM     38  C   UNL A   1      40.910  28.216  28.687  1.00  0.00     0.074 A 
ATOM     39  C   UNL A   1      42.946  27.164  27.758  1.00  0.00     0.049 A 
ATOM     40  N   UNL A   1      41.365  29.390  29.035  1.00  0.00    -0.248 NA
ATOM     41  C   UNL A   1      39.482  28.010  28.982  1.00  0.00     0.031 C 
ATOM     42  C   UNL A   1      43.768  26.104  27.174  1.00  0.00     0.029 A 
ATOM     43  N   UNL A   1      43.818  28.211  27.927  1.00  0.00    -0.354 N 
ATOM     44  C   UNL A   1      40.288  30.054  29.610  1.00  0.00     0.074 A 
ATOM     45  C   UNL A   1      39.146  29.171  29.524  1.00  0.00     0.031 C 
ATOM     46  C   UNL A   1      45.026  26.557  27.031  1.00  0.00     0.029 A 
ATOM     47  C   UNL A   1      45.095  27.943  27.494  1.00  0.00     0.049 A 
ATOM     48  H   UNL A   1      43.553  29.073  28.320  1.00  0.00     0.167 HD
ATOM     49  C   UNL A   1      40.257  31.283  30.175  1.00  0.00     0.037 A 
ATOM     50  C   UNL A   1      46.189  28.733  27.468  1.00  0.00     0.037 A 
ATOM     51  C   UNL A   1      41.386  32.168  30.244  1.00  0.00     0.049 A 
ATOM     52  C   UNL A   1      46.098  30.144  27.994  1.00  0.00     0.074 A 
ATOM     53  C   UNL A   1      41.455  33.431  30.805  1.00  0.00     0.029 A 
ATOM     54  N   UNL A   1      42.641  31.890  29.722  1.00  0.00    -0.354 N 
ATOM     55  N   UNL A   1      45.085  30.744  28.571  1.00  0.00    -0.248 NA
ATOM     56  C   UNL A   1      47.296  30.988  27.861  1.00  0.00     0.031 C 
ATOM     57  C   UNL A   1      42.738  33.937  30.580  1.00  0.00     0.029 A 
ATOM     58  C   UNL A   1      43.481  32.973  29.917  1.00  0.00     0.049 A 
ATOM     59  H   UNL A   1      42.894  31.049  29.278  1.00  0.00     0.167 HD
ATOM     60  C   UNL A   1      45.527  32.027  28.882  1.00  0.00     0.074 A 
ATOM     61  C   UNL A   1      46.903  32.114  28.442  1.00  0.00     0.031 C 
ATOM     62  C   UNL A   1      44.852  33.042  29.476  1.00  0.00     0.037 A 
BRANCH  49  63
ATOM     63  C   UNL A   1      38.955  31.743  30.762  1.00  0.00     0.058 A 
ATOM     64  C   UNL A   1      38.636  31.500  32.107  1.00  0.00     0.135 A 
ATOM     65  C   UNL A   1      38.036  32.469  29.988  1.00  0.00     0.135 A 
ATOM     66  F   UNL A   1      39.473  30.792  32.883  1.00  0.00    -0.206 F 
ATOM     67  C   UNL A   1      37.443  31.948  32.662  1.00  0.00     0.059 A 
ATOM     68  C   UNL A   1      36.846  32.947  30.529  1.00  0.00     0.059 A 
ATOM     69  F   UNL A   1      38.292  32.721  28.696  1.00  0.00    -0.206 F 
ATOM     70  C   UNL A   1      36.555  32.674  31.865  1.00  0.00     0.060 A 
BRANCH  70  71
ATOM     71  S   UNL A   1      35.019  33.259  32.609  1.00  0.00     0.124 S 
ATOM     72  O   UNL A   1      35.051  34.678  32.264  1.00  0.00    -0.237 OA
ATOM     73  O   UNL A   1      34.014  32.461  31.915  1.00  0.00    -0.237 OA
ATOM     74  O   UNL A   1      35.189  32.956  34.027  1.00  0.00    -0.744 OA
ENDBRANCH  70  71
ENDBRANCH  49  63
BRANCH  50  75
ATOM     75  C   UNL A   1      47.471  28.216  26.917  1.00  0.00     0.058 A 
ATOM     76  C   UNL A   1      48.492  27.768  27.767  1.00  0.00     0.135 A 
ATOM     77  C   UNL A   1      47.703  28.168  25.534  1.00  0.00     0.135 A 
ATOM     78  F   UNL A   1      48.322  27.807  29.097  1.00  0.00    -0.206 F 
ATOM     79  C   UNL A   1      49.703  27.299  27.267  1.00  0.00     0.059 A 
ATOM     80  C   UNL A   1      48.897  27.684  25.008  1.00  0.00     0.059 A 
ATOM     81  F   UNL A   1      46.756  28.583  24.677  1.00  0.00    -0.206 F 
ATOM     82  C   UNL A   1      49.894  27.258  25.884  1.00  0.00     0.060 A 
BRANCH  82  83
ATOM     83  S   UNL A   1      51.454  26.605  25.248  1.00  0.00     0.124 S 
ATOM     84  O   UNL A   1      51.247  26.698  23.808  1.00  0.00    -0.237 OA
ATOM     85  O   UNL A   1      52.425  27.535  25.815  1.00  0.00    -0.237 OA
ATOM     86  O   UNL A   1      51.499  25.252  25.795  1.00  0.00    -0.744 OA
ENDBRANCH  82  83
ENDBRANCH  50  75
BRANCH  62  87
ATOM     87  C   UNL A   1      45.572  34.344  29.691  1.00  0.00     0.058 A 
ATOM     88  C   UNL A   1      45.494  35.381  28.750  1.00  0.00     0.135 A 
ATOM     89  C   UNL A   1      46.235  34.603  30.901  1.00  0.00     0.135 A 
ATOM     90  F   UNL A   1      44.877  35.182  27.573  1.00  0.00    -0.206 F 
ATOM     91  C   UNL A   1      46.040  36.634  29.005  1.00  0.00     0.059 A 
ATOM     92  C   UNL A   1      46.769  35.857  31.186  1.00  0.00     0.059 A 
ATOM     93  F   UNL A   1      46.330  33.647  31.838  1.00  0.00    -0.206 F 
ATOM     94  C   UNL A   1      46.663  36.867  30.232  1.00  0.00     0.060 A 
BRANCH  94  95
ATOM     95  S   UNL A   1      47.284  38.527  30.583  1.00  0.00     0.124 S 
ATOM     96  O   UNL A   1      47.095  39.190  29.297  1.00  0.00    -0.237 OA
ATOM     97  O   UNL A   1      46.401  38.966  31.659  1.00  0.00    -0.237 OA
ATOM     98  O   UNL A   1      48.672  38.296  30.973  1.00  0.00    -0.744 OA
ENDBRANCH  94  95
ENDBRANCH  62  87
ENDBRANCH  36  37
ENDBRANCH  29  31
ENDBRANCH  28  29
ENDBRANCH  27  28
ENDBRANCH  26  27
ENDBRANCH  25  26
ENDBRANCH   1  25
TORSDOF 21
ENDMDL
