MODEL 1
REMARK VINA RESULT:     -10.4      0.000      0.000
REMARK SMILES CN(C(=O)N[C@@](C)(C(=O)OCCOCCOCCOC(=O)c1ccc(-c2c3nc(c(-c4c(F)cc(S(=O)(=O)[O-])cc4F)c4ccc([nH]4)c(-c4c(F)cc(S(=O)(=O)[O-])cc4F)c4nc(c(-c5c(F)cc(S(=O)(=O)[O-])cc5F)c5ccc2[nH]5)C=C4)C=C3)cc1)C(F)(F)F)c1ccc(F)cc1
REMARK SMILES IDX 14 1 13 2 12 3 11 4 10 5 8 6 9 7 6 8 7 9 5 10 3 11 4 12 2 14
REMARK SMILES IDX 1 15 92 16 93 17 98 18 94 19 97 20 95 21 96 22 88 23 89 24
REMARK SMILES IDX 90 25 91 26 15 27 16 28 17 29 18 30 19 31 20 32 21 33 22 34
REMARK SMILES IDX 23 35 87 36 24 37 86 38 25 39 26 40 27 41 80 42 28 43 85 44
REMARK SMILES IDX 79 45 81 46 29 47 84 48 78 49 77 50 30 52 64 53 43 54 63 55
REMARK SMILES IDX 44 56 47 57 62 58 82 59 45 60 46 61 61 63 83 64 48 65 31 66
REMARK SMILES IDX 32 67 41 68 33 69 34 70 40 71 42 72 35 73 36 74 37 75 38 76
REMARK SMILES IDX 39 77 65 78 66 79 75 80 67 81 68 82 74 83 76 84 69 85 70 86
REMARK SMILES IDX 71 87 72 88 73 89 49 90 50 91 59 92 51 93 52 94 58 95 60 96
REMARK SMILES IDX 53 97 54 98 55 99 56 100 57 101
REMARK H PARENT 5 13 81 51 47 62
REMARK Flexibility Score: inf
ROOT
ATOM      1  C   UNL A   1      39.433  21.502  25.992  1.00  0.00     0.188 C 
ENDROOT
BRANCH   1   2
ATOM      2  O   UNL A   1      38.033  21.384  25.749  1.00  0.00    -0.376 OA
BRANCH   2   3
ATOM      3  C   UNL A   1      37.332  22.483  25.195  1.00  0.00     0.202 C 
BRANCH   3   4
ATOM      4  C   UNL A   1      35.884  22.699  25.657  1.00  0.00     0.261 C 
BRANCH   4   5
ATOM      5  O   UNL A   1      35.089  23.519  24.775  1.00  0.00    -0.461 OA
BRANCH   5   6
ATOM      6  C   UNL A   1      33.762  23.223  24.705  1.00  0.00     0.341 C 
ATOM      7  O   UNL A   1      33.331  22.082  24.833  1.00  0.00    -0.249 OA
BRANCH   6   8
ATOM      8  C   UNL A   1      32.868  24.449  24.376  1.00  0.00     0.232 C 
ATOM      9  C   UNL A   1      31.513  23.864  23.937  1.00  0.00     0.058 C 
BRANCH   8  10
ATOM     10  N   UNL A   1      33.419  25.237  23.184  1.00  0.00    -0.314 N 
ATOM     11  C   UNL A   1      33.068  26.226  22.317  1.00  0.00     0.322 C 
ATOM     12  O   UNL A   1      33.276  25.892  21.146  1.00  0.00    -0.248 OA
ATOM     13  H   UNL A   1      34.330  24.926  22.976  1.00  0.00     0.166 HD
BRANCH  11  14
ATOM     14  N   UNL A   1      32.735  27.514  22.714  1.00  0.00    -0.298 N 
ATOM     15  C   UNL A   1      33.725  28.578  22.742  1.00  0.00     0.155 C 
BRANCH  14  16
ATOM     16  C   UNL A   1      31.338  27.944  22.936  1.00  0.00     0.045 A 
ATOM     17  C   UNL A   1      30.287  27.052  23.214  1.00  0.00     0.029 A 
ATOM     18  C   UNL A   1      30.964  29.308  22.838  1.00  0.00     0.029 A 
ATOM     19  C   UNL A   1      28.947  27.479  23.305  1.00  0.00     0.041 A 
ATOM     20  C   UNL A   1      29.627  29.736  22.889  1.00  0.00     0.041 A 
ATOM     21  C   UNL A   1      28.627  28.813  23.118  1.00  0.00     0.123 A 
ATOM     22  F   UNL A   1      27.349  29.210  23.177  1.00  0.00    -0.207 F 
ENDBRANCH  14  16
ENDBRANCH  11  14
ENDBRANCH   8  10
BRANCH   8  23
ATOM     23  C   UNL A   1      32.700  25.119  25.744  1.00  0.00     0.422 C 
ATOM     24  F   UNL A   1      33.818  25.763  26.143  1.00  0.00    -0.168 F 
ATOM     25  F   UNL A   1      31.686  26.014  25.718  1.00  0.00    -0.168 F 
ATOM     26  F   UNL A   1      32.385  24.238  26.722  1.00  0.00    -0.168 F 
ENDBRANCH   8  23
ENDBRANCH   6   8
ENDBRANCH   5   6
ENDBRANCH   4   5
ENDBRANCH   3   4
ENDBRANCH   2   3
ENDBRANCH   1   2
BRANCH   1  27
ATOM     27  C   UNL A   1      40.296  20.248  26.254  1.00  0.00     0.188 C 
BRANCH  27  28
ATOM     28  O   UNL A   1      41.543  20.513  26.872  1.00  0.00    -0.376 OA
BRANCH  28  29
ATOM     29  C   UNL A   1      42.654  20.541  25.992  1.00  0.00     0.202 C 
BRANCH  29  30
ATOM     30  C   UNL A   1      43.269  21.936  25.839  1.00  0.00     0.261 C 
BRANCH  30  31
ATOM     31  O   UNL A   1      42.325  23.025  25.851  1.00  0.00    -0.460 OA
BRANCH  31  32
ATOM     32  C   UNL A   1      42.810  24.251  25.573  1.00  0.00     0.338 C 
ATOM     33  O   UNL A   1      43.533  24.552  24.626  1.00  0.00    -0.246 OA
BRANCH  32  34
ATOM     34  C   UNL A   1      42.202  25.222  26.501  1.00  0.00     0.060 A 
ATOM     35  C   UNL A   1      42.528  26.577  26.378  1.00  0.00     0.016 A 
ATOM     36  C   UNL A   1      41.353  24.794  27.524  1.00  0.00     0.016 A 
ATOM     37  C   UNL A   1      42.029  27.496  27.301  1.00  0.00     0.010 A 
ATOM     38  C   UNL A   1      40.872  25.721  28.462  1.00  0.00     0.010 A 
ATOM     39  C   UNL A   1      41.238  27.076  28.375  1.00  0.00    -0.014 A 
BRANCH  39  40
ATOM     40  C   UNL A   1      41.040  28.002  29.524  1.00  0.00     0.031 A 
ATOM     41  C   UNL A   1      41.999  27.895  30.683  1.00  0.00     0.074 A 
ATOM     42  C   UNL A   1      40.111  28.976  29.519  1.00  0.00     0.049 A 
ATOM     43  N   UNL A   1      41.985  28.513  31.834  1.00  0.00    -0.248 NA
ATOM     44  C   UNL A   1      43.132  26.970  30.510  1.00  0.00     0.031 C 
ATOM     45  C   UNL A   1      39.192  29.272  28.421  1.00  0.00     0.029 A 
ATOM     46  N   UNL A   1      39.792  29.907  30.480  1.00  0.00    -0.354 N 
ATOM     47  C   UNL A   1      43.078  28.020  32.538  1.00  0.00     0.074 A 
ATOM     48  C   UNL A   1      43.737  27.057  31.684  1.00  0.00     0.031 C 
ATOM     49  C   UNL A   1      38.409  30.309  28.774  1.00  0.00     0.029 A 
ATOM     50  C   UNL A   1      38.734  30.719  30.140  1.00  0.00     0.049 A 
ATOM     51  H   UNL A   1      40.277  29.985  31.334  1.00  0.00     0.167 HD
ATOM     52  C   UNL A   1      43.495  28.335  33.787  1.00  0.00     0.037 A 
ATOM     53  C   UNL A   1      38.085  31.658  30.861  1.00  0.00     0.037 A 
ATOM     54  C   UNL A   1      42.867  29.320  34.625  1.00  0.00     0.049 A 
ATOM     55  C   UNL A   1      38.524  31.942  32.279  1.00  0.00     0.074 A 
ATOM     56  C   UNL A   1      43.212  29.701  35.910  1.00  0.00     0.029 A 
ATOM     57  N   UNL A   1      41.770  30.085  34.260  1.00  0.00    -0.354 N 
ATOM     58  N   UNL A   1      39.525  31.430  32.954  1.00  0.00    -0.248 NA
ATOM     59  C   UNL A   1      37.736  32.928  33.037  1.00  0.00     0.031 C 
ATOM     60  C   UNL A   1      42.301  30.671  36.338  1.00  0.00     0.029 A 
ATOM     61  C   UNL A   1      41.419  30.930  35.300  1.00  0.00     0.049 A 
ATOM     62  H   UNL A   1      41.310  30.036  33.391  1.00  0.00     0.167 HD
ATOM     63  C   UNL A   1      39.508  32.056  34.199  1.00  0.00     0.074 A 
ATOM     64  C   UNL A   1      38.401  32.988  34.182  1.00  0.00     0.031 C 
ATOM     65  C   UNL A   1      40.334  31.876  35.259  1.00  0.00     0.037 A 
BRANCH  52  66
ATOM     66  C   UNL A   1      44.662  27.572  34.344  1.00  0.00     0.058 A 
ATOM     67  C   UNL A   1      45.988  27.985  34.147  1.00  0.00     0.135 A 
ATOM     68  C   UNL A   1      44.440  26.422  35.120  1.00  0.00     0.135 A 
ATOM     69  F   UNL A   1      46.256  29.060  33.391  1.00  0.00    -0.206 F 
ATOM     70  C   UNL A   1      47.056  27.276  34.690  1.00  0.00     0.059 A 
ATOM     71  C   UNL A   1      45.489  25.714  35.694  1.00  0.00     0.059 A 
ATOM     72  F   UNL A   1      43.189  25.981  35.329  1.00  0.00    -0.206 F 
ATOM     73  C   UNL A   1      46.795  26.144  35.464  1.00  0.00     0.060 A 
BRANCH  73  74
ATOM     74  S   UNL A   1      48.186  25.247  36.185  1.00  0.00     0.124 S 
ATOM     75  O   UNL A   1      49.271  25.616  35.280  1.00  0.00    -0.237 OA
ATOM     76  O   UNL A   1      48.261  25.812  37.528  1.00  0.00    -0.237 OA
ATOM     77  O   UNL A   1      47.763  23.851  36.119  1.00  0.00    -0.744 OA
ENDBRANCH  73  74
ENDBRANCH  52  66
BRANCH  53  78
ATOM     78  C   UNL A   1      36.914  32.381  30.287  1.00  0.00     0.058 A 
ATOM     79  C   UNL A   1      37.083  33.475  29.424  1.00  0.00     0.135 A 
ATOM     80  C   UNL A   1      35.602  32.027  30.636  1.00  0.00     0.135 A 
ATOM     81  F   UNL A   1      38.318  33.866  29.073  1.00  0.00    -0.206 F 
ATOM     82  C   UNL A   1      35.999  34.207  28.950  1.00  0.00     0.059 A 
ATOM     83  C   UNL A   1      34.499  32.724  30.152  1.00  0.00     0.059 A 
ATOM     84  F   UNL A   1      35.381  30.988  31.457  1.00  0.00    -0.206 F 
ATOM     85  C   UNL A   1      34.709  33.824  29.321  1.00  0.00     0.060 A 
BRANCH  85  86
ATOM     86  S   UNL A   1      33.304  34.764  28.685  1.00  0.00     0.124 S 
ATOM     87  O   UNL A   1      32.521  34.977  29.896  1.00  0.00    -0.237 OA
ATOM     88  O   UNL A   1      33.953  35.946  28.127  1.00  0.00    -0.237 OA
ATOM     89  O   UNL A   1      32.715  33.859  27.702  1.00  0.00    -0.744 OA
ENDBRANCH  85  86
ENDBRANCH  53  78
BRANCH  65  90
ATOM     90  C   UNL A   1      40.125  32.746  36.469  1.00  0.00     0.058 A 
ATOM     91  C   UNL A   1      40.911  33.882  36.713  1.00  0.00     0.135 A 
ATOM     92  C   UNL A   1      39.078  32.468  37.365  1.00  0.00     0.135 A 
ATOM     93  F   UNL A   1      41.924  34.192  35.890  1.00  0.00    -0.206 F 
ATOM     94  C   UNL A   1      40.684  34.698  37.818  1.00  0.00     0.059 A 
ATOM     95  C   UNL A   1      38.816  33.285  38.460  1.00  0.00     0.059 A 
ATOM     96  F   UNL A   1      38.287  31.401  37.169  1.00  0.00    -0.206 F 
ATOM     97  C   UNL A   1      39.634  34.391  38.687  1.00  0.00     0.060 A 
BRANCH  97  98
ATOM     98  S   UNL A   1      39.332  35.472  40.100  1.00  0.00     0.124 S 
ATOM     99  O   UNL A   1      40.647  35.507  40.730  1.00  0.00    -0.237 OA
ATOM    100  O   UNL A   1      38.900  36.711  39.463  1.00  0.00    -0.237 OA
ATOM    101  O   UNL A   1      38.295  34.768  40.850  1.00  0.00    -0.744 OA
ENDBRANCH  97  98
ENDBRANCH  65  90
ENDBRANCH  39  40
ENDBRANCH  32  34
ENDBRANCH  31  32
ENDBRANCH  30  31
ENDBRANCH  29  30
ENDBRANCH  28  29
ENDBRANCH  27  28
ENDBRANCH   1  27
TORSDOF 24
ENDMDL
MODEL 2
REMARK VINA RESULT:     -10.1      1.548      2.483
REMARK SMILES CN(C(=O)N[C@@](C)(C(=O)OCCOCCOCCOC(=O)c1ccc(-c2c3nc(c(-c4c(F)cc(S(=O)(=O)[O-])cc4F)c4ccc([nH]4)c(-c4c(F)cc(S(=O)(=O)[O-])cc4F)c4nc(c(-c5c(F)cc(S(=O)(=O)[O-])cc5F)c5ccc2[nH]5)C=C4)C=C3)cc1)C(F)(F)F)c1ccc(F)cc1
REMARK SMILES IDX 14 1 13 2 12 3 11 4 10 5 8 6 9 7 6 8 7 9 5 10 3 11 4 12 2 14
REMARK SMILES IDX 1 15 92 16 93 17 98 18 94 19 97 20 95 21 96 22 88 23 89 24
REMARK SMILES IDX 90 25 91 26 15 27 16 28 17 29 18 30 19 31 20 32 21 33 22 34
REMARK SMILES IDX 23 35 87 36 24 37 86 38 25 39 26 40 27 41 80 42 28 43 85 44
REMARK SMILES IDX 79 45 81 46 29 47 84 48 78 49 77 50 30 52 64 53 43 54 63 55
REMARK SMILES IDX 44 56 47 57 62 58 82 59 45 60 46 61 61 63 83 64 48 65 31 66
REMARK SMILES IDX 32 67 41 68 33 69 34 70 40 71 42 72 35 73 36 74 37 75 38 76
REMARK SMILES IDX 39 77 65 78 66 79 75 80 67 81 68 82 74 83 76 84 69 85 70 86
REMARK SMILES IDX 71 87 72 88 73 89 49 90 50 91 59 92 51 93 52 94 58 95 60 96
REMARK SMILES IDX 53 97 54 98 55 99 56 100 57 101
REMARK H PARENT 5 13 81 51 47 62
REMARK Flexibility Score: inf
ROOT
ATOM      1  C   UNL A   1      38.355  22.790  26.074  1.00  0.00     0.188 C 
ENDROOT
BRANCH   1   2
ATOM      2  O   UNL A   1      37.315  21.868  25.753  1.00  0.00    -0.376 OA
BRANCH   2   3
ATOM      3  C   UNL A   1      35.968  22.229  26.003  1.00  0.00     0.202 C 
BRANCH   3   4
ATOM      4  C   UNL A   1      34.880  21.453  25.249  1.00  0.00     0.261 C 
BRANCH   4   5
ATOM      5  O   UNL A   1      34.189  22.219  24.239  1.00  0.00    -0.461 OA
BRANCH   5   6
ATOM      6  C   UNL A   1      32.979  22.736  24.593  1.00  0.00     0.341 C 
ATOM      7  O   UNL A   1      32.090  22.055  25.094  1.00  0.00    -0.249 OA
BRANCH   6   8
ATOM      8  C   UNL A   1      32.816  24.236  24.233  1.00  0.00     0.232 C 
ATOM      9  C   UNL A   1      34.133  24.908  24.662  1.00  0.00     0.058 C 
BRANCH   8  10
ATOM     10  N   UNL A   1      31.697  24.889  25.051  1.00  0.00    -0.314 N 
ATOM     11  C   UNL A   1      31.439  26.002  25.789  1.00  0.00     0.322 C 
ATOM     12  O   UNL A   1      30.958  25.710  26.889  1.00  0.00    -0.248 OA
ATOM     13  H   UNL A   1      30.900  24.311  25.037  1.00  0.00     0.166 HD
BRANCH  11  14
ATOM     14  N   UNL A   1      31.499  27.292  25.282  1.00  0.00    -0.298 N 
ATOM     15  C   UNL A   1      30.573  27.748  24.258  1.00  0.00     0.155 C 
BRANCH  14  16
ATOM     16  C   UNL A   1      32.354  28.343  25.874  1.00  0.00     0.045 A 
ATOM     17  C   UNL A   1      33.700  28.139  26.230  1.00  0.00     0.029 A 
ATOM     18  C   UNL A   1      31.842  29.634  26.161  1.00  0.00     0.029 A 
ATOM     19  C   UNL A   1      34.454  29.123  26.899  1.00  0.00     0.041 A 
ATOM     20  C   UNL A   1      32.576  30.605  26.862  1.00  0.00     0.041 A 
ATOM     21  C   UNL A   1      33.879  30.338  27.230  1.00  0.00     0.123 A 
ATOM     22  F   UNL A   1      34.591  31.259  27.891  1.00  0.00    -0.207 F 
ENDBRANCH  14  16
ENDBRANCH  11  14
ENDBRANCH   8  10
BRANCH   8  23
ATOM     23  C   UNL A   1      32.749  24.210  22.702  1.00  0.00     0.422 C 
ATOM     24  F   UNL A   1      33.947  24.460  22.129  1.00  0.00    -0.168 F 
ATOM     25  F   UNL A   1      32.316  23.006  22.262  1.00  0.00    -0.168 F 
ATOM     26  F   UNL A   1      31.878  25.117  22.201  1.00  0.00    -0.168 F 
ENDBRANCH   8  23
ENDBRANCH   6   8
ENDBRANCH   5   6
ENDBRANCH   4   5
ENDBRANCH   3   4
ENDBRANCH   2   3
ENDBRANCH   1   2
BRANCH   1  27
ATOM     27  C   UNL A   1      39.656  22.306  26.750  1.00  0.00     0.188 C 
BRANCH  27  28
ATOM     28  O   UNL A   1      40.568  21.665  25.876  1.00  0.00    -0.376 OA
BRANCH  28  29
ATOM     29  C   UNL A   1      41.914  21.648  26.323  1.00  0.00     0.202 C 
BRANCH  29  30
ATOM     30  C   UNL A   1      42.788  22.710  25.647  1.00  0.00     0.261 C 
BRANCH  30  31
ATOM     31  O   UNL A   1      42.144  23.978  25.420  1.00  0.00    -0.460 OA
BRANCH  31  32
ATOM     32  C   UNL A   1      42.903  25.080  25.581  1.00  0.00     0.338 C 
ATOM     33  O   UNL A   1      43.898  25.383  24.927  1.00  0.00    -0.246 OA
BRANCH  32  34
ATOM     34  C   UNL A   1      42.256  25.959  26.572  1.00  0.00     0.060 A 
ATOM     35  C   UNL A   1      42.485  27.338  26.511  1.00  0.00     0.016 A 
ATOM     36  C   UNL A   1      41.464  25.423  27.591  1.00  0.00     0.016 A 
ATOM     37  C   UNL A   1      41.950  28.173  27.492  1.00  0.00     0.010 A 
ATOM     38  C   UNL A   1      40.947  26.266  28.586  1.00  0.00     0.010 A 
ATOM     39  C   UNL A   1      41.218  27.646  28.561  1.00  0.00    -0.014 A 
BRANCH  39  40
ATOM     40  C   UNL A   1      40.988  28.498  29.760  1.00  0.00     0.031 A 
ATOM     41  C   UNL A   1      41.920  28.323  30.933  1.00  0.00     0.074 A 
ATOM     42  C   UNL A   1      40.053  29.466  29.794  1.00  0.00     0.049 A 
ATOM     43  N   UNL A   1      41.876  28.868  32.120  1.00  0.00    -0.248 NA
ATOM     44  C   UNL A   1      43.062  27.415  30.729  1.00  0.00     0.031 C 
ATOM     45  C   UNL A   1      39.158  29.826  28.696  1.00  0.00     0.029 A 
ATOM     46  N   UNL A   1      39.707  30.333  30.804  1.00  0.00    -0.354 N 
ATOM     47  C   UNL A   1      42.955  28.336  32.817  1.00  0.00     0.074 A 
ATOM     48  C   UNL A   1      43.639  27.431  31.921  1.00  0.00     0.031 C 
ATOM     49  C   UNL A   1      38.361  30.835  29.094  1.00  0.00     0.029 A 
ATOM     50  C   UNL A   1      38.652  31.161  30.490  1.00  0.00     0.049 A 
ATOM     51  H   UNL A   1      40.171  30.360  31.672  1.00  0.00     0.167 HD
ATOM     52  C   UNL A   1      43.341  28.574  34.093  1.00  0.00     0.037 A 
ATOM     53  C   UNL A   1      37.981  32.049  31.253  1.00  0.00     0.037 A 
ATOM     54  C   UNL A   1      42.687  29.502  34.975  1.00  0.00     0.049 A 
ATOM     55  C   UNL A   1      38.385  32.247  32.696  1.00  0.00     0.074 A 
ATOM     56  C   UNL A   1      43.001  29.803  36.289  1.00  0.00     0.029 A 
ATOM     57  N   UNL A   1      41.595  30.283  34.634  1.00  0.00    -0.354 N 
ATOM     58  N   UNL A   1      39.373  31.698  33.362  1.00  0.00    -0.248 NA
ATOM     59  C   UNL A   1      37.574  33.179  33.496  1.00  0.00     0.031 C 
ATOM     60  C   UNL A   1      42.074  30.741  36.755  1.00  0.00     0.029 A 
ATOM     61  C   UNL A   1      41.215  31.060  35.715  1.00  0.00     0.049 A 
ATOM     62  H   UNL A   1      41.156  30.287  33.752  1.00  0.00     0.167 HD
ATOM     63  C   UNL A   1      39.324  32.245  34.642  1.00  0.00     0.074 A 
ATOM     64  C   UNL A   1      38.212  33.171  34.657  1.00  0.00     0.031 C 
ATOM     65  C   UNL A   1      40.126  32.002  35.708  1.00  0.00     0.037 A 
BRANCH  52  66
ATOM     66  C   UNL A   1      44.499  27.782  34.628  1.00  0.00     0.058 A 
ATOM     67  C   UNL A   1      44.343  26.489  35.149  1.00  0.00     0.135 A 
ATOM     68  C   UNL A   1      45.795  28.321  34.583  1.00  0.00     0.135 A 
ATOM     69  F   UNL A   1      43.121  25.941  35.240  1.00  0.00    -0.206 F 
ATOM     70  C   UNL A   1      45.431  25.762  35.621  1.00  0.00     0.059 A 
ATOM     71  C   UNL A   1      46.901  27.603  35.024  1.00  0.00     0.059 A 
ATOM     72  F   UNL A   1      45.996  29.558  34.102  1.00  0.00    -0.206 F 
ATOM     73  C   UNL A   1      46.707  26.326  35.551  1.00  0.00     0.060 A 
BRANCH  73  74
ATOM     74  S   UNL A   1      48.114  25.364  36.142  1.00  0.00     0.124 S 
ATOM     75  O   UNL A   1      49.207  25.935  35.361  1.00  0.00    -0.237 OA
ATOM     76  O   UNL A   1      48.127  25.671  37.569  1.00  0.00    -0.237 OA
ATOM     77  O   UNL A   1      47.754  23.990  35.804  1.00  0.00    -0.744 OA
ENDBRANCH  73  74
ENDBRANCH  52  66
BRANCH  53  78
ATOM     78  C   UNL A   1      36.820  32.802  30.698  1.00  0.00     0.058 A 
ATOM     79  C   UNL A   1      35.501  32.458  31.031  1.00  0.00     0.135 A 
ATOM     80  C   UNL A   1      37.005  33.845  29.777  1.00  0.00     0.135 A 
ATOM     81  F   UNL A   1      35.267  31.456  31.893  1.00  0.00    -0.206 F 
ATOM     82  C   UNL A   1      34.409  33.101  30.455  1.00  0.00     0.059 A 
ATOM     83  C   UNL A   1      35.931  34.524  29.210  1.00  0.00     0.059 A 
ATOM     84  F   UNL A   1      38.245  34.217  29.423  1.00  0.00    -0.206 F 
ATOM     85  C   UNL A   1      34.635  34.133  29.542  1.00  0.00     0.060 A 
BRANCH  85  86
ATOM     86  S   UNL A   1      33.215  34.978  28.814  1.00  0.00     0.124 S 
ATOM     87  O   UNL A   1      32.433  35.312  29.998  1.00  0.00    -0.237 OA
ATOM     88  O   UNL A   1      33.845  36.101  28.126  1.00  0.00    -0.237 OA
ATOM     89  O   UNL A   1      32.636  33.963  27.939  1.00  0.00    -0.744 OA
ENDBRANCH  85  86
ENDBRANCH  53  78
BRANCH  65  90
ATOM     90  C   UNL A   1      39.883  32.794  36.964  1.00  0.00     0.058 A 
ATOM     91  C   UNL A   1      40.649  33.923  37.291  1.00  0.00     0.135 A 
ATOM     92  C   UNL A   1      38.826  32.448  37.823  1.00  0.00     0.135 A 
ATOM     93  F   UNL A   1      41.672  34.296  36.507  1.00  0.00    -0.206 F 
ATOM     94  C   UNL A   1      40.391  34.667  38.440  1.00  0.00     0.059 A 
ATOM     95  C   UNL A   1      38.534  33.193  38.961  1.00  0.00     0.059 A 
ATOM     96  F   UNL A   1      38.053  31.385  37.548  1.00  0.00    -0.206 F 
ATOM     97  C   UNL A   1      39.331  34.293  39.269  1.00  0.00     0.060 A 
BRANCH  97  98
ATOM     98  S   UNL A   1      38.989  35.283  40.740  1.00  0.00     0.124 S 
ATOM     99  O   UNL A   1      37.702  34.743  41.165  1.00  0.00    -0.237 OA
ATOM    100  O   UNL A   1      40.125  34.970  41.601  1.00  0.00    -0.237 OA
ATOM    101  O   UNL A   1      38.958  36.651  40.229  1.00  0.00    -0.744 OA
ENDBRANCH  97  98
ENDBRANCH  65  90
ENDBRANCH  39  40
ENDBRANCH  32  34
ENDBRANCH  31  32
ENDBRANCH  30  31
ENDBRANCH  29  30
ENDBRANCH  28  29
ENDBRANCH  27  28
ENDBRANCH   1  27
TORSDOF 24
ENDMDL
MODEL 3
REMARK VINA RESULT:     -10.0      1.628      2.243
REMARK SMILES CN(C(=O)N[C@@](C)(C(=O)OCCOCCOCCOC(=O)c1ccc(-c2c3nc(c(-c4c(F)cc(S(=O)(=O)[O-])cc4F)c4ccc([nH]4)c(-c4c(F)cc(S(=O)(=O)[O-])cc4F)c4nc(c(-c5c(F)cc(S(=O)(=O)[O-])cc5F)c5ccc2[nH]5)C=C4)C=C3)cc1)C(F)(F)F)c1ccc(F)cc1
REMARK SMILES IDX 14 1 13 2 12 3 11 4 10 5 8 6 9 7 6 8 7 9 5 10 3 11 4 12 2 14
REMARK SMILES IDX 1 15 92 16 93 17 98 18 94 19 97 20 95 21 96 22 88 23 89 24
REMARK SMILES IDX 90 25 91 26 15 27 16 28 17 29 18 30 19 31 20 32 21 33 22 34
REMARK SMILES IDX 23 35 87 36 24 37 86 38 25 39 26 40 27 41 80 42 28 43 85 44
REMARK SMILES IDX 79 45 81 46 29 47 84 48 78 49 77 50 30 52 64 53 43 54 63 55
REMARK SMILES IDX 44 56 47 57 62 58 82 59 45 60 46 61 61 63 83 64 48 65 31 66
REMARK SMILES IDX 32 67 41 68 33 69 34 70 40 71 42 72 35 73 36 74 37 75 38 76
REMARK SMILES IDX 39 77 65 78 66 79 75 80 67 81 68 82 74 83 76 84 69 85 70 86
REMARK SMILES IDX 71 87 72 88 73 89 49 90 50 91 59 92 51 93 52 94 58 95 60 96
REMARK SMILES IDX 53 97 54 98 55 99 56 100 57 101
REMARK H PARENT 5 13 81 51 47 62
REMARK Flexibility Score: inf
ROOT
ATOM      1  C   UNL A   1      40.030  21.526  26.405  1.00  0.00     0.188 C 
ENDROOT
BRANCH   1   2
ATOM      2  O   UNL A   1      38.606  21.471  26.356  1.00  0.00    -0.376 OA
BRANCH   2   3
ATOM      3  C   UNL A   1      37.921  22.163  25.328  1.00  0.00     0.202 C 
BRANCH   3   4
ATOM      4  C   UNL A   1      36.507  22.669  25.640  1.00  0.00     0.261 C 
BRANCH   4   5
ATOM      5  O   UNL A   1      35.474  22.124  24.793  1.00  0.00    -0.461 OA
BRANCH   5   6
ATOM      6  C   UNL A   1      34.305  21.784  25.406  1.00  0.00     0.341 C 
ATOM      7  O   UNL A   1      34.268  21.253  26.511  1.00  0.00    -0.249 OA
BRANCH   6   8
ATOM      8  C   UNL A   1      33.047  22.064  24.542  1.00  0.00     0.232 C 
ATOM      9  C   UNL A   1      33.563  22.789  23.286  1.00  0.00     0.058 C 
BRANCH   8  10
ATOM     10  N   UNL A   1      32.087  23.026  25.248  1.00  0.00    -0.314 N 
ATOM     11  C   UNL A   1      32.089  24.173  25.981  1.00  0.00     0.322 C 
ATOM     12  O   UNL A   1      31.424  24.046  27.014  1.00  0.00    -0.248 OA
ATOM     13  H   UNL A   1      31.162  22.712  25.133  1.00  0.00     0.166 HD
BRANCH  11  14
ATOM     14  N   UNL A   1      32.585  25.382  25.515  1.00  0.00    -0.298 N 
ATOM     15  C   UNL A   1      33.969  25.769  25.734  1.00  0.00     0.155 C 
BRANCH  14  16
ATOM     16  C   UNL A   1      31.820  26.260  24.604  1.00  0.00     0.045 A 
ATOM     17  C   UNL A   1      31.673  26.010  23.228  1.00  0.00     0.029 A 
ATOM     18  C   UNL A   1      31.211  27.453  25.070  1.00  0.00     0.029 A 
ATOM     19  C   UNL A   1      31.038  26.925  22.365  1.00  0.00     0.041 A 
ATOM     20  C   UNL A   1      30.611  28.388  24.210  1.00  0.00     0.041 A 
ATOM     21  C   UNL A   1      30.533  28.116  22.860  1.00  0.00     0.123 A 
ATOM     22  F   UNL A   1      29.956  28.995  22.031  1.00  0.00    -0.207 F 
ENDBRANCH  14  16
ENDBRANCH  11  14
ENDBRANCH   8  10
BRANCH   8  23
ATOM     23  C   UNL A   1      32.589  20.655  24.148  1.00  0.00     0.422 C 
ATOM     24  F   UNL A   1      31.773  20.101  25.072  1.00  0.00    -0.168 F 
ATOM     25  F   UNL A   1      31.932  20.676  22.966  1.00  0.00    -0.168 F 
ATOM     26  F   UNL A   1      33.623  19.799  23.976  1.00  0.00    -0.168 F 
ENDBRANCH   8  23
ENDBRANCH   6   8
ENDBRANCH   5   6
ENDBRANCH   4   5
ENDBRANCH   3   4
ENDBRANCH   2   3
ENDBRANCH   1   2
BRANCH   1  27
ATOM     27  C   UNL A   1      40.867  20.232  26.504  1.00  0.00     0.188 C 
BRANCH  27  28
ATOM     28  O   UNL A   1      42.236  20.439  26.804  1.00  0.00    -0.376 OA
BRANCH  28  29
ATOM     29  C   UNL A   1      43.132  20.131  25.749  1.00  0.00     0.202 C 
BRANCH  29  30
ATOM     30  C   UNL A   1      43.831  21.366  25.170  1.00  0.00     0.261 C 
BRANCH  30  31
ATOM     31  O   UNL A   1      43.003  22.539  25.056  1.00  0.00    -0.460 OA
BRANCH  31  32
ATOM     32  C   UNL A   1      43.638  23.729  25.035  1.00  0.00     0.338 C 
ATOM     33  O   UNL A   1      44.526  24.068  24.259  1.00  0.00    -0.246 OA
BRANCH  32  34
ATOM     34  C   UNL A   1      42.981  24.631  26.000  1.00  0.00     0.060 A 
ATOM     35  C   UNL A   1      43.063  26.014  25.802  1.00  0.00     0.016 A 
ATOM     36  C   UNL A   1      42.330  24.120  27.125  1.00  0.00     0.016 A 
ATOM     37  C   UNL A   1      42.522  26.882  26.749  1.00  0.00     0.010 A 
ATOM     38  C   UNL A   1      41.807  25.000  28.084  1.00  0.00     0.010 A 
ATOM     39  C   UNL A   1      41.932  26.390  27.918  1.00  0.00    -0.014 A 
BRANCH  39  40
ATOM     40  C   UNL A   1      41.709  27.325  29.055  1.00  0.00     0.031 A 
ATOM     41  C   UNL A   1      42.666  27.254  30.219  1.00  0.00     0.074 A 
ATOM     42  C   UNL A   1      40.758  28.278  29.036  1.00  0.00     0.049 A 
ATOM     43  N   UNL A   1      42.634  27.884  31.363  1.00  0.00    -0.248 NA
ATOM     44  C   UNL A   1      43.819  26.352  30.061  1.00  0.00     0.031 C 
ATOM     45  C   UNL A   1      39.837  28.540  27.932  1.00  0.00     0.029 A 
ATOM     46  N   UNL A   1      40.415  29.212  29.985  1.00  0.00    -0.354 N 
ATOM     47  C   UNL A   1      43.735  27.424  32.077  1.00  0.00     0.074 A 
ATOM     48  C   UNL A   1      44.418  26.466  31.236  1.00  0.00     0.031 C 
ATOM     49  C   UNL A   1      39.029  29.563  28.270  1.00  0.00     0.029 A 
ATOM     50  C   UNL A   1      39.340  29.997  29.632  1.00  0.00     0.049 A 
ATOM     51  H   UNL A   1      40.894  29.312  30.840  1.00  0.00     0.167 HD
ATOM     52  C   UNL A   1      44.140  27.763  33.323  1.00  0.00     0.037 A 
ATOM     53  C   UNL A   1      38.667  30.928  30.340  1.00  0.00     0.037 A 
ATOM     54  C   UNL A   1      43.486  28.742  34.147  1.00  0.00     0.049 A 
ATOM     55  C   UNL A   1      39.094  31.239  31.756  1.00  0.00     0.074 A 
ATOM     56  C   UNL A   1      43.818  29.146  35.429  1.00  0.00     0.029 A 
ATOM     57  N   UNL A   1      42.374  29.478  33.770  1.00  0.00    -0.354 N 
ATOM     58  N   UNL A   1      40.104  30.757  32.441  1.00  0.00    -0.248 NA
ATOM     59  C   UNL A   1      38.281  32.215  32.500  1.00  0.00     0.031 C 
ATOM     60  C   UNL A   1      42.883  30.100  35.842  1.00  0.00     0.029 A 
ATOM     61  C   UNL A   1      42.000  30.327  34.799  1.00  0.00     0.049 A 
ATOM     62  H   UNL A   1      41.919  29.409  32.900  1.00  0.00     0.167 HD
ATOM     63  C   UNL A   1      40.068  31.397  33.678  1.00  0.00     0.074 A 
ATOM     64  C   UNL A   1      38.940  32.304  33.647  1.00  0.00     0.031 C 
ATOM     65  C   UNL A   1      40.894  31.247  34.743  1.00  0.00     0.037 A 
BRANCH  52  66
ATOM     66  C   UNL A   1      45.321  27.032  33.893  1.00  0.00     0.058 A 
ATOM     67  C   UNL A   1      45.186  25.826  34.596  1.00  0.00     0.135 A 
ATOM     68  C   UNL A   1      46.617  27.537  33.697  1.00  0.00     0.135 A 
ATOM     69  F   UNL A   1      43.968  25.316  34.835  1.00  0.00    -0.206 F 
ATOM     70  C   UNL A   1      46.295  25.151  35.098  1.00  0.00     0.059 A 
ATOM     71  C   UNL A   1      47.741  26.868  34.166  1.00  0.00     0.059 A 
ATOM     72  F   UNL A   1      46.799  28.693  33.038  1.00  0.00    -0.206 F 
ATOM     73  C   UNL A   1      47.569  25.679  34.875  1.00  0.00     0.060 A 
BRANCH  73  74
ATOM     74  S   UNL A   1      49.001  24.783  35.508  1.00  0.00     0.124 S 
ATOM     75  O   UNL A   1      49.424  25.647  36.606  1.00  0.00    -0.237 OA
ATOM     76  O   UNL A   1      48.422  23.501  35.897  1.00  0.00    -0.237 OA
ATOM     77  O   UNL A   1      49.907  24.735  34.363  1.00  0.00    -0.744 OA
ENDBRANCH  73  74
ENDBRANCH  52  66
BRANCH  53  78
ATOM     78  C   UNL A   1      37.482  31.618  29.753  1.00  0.00     0.058 A 
ATOM     79  C   UNL A   1      37.590  32.895  29.182  1.00  0.00     0.135 A 
ATOM     80  C   UNL A   1      36.206  31.036  29.805  1.00  0.00     0.135 A 
ATOM     81  F   UNL A   1      38.785  33.505  29.124  1.00  0.00    -0.206 F 
ATOM     82  C   UNL A   1      36.477  33.581  28.707  1.00  0.00     0.059 A 
ATOM     83  C   UNL A   1      35.081  31.688  29.310  1.00  0.00     0.059 A 
ATOM     84  F   UNL A   1      36.044  29.816  30.339  1.00  0.00    -0.206 F 
ATOM     85  C   UNL A   1      35.223  32.969  28.777  1.00  0.00     0.060 A 
BRANCH  85  86
ATOM     86  S   UNL A   1      33.784  33.855  28.140  1.00  0.00     0.124 S 
ATOM     87  O   UNL A   1      34.407  34.816  27.238  1.00  0.00    -0.237 OA
ATOM     88  O   UNL A   1      33.020  32.784  27.507  1.00  0.00    -0.237 OA
ATOM     89  O   UNL A   1      33.179  34.418  29.344  1.00  0.00    -0.744 OA
ENDBRANCH  85  86
ENDBRANCH  53  78
BRANCH  65  90
ATOM     90  C   UNL A   1      40.660  32.126  35.942  1.00  0.00     0.058 A 
ATOM     91  C   UNL A   1      41.465  33.243  36.214  1.00  0.00     0.135 A 
ATOM     92  C   UNL A   1      39.573  31.878  36.797  1.00  0.00     0.135 A 
ATOM     93  F   UNL A   1      42.518  33.524  35.430  1.00  0.00    -0.206 F 
ATOM     94  C   UNL A   1      41.217  34.068  37.308  1.00  0.00     0.059 A 
ATOM     95  C   UNL A   1      39.290  32.706  37.880  1.00  0.00     0.059 A 
ATOM     96  F   UNL A   1      38.762  30.832  36.573  1.00  0.00    -0.206 F 
ATOM     97  C   UNL A   1      40.126  33.790  38.135  1.00  0.00     0.060 A 
BRANCH  97  98
ATOM     98  S   UNL A   1      39.798  34.884  39.534  1.00  0.00     0.124 S 
ATOM     99  O   UNL A   1      38.912  35.874  38.931  1.00  0.00    -0.237 OA
ATOM    100  O   UNL A   1      39.179  33.983  40.500  1.00  0.00    -0.237 OA
ATOM    101  O   UNL A   1      41.125  35.371  39.903  1.00  0.00    -0.744 OA
ENDBRANCH  97  98
ENDBRANCH  65  90
ENDBRANCH  39  40
ENDBRANCH  32  34
ENDBRANCH  31  32
ENDBRANCH  30  31
ENDBRANCH  29  30
ENDBRANCH  28  29
ENDBRANCH  27  28
ENDBRANCH   1  27
TORSDOF 24
ENDMDL
