MODEL 1
REMARK VINA RESULT:     -10.2      0.000      0.000
REMARK SMILES CN(CC(N)=O)c1ccccc1/C=C/C(=O)OCCOCCOCCOC(=O)c1ccc(-c2c3nc(c(-c4c(F)cc(S(=O)(=O)[O-])cc4F)c4ccc([nH]4)c(-c4c(F)cc(S(=O)(=O)[O-])cc4F)c4nc(c(-c5c(F)cc(S(=O)(=O)[O-])cc5F)c5ccc2[nH]5)C=C4)C=C3)cc1
REMARK SMILES IDX 21 1 20 2 19 3 18 4 17 5 15 6 16 7 14 8 13 9 12 10 7 11 8 12
REMARK SMILES IDX 9 13 11 14 10 15 2 16 1 17 3 18 4 19 5 20 6 21 22 24 23 25
REMARK SMILES IDX 24 26 25 27 26 28 27 29 28 30 29 31 30 32 94 33 31 34 93 35
REMARK SMILES IDX 32 36 33 37 34 38 87 39 35 40 92 41 86 42 88 43 36 44 91 45
REMARK SMILES IDX 85 46 84 47 37 49 71 50 50 51 70 52 51 53 54 54 69 55 89 56
REMARK SMILES IDX 52 57 53 58 68 60 90 61 55 62 38 63 39 64 48 65 40 66 41 67
REMARK SMILES IDX 47 68 49 69 42 70 43 71 44 72 45 73 46 74 72 75 73 76 82 77
REMARK SMILES IDX 74 78 75 79 81 80 83 81 76 82 77 83 78 84 79 85 80 86 56 87
REMARK SMILES IDX 57 88 66 89 58 90 59 91 65 92 67 93 60 94 61 95 62 96 63 97
REMARK SMILES IDX 64 98
REMARK H PARENT 5 22 5 23 88 48 54 59
REMARK Flexibility Score: inf
ROOT
ATOM      1  C   UNL A   1      35.011  19.967  24.978  1.00  0.00     0.188 C 
ENDROOT
BRANCH   1   2
ATOM      2  O   UNL A   1      33.631  20.123  24.752  1.00  0.00    -0.376 OA
BRANCH   2   3
ATOM      3  C   UNL A   1      32.808  20.753  25.718  1.00  0.00     0.202 C 
BRANCH   3   4
ATOM      4  C   UNL A   1      32.251  22.189  25.645  1.00  0.00     0.261 C 
BRANCH   4   5
ATOM      5  O   UNL A   1      31.930  22.859  26.867  1.00  0.00    -0.460 OA
BRANCH   5   6
ATOM      6  C   UNL A   1      30.959  23.799  26.773  1.00  0.00     0.330 C 
ATOM      7  O   UNL A   1      29.755  23.598  26.822  1.00  0.00    -0.247 OA
BRANCH   6   8
ATOM      8  C   UNL A   1      31.499  25.171  26.672  1.00  0.00     0.094 C 
ATOM      9  C   UNL A   1      30.936  26.207  26.030  1.00  0.00     0.018 C 
BRANCH   9  10
ATOM     10  C   UNL A   1      31.567  27.541  26.011  1.00  0.00    -0.002 A 
ATOM     11  C   UNL A   1      31.716  28.297  24.823  1.00  0.00     0.044 A 
ATOM     12  C   UNL A   1      32.240  29.599  24.958  1.00  0.00     0.026 A 
ATOM     13  C   UNL A   1      32.684  30.111  26.178  1.00  0.00     0.002 A 
ATOM     14  C   UNL A   1      32.069  28.049  27.231  1.00  0.00     0.010 A 
ATOM     15  C   UNL A   1      32.626  29.323  27.314  1.00  0.00     0.001 A 
BRANCH  11  16
ATOM     16  N   UNL A   1      31.372  27.839  23.557  1.00  0.00    -0.365 N 
ATOM     17  C   UNL A   1      32.341  27.160  22.714  1.00  0.00     0.144 C 
BRANCH  16  18
ATOM     18  C   UNL A   1      30.012  28.046  23.041  1.00  0.00     0.215 C 
BRANCH  18  19
ATOM     19  C   UNL A   1      29.908  29.237  22.079  1.00  0.00     0.236 C 
ATOM     20  N   UNL A   1      31.093  29.859  21.780  1.00  0.00    -0.368 N 
ATOM     21  O   UNL A   1      28.857  29.649  21.597  1.00  0.00    -0.273 OA
ATOM     22  H   UNL A   1      31.935  29.528  22.167  1.00  0.00     0.159 HD
ATOM     23  H   UNL A   1      31.100  30.638  21.177  1.00  0.00     0.159 HD
ENDBRANCH  18  19
ENDBRANCH  16  18
ENDBRANCH  11  16
ENDBRANCH   9  10
ENDBRANCH   6   8
ENDBRANCH   5   6
ENDBRANCH   4   5
ENDBRANCH   3   4
ENDBRANCH   2   3
ENDBRANCH   1   2
BRANCH   1  24
ATOM     24  C   UNL A   1      35.794  21.252  25.303  1.00  0.00     0.188 C 
BRANCH  24  25
ATOM     25  O   UNL A   1      37.195  21.296  25.112  1.00  0.00    -0.376 OA
BRANCH  25  26
ATOM     26  C   UNL A   1      37.880  22.530  25.269  1.00  0.00     0.202 C 
BRANCH  26  27
ATOM     27  C   UNL A   1      38.926  22.807  26.370  1.00  0.00     0.261 C 
BRANCH  27  28
ATOM     28  O   UNL A   1      39.419  24.146  26.497  1.00  0.00    -0.460 OA
BRANCH  28  29
ATOM     29  C   UNL A   1      40.631  24.277  27.091  1.00  0.00     0.338 C 
ATOM     30  O   UNL A   1      41.655  23.663  26.831  1.00  0.00    -0.246 OA
BRANCH  29  31
ATOM     31  C   UNL A   1      40.582  25.430  28.010  1.00  0.00     0.060 A 
ATOM     32  C   UNL A   1      41.710  26.254  28.140  1.00  0.00     0.016 A 
ATOM     33  C   UNL A   1      39.424  25.695  28.740  1.00  0.00     0.016 A 
ATOM     34  C   UNL A   1      41.670  27.368  28.979  1.00  0.00     0.010 A 
ATOM     35  C   UNL A   1      39.400  26.791  29.605  1.00  0.00     0.010 A 
ATOM     36  C   UNL A   1      40.521  27.633  29.731  1.00  0.00    -0.014 A 
BRANCH  36  37
ATOM     37  C   UNL A   1      40.502  28.729  30.728  1.00  0.00     0.031 A 
ATOM     38  C   UNL A   1      41.391  28.630  31.934  1.00  0.00     0.074 A 
ATOM     39  C   UNL A   1      39.674  29.779  30.579  1.00  0.00     0.049 A 
ATOM     40  N   UNL A   1      41.427  29.385  33.000  1.00  0.00    -0.248 NA
ATOM     41  C   UNL A   1      42.366  27.529  31.937  1.00  0.00     0.031 C 
ATOM     42  C   UNL A   1      38.800  30.007  29.429  1.00  0.00     0.029 A 
ATOM     43  N   UNL A   1      39.411  30.833  31.418  1.00  0.00    -0.354 N 
ATOM     44  C   UNL A   1      42.422  28.847  33.808  1.00  0.00     0.074 A 
ATOM     45  C   UNL A   1      42.946  27.689  33.118  1.00  0.00     0.031 C 
ATOM     46  C   UNL A   1      38.070  31.113  29.652  1.00  0.00     0.029 A 
ATOM     47  C   UNL A   1      38.390  31.643  30.976  1.00  0.00     0.049 A 
ATOM     48  H   UNL A   1      39.905  30.994  32.254  1.00  0.00     0.167 HD
ATOM     49  C   UNL A   1      42.855  29.285  35.015  1.00  0.00     0.037 A 
ATOM     50  C   UNL A   1      37.755  32.660  31.592  1.00  0.00     0.037 A 
ATOM     51  C   UNL A   1      42.310  30.428  35.700  1.00  0.00     0.049 A 
ATOM     52  C   UNL A   1      38.180  33.067  32.980  1.00  0.00     0.074 A 
ATOM     53  C   UNL A   1      42.688  30.959  36.921  1.00  0.00     0.029 A 
ATOM     54  N   UNL A   1      41.260  31.207  35.234  1.00  0.00    -0.354 N 
ATOM     55  N   UNL A   1      39.138  32.569  33.728  1.00  0.00    -0.248 NA
ATOM     56  C   UNL A   1      37.438  34.166  33.613  1.00  0.00     0.031 C 
ATOM     57  C   UNL A   1      41.828  32.019  37.221  1.00  0.00     0.029 A 
ATOM     58  C   UNL A   1      40.953  32.191  36.160  1.00  0.00     0.049 A 
ATOM     59  H   UNL A   1      40.802  31.080  34.372  1.00  0.00     0.167 HD
ATOM     60  C   UNL A   1      39.122  33.305  34.910  1.00  0.00     0.074 A 
ATOM     61  C   UNL A   1      38.073  34.293  34.771  1.00  0.00     0.031 C 
ATOM     62  C   UNL A   1      39.904  33.171  36.011  1.00  0.00     0.037 A 
BRANCH  49  63
ATOM     63  C   UNL A   1      43.951  28.502  35.685  1.00  0.00     0.058 A 
ATOM     64  C   UNL A   1      45.306  28.815  35.493  1.00  0.00     0.135 A 
ATOM     65  C   UNL A   1      43.643  27.440  36.550  1.00  0.00     0.135 A 
ATOM     66  F   UNL A   1      45.661  29.809  34.663  1.00  0.00    -0.206 F 
ATOM     67  C   UNL A   1      46.316  28.084  36.112  1.00  0.00     0.059 A 
ATOM     68  C   UNL A   1      44.634  26.716  37.204  1.00  0.00     0.059 A 
ATOM     69  F   UNL A   1      42.363  27.096  36.769  1.00  0.00    -0.206 F 
ATOM     70  C   UNL A   1      45.970  27.036  36.965  1.00  0.00     0.060 A 
BRANCH  70  71
ATOM     71  S   UNL A   1      47.294  26.096  37.754  1.00  0.00     0.124 S 
ATOM     72  O   UNL A   1      46.910  24.726  37.433  1.00  0.00    -0.237 OA
ATOM     73  O   UNL A   1      48.482  26.599  37.071  1.00  0.00    -0.237 OA
ATOM     74  O   UNL A   1      47.181  26.464  39.162  1.00  0.00    -0.744 OA
ENDBRANCH  70  71
ENDBRANCH  49  63
BRANCH  50  75
ATOM     75  C   UNL A   1      36.615  33.340  30.916  1.00  0.00     0.058 A 
ATOM     76  C   UNL A   1      36.828  34.244  29.865  1.00  0.00     0.135 A 
ATOM     77  C   UNL A   1      35.288  33.092  31.304  1.00  0.00     0.135 A 
ATOM     78  F   UNL A   1      38.077  34.528  29.468  1.00  0.00    -0.206 F 
ATOM     79  C   UNL A   1      35.769  34.883  29.228  1.00  0.00     0.059 A 
ATOM     80  C   UNL A   1      34.212  33.697  30.664  1.00  0.00     0.059 A 
ATOM     81  F   UNL A   1      35.028  32.233  32.302  1.00  0.00    -0.206 F 
ATOM     82  C   UNL A   1      34.463  34.598  29.630  1.00  0.00     0.060 A 
BRANCH  82  83
ATOM     83  S   UNL A   1      33.095  35.391  28.758  1.00  0.00     0.124 S 
ATOM     84  O   UNL A   1      32.317  35.937  29.864  1.00  0.00    -0.237 OA
ATOM     85  O   UNL A   1      33.791  36.368  27.925  1.00  0.00    -0.237 OA
ATOM     86  O   UNL A   1      32.473  34.289  28.032  1.00  0.00    -0.744 OA
ENDBRANCH  82  83
ENDBRANCH  50  75
BRANCH  62  87
ATOM     87  C   UNL A   1      39.673  34.122  37.155  1.00  0.00     0.058 A 
ATOM     88  C   UNL A   1      38.914  33.754  38.277  1.00  0.00     0.135 A 
ATOM     89  C   UNL A   1      40.289  35.385  37.170  1.00  0.00     0.135 A 
ATOM     90  F   UNL A   1      38.296  32.563  38.312  1.00  0.00    -0.206 F 
ATOM     91  C   UNL A   1      38.767  34.605  39.368  1.00  0.00     0.059 A 
ATOM     92  C   UNL A   1      40.180  36.241  38.262  1.00  0.00     0.059 A 
ATOM     93  F   UNL A   1      41.033  35.786  36.127  1.00  0.00    -0.206 F 
ATOM     94  C   UNL A   1      39.413  35.843  39.356  1.00  0.00     0.060 A 
BRANCH  94  95
ATOM     95  S   UNL A   1      39.265  36.908  40.807  1.00  0.00     0.124 S 
ATOM     96  O   UNL A   1      40.665  37.168  41.127  1.00  0.00    -0.237 OA
ATOM     97  O   UNL A   1      38.513  38.044  40.284  1.00  0.00    -0.237 OA
ATOM     98  O   UNL A   1      38.546  36.077  41.768  1.00  0.00    -0.744 OA
ENDBRANCH  94  95
ENDBRANCH  62  87
ENDBRANCH  36  37
ENDBRANCH  29  31
ENDBRANCH  28  29
ENDBRANCH  27  28
ENDBRANCH  26  27
ENDBRANCH  25  26
ENDBRANCH  24  25
ENDBRANCH   1  24
TORSDOF 24
ENDMDL
MODEL 2
REMARK VINA RESULT:      -9.9      1.292      2.300
REMARK SMILES CN(CC(N)=O)c1ccccc1/C=C/C(=O)OCCOCCOCCOC(=O)c1ccc(-c2c3nc(c(-c4c(F)cc(S(=O)(=O)[O-])cc4F)c4ccc([nH]4)c(-c4c(F)cc(S(=O)(=O)[O-])cc4F)c4nc(c(-c5c(F)cc(S(=O)(=O)[O-])cc5F)c5ccc2[nH]5)C=C4)C=C3)cc1
REMARK SMILES IDX 21 1 20 2 19 3 18 4 17 5 15 6 16 7 14 8 13 9 12 10 7 11 8 12
REMARK SMILES IDX 9 13 11 14 10 15 2 16 1 17 3 18 4 19 5 20 6 21 22 24 23 25
REMARK SMILES IDX 24 26 25 27 26 28 27 29 28 30 29 31 30 32 94 33 31 34 93 35
REMARK SMILES IDX 32 36 33 37 34 38 87 39 35 40 92 41 86 42 88 43 36 44 91 45
REMARK SMILES IDX 85 46 84 47 37 49 71 50 50 51 70 52 51 53 54 54 69 55 89 56
REMARK SMILES IDX 52 57 53 58 68 60 90 61 55 62 38 63 39 64 48 65 40 66 41 67
REMARK SMILES IDX 47 68 49 69 42 70 43 71 44 72 45 73 46 74 72 75 73 76 82 77
REMARK SMILES IDX 74 78 75 79 81 80 83 81 76 82 77 83 78 84 79 85 80 86 56 87
REMARK SMILES IDX 57 88 66 89 58 90 59 91 65 92 67 93 60 94 61 95 62 96 63 97
REMARK SMILES IDX 64 98
REMARK H PARENT 5 22 5 23 88 48 54 59
REMARK Flexibility Score: inf
ROOT
ATOM      1  C   UNL A   1      35.885  20.788  25.007  1.00  0.00     0.188 C 
ENDROOT
BRANCH   1   2
ATOM      2  O   UNL A   1      34.509  20.982  24.781  1.00  0.00    -0.376 OA
BRANCH   2   3
ATOM      3  C   UNL A   1      33.643  21.327  25.848  1.00  0.00     0.202 C 
BRANCH   3   4
ATOM      4  C   UNL A   1      32.378  22.203  25.752  1.00  0.00     0.261 C 
BRANCH   4   5
ATOM      5  O   UNL A   1      32.069  23.075  26.842  1.00  0.00    -0.460 OA
BRANCH   5   6
ATOM      6  C   UNL A   1      30.842  23.650  26.791  1.00  0.00     0.330 C 
ATOM      7  O   UNL A   1      29.834  23.244  27.350  1.00  0.00    -0.247 OA
BRANCH   6   8
ATOM      8  C   UNL A   1      30.833  24.911  26.023  1.00  0.00     0.094 C 
ATOM      9  C   UNL A   1      30.414  25.076  24.758  1.00  0.00     0.018 C 
BRANCH   9  10
ATOM     10  C   UNL A   1      30.440  26.396  24.099  1.00  0.00    -0.002 A 
ATOM     11  C   UNL A   1      31.643  27.097  23.843  1.00  0.00     0.044 A 
ATOM     12  C   UNL A   1      31.538  28.299  23.114  1.00  0.00     0.026 A 
ATOM     13  C   UNL A   1      30.311  28.843  22.730  1.00  0.00     0.002 A 
ATOM     14  C   UNL A   1      29.201  26.983  23.754  1.00  0.00     0.010 A 
ATOM     15  C   UNL A   1      29.137  28.199  23.077  1.00  0.00     0.001 A 
BRANCH  11  16
ATOM     16  N   UNL A   1      32.899  26.669  24.253  1.00  0.00    -0.365 N 
ATOM     17  C   UNL A   1      33.596  27.321  25.348  1.00  0.00     0.144 C 
BRANCH  16  18
ATOM     18  C   UNL A   1      33.555  25.542  23.574  1.00  0.00     0.215 C 
BRANCH  18  19
ATOM     19  C   UNL A   1      33.246  25.484  22.072  1.00  0.00     0.236 C 
ATOM     20  N   UNL A   1      32.452  24.439  21.673  1.00  0.00    -0.368 N 
ATOM     21  O   UNL A   1      33.669  26.286  21.245  1.00  0.00    -0.273 OA
ATOM     22  H   UNL A   1      32.113  23.797  22.337  1.00  0.00     0.159 HD
ATOM     23  H   UNL A   1      32.221  24.333  20.722  1.00  0.00     0.159 HD
ENDBRANCH  18  19
ENDBRANCH  16  18
ENDBRANCH  11  16
ENDBRANCH   9  10
ENDBRANCH   6   8
ENDBRANCH   5   6
ENDBRANCH   4   5
ENDBRANCH   3   4
ENDBRANCH   2   3
ENDBRANCH   1   2
BRANCH   1  24
ATOM     24  C   UNL A   1      36.634  21.958  25.671  1.00  0.00     0.188 C 
BRANCH  24  25
ATOM     25  O   UNL A   1      37.976  22.230  25.319  1.00  0.00    -0.376 OA
BRANCH  25  26
ATOM     26  C   UNL A   1      38.852  22.782  26.291  1.00  0.00     0.202 C 
BRANCH  26  27
ATOM     27  C   UNL A   1      40.329  22.365  26.466  1.00  0.00     0.261 C 
BRANCH  27  28
ATOM     28  O   UNL A   1      41.170  23.209  27.260  1.00  0.00    -0.460 OA
BRANCH  28  29
ATOM     29  C   UNL A   1      41.532  24.387  26.694  1.00  0.00     0.338 C 
ATOM     30  O   UNL A   1      41.727  24.611  25.508  1.00  0.00    -0.246 OA
BRANCH  29  31
ATOM     31  C   UNL A   1      41.486  25.439  27.727  1.00  0.00     0.060 A 
ATOM     32  C   UNL A   1      40.307  25.626  28.464  1.00  0.00     0.016 A 
ATOM     33  C   UNL A   1      42.605  26.236  27.965  1.00  0.00     0.016 A 
ATOM     34  C   UNL A   1      40.256  26.594  29.469  1.00  0.00     0.010 A 
ATOM     35  C   UNL A   1      42.539  27.226  28.948  1.00  0.00     0.010 A 
ATOM     36  C   UNL A   1      41.366  27.412  29.704  1.00  0.00    -0.014 A 
BRANCH  36  37
ATOM     37  C   UNL A   1      41.291  28.533  30.670  1.00  0.00     0.031 A 
ATOM     38  C   UNL A   1      42.203  28.528  31.862  1.00  0.00     0.074 A 
ATOM     39  C   UNL A   1      40.393  29.522  30.506  1.00  0.00     0.049 A 
ATOM     40  N   UNL A   1      42.206  29.314  32.906  1.00  0.00    -0.248 NA
ATOM     41  C   UNL A   1      43.248  27.493  31.880  1.00  0.00     0.031 C 
ATOM     42  C   UNL A   1      39.489  29.660  29.365  1.00  0.00     0.029 A 
ATOM     43  N   UNL A   1      40.075  30.581  31.320  1.00  0.00    -0.354 N 
ATOM     44  C   UNL A   1      43.246  28.866  33.712  1.00  0.00     0.074 A 
ATOM     45  C   UNL A   1      43.835  27.725  33.046  1.00  0.00     0.031 C 
ATOM     46  C   UNL A   1      38.691  30.722  29.570  1.00  0.00     0.029 A 
ATOM     47  C   UNL A   1      38.997  31.309  30.873  1.00  0.00     0.049 A 
ATOM     48  H   UNL A   1      40.571  30.798  32.142  1.00  0.00     0.167 HD
ATOM     49  C   UNL A   1      43.669  29.366  34.898  1.00  0.00     0.037 A 
ATOM     50  C   UNL A   1      38.306  32.301  31.471  1.00  0.00     0.037 A 
ATOM     51  C   UNL A   1      43.061  30.490  35.560  1.00  0.00     0.049 A 
ATOM     52  C   UNL A   1      38.726  32.775  32.840  1.00  0.00     0.074 A 
ATOM     53  C   UNL A   1      43.422  31.080  36.759  1.00  0.00     0.029 A 
ATOM     54  N   UNL A   1      41.955  31.186  35.091  1.00  0.00    -0.354 N 
ATOM     55  N   UNL A   1      39.725  32.363  33.584  1.00  0.00    -0.248 NA
ATOM     56  C   UNL A   1      37.922  33.841  33.454  1.00  0.00     0.031 C 
ATOM     57  C   UNL A   1      42.499  32.091  37.044  1.00  0.00     0.029 A 
ATOM     58  C   UNL A   1      41.598  32.174  35.994  1.00  0.00     0.049 A 
ATOM     59  H   UNL A   1      41.493  31.004  34.241  1.00  0.00     0.167 HD
ATOM     60  C   UNL A   1      39.679  33.130  34.745  1.00  0.00     0.074 A 
ATOM     61  C   UNL A   1      38.566  34.043  34.597  1.00  0.00     0.031 C 
ATOM     62  C   UNL A   1      40.485  33.079  35.835  1.00  0.00     0.037 A 
BRANCH  49  63
ATOM     63  C   UNL A   1      44.824  28.676  35.570  1.00  0.00     0.058 A 
ATOM     64  C   UNL A   1      46.154  29.058  35.331  1.00  0.00     0.135 A 
ATOM     65  C   UNL A   1      44.598  27.635  36.486  1.00  0.00     0.135 A 
ATOM     66  F   UNL A   1      46.430  30.035  34.453  1.00  0.00    -0.206 F 
ATOM     67  C   UNL A   1      47.219  28.413  35.953  1.00  0.00     0.059 A 
ATOM     68  C   UNL A   1      45.646  26.997  37.142  1.00  0.00     0.059 A 
ATOM     69  F   UNL A   1      43.347  27.228  36.751  1.00  0.00    -0.206 F 
ATOM     70  C   UNL A   1      46.955  27.383  36.856  1.00  0.00     0.060 A 
BRANCH  70  71
ATOM     71  S   UNL A   1      48.349  26.555  37.649  1.00  0.00     0.124 S 
ATOM     72  O   UNL A   1      49.133  27.692  38.120  1.00  0.00    -0.237 OA
ATOM     73  O   UNL A   1      47.694  25.764  38.685  1.00  0.00    -0.237 OA
ATOM     74  O   UNL A   1      48.951  25.786  36.564  1.00  0.00    -0.744 OA
ENDBRANCH  70  71
ENDBRANCH  49  63
BRANCH  50  75
ATOM     75  C   UNL A   1      37.114  32.885  30.796  1.00  0.00     0.058 A 
ATOM     76  C   UNL A   1      35.821  32.419  31.072  1.00  0.00     0.135 A 
ATOM     77  C   UNL A   1      37.245  33.929  29.864  1.00  0.00     0.135 A 
ATOM     78  F   UNL A   1      35.642  31.413  31.941  1.00  0.00    -0.206 F 
ATOM     79  C   UNL A   1      34.702  32.959  30.446  1.00  0.00     0.059 A 
ATOM     80  C   UNL A   1      36.140  34.505  29.247  1.00  0.00     0.059 A 
ATOM     81  F   UNL A   1      38.460  34.415  29.566  1.00  0.00    -0.206 F 
ATOM     82  C   UNL A   1      34.871  34.007  29.540  1.00  0.00     0.060 A 
BRANCH  82  83
ATOM     83  S   UNL A   1      33.406  34.738  28.777  1.00  0.00     0.124 S 
ATOM     84  O   UNL A   1      33.019  33.699  27.829  1.00  0.00    -0.237 OA
ATOM     85  O   UNL A   1      32.521  34.915  29.925  1.00  0.00    -0.237 OA
ATOM     86  O   UNL A   1      33.913  35.972  28.188  1.00  0.00    -0.744 OA
ENDBRANCH  82  83
ENDBRANCH  50  75
BRANCH  62  87
ATOM     87  C   UNL A   1      40.211  34.047  36.956  1.00  0.00     0.058 A 
ATOM     88  C   UNL A   1      40.774  35.333  36.973  1.00  0.00     0.135 A 
ATOM     89  C   UNL A   1      39.307  33.717  37.980  1.00  0.00     0.135 A 
ATOM     90  F   UNL A   1      41.652  35.698  36.025  1.00  0.00    -0.206 F 
ATOM     91  C   UNL A   1      40.458  36.253  37.968  1.00  0.00     0.059 A 
ATOM     92  C   UNL A   1      38.953  34.632  38.969  1.00  0.00     0.059 A 
ATOM     93  F   UNL A   1      38.732  32.504  38.009  1.00  0.00    -0.206 F 
ATOM     94  C   UNL A   1      39.538  35.896  38.956  1.00  0.00     0.060 A 
BRANCH  94  95
ATOM     95  S   UNL A   1      39.090  37.125  40.202  1.00  0.00     0.124 S 
ATOM     96  O   UNL A   1      38.277  36.334  41.119  1.00  0.00    -0.237 OA
ATOM     97  O   UNL A   1      40.394  37.543  40.708  1.00  0.00    -0.237 OA
ATOM     98  O   UNL A   1      38.368  38.138  39.437  1.00  0.00    -0.744 OA
ENDBRANCH  94  95
ENDBRANCH  62  87
ENDBRANCH  36  37
ENDBRANCH  29  31
ENDBRANCH  28  29
ENDBRANCH  27  28
ENDBRANCH  26  27
ENDBRANCH  25  26
ENDBRANCH  24  25
ENDBRANCH   1  24
TORSDOF 24
ENDMDL
MODEL 3
REMARK VINA RESULT:      -9.8      6.377     10.866
REMARK SMILES CN(CC(N)=O)c1ccccc1/C=C/C(=O)OCCOCCOCCOC(=O)c1ccc(-c2c3nc(c(-c4c(F)cc(S(=O)(=O)[O-])cc4F)c4ccc([nH]4)c(-c4c(F)cc(S(=O)(=O)[O-])cc4F)c4nc(c(-c5c(F)cc(S(=O)(=O)[O-])cc5F)c5ccc2[nH]5)C=C4)C=C3)cc1
REMARK SMILES IDX 21 1 20 2 19 3 18 4 17 5 15 6 16 7 14 8 13 9 12 10 7 11 8 12
REMARK SMILES IDX 9 13 11 14 10 15 2 16 1 17 3 18 4 19 5 20 6 21 22 24 23 25
REMARK SMILES IDX 24 26 25 27 26 28 27 29 28 30 29 31 30 32 94 33 31 34 93 35
REMARK SMILES IDX 32 36 33 37 34 38 87 39 35 40 92 41 86 42 88 43 36 44 91 45
REMARK SMILES IDX 85 46 84 47 37 49 71 50 50 51 70 52 51 53 54 54 69 55 89 56
REMARK SMILES IDX 52 57 53 58 68 60 90 61 55 62 38 63 39 64 48 65 40 66 41 67
REMARK SMILES IDX 47 68 49 69 42 70 43 71 44 72 45 73 46 74 72 75 73 76 82 77
REMARK SMILES IDX 74 78 75 79 81 80 83 81 76 82 77 83 78 84 79 85 80 86 56 87
REMARK SMILES IDX 57 88 66 89 58 90 59 91 65 92 67 93 60 94 61 95 62 96 63 97
REMARK SMILES IDX 64 98
REMARK H PARENT 5 22 5 23 88 48 54 59
REMARK Flexibility Score: inf
ROOT
ATOM      1  C   UNL A   1      35.025  20.121  25.137  1.00  0.00     0.188 C 
ENDROOT
BRANCH   1   2
ATOM      2  O   UNL A   1      33.823  20.565  24.554  1.00  0.00    -0.376 OA
BRANCH   2   3
ATOM      3  C   UNL A   1      32.680  20.808  25.354  1.00  0.00     0.202 C 
BRANCH   3   4
ATOM      4  C   UNL A   1      31.512  21.756  25.014  1.00  0.00     0.261 C 
BRANCH   4   5
ATOM      5  O   UNL A   1      30.757  22.321  26.089  1.00  0.00    -0.460 OA
BRANCH   5   6
ATOM      6  C   UNL A   1      31.143  23.561  26.476  1.00  0.00     0.330 C 
ATOM      7  O   UNL A   1      31.848  23.828  27.437  1.00  0.00    -0.247 OA
BRANCH   6   8
ATOM      8  C   UNL A   1      30.675  24.619  25.556  1.00  0.00     0.094 C 
ATOM      9  C   UNL A   1      30.773  25.944  25.745  1.00  0.00     0.018 C 
BRANCH   9  10
ATOM     10  C   UNL A   1      30.280  26.908  24.741  1.00  0.00    -0.002 A 
ATOM     11  C   UNL A   1      31.053  28.007  24.296  1.00  0.00     0.044 A 
ATOM     12  C   UNL A   1      30.508  28.792  23.259  1.00  0.00     0.026 A 
ATOM     13  C   UNL A   1      29.230  28.573  22.740  1.00  0.00     0.002 A 
ATOM     14  C   UNL A   1      28.968  26.730  24.248  1.00  0.00     0.010 A 
ATOM     15  C   UNL A   1      28.445  27.557  23.256  1.00  0.00     0.001 A 
BRANCH  11  16
ATOM     16  N   UNL A   1      32.300  28.344  24.807  1.00  0.00    -0.365 N 
ATOM     17  C   UNL A   1      32.460  29.458  25.726  1.00  0.00     0.144 C 
BRANCH  16  18
ATOM     18  C   UNL A   1      33.491  27.578  24.415  1.00  0.00     0.215 C 
BRANCH  18  19
ATOM     19  C   UNL A   1      33.418  27.046  22.978  1.00  0.00     0.236 C 
ATOM     20  N   UNL A   1      33.633  27.975  21.993  1.00  0.00    -0.368 N 
ATOM     21  O   UNL A   1      33.173  25.880  22.682  1.00  0.00    -0.273 OA
ATOM     22  H   UNL A   1      33.829  28.910  22.232  1.00  0.00     0.159 HD
ATOM     23  H   UNL A   1      33.591  27.707  21.046  1.00  0.00     0.159 HD
ENDBRANCH  18  19
ENDBRANCH  16  18
ENDBRANCH  11  16
ENDBRANCH   9  10
ENDBRANCH   6   8
ENDBRANCH   5   6
ENDBRANCH   4   5
ENDBRANCH   3   4
ENDBRANCH   2   3
ENDBRANCH   1   2
BRANCH   1  24
ATOM     24  C   UNL A   1      36.152  21.165  25.245  1.00  0.00     0.188 C 
BRANCH  24  25
ATOM     25  O   UNL A   1      37.404  20.921  24.634  1.00  0.00    -0.376 OA
BRANCH  25  26
ATOM     26  C   UNL A   1      38.571  20.858  25.441  1.00  0.00     0.202 C 
BRANCH  26  27
ATOM     27  C   UNL A   1      39.507  19.633  25.521  1.00  0.00     0.261 C 
BRANCH  27  28
ATOM     28  O   UNL A   1      40.514  19.629  26.540  1.00  0.00    -0.460 OA
BRANCH  28  29
ATOM     29  C   UNL A   1      41.796  19.718  26.108  1.00  0.00     0.338 C 
ATOM     30  O   UNL A   1      42.403  18.913  25.417  1.00  0.00    -0.246 OA
BRANCH  29  31
ATOM     31  C   UNL A   1      42.318  21.054  26.456  1.00  0.00     0.060 A 
ATOM     32  C   UNL A   1      42.602  21.968  25.431  1.00  0.00     0.016 A 
ATOM     33  C   UNL A   1      42.524  21.399  27.790  1.00  0.00     0.016 A 
ATOM     34  C   UNL A   1      43.065  23.247  25.742  1.00  0.00     0.010 A 
ATOM     35  C   UNL A   1      43.020  22.668  28.096  1.00  0.00     0.010 A 
ATOM     36  C   UNL A   1      43.294  23.598  27.076  1.00  0.00    -0.014 A 
BRANCH  36  37
ATOM     37  C   UNL A   1      43.911  24.900  27.423  1.00  0.00     0.031 A 
ATOM     38  C   UNL A   1      43.025  26.032  27.857  1.00  0.00     0.074 A 
ATOM     39  C   UNL A   1      45.240  25.081  27.314  1.00  0.00     0.049 A 
ATOM     40  N   UNL A   1      43.326  27.288  28.057  1.00  0.00    -0.248 NA
ATOM     41  C   UNL A   1      41.611  25.702  28.091  1.00  0.00     0.031 C 
ATOM     42  C   UNL A   1      46.205  24.045  26.949  1.00  0.00     0.029 A 
ATOM     43  N   UNL A   1      46.001  26.213  27.470  1.00  0.00    -0.354 N 
ATOM     44  C   UNL A   1      42.137  27.904  28.433  1.00  0.00     0.074 A 
ATOM     45  C   UNL A   1      41.109  26.886  28.409  1.00  0.00     0.031 C 
ATOM     46  C   UNL A   1      47.427  24.598  26.873  1.00  0.00     0.029 A 
ATOM     47  C   UNL A   1      47.324  26.032  27.138  1.00  0.00     0.049 A 
ATOM     48  H   UNL A   1      45.637  27.070  27.789  1.00  0.00     0.167 HD
ATOM     49  C   UNL A   1      41.928  29.200  28.768  1.00  0.00     0.037 A 
ATOM     50  C   UNL A   1      48.323  26.929  27.013  1.00  0.00     0.037 A 
ATOM     51  C   UNL A   1      42.957  30.207  28.768  1.00  0.00     0.049 A 
ATOM     52  C   UNL A   1      48.047  28.387  27.287  1.00  0.00     0.074 A 
ATOM     53  C   UNL A   1      42.850  31.545  29.103  1.00  0.00     0.029 A 
ATOM     54  N   UNL A   1      44.279  29.992  28.401  1.00  0.00    -0.354 N 
ATOM     55  N   UNL A   1      46.927  28.956  27.665  1.00  0.00    -0.248 NA
ATOM     56  C   UNL A   1      49.166  29.324  27.112  1.00  0.00     0.031 C 
ATOM     57  C   UNL A   1      44.089  32.152  28.879  1.00  0.00     0.029 A 
ATOM     58  C   UNL A   1      44.987  31.182  28.465  1.00  0.00     0.049 A 
ATOM     59  H   UNL A   1      44.657  29.124  28.135  1.00  0.00     0.167 HD
ATOM     60  C   UNL A   1      47.211  30.314  27.788  1.00  0.00     0.074 A 
ATOM     61  C   UNL A   1      48.612  30.477  27.463  1.00  0.00     0.031 C 
ATOM     62  C   UNL A   1      46.385  31.332  28.137  1.00  0.00     0.037 A 
BRANCH  49  63
ATOM     63  C   UNL A   1      40.526  29.606  29.129  1.00  0.00     0.058 A 
ATOM     64  C   UNL A   1      39.513  29.703  28.162  1.00  0.00     0.135 A 
ATOM     65  C   UNL A   1      40.183  29.877  30.464  1.00  0.00     0.135 A 
ATOM     66  F   UNL A   1      39.786  29.472  26.868  1.00  0.00    -0.206 F 
ATOM     67  C   UNL A   1      38.217  30.084  28.502  1.00  0.00     0.059 A 
ATOM     68  C   UNL A   1      38.888  30.229  30.830  1.00  0.00     0.059 A 
ATOM     69  F   UNL A   1      41.113  29.800  31.429  1.00  0.00    -0.206 F 
ATOM     70  C   UNL A   1      37.915  30.345  29.839  1.00  0.00     0.060 A 
BRANCH  70  71
ATOM     71  S   UNL A   1      36.231  30.843  30.259  1.00  0.00     0.124 S 
ATOM     72  O   UNL A   1      35.532  30.591  29.003  1.00  0.00    -0.237 OA
ATOM     73  O   UNL A   1      35.905  29.939  31.357  1.00  0.00    -0.237 OA
ATOM     74  O   UNL A   1      36.372  32.248  30.627  1.00  0.00    -0.744 OA
ENDBRANCH  70  71
ENDBRANCH  49  63
BRANCH  50  75
ATOM     75  C   UNL A   1      49.670  26.481  26.563  1.00  0.00     0.058 A 
ATOM     76  C   UNL A   1      50.622  26.009  27.478  1.00  0.00     0.135 A 
ATOM     77  C   UNL A   1      50.030  26.511  25.205  1.00  0.00     0.135 A 
ATOM     78  F   UNL A   1      50.334  25.977  28.789  1.00  0.00    -0.206 F 
ATOM     79  C   UNL A   1      51.883  25.588  27.067  1.00  0.00     0.059 A 
ATOM     80  C   UNL A   1      51.274  26.068  24.767  1.00  0.00     0.059 A 
ATOM     81  F   UNL A   1      49.155  26.950  24.287  1.00  0.00    -0.206 F 
ATOM     82  C   UNL A   1      52.197  25.615  25.707  1.00  0.00     0.060 A 
BRANCH  82  83
ATOM     83  S   UNL A   1      53.816  25.014  25.180  1.00  0.00     0.124 S 
ATOM     84  O   UNL A   1      53.597  23.572  25.144  1.00  0.00    -0.237 OA
ATOM     85  O   UNL A   1      53.976  25.667  23.884  1.00  0.00    -0.237 OA
ATOM     86  O   UNL A   1      54.711  25.490  26.230  1.00  0.00    -0.744 OA
ENDBRANCH  82  83
ENDBRANCH  50  75
BRANCH  62  87
ATOM     87  C   UNL A   1      46.969  32.719  28.203  1.00  0.00     0.058 A 
ATOM     88  C   UNL A   1      46.952  33.577  27.092  1.00  0.00     0.135 A 
ATOM     89  C   UNL A   1      47.471  33.226  29.412  1.00  0.00     0.135 A 
ATOM     90  F   UNL A   1      46.493  33.142  25.909  1.00  0.00    -0.206 F 
ATOM     91  C   UNL A   1      47.422  34.885  27.176  1.00  0.00     0.059 A 
ATOM     92  C   UNL A   1      47.918  34.540  29.527  1.00  0.00     0.059 A 
ATOM     93  F   UNL A   1      47.503  32.451  30.509  1.00  0.00    -0.206 F 
ATOM     94  C   UNL A   1      47.893  35.360  28.401  1.00  0.00     0.060 A 
BRANCH  94  95
ATOM     95  S   UNL A   1      48.436  37.079  28.508  1.00  0.00     0.124 S 
ATOM     96  O   UNL A   1      48.173  37.386  29.910  1.00  0.00    -0.237 OA
ATOM     97  O   UNL A   1      49.843  36.985  28.133  1.00  0.00    -0.237 OA
ATOM     98  O   UNL A   1      47.582  37.767  27.545  1.00  0.00    -0.744 OA
ENDBRANCH  94  95
ENDBRANCH  62  87
ENDBRANCH  36  37
ENDBRANCH  29  31
ENDBRANCH  28  29
ENDBRANCH  27  28
ENDBRANCH  26  27
ENDBRANCH  25  26
ENDBRANCH  24  25
ENDBRANCH   1  24
TORSDOF 24
ENDMDL
