MODEL 1
REMARK VINA RESULT:     -10.9      0.000      0.000
REMARK SMILES O=C(OCCOCCOCCOC(=O)c1ccc2nc(-c3cc(F)cc(Br)c3)[nH]c2c1)c1ccc(-c2c3nc(c(-c4c(F)cc(S(=O)(=O)[O-])cc4F)c4ccc([nH]4)c(-c4c(F)cc(S(=O)(=O)[O-])cc4F)c4nc(c(-c5c(F)cc(S(=O)(=O)[O-])cc5F)c5ccc2[nH]5)C=C4)C=C3)cc1
REMARK SMILES IDX 7 1 6 2 5 3 4 4 3 5 2 6 1 7 32 8 33 9 97 10 34 11 96 12
REMARK SMILES IDX 35 13 36 14 37 15 90 16 38 17 95 18 89 19 91 20 39 21 94 22
REMARK SMILES IDX 88 23 87 24 40 26 74 27 53 28 73 29 54 30 57 31 72 32 92 33
REMARK SMILES IDX 55 34 56 35 71 37 93 38 58 39 41 40 42 41 51 42 43 43 44 44
REMARK SMILES IDX 50 45 52 46 45 47 46 48 47 49 48 50 49 51 75 52 76 53 85 54
REMARK SMILES IDX 77 55 78 56 84 57 86 58 79 59 80 60 81 61 82 62 83 63 59 64
REMARK SMILES IDX 60 65 69 66 61 67 62 68 68 69 70 70 63 71 64 72 65 73 66 74
REMARK SMILES IDX 67 75 8 76 9 77 10 78 11 79 12 80 13 81 14 82 15 83 16 84
REMARK SMILES IDX 31 85 17 86 30 87 18 88 29 89 19 90 20 91 21 93 22 94 28 95
REMARK SMILES IDX 23 96 26 97 24 98 25 99 27 100
REMARK H PARENT 91 25 57 36 29 92
REMARK Flexibility Score: inf
ROOT
ATOM      1  C   UNL A   1      35.238  35.569  32.858  1.00  0.00     0.188 C 
ENDROOT
BRANCH   1   2
ATOM      2  O   UNL A   1      35.828  34.954  34.010  1.00  0.00    -0.376 OA
BRANCH   2   3
ATOM      3  C   UNL A   1      35.966  33.535  33.903  1.00  0.00     0.202 C 
BRANCH   3   4
ATOM      4  C   UNL A   1      35.635  32.977  32.514  1.00  0.00     0.261 C 
BRANCH   4   5
ATOM      5  O   UNL A   1      36.766  32.318  31.921  1.00  0.00    -0.460 OA
BRANCH   5   6
ATOM      6  C   UNL A   1      36.879  31.010  31.579  1.00  0.00     0.338 C 
ATOM      7  O   UNL A   1      35.905  30.276  31.738  1.00  0.00    -0.246 OA
BRANCH   6   8
ATOM      8  C   UNL A   1      38.106  30.411  30.967  1.00  0.00     0.060 A 
ATOM      9  C   UNL A   1      39.095  29.713  31.662  1.00  0.00     0.016 A 
ATOM     10  C   UNL A   1      38.238  30.522  29.571  1.00  0.00     0.016 A 
ATOM     11  C   UNL A   1      40.247  29.265  31.023  1.00  0.00     0.010 A 
ATOM     12  C   UNL A   1      39.362  30.014  28.910  1.00  0.00     0.010 A 
ATOM     13  C   UNL A   1      40.396  29.427  29.646  1.00  0.00    -0.014 A 
BRANCH  13  14
ATOM     14  C   UNL A   1      41.694  29.082  29.028  1.00  0.00     0.031 A 
ATOM     15  C   UNL A   1      42.765  30.131  28.965  1.00  0.00     0.074 A 
ATOM     16  C   UNL A   1      41.941  27.817  28.643  1.00  0.00     0.049 A 
ATOM     17  N   UNL A   1      43.965  30.057  28.460  1.00  0.00    -0.248 NA
ATOM     18  C   UNL A   1      42.444  31.436  29.568  1.00  0.00     0.031 C 
ATOM     19  C   UNL A   1      41.000  26.703  28.763  1.00  0.00     0.029 A 
ATOM     20  N   UNL A   1      43.062  27.249  28.096  1.00  0.00    -0.354 N 
ATOM     21  C   UNL A   1      44.540  31.303  28.673  1.00  0.00     0.074 A 
ATOM     22  C   UNL A   1      43.551  32.123  29.335  1.00  0.00     0.031 C 
ATOM     23  C   UNL A   1      41.587  25.583  28.311  1.00  0.00     0.029 A 
ATOM     24  C   UNL A   1      42.918  25.909  27.820  1.00  0.00     0.049 A 
ATOM     25  H   UNL A   1      43.890  27.750  27.918  1.00  0.00     0.167 HD
ATOM     26  C   UNL A   1      45.787  31.719  28.349  1.00  0.00     0.037 A 
ATOM     27  C   UNL A   1      43.758  25.051  27.212  1.00  0.00     0.037 A 
ATOM     28  C   UNL A   1      46.754  30.887  27.687  1.00  0.00     0.049 A 
ATOM     29  C   UNL A   1      45.099  25.561  26.770  1.00  0.00     0.074 A 
ATOM     30  C   UNL A   1      48.026  31.215  27.255  1.00  0.00     0.029 A 
ATOM     31  N   UNL A   1      46.550  29.552  27.362  1.00  0.00    -0.354 N 
ATOM     32  N   UNL A   1      45.614  26.758  26.929  1.00  0.00    -0.248 NA
ATOM     33  C   UNL A   1      45.973  24.616  26.065  1.00  0.00     0.031 C 
ATOM     34  C   UNL A   1      48.578  30.085  26.639  1.00  0.00     0.029 A 
ATOM     35  C   UNL A   1      47.665  29.044  26.721  1.00  0.00     0.049 A 
ATOM     36  H   UNL A   1      45.730  29.043  27.559  1.00  0.00     0.167 HD
ATOM     37  C   UNL A   1      46.877  26.708  26.356  1.00  0.00     0.074 A 
ATOM     38  C   UNL A   1      47.053  25.357  25.859  1.00  0.00     0.031 C 
ATOM     39  C   UNL A   1      47.807  27.689  26.247  1.00  0.00     0.037 A 
BRANCH  26  40
ATOM     40  C   UNL A   1      46.129  33.146  28.664  1.00  0.00     0.058 A 
ATOM     41  C   UNL A   1      45.743  34.203  27.825  1.00  0.00     0.135 A 
ATOM     42  C   UNL A   1      46.895  33.456  29.799  1.00  0.00     0.135 A 
ATOM     43  F   UNL A   1      45.036  33.958  26.710  1.00  0.00    -0.206 F 
ATOM     44  C   UNL A   1      46.137  35.514  28.079  1.00  0.00     0.059 A 
ATOM     45  C   UNL A   1      47.283  34.761  30.084  1.00  0.00     0.059 A 
ATOM     46  F   UNL A   1      47.299  32.479  30.628  1.00  0.00    -0.206 F 
ATOM     47  C   UNL A   1      46.917  35.780  29.206  1.00  0.00     0.060 A 
BRANCH  47  48
ATOM     48  S   UNL A   1      47.464  37.476  29.499  1.00  0.00     0.124 S 
ATOM     49  O   UNL A   1      48.028  37.370  30.841  1.00  0.00    -0.237 OA
ATOM     50  O   UNL A   1      48.426  37.687  28.423  1.00  0.00    -0.237 OA
ATOM     51  O   UNL A   1      46.232  38.251  29.397  1.00  0.00    -0.744 OA
ENDBRANCH  47  48
ENDBRANCH  26  40
BRANCH  27  52
ATOM     52  C   UNL A   1      43.333  23.648  26.958  1.00  0.00     0.058 A 
ATOM     53  C   UNL A   1      43.226  22.715  27.999  1.00  0.00     0.135 A 
ATOM     54  C   UNL A   1      43.003  23.217  25.662  1.00  0.00     0.135 A 
ATOM     55  F   UNL A   1      43.537  23.072  29.254  1.00  0.00    -0.206 F 
ATOM     56  C   UNL A   1      42.813  21.405  27.765  1.00  0.00     0.059 A 
ATOM     57  C   UNL A   1      42.562  21.923  25.406  1.00  0.00     0.059 A 
ATOM     58  F   UNL A   1      43.089  24.072  24.630  1.00  0.00    -0.206 F 
ATOM     59  C   UNL A   1      42.479  21.020  26.465  1.00  0.00     0.060 A 
BRANCH  59  60
ATOM     60  S   UNL A   1      41.895  19.334  26.182  1.00  0.00     0.124 S 
ATOM     61  O   UNL A   1      40.466  19.547  25.987  1.00  0.00    -0.237 OA
ATOM     62  O   UNL A   1      42.650  18.943  24.996  1.00  0.00    -0.237 OA
ATOM     63  O   UNL A   1      42.270  18.638  27.410  1.00  0.00    -0.744 OA
ENDBRANCH  59  60
ENDBRANCH  27  52
BRANCH  39  64
ATOM     64  C   UNL A   1      49.103  27.324  25.588  1.00  0.00     0.058 A 
ATOM     65  C   UNL A   1      49.264  27.405  24.197  1.00  0.00     0.135 A 
ATOM     66  C   UNL A   1      50.208  26.946  26.365  1.00  0.00     0.135 A 
ATOM     67  F   UNL A   1      48.231  27.756  23.416  1.00  0.00    -0.206 F 
ATOM     68  C   UNL A   1      50.481  27.110  23.594  1.00  0.00     0.059 A 
ATOM     69  C   UNL A   1      51.439  26.666  25.784  1.00  0.00     0.059 A 
ATOM     70  F   UNL A   1      50.101  26.862  27.700  1.00  0.00    -0.206 F 
ATOM     71  C   UNL A   1      51.564  26.743  24.397  1.00  0.00     0.060 A 
BRANCH  71  72
ATOM     72  S   UNL A   1      53.153  26.409  23.611  1.00  0.00     0.124 S 
ATOM     73  O   UNL A   1      53.930  27.578  24.011  1.00  0.00    -0.237 OA
ATOM     74  O   UNL A   1      53.548  25.144  24.224  1.00  0.00    -0.237 OA
ATOM     75  O   UNL A   1      52.818  26.332  22.192  1.00  0.00    -0.744 OA
ENDBRANCH  71  72
ENDBRANCH  39  64
ENDBRANCH  13  14
ENDBRANCH   6   8
ENDBRANCH   5   6
ENDBRANCH   4   5
ENDBRANCH   3   4
ENDBRANCH   2   3
ENDBRANCH   1   2
BRANCH   1  76
ATOM     76  C   UNL A   1      34.031  36.422  33.256  1.00  0.00     0.188 C 
BRANCH  76  77
ATOM     77  O   UNL A   1      33.353  37.050  32.166  1.00  0.00    -0.376 OA
BRANCH  77  78
ATOM     78  C   UNL A   1      32.490  36.226  31.387  1.00  0.00     0.202 C 
BRANCH  78  79
ATOM     79  C   UNL A   1      32.899  35.969  29.932  1.00  0.00     0.261 C 
BRANCH  79  80
ATOM     80  O   UNL A   1      32.903  34.590  29.523  1.00  0.00    -0.460 OA
BRANCH  80  81
ATOM     81  C   UNL A   1      34.135  34.108  29.230  1.00  0.00     0.338 C 
ATOM     82  O   UNL A   1      35.213  34.589  29.557  1.00  0.00    -0.246 OA
BRANCH  81  83
ATOM     83  C   UNL A   1      34.054  32.930  28.353  1.00  0.00     0.062 A 
ATOM     84  C   UNL A   1      35.068  31.975  28.497  1.00  0.00     0.018 A 
ATOM     85  C   UNL A   1      32.909  32.693  27.569  1.00  0.00     0.044 A 
ATOM     86  C   UNL A   1      34.946  30.719  27.900  1.00  0.00     0.031 A 
ATOM     87  C   UNL A   1      32.816  31.418  26.991  1.00  0.00     0.067 A 
ATOM     88  C   UNL A   1      33.786  30.436  27.167  1.00  0.00     0.089 A 
ATOM     89  N   UNL A   1      31.858  30.798  26.221  1.00  0.00    -0.338 N 
ATOM     90  N   UNL A   1      33.404  29.260  26.585  1.00  0.00    -0.229 NA
ATOM     91  C   UNL A   1      32.230  29.483  26.034  1.00  0.00     0.138 A 
ATOM     92  H   UNL A   1      31.044  31.221  25.864  1.00  0.00     0.168 HD
BRANCH  91  93
ATOM     93  C   UNL A   1      31.409  28.458  25.401  1.00  0.00     0.021 A 
ATOM     94  C   UNL A   1      30.678  28.703  24.236  1.00  0.00     0.051 A 
ATOM     95  C   UNL A   1      31.401  27.166  25.953  1.00  0.00     0.027 A 
ATOM     96  C   UNL A   1      29.962  27.663  23.644  1.00  0.00     0.125 A 
ATOM     97  C   UNL A   1      30.665  26.143  25.354  1.00  0.00     0.021 A 
ATOM     98  F   UNL A   1      29.274  27.899  22.519  1.00  0.00    -0.207 F 
ATOM     99  C   UNL A   1      29.944  26.385  24.192  1.00  0.00     0.055 A 
ATOM    100  Br  UNL A   1      30.651  24.417  26.126  1.00  0.00    -0.051 Br
ENDBRANCH  91  93
ENDBRANCH  81  83
ENDBRANCH  80  81
ENDBRANCH  79  80
ENDBRANCH  78  79
ENDBRANCH  77  78
ENDBRANCH  76  77
ENDBRANCH   1  76
TORSDOF 21
ENDMDL
MODEL 2
REMARK VINA RESULT:     -10.8      5.940     13.134
REMARK SMILES O=C(OCCOCCOCCOC(=O)c1ccc2nc(-c3cc(F)cc(Br)c3)[nH]c2c1)c1ccc(-c2c3nc(c(-c4c(F)cc(S(=O)(=O)[O-])cc4F)c4ccc([nH]4)c(-c4c(F)cc(S(=O)(=O)[O-])cc4F)c4nc(c(-c5c(F)cc(S(=O)(=O)[O-])cc5F)c5ccc2[nH]5)C=C4)C=C3)cc1
REMARK SMILES IDX 7 1 6 2 5 3 4 4 3 5 2 6 1 7 32 8 33 9 97 10 34 11 96 12
REMARK SMILES IDX 35 13 36 14 37 15 90 16 38 17 95 18 89 19 91 20 39 21 94 22
REMARK SMILES IDX 88 23 87 24 40 26 74 27 53 28 73 29 54 30 57 31 72 32 92 33
REMARK SMILES IDX 55 34 56 35 71 37 93 38 58 39 41 40 42 41 51 42 43 43 44 44
REMARK SMILES IDX 50 45 52 46 45 47 46 48 47 49 48 50 49 51 75 52 76 53 85 54
REMARK SMILES IDX 77 55 78 56 84 57 86 58 79 59 80 60 81 61 82 62 83 63 59 64
REMARK SMILES IDX 60 65 69 66 61 67 62 68 68 69 70 70 63 71 64 72 65 73 66 74
REMARK SMILES IDX 67 75 8 76 9 77 10 78 11 79 12 80 13 81 14 82 15 83 16 84
REMARK SMILES IDX 31 85 17 86 30 87 18 88 29 89 19 90 20 91 21 93 22 94 28 95
REMARK SMILES IDX 23 96 26 97 24 98 25 99 27 100
REMARK H PARENT 91 25 57 36 29 92
REMARK Flexibility Score: inf
ROOT
ATOM      1  C   UNL A   1      45.996  21.540  24.585  1.00  0.00     0.188 C 
ENDROOT
BRANCH   1   2
ATOM      2  O   UNL A   1      45.503  22.726  23.950  1.00  0.00    -0.376 OA
BRANCH   2   3
ATOM      3  C   UNL A   1      44.160  23.062  24.310  1.00  0.00     0.202 C 
BRANCH   3   4
ATOM      4  C   UNL A   1      44.051  23.937  25.565  1.00  0.00     0.261 C 
BRANCH   4   5
ATOM      5  O   UNL A   1      42.745  24.522  25.694  1.00  0.00    -0.460 OA
BRANCH   5   6
ATOM      6  C   UNL A   1      42.431  25.839  25.795  1.00  0.00     0.338 C 
ATOM      7  O   UNL A   1      42.248  26.479  24.761  1.00  0.00    -0.246 OA
BRANCH   6   8
ATOM      8  C   UNL A   1      42.242  26.553  27.096  1.00  0.00     0.060 A 
ATOM      9  C   UNL A   1      41.415  26.127  28.137  1.00  0.00     0.016 A 
ATOM     10  C   UNL A   1      43.002  27.719  27.296  1.00  0.00     0.016 A 
ATOM     11  C   UNL A   1      41.235  26.902  29.278  1.00  0.00     0.010 A 
ATOM     12  C   UNL A   1      42.877  28.469  28.471  1.00  0.00     0.010 A 
ATOM     13  C   UNL A   1      41.951  28.086  29.446  1.00  0.00    -0.014 A 
BRANCH  13  14
ATOM     14  C   UNL A   1      41.621  28.959  30.592  1.00  0.00     0.031 A 
ATOM     15  C   UNL A   1      42.523  28.944  31.793  1.00  0.00     0.074 A 
ATOM     16  C   UNL A   1      40.601  29.832  30.504  1.00  0.00     0.049 A 
ATOM     17  N   UNL A   1      42.422  29.612  32.909  1.00  0.00    -0.248 NA
ATOM     18  C   UNL A   1      43.707  28.072  31.715  1.00  0.00     0.031 C 
ATOM     19  C   UNL A   1      39.735  29.994  29.336  1.00  0.00     0.029 A 
ATOM     20  N   UNL A   1      40.136  30.761  31.397  1.00  0.00    -0.354 N 
ATOM     21  C   UNL A   1      43.520  29.235  33.672  1.00  0.00     0.074 A 
ATOM     22  C   UNL A   1      44.264  28.265  32.900  1.00  0.00     0.031 C 
ATOM     23  C   UNL A   1      38.847  30.971  29.583  1.00  0.00     0.029 A 
ATOM     24  C   UNL A   1      39.046  31.463  30.939  1.00  0.00     0.049 A 
ATOM     25  H   UNL A   1      40.542  30.911  32.281  1.00  0.00     0.167 HD
ATOM     26  C   UNL A   1      43.874  29.668  34.904  1.00  0.00     0.037 A 
ATOM     27  C   UNL A   1      38.277  32.378  31.558  1.00  0.00     0.037 A 
ATOM     28  C   UNL A   1      43.117  30.631  35.655  1.00  0.00     0.049 A 
ATOM     29  C   UNL A   1      38.631  32.770  32.963  1.00  0.00     0.074 A 
ATOM     30  C   UNL A   1      43.343  31.103  36.935  1.00  0.00     0.029 A 
ATOM     31  N   UNL A   1      41.979  31.273  35.185  1.00  0.00    -0.354 N 
ATOM     32  N   UNL A   1      39.643  32.368  33.697  1.00  0.00    -0.248 NA
ATOM     33  C   UNL A   1      37.746  33.732  33.630  1.00  0.00     0.031 C 
ATOM     34  C   UNL A   1      42.321  32.006  37.250  1.00  0.00     0.029 A 
ATOM     35  C   UNL A   1      41.481  32.126  36.154  1.00  0.00     0.049 A 
ATOM     36  H   UNL A   1      41.583  31.140  34.293  1.00  0.00     0.167 HD
ATOM     37  C   UNL A   1      39.524  33.035  34.908  1.00  0.00     0.074 A 
ATOM     38  C   UNL A   1      38.350  33.880  34.802  1.00  0.00     0.031 C 
ATOM     39  C   UNL A   1      40.312  32.958  36.009  1.00  0.00     0.037 A 
BRANCH  26  40
ATOM     40  C   UNL A   1      45.101  29.052  35.512  1.00  0.00     0.058 A 
ATOM     41  C   UNL A   1      46.375  29.614  35.338  1.00  0.00     0.135 A 
ATOM     42  C   UNL A   1      45.005  27.856  36.241  1.00  0.00     0.135 A 
ATOM     43  F   UNL A   1      46.526  30.740  34.623  1.00  0.00    -0.206 F 
ATOM     44  C   UNL A   1      47.518  28.991  35.833  1.00  0.00     0.059 A 
ATOM     45  C   UNL A   1      46.132  27.226  36.762  1.00  0.00     0.059 A 
ATOM     46  F   UNL A   1      43.811  27.272  36.426  1.00  0.00    -0.206 F 
ATOM     47  C   UNL A   1      47.385  27.791  36.534  1.00  0.00     0.060 A 
BRANCH  47  48
ATOM     48  S   UNL A   1      48.878  26.966  37.129  1.00  0.00     0.124 S 
ATOM     49  O   UNL A   1      49.625  28.089  37.688  1.00  0.00    -0.237 OA
ATOM     50  O   UNL A   1      48.347  26.013  38.097  1.00  0.00    -0.237 OA
ATOM     51  O   UNL A   1      49.444  26.378  35.919  1.00  0.00    -0.744 OA
ENDBRANCH  47  48
ENDBRANCH  26  40
BRANCH  27  52
ATOM     52  C   UNL A   1      37.089  32.945  30.864  1.00  0.00     0.058 A 
ATOM     53  C   UNL A   1      35.788  32.533  31.186  1.00  0.00     0.135 A 
ATOM     54  C   UNL A   1      37.233  33.933  29.876  1.00  0.00     0.135 A 
ATOM     55  F   UNL A   1      35.594  31.587  32.117  1.00  0.00    -0.206 F 
ATOM     56  C   UNL A   1      34.674  33.074  30.549  1.00  0.00     0.059 A 
ATOM     57  C   UNL A   1      36.135  34.508  29.245  1.00  0.00     0.059 A 
ATOM     58  F   UNL A   1      38.458  34.361  29.532  1.00  0.00    -0.206 F 
ATOM     59  C   UNL A   1      34.858  34.064  29.582  1.00  0.00     0.060 A 
BRANCH  59  60
ATOM     60  S   UNL A   1      33.402  34.796  28.801  1.00  0.00     0.124 S 
ATOM     61  O   UNL A   1      32.469  34.860  29.918  1.00  0.00    -0.237 OA
ATOM     62  O   UNL A   1      33.920  36.077  28.327  1.00  0.00    -0.237 OA
ATOM     63  O   UNL A   1      33.068  33.840  27.750  1.00  0.00    -0.744 OA
ENDBRANCH  59  60
ENDBRANCH  27  52
BRANCH  39  64
ATOM     64  C   UNL A   1      39.939  33.828  37.171  1.00  0.00     0.058 A 
ATOM     65  C   UNL A   1      38.946  33.444  38.083  1.00  0.00     0.135 A 
ATOM     66  C   UNL A   1      40.626  35.030  37.403  1.00  0.00     0.135 A 
ATOM     67  F   UNL A   1      38.259  32.306  37.896  1.00  0.00    -0.206 F 
ATOM     68  C   UNL A   1      38.635  34.232  39.185  1.00  0.00     0.059 A 
ATOM     69  C   UNL A   1      40.345  35.822  38.509  1.00  0.00     0.059 A 
ATOM     70  F   UNL A   1      41.590  35.432  36.559  1.00  0.00    -0.206 F 
ATOM     71  C   UNL A   1      39.343  35.419  39.390  1.00  0.00     0.060 A 
BRANCH  71  72
ATOM     72  S   UNL A   1      38.967  36.412  40.850  1.00  0.00     0.124 S 
ATOM     73  O   UNL A   1      40.300  36.649  41.393  1.00  0.00    -0.237 OA
ATOM     74  O   UNL A   1      38.299  37.575  40.275  1.00  0.00    -0.237 OA
ATOM     75  O   UNL A   1      38.112  35.534  41.643  1.00  0.00    -0.744 OA
ENDBRANCH  71  72
ENDBRANCH  39  64
ENDBRANCH  13  14
ENDBRANCH   6   8
ENDBRANCH   5   6
ENDBRANCH   4   5
ENDBRANCH   3   4
ENDBRANCH   2   3
ENDBRANCH   1   2
BRANCH   1  76
ATOM     76  C   UNL A   1      45.041  20.366  24.359  1.00  0.00     0.188 C 
BRANCH  76  77
ATOM     77  O   UNL A   1      44.713  19.623  25.535  1.00  0.00    -0.376 OA
BRANCH  77  78
ATOM     78  C   UNL A   1      43.612  18.723  25.439  1.00  0.00     0.202 C 
BRANCH  78  79
ATOM     79  C   UNL A   1      42.286  19.175  26.062  1.00  0.00     0.261 C 
BRANCH  79  80
ATOM     80  O   UNL A   1      41.809  20.463  25.638  1.00  0.00    -0.460 OA
BRANCH  80  81
ATOM     81  C   UNL A   1      41.560  21.319  26.658  1.00  0.00     0.338 C 
ATOM     82  O   UNL A   1      42.297  21.579  27.600  1.00  0.00    -0.246 OA
BRANCH  81  83
ATOM     83  C   UNL A   1      40.201  21.876  26.570  1.00  0.00     0.062 A 
ATOM     84  C   UNL A   1      40.022  23.168  27.080  1.00  0.00     0.018 A 
ATOM     85  C   UNL A   1      39.200  21.219  25.829  1.00  0.00     0.044 A 
ATOM     86  C   UNL A   1      38.846  23.875  26.819  1.00  0.00     0.031 A 
ATOM     87  C   UNL A   1      38.037  21.962  25.580  1.00  0.00     0.067 A 
ATOM     88  C   UNL A   1      37.861  23.267  26.031  1.00  0.00     0.089 A 
ATOM     89  N   UNL A   1      36.884  21.702  24.872  1.00  0.00    -0.338 N 
ATOM     90  N   UNL A   1      36.689  23.792  25.566  1.00  0.00    -0.229 NA
ATOM     91  C   UNL A   1      36.116  22.848  24.851  1.00  0.00     0.138 A 
ATOM     92  H   UNL A   1      36.647  20.844  24.453  1.00  0.00     0.168 HD
BRANCH  91  93
ATOM     93  C   UNL A   1      34.892  23.026  24.078  1.00  0.00     0.021 A 
ATOM     94  C   UNL A   1      33.937  22.015  23.951  1.00  0.00     0.051 A 
ATOM     95  C   UNL A   1      34.644  24.278  23.490  1.00  0.00     0.027 A 
ATOM     96  C   UNL A   1      32.759  22.269  23.250  1.00  0.00     0.125 A 
ATOM     97  C   UNL A   1      33.466  24.507  22.781  1.00  0.00     0.021 A 
ATOM     98  F   UNL A   1      31.838  21.301  23.143  1.00  0.00    -0.207 F 
ATOM     99  C   UNL A   1      32.512  23.504  22.660  1.00  0.00     0.055 A 
ATOM    100  Br  UNL A   1      33.162  26.193  21.979  1.00  0.00    -0.051 Br
ENDBRANCH  91  93
ENDBRANCH  81  83
ENDBRANCH  80  81
ENDBRANCH  79  80
ENDBRANCH  78  79
ENDBRANCH  77  78
ENDBRANCH  76  77
ENDBRANCH   1  76
TORSDOF 21
ENDMDL
MODEL 3
REMARK VINA RESULT:     -10.6      1.396      8.233
REMARK SMILES O=C(OCCOCCOCCOC(=O)c1ccc2nc(-c3cc(F)cc(Br)c3)[nH]c2c1)c1ccc(-c2c3nc(c(-c4c(F)cc(S(=O)(=O)[O-])cc4F)c4ccc([nH]4)c(-c4c(F)cc(S(=O)(=O)[O-])cc4F)c4nc(c(-c5c(F)cc(S(=O)(=O)[O-])cc5F)c5ccc2[nH]5)C=C4)C=C3)cc1
REMARK SMILES IDX 7 1 6 2 5 3 4 4 3 5 2 6 1 7 32 8 33 9 97 10 34 11 96 12
REMARK SMILES IDX 35 13 36 14 37 15 90 16 38 17 95 18 89 19 91 20 39 21 94 22
REMARK SMILES IDX 88 23 87 24 40 26 74 27 53 28 73 29 54 30 57 31 72 32 92 33
REMARK SMILES IDX 55 34 56 35 71 37 93 38 58 39 41 40 42 41 51 42 43 43 44 44
REMARK SMILES IDX 50 45 52 46 45 47 46 48 47 49 48 50 49 51 75 52 76 53 85 54
REMARK SMILES IDX 77 55 78 56 84 57 86 58 79 59 80 60 81 61 82 62 83 63 59 64
REMARK SMILES IDX 60 65 69 66 61 67 62 68 68 69 70 70 63 71 64 72 65 73 66 74
REMARK SMILES IDX 67 75 8 76 9 77 10 78 11 79 12 80 13 81 14 82 15 83 16 84
REMARK SMILES IDX 31 85 17 86 30 87 18 88 29 89 19 90 20 91 21 93 22 94 28 95
REMARK SMILES IDX 23 96 26 97 24 98 25 99 27 100
REMARK H PARENT 91 25 57 36 29 92
REMARK Flexibility Score: inf
ROOT
ATOM      1  C   UNL A   1      34.947  35.146  32.351  1.00  0.00     0.188 C 
ENDROOT
BRANCH   1   2
ATOM      2  O   UNL A   1      35.123  34.145  33.360  1.00  0.00    -0.376 OA
BRANCH   2   3
ATOM      3  C   UNL A   1      34.947  32.806  32.887  1.00  0.00     0.202 C 
BRANCH   3   4
ATOM      4  C   UNL A   1      35.363  32.600  31.426  1.00  0.00     0.261 C 
BRANCH   4   5
ATOM      5  O   UNL A   1      36.668  32.008  31.322  1.00  0.00    -0.460 OA
BRANCH   5   6
ATOM      6  C   UNL A   1      36.982  30.687  31.308  1.00  0.00     0.338 C 
ATOM      7  O   UNL A   1      36.149  29.882  31.723  1.00  0.00    -0.246 OA
BRANCH   6   8
ATOM      8  C   UNL A   1      38.266  30.142  30.768  1.00  0.00     0.060 A 
ATOM      9  C   UNL A   1      39.221  29.444  31.509  1.00  0.00     0.016 A 
ATOM     10  C   UNL A   1      38.495  30.305  29.390  1.00  0.00     0.016 A 
ATOM     11  C   UNL A   1      40.427  29.048  30.940  1.00  0.00     0.010 A 
ATOM     12  C   UNL A   1      39.677  29.849  28.796  1.00  0.00     0.010 A 
ATOM     13  C   UNL A   1      40.671  29.263  29.584  1.00  0.00    -0.014 A 
BRANCH  13  14
ATOM     14  C   UNL A   1      42.018  28.971  29.051  1.00  0.00     0.031 A 
ATOM     15  C   UNL A   1      42.304  27.594  28.527  1.00  0.00     0.074 A 
ATOM     16  C   UNL A   1      42.924  29.959  28.930  1.00  0.00     0.049 A 
ATOM     17  N   UNL A   1      43.409  27.113  28.028  1.00  0.00    -0.248 NA
ATOM     18  C   UNL A   1      41.186  26.635  28.553  1.00  0.00     0.031 C 
ATOM     19  C   UNL A   1      42.702  31.353  29.313  1.00  0.00     0.029 A 
ATOM     20  N   UNL A   1      44.201  29.949  28.432  1.00  0.00    -0.354 N 
ATOM     21  C   UNL A   1      43.127  25.796  27.691  1.00  0.00     0.074 A 
ATOM     22  C   UNL A   1      41.752  25.545  28.061  1.00  0.00     0.031 C 
ATOM     23  C   UNL A   1      43.803  32.066  29.028  1.00  0.00     0.029 A 
ATOM     24  C   UNL A   1      44.823  31.173  28.496  1.00  0.00     0.049 A 
ATOM     25  H   UNL A   1      44.631  29.144  28.064  1.00  0.00     0.167 HD
ATOM     26  C   UNL A   1      43.945  24.881  27.119  1.00  0.00     0.037 A 
ATOM     27  C   UNL A   1      46.085  31.526  28.188  1.00  0.00     0.037 A 
ATOM     28  C   UNL A   1      45.310  25.152  26.763  1.00  0.00     0.049 A 
ATOM     29  C   UNL A   1      47.005  30.470  27.647  1.00  0.00     0.074 A 
ATOM     30  C   UNL A   1      46.253  24.290  26.233  1.00  0.00     0.029 A 
ATOM     31  N   UNL A   1      45.929  26.387  26.904  1.00  0.00    -0.354 N 
ATOM     32  N   UNL A   1      46.743  29.212  27.381  1.00  0.00    -0.248 NA
ATOM     33  C   UNL A   1      48.389  30.872  27.368  1.00  0.00     0.031 C 
ATOM     34  C   UNL A   1      47.452  24.998  26.084  1.00  0.00     0.029 A 
ATOM     35  C   UNL A   1      47.245  26.310  26.486  1.00  0.00     0.049 A 
ATOM     36  H   UNL A   1      45.494  27.199  27.252  1.00  0.00     0.167 HD
ATOM     37  C   UNL A   1      47.925  28.672  26.891  1.00  0.00     0.074 A 
ATOM     38  C   UNL A   1      48.899  29.747  26.884  1.00  0.00     0.031 C 
ATOM     39  C   UNL A   1      48.184  27.404  26.486  1.00  0.00     0.037 A 
BRANCH  26  40
ATOM     40  C   UNL A   1      43.380  23.507  26.904  1.00  0.00     0.058 A 
ATOM     41  C   UNL A   1      43.235  22.593  27.959  1.00  0.00     0.135 A 
ATOM     42  C   UNL A   1      43.024  23.082  25.615  1.00  0.00     0.135 A 
ATOM     43  F   UNL A   1      43.591  22.938  29.207  1.00  0.00    -0.206 F 
ATOM     44  C   UNL A   1      42.792  21.292  27.738  1.00  0.00     0.059 A 
ATOM     45  C   UNL A   1      42.559  21.793  25.372  1.00  0.00     0.059 A 
ATOM     46  F   UNL A   1      43.155  23.915  24.569  1.00  0.00    -0.206 F 
ATOM     47  C   UNL A   1      42.467  20.899  26.438  1.00  0.00     0.060 A 
BRANCH  47  48
ATOM     48  S   UNL A   1      41.941  19.195  26.155  1.00  0.00     0.124 S 
ATOM     49  O   UNL A   1      42.270  18.575  27.435  1.00  0.00    -0.237 OA
ATOM     50  O   UNL A   1      40.518  19.348  25.872  1.00  0.00    -0.237 OA
ATOM     51  O   UNL A   1      42.759  18.771  25.024  1.00  0.00    -0.744 OA
ENDBRANCH  47  48
ENDBRANCH  26  40
BRANCH  27  52
ATOM     52  C   UNL A   1      46.547  32.921  28.421  1.00  0.00     0.058 A 
ATOM     53  C   UNL A   1      47.053  33.326  29.664  1.00  0.00     0.135 A 
ATOM     54  C   UNL A   1      46.511  33.875  27.391  1.00  0.00     0.135 A 
ATOM     55  F   UNL A   1      47.102  32.456  30.685  1.00  0.00    -0.206 F 
ATOM     56  C   UNL A   1      47.502  34.627  29.880  1.00  0.00     0.059 A 
ATOM     57  C   UNL A   1      46.978  35.173  27.573  1.00  0.00     0.059 A 
ATOM     58  F   UNL A   1      46.035  33.537  26.182  1.00  0.00    -0.206 F 
ATOM     59  C   UNL A   1      47.464  35.542  28.827  1.00  0.00     0.060 A 
BRANCH  59  60
ATOM     60  S   UNL A   1      48.097  37.212  29.104  1.00  0.00     0.124 S 
ATOM     61  O   UNL A   1      46.924  37.884  29.649  1.00  0.00    -0.237 OA
ATOM     62  O   UNL A   1      49.189  36.973  30.042  1.00  0.00    -0.237 OA
ATOM     63  O   UNL A   1      48.511  37.640  27.771  1.00  0.00    -0.744 OA
ENDBRANCH  59  60
ENDBRANCH  27  52
BRANCH  39  64
ATOM     64  C   UNL A   1      49.566  27.125  25.978  1.00  0.00     0.058 A 
ATOM     65  C   UNL A   1      50.606  26.768  26.849  1.00  0.00     0.135 A 
ATOM     66  C   UNL A   1      49.833  27.157  24.601  1.00  0.00     0.135 A 
ATOM     67  F   UNL A   1      50.396  26.732  28.174  1.00  0.00    -0.206 F 
ATOM     68  C   UNL A   1      51.875  26.465  26.370  1.00  0.00     0.059 A 
ATOM     69  C   UNL A   1      51.089  26.837  24.100  1.00  0.00     0.059 A 
ATOM     70  F   UNL A   1      48.865  27.485  23.731  1.00  0.00    -0.206 F 
ATOM     71  C   UNL A   1      52.106  26.500  24.993  1.00  0.00     0.060 A 
BRANCH  71  72
ATOM     72  S   UNL A   1      53.743  26.057  24.376  1.00  0.00     0.124 S 
ATOM     73  O   UNL A   1      53.652  26.474  22.981  1.00  0.00    -0.237 OA
ATOM     74  O   UNL A   1      54.625  26.856  25.222  1.00  0.00    -0.237 OA
ATOM     75  O   UNL A   1      53.808  24.616  24.599  1.00  0.00    -0.744 OA
ENDBRANCH  71  72
ENDBRANCH  39  64
ENDBRANCH  13  14
ENDBRANCH   6   8
ENDBRANCH   5   6
ENDBRANCH   4   5
ENDBRANCH   3   4
ENDBRANCH   2   3
ENDBRANCH   1   2
BRANCH   1  76
ATOM     76  C   UNL A   1      33.509  35.668  32.350  1.00  0.00     0.188 C 
BRANCH  76  77
ATOM     77  O   UNL A   1      33.267  36.763  31.463  1.00  0.00    -0.376 OA
BRANCH  77  78
ATOM     78  C   UNL A   1      32.516  36.482  30.286  1.00  0.00     0.202 C 
BRANCH  78  79
ATOM     79  C   UNL A   1      33.303  36.043  29.045  1.00  0.00     0.261 C 
BRANCH  79  80
ATOM     80  O   UNL A   1      32.860  34.822  28.430  1.00  0.00    -0.460 OA
BRANCH  80  81
ATOM     81  C   UNL A   1      33.856  33.934  28.192  1.00  0.00     0.338 C 
ATOM     82  O   UNL A   1      35.061  34.141  28.260  1.00  0.00    -0.246 OA
BRANCH  81  83
ATOM     83  C   UNL A   1      33.323  32.643  27.730  1.00  0.00     0.062 A 
ATOM     84  C   UNL A   1      32.031  32.658  27.191  1.00  0.00     0.018 A 
ATOM     85  C   UNL A   1      34.153  31.508  27.651  1.00  0.00     0.044 A 
ATOM     86  C   UNL A   1      31.539  31.548  26.502  1.00  0.00     0.031 A 
ATOM     87  C   UNL A   1      33.630  30.415  26.945  1.00  0.00     0.067 A 
ATOM     88  C   UNL A   1      32.369  30.429  26.355  1.00  0.00     0.089 A 
ATOM     89  N   UNL A   1      34.133  29.177  26.612  1.00  0.00    -0.338 N 
ATOM     90  N   UNL A   1      32.147  29.283  25.646  1.00  0.00    -0.229 NA
ATOM     91  C   UNL A   1      33.225  28.542  25.791  1.00  0.00     0.138 A 
ATOM     92  H   UNL A   1      34.996  28.808  26.910  1.00  0.00     0.168 HD
BRANCH  91  93
ATOM     93  C   UNL A   1      33.454  27.277  25.104  1.00  0.00     0.021 A 
ATOM     94  C   UNL A   1      34.036  26.178  25.740  1.00  0.00     0.051 A 
ATOM     95  C   UNL A   1      33.020  27.145  23.773  1.00  0.00     0.027 A 
ATOM     96  C   UNL A   1      34.171  24.976  25.046  1.00  0.00     0.125 A 
ATOM     97  C   UNL A   1      33.178  25.938  23.093  1.00  0.00     0.021 A 
ATOM     98  F   UNL A   1      34.717  23.920  25.665  1.00  0.00    -0.207 F 
ATOM     99  C   UNL A   1      33.751  24.843  23.727  1.00  0.00     0.055 A 
ATOM    100  Br  UNL A   1      32.607  25.789  21.296  1.00  0.00    -0.051 Br
ENDBRANCH  91  93
ENDBRANCH  81  83
ENDBRANCH  80  81
ENDBRANCH  79  80
ENDBRANCH  78  79
ENDBRANCH  77  78
ENDBRANCH  76  77
ENDBRANCH   1  76
TORSDOF 21
ENDMDL
