MODEL 1
REMARK VINA RESULT:     -10.2      0.000      0.000
REMARK SMILES Cc1nc2sc3c(c2c2nc(CCC(=O)OCCOCCOCCOC(=O)c4ccc(-c5c6nc(c(-c7c(F)cc(S(=O)(=O)[O-])cc7F)c7ccc([nH]7)c(-c7c(F)cc(S(=O)(=O)[O-])cc7F)c7nc(c(-c8c(F)cc(S(=O)(=O)[O-])cc8F)c8ccc5[nH]8)C=C7)C=C6)cc4)nn12)[C@@H](C)CCC3
REMARK SMILES IDX 21 1 20 2 19 3 18 4 17 5 16 6 14 7 15 8 13 9 12 10 11 11
REMARK SMILES IDX 1 12 2 13 3 14 95 15 4 16 9 17 94 18 5 19 8 20 10 21 6 22
REMARK SMILES IDX 7 23 100 24 96 25 99 26 97 27 98 28 22 29 23 30 24 31 25 32
REMARK SMILES IDX 26 33 27 34 28 35 29 36 93 37 30 38 92 39 31 40 32 41 33 42
REMARK SMILES IDX 86 43 34 44 91 45 85 46 87 47 35 48 90 49 84 50 83 51 36 53
REMARK SMILES IDX 70 54 49 55 69 56 50 57 53 58 68 59 88 60 51 61 52 62 67 64
REMARK SMILES IDX 89 65 54 66 37 67 38 68 47 69 39 70 40 71 46 72 48 73 41 74
REMARK SMILES IDX 42 75 43 76 44 77 45 78 71 79 72 80 81 81 73 82 74 83 80 84
REMARK SMILES IDX 82 85 75 86 76 87 77 88 78 89 79 90 55 91 56 92 65 93 57 94
REMARK SMILES IDX 58 95 64 96 66 97 59 98 60 99 61 100 62 101 63 102
REMARK H PARENT 87 52 53 63
REMARK Flexibility Score: inf
ROOT
ATOM      1  C   UNL A   1      37.620  22.307  25.432  1.00  0.00     0.188 C 
ENDROOT
BRANCH   1   2
ATOM      2  C   UNL A   1      36.425  21.411  25.648  1.00  0.00     0.188 C 
BRANCH   2   3
ATOM      3  O   UNL A   1      35.184  22.014  25.301  1.00  0.00    -0.376 OA
BRANCH   3   4
ATOM      4  C   UNL A   1      34.276  21.143  24.630  1.00  0.00     0.202 C 
BRANCH   4   5
ATOM      5  C   UNL A   1      33.515  21.773  23.442  1.00  0.00     0.261 C 
BRANCH   5   6
ATOM      6  O   UNL A   1      33.845  23.173  23.217  1.00  0.00    -0.463 OA
BRANCH   6   7
ATOM      7  C   UNL A   1      33.078  23.840  22.316  1.00  0.00     0.306 C 
ATOM      8  O   UNL A   1      33.295  23.837  21.108  1.00  0.00    -0.252 OA
BRANCH   7   9
ATOM      9  C   UNL A   1      31.927  24.643  22.904  1.00  0.00     0.131 C 
BRANCH   9  10
ATOM     10  C   UNL A   1      31.166  25.670  22.065  1.00  0.00     0.091 C 
BRANCH  10  11
ATOM     11  C   UNL A   1      30.972  27.001  22.703  1.00  0.00     0.152 A 
ATOM     12  C   UNL A   1      28.196  30.106  22.442  1.00  0.00     0.090 C 
ATOM     13  C   UNL A   1      29.346  29.981  23.395  1.00  0.00     0.131 A 
ATOM     14  N   UNL A   1      29.623  30.924  24.263  1.00  0.00    -0.222 NA
ATOM     15  N   UNL A   1      30.123  28.821  23.267  1.00  0.00    -0.199 N 
ATOM     16  C   UNL A   1      30.727  30.711  25.053  1.00  0.00     0.129 A 
ATOM     17  C   UNL A   1      31.214  28.586  24.057  1.00  0.00     0.168 A 
ATOM     18  N   UNL A   1      29.970  27.831  22.358  1.00  0.00    -0.150 NA
ATOM     19  S   UNL A   1      31.244  31.868  26.202  1.00  0.00    -0.120 S 
ATOM     20  C   UNL A   1      31.586  29.620  25.051  1.00  0.00     0.060 A 
ATOM     21  N   UNL A   1      31.761  27.443  23.731  1.00  0.00    -0.211 NA
ATOM     22  C   UNL A   1      32.586  30.919  26.660  1.00  0.00     0.011 A 
ATOM     23  C   UNL A   1      32.674  29.724  25.966  1.00  0.00    -0.018 A 
ATOM     24  C   UNL A   1      33.576  31.394  27.681  1.00  0.00     0.047 C 
ATOM     25  C   UNL A   1      33.798  28.752  26.228  1.00  0.00     0.018 C 
ATOM     26  C   UNL A   1      34.382  30.214  28.235  1.00  0.00     0.006 C 
ATOM     27  C   UNL A   1      34.426  28.224  24.950  1.00  0.00     0.013 C 
ATOM     28  C   UNL A   1      34.922  29.349  27.098  1.00  0.00     0.008 C 
ENDBRANCH  10  11
ENDBRANCH   9  10
ENDBRANCH   7   9
ENDBRANCH   6   7
ENDBRANCH   5   6
ENDBRANCH   4   5
ENDBRANCH   3   4
ENDBRANCH   2   3
ENDBRANCH   1   2
BRANCH   1  29
ATOM     29  O   UNL A   1      37.617  23.448  26.310  1.00  0.00    -0.376 OA
BRANCH  29  30
ATOM     30  C   UNL A   1      38.842  24.173  26.407  1.00  0.00     0.202 C 
BRANCH  30  31
ATOM     31  C   UNL A   1      39.955  23.537  27.243  1.00  0.00     0.261 C 
BRANCH  31  32
ATOM     32  O   UNL A   1      40.970  24.482  27.487  1.00  0.00    -0.460 OA
BRANCH  32  33
ATOM     33  C   UNL A   1      41.867  24.553  26.481  1.00  0.00     0.338 C 
ATOM     34  O   UNL A   1      42.254  23.643  25.754  1.00  0.00    -0.246 OA
BRANCH  33  35
ATOM     35  C   UNL A   1      42.305  25.944  26.390  1.00  0.00     0.060 A 
ATOM     36  C   UNL A   1      43.349  26.302  27.231  1.00  0.00     0.016 A 
ATOM     37  C   UNL A   1      41.478  26.883  25.744  1.00  0.00     0.016 A 
ATOM     38  C   UNL A   1      43.266  27.544  27.785  1.00  0.00     0.010 A 
ATOM     39  C   UNL A   1      41.390  28.120  26.298  1.00  0.00     0.010 A 
ATOM     40  C   UNL A   1      42.180  28.345  27.412  1.00  0.00    -0.014 A 
BRANCH  40  41
ATOM     41  C   UNL A   1      41.845  29.434  28.276  1.00  0.00     0.031 A 
ATOM     42  C   UNL A   1      42.931  30.412  28.325  1.00  0.00     0.074 A 
ATOM     43  C   UNL A   1      40.669  29.477  28.920  1.00  0.00     0.049 A 
ATOM     44  N   UNL A   1      43.839  30.498  29.234  1.00  0.00    -0.248 NA
ATOM     45  C   UNL A   1      43.221  31.160  27.093  1.00  0.00     0.031 C 
ATOM     46  C   UNL A   1      39.470  28.654  28.733  1.00  0.00     0.029 A 
ATOM     47  N   UNL A   1      40.288  30.363  29.868  1.00  0.00    -0.354 N 
ATOM     48  C   UNL A   1      44.667  31.517  28.802  1.00  0.00     0.074 A 
ATOM     49  C   UNL A   1      44.411  31.679  27.395  1.00  0.00     0.031 C 
ATOM     50  C   UNL A   1      38.432  29.234  29.382  1.00  0.00     0.029 A 
ATOM     51  C   UNL A   1      38.925  30.378  30.129  1.00  0.00     0.049 A 
ATOM     52  H   UNL A   1      40.926  30.949  30.335  1.00  0.00     0.167 HD
ATOM     53  C   UNL A   1      45.249  32.352  29.700  1.00  0.00     0.037 A 
ATOM     54  C   UNL A   1      38.296  31.358  30.825  1.00  0.00     0.037 A 
ATOM     55  C   UNL A   1      45.220  31.787  31.029  1.00  0.00     0.049 A 
ATOM     56  C   UNL A   1      39.350  32.018  31.661  1.00  0.00     0.074 A 
ATOM     57  C   UNL A   1      45.732  30.632  31.591  1.00  0.00     0.029 A 
ATOM     58  N   UNL A   1      44.234  32.223  31.886  1.00  0.00    -0.354 N 
ATOM     59  N   UNL A   1      39.976  31.411  32.638  1.00  0.00    -0.248 NA
ATOM     60  C   UNL A   1      40.062  33.154  31.088  1.00  0.00     0.031 C 
ATOM     61  C   UNL A   1      44.739  30.190  32.512  1.00  0.00     0.029 A 
ATOM     62  C   UNL A   1      43.701  31.124  32.516  1.00  0.00     0.049 A 
ATOM     63  H   UNL A   1      43.959  33.158  32.024  1.00  0.00     0.167 HD
ATOM     64  C   UNL A   1      41.301  31.819  32.533  1.00  0.00     0.074 A 
ATOM     65  C   UNL A   1      41.279  32.945  31.602  1.00  0.00     0.031 C 
ATOM     66  C   UNL A   1      42.327  31.027  32.970  1.00  0.00     0.037 A 
BRANCH  53  67
ATOM     67  C   UNL A   1      45.462  33.816  29.433  1.00  0.00     0.058 A 
ATOM     68  C   UNL A   1      44.340  34.646  29.279  1.00  0.00     0.135 A 
ATOM     69  C   UNL A   1      46.704  34.385  29.063  1.00  0.00     0.135 A 
ATOM     70  F   UNL A   1      43.111  34.200  29.591  1.00  0.00    -0.206 F 
ATOM     71  C   UNL A   1      44.434  35.923  28.729  1.00  0.00     0.059 A 
ATOM     72  C   UNL A   1      46.828  35.676  28.575  1.00  0.00     0.059 A 
ATOM     73  F   UNL A   1      47.849  33.695  29.053  1.00  0.00    -0.206 F 
ATOM     74  C   UNL A   1      45.683  36.420  28.368  1.00  0.00     0.060 A 
BRANCH  74  75
ATOM     75  S   UNL A   1      45.799  38.016  27.549  1.00  0.00     0.124 S 
ATOM     76  O   UNL A   1      44.392  38.368  27.405  1.00  0.00    -0.237 OA
ATOM     77  O   UNL A   1      46.561  38.794  28.519  1.00  0.00    -0.237 OA
ATOM     78  O   UNL A   1      46.503  37.706  26.308  1.00  0.00    -0.744 OA
ENDBRANCH  74  75
ENDBRANCH  53  67
BRANCH  54  79
ATOM     79  C   UNL A   1      36.994  32.000  30.493  1.00  0.00     0.058 A 
ATOM     80  C   UNL A   1      35.963  32.080  31.447  1.00  0.00     0.135 A 
ATOM     81  C   UNL A   1      36.822  32.788  29.335  1.00  0.00     0.135 A 
ATOM     82  F   UNL A   1      36.047  31.379  32.589  1.00  0.00    -0.206 F 
ATOM     83  C   UNL A   1      34.859  32.927  31.289  1.00  0.00     0.059 A 
ATOM     84  C   UNL A   1      35.727  33.630  29.150  1.00  0.00     0.059 A 
ATOM     85  F   UNL A   1      37.760  32.836  28.379  1.00  0.00    -0.206 F 
ATOM     86  C   UNL A   1      34.762  33.718  30.144  1.00  0.00     0.060 A 
BRANCH  86  87
ATOM     87  S   UNL A   1      33.436  34.940  30.012  1.00  0.00     0.124 S 
ATOM     88  O   UNL A   1      34.126  36.069  29.398  1.00  0.00    -0.237 OA
ATOM     89  O   UNL A   1      32.465  34.250  29.171  1.00  0.00    -0.237 OA
ATOM     90  O   UNL A   1      33.021  35.143  31.399  1.00  0.00    -0.744 OA
ENDBRANCH  86  87
ENDBRANCH  54  79
BRANCH  66  91
ATOM     91  C   UNL A   1      41.994  29.814  33.805  1.00  0.00     0.058 A 
ATOM     92  C   UNL A   1      41.632  28.564  33.270  1.00  0.00     0.135 A 
ATOM     93  C   UNL A   1      42.258  29.868  35.181  1.00  0.00     0.135 A 
ATOM     94  F   UNL A   1      41.453  28.407  31.951  1.00  0.00    -0.206 F 
ATOM     95  C   UNL A   1      41.524  27.424  34.071  1.00  0.00     0.059 A 
ATOM     96  C   UNL A   1      42.184  28.739  35.993  1.00  0.00     0.059 A 
ATOM     97  F   UNL A   1      42.666  31.019  35.740  1.00  0.00    -0.206 F 
ATOM     98  C   UNL A   1      41.813  27.519  35.432  1.00  0.00     0.060 A 
BRANCH  98  99
ATOM     99  S   UNL A   1      41.789  26.024  36.447  1.00  0.00     0.124 S 
ATOM    100  O   UNL A   1      41.775  26.570  37.799  1.00  0.00    -0.237 OA
ATOM    101  O   UNL A   1      40.558  25.369  36.016  1.00  0.00    -0.237 OA
ATOM    102  O   UNL A   1      43.018  25.332  36.067  1.00  0.00    -0.744 OA
ENDBRANCH  98  99
ENDBRANCH  66  91
ENDBRANCH  40  41
ENDBRANCH  33  35
ENDBRANCH  32  33
ENDBRANCH  31  32
ENDBRANCH  30  31
ENDBRANCH  29  30
ENDBRANCH   1  29
TORSDOF 22
ENDMDL
MODEL 2
REMARK VINA RESULT:      -9.8      4.943     10.620
REMARK SMILES Cc1nc2sc3c(c2c2nc(CCC(=O)OCCOCCOCCOC(=O)c4ccc(-c5c6nc(c(-c7c(F)cc(S(=O)(=O)[O-])cc7F)c7ccc([nH]7)c(-c7c(F)cc(S(=O)(=O)[O-])cc7F)c7nc(c(-c8c(F)cc(S(=O)(=O)[O-])cc8F)c8ccc5[nH]8)C=C7)C=C6)cc4)nn12)[C@@H](C)CCC3
REMARK SMILES IDX 21 1 20 2 19 3 18 4 17 5 16 6 14 7 15 8 13 9 12 10 11 11
REMARK SMILES IDX 1 12 2 13 3 14 95 15 4 16 9 17 94 18 5 19 8 20 10 21 6 22
REMARK SMILES IDX 7 23 100 24 96 25 99 26 97 27 98 28 22 29 23 30 24 31 25 32
REMARK SMILES IDX 26 33 27 34 28 35 29 36 93 37 30 38 92 39 31 40 32 41 33 42
REMARK SMILES IDX 86 43 34 44 91 45 85 46 87 47 35 48 90 49 84 50 83 51 36 53
REMARK SMILES IDX 70 54 49 55 69 56 50 57 53 58 68 59 88 60 51 61 52 62 67 64
REMARK SMILES IDX 89 65 54 66 37 67 38 68 47 69 39 70 40 71 46 72 48 73 41 74
REMARK SMILES IDX 42 75 43 76 44 77 45 78 71 79 72 80 81 81 73 82 74 83 80 84
REMARK SMILES IDX 82 85 75 86 76 87 77 88 78 89 79 90 55 91 56 92 65 93 57 94
REMARK SMILES IDX 58 95 64 96 66 97 59 98 60 99 61 100 62 101 63 102
REMARK H PARENT 87 52 53 63
REMARK Flexibility Score: inf
ROOT
ATOM      1  C   UNL A   1      45.269  29.603  26.894  1.00  0.00     0.188 C 
ENDROOT
BRANCH   1   2
ATOM      2  C   UNL A   1      46.456  29.470  27.816  1.00  0.00     0.188 C 
BRANCH   2   3
ATOM      3  O   UNL A   1      46.591  28.177  28.396  1.00  0.00    -0.376 OA
BRANCH   3   4
ATOM      4  C   UNL A   1      47.929  27.828  28.745  1.00  0.00     0.202 C 
BRANCH   4   5
ATOM      5  C   UNL A   1      48.933  27.808  27.570  1.00  0.00     0.261 C 
BRANCH   5   6
ATOM      6  O   UNL A   1      49.478  26.487  27.293  1.00  0.00    -0.463 OA
BRANCH   6   7
ATOM      7  C   UNL A   1      49.101  25.907  26.125  1.00  0.00     0.306 C 
ATOM      8  O   UNL A   1      49.738  26.009  25.080  1.00  0.00    -0.252 OA
BRANCH   7   9
ATOM      9  C   UNL A   1      47.792  25.132  26.172  1.00  0.00     0.131 C 
BRANCH   9  10
ATOM     10  C   UNL A   1      47.045  24.759  24.892  1.00  0.00     0.091 C 
BRANCH  10  11
ATOM     11  C   UNL A   1      45.861  23.875  25.075  1.00  0.00     0.152 A 
ATOM     12  C   UNL A   1      45.043  19.799  24.707  1.00  0.00     0.090 C 
ATOM     13  C   UNL A   1      44.134  20.875  25.220  1.00  0.00     0.131 A 
ATOM     14  N   UNL A   1      42.902  20.615  25.584  1.00  0.00    -0.222 NA
ATOM     15  N   UNL A   1      44.671  22.170  25.242  1.00  0.00    -0.199 N 
ATOM     16  C   UNL A   1      42.155  21.692  25.997  1.00  0.00     0.129 A 
ATOM     17  C   UNL A   1      43.947  23.249  25.666  1.00  0.00     0.168 A 
ATOM     18  N   UNL A   1      45.896  22.554  24.817  1.00  0.00    -0.150 NA
ATOM     19  S   UNL A   1      40.518  21.523  26.461  1.00  0.00    -0.120 S 
ATOM     20  C   UNL A   1      42.543  23.023  26.082  1.00  0.00     0.060 A 
ATOM     21  N   UNL A   1      44.674  24.333  25.583  1.00  0.00    -0.211 NA
ATOM     22  C   UNL A   1      40.352  23.196  26.749  1.00  0.00     0.011 A 
ATOM     23  C   UNL A   1      41.512  23.912  26.505  1.00  0.00    -0.018 A 
ATOM     24  C   UNL A   1      39.045  23.798  27.174  1.00  0.00     0.047 C 
ATOM     25  C   UNL A   1      41.560  25.408  26.698  1.00  0.00     0.018 C 
ATOM     26  C   UNL A   1      39.270  25.180  27.798  1.00  0.00     0.006 C 
ATOM     27  C   UNL A   1      42.229  26.126  25.538  1.00  0.00     0.013 C 
ATOM     28  C   UNL A   1      40.167  26.035  26.905  1.00  0.00     0.008 C 
ENDBRANCH  10  11
ENDBRANCH   9  10
ENDBRANCH   7   9
ENDBRANCH   6   7
ENDBRANCH   5   6
ENDBRANCH   4   5
ENDBRANCH   3   4
ENDBRANCH   2   3
ENDBRANCH   1   2
BRANCH   1  29
ATOM     29  O   UNL A   1      45.304  30.821  26.127  1.00  0.00    -0.376 OA
BRANCH  29  30
ATOM     30  C   UNL A   1      46.300  31.773  26.499  1.00  0.00     0.202 C 
BRANCH  30  31
ATOM     31  C   UNL A   1      45.875  33.243  26.525  1.00  0.00     0.261 C 
BRANCH  31  32
ATOM     32  O   UNL A   1      46.274  33.836  27.737  1.00  0.00    -0.460 OA
BRANCH  32  33
ATOM     33  C   UNL A   1      46.025  35.162  27.775  1.00  0.00     0.338 C 
ATOM     34  O   UNL A   1      46.592  36.050  27.145  1.00  0.00    -0.246 OA
BRANCH  33  35
ATOM     35  C   UNL A   1      44.921  35.368  28.709  1.00  0.00     0.060 A 
ATOM     36  C   UNL A   1      45.260  35.344  30.055  1.00  0.00     0.016 A 
ATOM     37  C   UNL A   1      43.598  35.248  28.245  1.00  0.00     0.016 A 
ATOM     38  C   UNL A   1      44.362  34.741  30.882  1.00  0.00     0.010 A 
ATOM     39  C   UNL A   1      42.702  34.641  29.066  1.00  0.00     0.010 A 
ATOM     40  C   UNL A   1      43.178  34.261  30.310  1.00  0.00    -0.014 A 
BRANCH  40  41
ATOM     41  C   UNL A   1      42.449  33.276  31.046  1.00  0.00     0.031 A 
ATOM     42  C   UNL A   1      43.037  31.949  30.863  1.00  0.00     0.074 A 
ATOM     43  C   UNL A   1      41.378  33.607  31.783  1.00  0.00     0.049 A 
ATOM     44  N   UNL A   1      42.636  31.046  30.037  1.00  0.00    -0.248 NA
ATOM     45  C   UNL A   1      44.378  31.724  31.419  1.00  0.00     0.031 C 
ATOM     46  C   UNL A   1      40.890  34.931  32.180  1.00  0.00     0.029 A 
ATOM     47  N   UNL A   1      40.520  32.766  32.403  1.00  0.00    -0.354 N 
ATOM     48  C   UNL A   1      43.546  30.015  30.183  1.00  0.00     0.074 A 
ATOM     49  C   UNL A   1      44.710  30.587  30.807  1.00  0.00     0.031 C 
ATOM     50  C   UNL A   1      39.964  34.784  33.158  1.00  0.00     0.029 A 
ATOM     51  C   UNL A   1      39.704  33.369  33.350  1.00  0.00     0.049 A 
ATOM     52  H   UNL A   1      40.479  31.803  32.199  1.00  0.00     0.167 HD
ATOM     53  C   UNL A   1      43.139  28.725  30.077  1.00  0.00     0.037 A 
ATOM     54  C   UNL A   1      38.979  32.686  34.272  1.00  0.00     0.037 A 
ATOM     55  C   UNL A   1      41.854  28.637  29.423  1.00  0.00     0.049 A 
ATOM     56  C   UNL A   1      38.801  31.304  33.723  1.00  0.00     0.074 A 
ATOM     57  C   UNL A   1      41.385  29.013  28.178  1.00  0.00     0.029 A 
ATOM     58  N   UNL A   1      40.741  28.488  30.221  1.00  0.00    -0.354 N 
ATOM     59  N   UNL A   1      38.104  31.043  32.646  1.00  0.00    -0.248 NA
ATOM     60  C   UNL A   1      39.806  30.302  34.061  1.00  0.00     0.031 C 
ATOM     61  C   UNL A   1      40.066  29.502  28.406  1.00  0.00     0.029 A 
ATOM     62  C   UNL A   1      39.770  29.345  29.762  1.00  0.00     0.049 A 
ATOM     63  H   UNL A   1      40.656  27.875  30.987  1.00  0.00     0.167 HD
ATOM     64  C   UNL A   1      38.836  30.080  31.959  1.00  0.00     0.074 A 
ATOM     65  C   UNL A   1      39.839  29.614  32.915  1.00  0.00     0.031 C 
ATOM     66  C   UNL A   1      38.759  29.961  30.599  1.00  0.00     0.037 A 
BRANCH  53  67
ATOM     67  C   UNL A   1      43.711  27.618  30.918  1.00  0.00     0.058 A 
ATOM     68  C   UNL A   1      44.122  26.433  30.288  1.00  0.00     0.135 A 
ATOM     69  C   UNL A   1      43.630  27.567  32.330  1.00  0.00     0.135 A 
ATOM     70  F   UNL A   1      44.223  26.369  28.949  1.00  0.00    -0.206 F 
ATOM     71  C   UNL A   1      44.365  25.261  31.001  1.00  0.00     0.059 A 
ATOM     72  C   UNL A   1      43.929  26.432  33.064  1.00  0.00     0.059 A 
ATOM     73  F   UNL A   1      43.158  28.576  33.071  1.00  0.00    -0.206 F 
ATOM     74  C   UNL A   1      44.250  25.270  32.388  1.00  0.00     0.060 A 
BRANCH  74  75
ATOM     75  S   UNL A   1      44.444  23.736  33.305  1.00  0.00     0.124 S 
ATOM     76  O   UNL A   1      43.932  22.763  32.347  1.00  0.00    -0.237 OA
ATOM     77  O   UNL A   1      45.883  23.710  33.543  1.00  0.00    -0.237 OA
ATOM     78  O   UNL A   1      43.621  23.948  34.491  1.00  0.00    -0.744 OA
ENDBRANCH  74  75
ENDBRANCH  53  67
BRANCH  54  79
ATOM     79  C   UNL A   1      38.818  33.021  35.714  1.00  0.00     0.058 A 
ATOM     80  C   UNL A   1      37.547  33.269  36.262  1.00  0.00     0.135 A 
ATOM     81  C   UNL A   1      39.864  32.840  36.644  1.00  0.00     0.135 A 
ATOM     82  F   UNL A   1      36.488  33.437  35.455  1.00  0.00    -0.206 F 
ATOM     83  C   UNL A   1      37.316  33.283  37.643  1.00  0.00     0.059 A 
ATOM     84  C   UNL A   1      39.661  32.860  38.023  1.00  0.00     0.059 A 
ATOM     85  F   UNL A   1      41.110  32.546  36.245  1.00  0.00    -0.206 F 
ATOM     86  C   UNL A   1      38.378  33.054  38.517  1.00  0.00     0.060 A 
BRANCH  86  87
ATOM     87  S   UNL A   1      38.058  32.896  40.290  1.00  0.00     0.124 S 
ATOM     88  O   UNL A   1      36.672  32.441  40.308  1.00  0.00    -0.237 OA
ATOM     89  O   UNL A   1      39.058  31.914  40.695  1.00  0.00    -0.237 OA
ATOM     90  O   UNL A   1      38.276  34.249  40.797  1.00  0.00    -0.744 OA
ENDBRANCH  86  87
ENDBRANCH  54  79
BRANCH  66  91
ATOM     91  C   UNL A   1      37.673  30.717  29.872  1.00  0.00     0.058 A 
ATOM     92  C   UNL A   1      36.372  30.223  29.665  1.00  0.00     0.135 A 
ATOM     93  C   UNL A   1      37.901  32.066  29.566  1.00  0.00     0.135 A 
ATOM     94  F   UNL A   1      36.048  28.972  30.020  1.00  0.00    -0.206 F 
ATOM     95  C   UNL A   1      35.349  31.032  29.163  1.00  0.00     0.059 A 
ATOM     96  C   UNL A   1      36.889  32.898  29.092  1.00  0.00     0.059 A 
ATOM     97  F   UNL A   1      39.106  32.612  29.798  1.00  0.00    -0.206 F 
ATOM     98  C   UNL A   1      35.615  32.374  28.890  1.00  0.00     0.060 A 
BRANCH  98  99
ATOM     99  S   UNL A   1      34.266  33.450  28.353  1.00  0.00     0.124 S 
ATOM    100  O   UNL A   1      33.902  34.129  29.592  1.00  0.00    -0.237 OA
ATOM    101  O   UNL A   1      34.909  34.282  27.340  1.00  0.00    -0.237 OA
ATOM    102  O   UNL A   1      33.267  32.516  27.837  1.00  0.00    -0.744 OA
ENDBRANCH  98  99
ENDBRANCH  66  91
ENDBRANCH  40  41
ENDBRANCH  33  35
ENDBRANCH  32  33
ENDBRANCH  31  32
ENDBRANCH  30  31
ENDBRANCH  29  30
ENDBRANCH   1  29
TORSDOF 22
ENDMDL
MODEL 3
REMARK VINA RESULT:      -9.5      4.758     10.247
REMARK SMILES Cc1nc2sc3c(c2c2nc(CCC(=O)OCCOCCOCCOC(=O)c4ccc(-c5c6nc(c(-c7c(F)cc(S(=O)(=O)[O-])cc7F)c7ccc([nH]7)c(-c7c(F)cc(S(=O)(=O)[O-])cc7F)c7nc(c(-c8c(F)cc(S(=O)(=O)[O-])cc8F)c8ccc5[nH]8)C=C7)C=C6)cc4)nn12)[C@@H](C)CCC3
REMARK SMILES IDX 21 1 20 2 19 3 18 4 17 5 16 6 14 7 15 8 13 9 12 10 11 11
REMARK SMILES IDX 1 12 2 13 3 14 95 15 4 16 9 17 94 18 5 19 8 20 10 21 6 22
REMARK SMILES IDX 7 23 100 24 96 25 99 26 97 27 98 28 22 29 23 30 24 31 25 32
REMARK SMILES IDX 26 33 27 34 28 35 29 36 93 37 30 38 92 39 31 40 32 41 33 42
REMARK SMILES IDX 86 43 34 44 91 45 85 46 87 47 35 48 90 49 84 50 83 51 36 53
REMARK SMILES IDX 70 54 49 55 69 56 50 57 53 58 68 59 88 60 51 61 52 62 67 64
REMARK SMILES IDX 89 65 54 66 37 67 38 68 47 69 39 70 40 71 46 72 48 73 41 74
REMARK SMILES IDX 42 75 43 76 44 77 45 78 71 79 72 80 81 81 73 82 74 83 80 84
REMARK SMILES IDX 82 85 75 86 76 87 77 88 78 89 79 90 55 91 56 92 65 93 57 94
REMARK SMILES IDX 58 95 64 96 66 97 59 98 60 99 61 100 62 101 63 102
REMARK H PARENT 87 52 53 63
REMARK Flexibility Score: inf
ROOT
ATOM      1  C   UNL A   1      35.592  23.763  25.279  1.00  0.00     0.188 C 
ENDROOT
BRANCH   1   2
ATOM      2  C   UNL A   1      34.340  23.892  26.111  1.00  0.00     0.188 C 
BRANCH   2   3
ATOM      3  O   UNL A   1      33.647  25.120  25.923  1.00  0.00    -0.376 OA
BRANCH   3   4
ATOM      4  C   UNL A   1      32.227  25.009  25.994  1.00  0.00     0.202 C 
BRANCH   4   5
ATOM      5  C   UNL A   1      31.442  26.175  25.352  1.00  0.00     0.261 C 
BRANCH   5   6
ATOM      6  O   UNL A   1      32.282  27.303  24.975  1.00  0.00    -0.463 OA
BRANCH   6   7
ATOM      7  C   UNL A   1      31.761  28.541  25.174  1.00  0.00     0.306 C 
ATOM      8  O   UNL A   1      30.942  29.061  24.423  1.00  0.00    -0.252 OA
BRANCH   7   9
ATOM      9  C   UNL A   1      32.290  29.285  26.392  1.00  0.00     0.131 C 
BRANCH   9  10
ATOM     10  C   UNL A   1      31.932  30.750  26.644  1.00  0.00     0.091 C 
BRANCH  10  11
ATOM     11  C   UNL A   1      32.982  31.558  27.323  1.00  0.00     0.152 A 
ATOM     12  C   UNL A   1      33.316  35.437  28.828  1.00  0.00     0.090 C 
ATOM     13  C   UNL A   1      34.312  34.322  28.933  1.00  0.00     0.131 A 
ATOM     14  N   UNL A   1      35.476  34.496  29.512  1.00  0.00    -0.222 NA
ATOM     15  N   UNL A   1      33.940  33.109  28.338  1.00  0.00    -0.199 N 
ATOM     16  C   UNL A   1      36.320  33.411  29.509  1.00  0.00     0.129 A 
ATOM     17  C   UNL A   1      34.760  32.016  28.341  1.00  0.00     0.168 A 
ATOM     18  N   UNL A   1      32.803  32.852  27.651  1.00  0.00    -0.150 NA
ATOM     19  S   UNL A   1      37.888  33.492  30.186  1.00  0.00    -0.120 S 
ATOM     20  C   UNL A   1      36.093  32.151  28.971  1.00  0.00     0.060 A 
ATOM     21  N   UNL A   1      34.179  31.022  27.719  1.00  0.00    -0.211 NA
ATOM     22  C   UNL A   1      38.239  31.881  29.748  1.00  0.00     0.011 A 
ATOM     23  C   UNL A   1      37.195  31.253  29.089  1.00  0.00    -0.018 A 
ATOM     24  C   UNL A   1      39.577  31.263  30.023  1.00  0.00     0.047 C 
ATOM     25  C   UNL A   1      37.318  29.825  28.618  1.00  0.00     0.018 C 
ATOM     26  C   UNL A   1      39.482  29.734  29.965  1.00  0.00     0.006 C 
ATOM     27  C   UNL A   1      36.824  29.634  27.194  1.00  0.00     0.013 C 
ATOM     28  C   UNL A   1      38.761  29.286  28.696  1.00  0.00     0.008 C 
ENDBRANCH  10  11
ENDBRANCH   9  10
ENDBRANCH   7   9
ENDBRANCH   6   7
ENDBRANCH   5   6
ENDBRANCH   4   5
ENDBRANCH   3   4
ENDBRANCH   2   3
ENDBRANCH   1   2
BRANCH   1  29
ATOM     29  O   UNL A   1      36.667  23.132  25.998  1.00  0.00    -0.376 OA
BRANCH  29  30
ATOM     30  C   UNL A   1      37.183  21.927  25.432  1.00  0.00     0.202 C 
BRANCH  30  31
ATOM     31  C   UNL A   1      38.646  21.595  25.734  1.00  0.00     0.261 C 
BRANCH  31  32
ATOM     32  O   UNL A   1      39.283  22.712  26.306  1.00  0.00    -0.460 OA
BRANCH  32  33
ATOM     33  C   UNL A   1      40.417  22.386  26.960  1.00  0.00     0.338 C 
ATOM     34  O   UNL A   1      40.566  21.520  27.818  1.00  0.00    -0.246 OA
BRANCH  33  35
ATOM     35  C   UNL A   1      41.476  23.254  26.450  1.00  0.00     0.060 A 
ATOM     36  C   UNL A   1      42.707  22.645  26.249  1.00  0.00     0.016 A 
ATOM     37  C   UNL A   1      41.305  24.649  26.505  1.00  0.00     0.016 A 
ATOM     38  C   UNL A   1      43.798  23.395  26.572  1.00  0.00     0.010 A 
ATOM     39  C   UNL A   1      42.390  25.398  26.831  1.00  0.00     0.010 A 
ATOM     40  C   UNL A   1      43.574  24.703  27.014  1.00  0.00    -0.014 A 
BRANCH  40  41
ATOM     41  C   UNL A   1      44.628  25.335  27.746  1.00  0.00     0.031 A 
ATOM     42  C   UNL A   1      44.446  25.149  29.185  1.00  0.00     0.074 A 
ATOM     43  C   UNL A   1      45.615  25.993  27.119  1.00  0.00     0.049 A 
ATOM     44  N   UNL A   1      43.917  25.993  30.001  1.00  0.00    -0.248 NA
ATOM     45  C   UNL A   1      44.573  23.782  29.709  1.00  0.00     0.031 C 
ATOM     46  C   UNL A   1      45.967  26.015  25.696  1.00  0.00     0.029 A 
ATOM     47  N   UNL A   1      46.581  26.750  27.686  1.00  0.00    -0.354 N 
ATOM     48  C   UNL A   1      43.903  25.336  31.218  1.00  0.00     0.074 A 
ATOM     49  C   UNL A   1      44.044  23.935  30.923  1.00  0.00     0.031 C 
ATOM     50  C   UNL A   1      47.198  26.563  25.556  1.00  0.00     0.029 A 
ATOM     51  C   UNL A   1      47.649  27.044  26.849  1.00  0.00     0.049 A 
ATOM     52  H   UNL A   1      46.531  27.067  28.616  1.00  0.00     0.167 HD
ATOM     53  C   UNL A   1      44.104  26.026  32.369  1.00  0.00     0.037 A 
ATOM     54  C   UNL A   1      48.836  27.543  27.279  1.00  0.00     0.037 A 
ATOM     55  C   UNL A   1      43.909  27.443  32.167  1.00  0.00     0.049 A 
ATOM     56  C   UNL A   1      48.560  28.193  28.600  1.00  0.00     0.074 A 
ATOM     57  C   UNL A   1      42.839  28.213  31.752  1.00  0.00     0.029 A 
ATOM     58  N   UNL A   1      45.031  28.222  31.991  1.00  0.00    -0.354 N 
ATOM     59  N   UNL A   1      47.804  29.254  28.735  1.00  0.00    -0.248 NA
ATOM     60  C   UNL A   1      48.693  27.378  29.802  1.00  0.00     0.031 C 
ATOM     61  C   UNL A   1      43.406  29.235  30.937  1.00  0.00     0.029 A 
ATOM     62  C   UNL A   1      44.794  29.080  30.944  1.00  0.00     0.049 A 
ATOM     63  H   UNL A   1      45.859  28.174  32.522  1.00  0.00     0.167 HD
ATOM     64  C   UNL A   1      47.056  29.027  29.885  1.00  0.00     0.074 A 
ATOM     65  C   UNL A   1      47.697  27.887  30.535  1.00  0.00     0.031 C 
ATOM     66  C   UNL A   1      45.819  29.586  30.052  1.00  0.00     0.037 A 
BRANCH  53  67
ATOM     67  C   UNL A   1      44.860  25.458  33.538  1.00  0.00     0.058 A 
ATOM     68  C   UNL A   1      44.219  25.382  34.785  1.00  0.00     0.135 A 
ATOM     69  C   UNL A   1      46.257  25.232  33.549  1.00  0.00     0.135 A 
ATOM     70  F   UNL A   1      42.896  25.590  34.888  1.00  0.00    -0.206 F 
ATOM     71  C   UNL A   1      44.925  25.170  35.968  1.00  0.00     0.059 A 
ATOM     72  C   UNL A   1      46.968  24.956  34.705  1.00  0.00     0.059 A 
ATOM     73  F   UNL A   1      47.027  25.369  32.465  1.00  0.00    -0.206 F 
ATOM     74  C   UNL A   1      46.302  24.972  35.915  1.00  0.00     0.060 A 
BRANCH  74  75
ATOM     75  S   UNL A   1      47.235  24.818  37.443  1.00  0.00     0.124 S 
ATOM     76  O   UNL A   1      47.759  23.462  37.324  1.00  0.00    -0.237 OA
ATOM     77  O   UNL A   1      48.207  25.898  37.310  1.00  0.00    -0.237 OA
ATOM     78  O   UNL A   1      46.223  25.015  38.476  1.00  0.00    -0.744 OA
ENDBRANCH  74  75
ENDBRANCH  53  67
BRANCH  54  79
ATOM     79  C   UNL A   1      50.196  27.127  26.840  1.00  0.00     0.058 A 
ATOM     80  C   UNL A   1      50.652  25.812  27.046  1.00  0.00     0.135 A 
ATOM     81  C   UNL A   1      50.976  27.918  25.970  1.00  0.00     0.135 A 
ATOM     82  F   UNL A   1      49.965  24.979  27.844  1.00  0.00    -0.206 F 
ATOM     83  C   UNL A   1      51.778  25.297  26.391  1.00  0.00     0.059 A 
ATOM     84  C   UNL A   1      52.106  27.432  25.314  1.00  0.00     0.059 A 
ATOM     85  F   UNL A   1      50.615  29.170  25.654  1.00  0.00    -0.206 F 
ATOM     86  C   UNL A   1      52.486  26.110  25.507  1.00  0.00     0.060 A 
BRANCH  86  87
ATOM     87  S   UNL A   1      53.831  25.404  24.526  1.00  0.00     0.124 S 
ATOM     88  O   UNL A   1      53.556  25.947  23.200  1.00  0.00    -0.237 OA
ATOM     89  O   UNL A   1      55.012  25.931  25.200  1.00  0.00    -0.237 OA
ATOM     90  O   UNL A   1      53.631  23.963  24.662  1.00  0.00    -0.744 OA
ENDBRANCH  86  87
ENDBRANCH  54  79
BRANCH  66  91
ATOM     91  C   UNL A   1      45.380  30.662  29.088  1.00  0.00     0.058 A 
ATOM     92  C   UNL A   1      45.758  32.013  29.189  1.00  0.00     0.135 A 
ATOM     93  C   UNL A   1      44.732  30.266  27.909  1.00  0.00     0.135 A 
ATOM     94  F   UNL A   1      46.463  32.452  30.241  1.00  0.00    -0.206 F 
ATOM     95  C   UNL A   1      45.490  32.931  28.170  1.00  0.00     0.059 A 
ATOM     96  C   UNL A   1      44.481  31.157  26.868  1.00  0.00     0.059 A 
ATOM     97  F   UNL A   1      44.401  28.978  27.727  1.00  0.00    -0.206 F 
ATOM     98  C   UNL A   1      44.860  32.490  27.006  1.00  0.00     0.060 A 
BRANCH  98  99
ATOM     99  S   UNL A   1      44.619  33.648  25.639  1.00  0.00     0.124 S 
ATOM    100  O   UNL A   1      45.950  34.225  25.487  1.00  0.00    -0.237 OA
ATOM    101  O   UNL A   1      44.181  32.772  24.556  1.00  0.00    -0.237 OA
ATOM    102  O   UNL A   1      43.597  34.562  26.141  1.00  0.00    -0.744 OA
ENDBRANCH  98  99
ENDBRANCH  66  91
ENDBRANCH  40  41
ENDBRANCH  33  35
ENDBRANCH  32  33
ENDBRANCH  31  32
ENDBRANCH  30  31
ENDBRANCH  29  30
ENDBRANCH   1  29
TORSDOF 22
ENDMDL
