MODEL 1
REMARK VINA RESULT:     -11.1      0.000      0.000
REMARK SMILES Cc1ccc(-c2cc(Cl)ccc2Cl)c(C(=O)OCCOCCOCCOC(=O)c2ccc(-c3c4nc(c(-c5c(F)cc(S(=O)(=O)[O-])cc5F)c5ccc([nH]5)c(-c5c(F)cc(S(=O)(=O)[O-])cc5F)c5nc(c(-c6c(F)cc(S(=O)(=O)[O-])cc6F)c6ccc3[nH]6)C=C5)C=C4)cc2)c1
REMARK SMILES IDX 22 1 21 2 20 3 19 4 18 5 17 6 15 7 16 8 14 9 1 10 2 11 3 12
REMARK SMILES IDX 95 13 4 14 5 15 6 16 7 17 12 18 8 19 11 20 13 21 9 22 10 23
REMARK SMILES IDX 23 24 24 25 25 26 26 27 27 28 28 29 29 30 30 31 94 32 31 33
REMARK SMILES IDX 93 34 32 35 33 36 34 37 87 38 35 39 92 40 86 41 88 42 36 43
REMARK SMILES IDX 91 44 85 45 84 46 37 48 71 49 50 50 70 51 51 52 54 53 69 54
REMARK SMILES IDX 89 55 52 56 53 57 68 59 90 60 55 61 38 62 39 63 48 64 40 65
REMARK SMILES IDX 41 66 47 67 49 68 42 69 43 70 44 71 45 72 46 73 72 74 73 75
REMARK SMILES IDX 82 76 74 77 75 78 81 79 83 80 76 81 77 82 78 83 79 84 80 85
REMARK SMILES IDX 56 86 57 87 66 88 58 89 59 90 65 91 67 92 60 93 61 94 62 95
REMARK SMILES IDX 63 96 64 97
REMARK H PARENT 88 47 54 58
REMARK Flexibility Score: inf
ROOT
ATOM      1  C   UNL A   1      34.407  25.576  24.987  1.00  0.00     0.188 C 
ENDROOT
BRANCH   1   2
ATOM      2  C   UNL A   1      35.017  24.392  25.766  1.00  0.00     0.188 C 
BRANCH   2   3
ATOM      3  O   UNL A   1      36.301  23.769  25.529  1.00  0.00    -0.376 OA
BRANCH   3   4
ATOM      4  C   UNL A   1      37.590  24.074  26.110  1.00  0.00     0.202 C 
BRANCH   4   5
ATOM      5  C   UNL A   1      38.986  23.029  26.503  1.00  0.00     0.261 C 
BRANCH   5   6
ATOM      6  O   UNL A   1      40.384  23.216  27.522  1.00  0.00    -0.460 OA
BRANCH   6   7
ATOM      7  C   UNL A   1      41.682  22.578  27.769  1.00  0.00     0.338 C 
ATOM      8  O   UNL A   1      41.957  21.379  27.723  1.00  0.00    -0.246 OA
BRANCH   7   9
ATOM      9  C   UNL A   1      42.839  23.222  28.409  1.00  0.00     0.068 A 
ATOM     10  C   UNL A   1      43.752  23.373  32.074  1.00  0.00     0.044 C 
ATOM     11  C   UNL A   1      43.853  23.498  30.589  1.00  0.00    -0.050 A 
ATOM     12  C   UNL A   1      45.099  23.705  29.994  1.00  0.00     0.004 A 
ATOM     13  C   UNL A   1      42.721  23.302  29.796  1.00  0.00     0.019 A 
ATOM     14  C   UNL A   1      45.239  23.631  28.616  1.00  0.00     0.010 A 
ATOM     15  C   UNL A   1      44.146  23.330  27.778  1.00  0.00    -0.002 A 
BRANCH  15  16
ATOM     16  C   UNL A   1      44.582  23.093  26.349  1.00  0.00     0.003 A 
ATOM     17  C   UNL A   1      45.407  21.976  26.075  1.00  0.00     0.030 A 
ATOM     18  C   UNL A   1      43.946  23.679  25.219  1.00  0.00     0.049 A 
ATOM     19  C   UNL A   1      45.567  21.467  24.775  1.00  0.00     0.041 A 
ATOM     20  C   UNL A   1      44.147  23.186  23.909  1.00  0.00     0.023 A 
ATOM     21  Cl  UNL A   1      42.768  24.940  25.375  1.00  0.00    -0.084 Cl
ATOM     22  Cl  UNL A   1      46.477  20.027  24.520  1.00  0.00    -0.084 Cl
ATOM     23  C   UNL A   1      44.953  22.075  23.687  1.00  0.00     0.022 A 
ENDBRANCH  15  16
ENDBRANCH   7   9
ENDBRANCH   6   7
ENDBRANCH   5   6
ENDBRANCH   4   5
ENDBRANCH   3   4
ENDBRANCH   2   3
ENDBRANCH   1   2
BRANCH   1  24
ATOM     24  O   UNL A   1      33.232  26.104  25.578  1.00  0.00    -0.376 OA
BRANCH  24  25
ATOM     25  C   UNL A   1      32.682  27.247  24.927  1.00  0.00     0.202 C 
BRANCH  25  26
ATOM     26  C   UNL A   1      32.614  28.564  25.745  1.00  0.00     0.261 C 
BRANCH  26  27
ATOM     27  O   UNL A   1      33.837  28.943  26.432  1.00  0.00    -0.460 OA
BRANCH  27  28
ATOM     28  C   UNL A   1      33.933  30.213  27.003  1.00  0.00     0.338 C 
ATOM     29  O   UNL A   1      32.996  30.951  27.091  1.00  0.00    -0.246 OA
BRANCH  28  30
ATOM     30  C   UNL A   1      35.232  30.383  27.738  1.00  0.00     0.060 A 
ATOM     31  C   UNL A   1      36.010  31.517  28.005  1.00  0.00     0.016 A 
ATOM     32  C   UNL A   1      35.738  29.234  28.210  1.00  0.00     0.016 A 
ATOM     33  C   UNL A   1      37.371  31.434  28.572  1.00  0.00     0.010 A 
ATOM     34  C   UNL A   1      37.084  29.208  28.544  1.00  0.00     0.010 A 
ATOM     35  C   UNL A   1      38.026  30.229  28.829  1.00  0.00    -0.014 A 
BRANCH  35  36
ATOM     36  C   UNL A   1      39.609  29.966  29.403  1.00  0.00     0.031 A 
ATOM     37  C   UNL A   1      40.798  28.696  29.156  1.00  0.00     0.074 A 
ATOM     38  C   UNL A   1      40.101  30.901  30.253  1.00  0.00     0.049 A 
ATOM     39  N   UNL A   1      42.010  28.727  29.682  1.00  0.00    -0.248 NA
ATOM     40  C   UNL A   1      40.779  27.395  28.352  1.00  0.00     0.031 C 
ATOM     41  C   UNL A   1      41.506  31.179  30.551  1.00  0.00     0.029 A 
ATOM     42  N   UNL A   1      39.410  31.731  31.142  1.00  0.00    -0.354 N 
ATOM     43  C   UNL A   1      42.826  27.768  29.088  1.00  0.00     0.074 A 
ATOM     44  C   UNL A   1      42.006  26.903  28.348  1.00  0.00     0.031 C 
ATOM     45  C   UNL A   1      41.591  31.822  31.720  1.00  0.00     0.029 A 
ATOM     46  C   UNL A   1      40.256  31.890  32.263  1.00  0.00     0.049 A 
ATOM     47  H   UNL A   1      38.518  32.123  31.013  1.00  0.00     0.167 HD
ATOM     48  C   UNL A   1      44.178  27.772  29.162  1.00  0.00     0.037 A 
ATOM     49  C   UNL A   1      39.882  31.463  33.501  1.00  0.00     0.037 A 
ATOM     50  C   UNL A   1      44.575  28.346  30.418  1.00  0.00     0.049 A 
ATOM     51  C   UNL A   1      40.806  30.428  34.119  1.00  0.00     0.074 A 
ATOM     52  C   UNL A   1      45.101  29.553  30.817  1.00  0.00     0.029 A 
ATOM     53  N   UNL A   1      44.093  27.717  31.560  1.00  0.00    -0.354 N 
ATOM     54  N   UNL A   1      41.910  29.987  33.575  1.00  0.00    -0.248 NA
ATOM     55  C   UNL A   1      40.544  29.779  35.402  1.00  0.00     0.031 C 
ATOM     56  C   UNL A   1      44.745  29.726  32.189  1.00  0.00     0.029 A 
ATOM     57  C   UNL A   1      44.081  28.591  32.626  1.00  0.00     0.049 A 
ATOM     58  H   UNL A   1      43.801  26.779  31.603  1.00  0.00     0.167 HD
ATOM     59  C   UNL A   1      42.414  28.940  34.313  1.00  0.00     0.074 A 
ATOM     60  C   UNL A   1      41.567  28.911  35.490  1.00  0.00     0.031 C 
ATOM     61  C   UNL A   1      43.451  28.159  33.873  1.00  0.00     0.037 A 
BRANCH  48  62
ATOM     62  C   UNL A   1      45.070  27.299  28.022  1.00  0.00     0.058 A 
ATOM     63  C   UNL A   1      46.337  26.734  28.259  1.00  0.00     0.135 A 
ATOM     64  C   UNL A   1      44.788  27.546  26.649  1.00  0.00     0.135 A 
ATOM     65  F   UNL A   1      46.746  26.481  29.511  1.00  0.00    -0.206 F 
ATOM     66  C   UNL A   1      47.250  26.449  27.225  1.00  0.00     0.059 A 
ATOM     67  C   UNL A   1      45.655  27.218  25.603  1.00  0.00     0.059 A 
ATOM     68  F   UNL A   1      43.680  28.192  26.255  1.00  0.00    -0.206 F 
ATOM     69  C   UNL A   1      46.903  26.703  25.900  1.00  0.00     0.060 A 
BRANCH  69  70
ATOM     70  S   UNL A   1      48.096  26.424  24.570  1.00  0.00     0.124 S 
ATOM     71  O   UNL A   1      47.503  25.289  23.870  1.00  0.00    -0.237 OA
ATOM     72  O   UNL A   1      48.081  27.694  23.853  1.00  0.00    -0.237 OA
ATOM     73  O   UNL A   1      49.339  26.133  25.283  1.00  0.00    -0.744 OA
ENDBRANCH  69  70
ENDBRANCH  48  62
BRANCH  49  74
ATOM     74  C   UNL A   1      38.418  31.655  33.724  1.00  0.00     0.058 A 
ATOM     75  C   UNL A   1      37.978  32.952  34.057  1.00  0.00     0.135 A 
ATOM     76  C   UNL A   1      37.493  30.817  33.099  1.00  0.00     0.135 A 
ATOM     77  F   UNL A   1      38.814  33.800  34.676  1.00  0.00    -0.206 F 
ATOM     78  C   UNL A   1      36.753  33.455  33.617  1.00  0.00     0.059 A 
ATOM     79  C   UNL A   1      36.246  31.295  32.677  1.00  0.00     0.059 A 
ATOM     80  F   UNL A   1      37.875  29.595  32.705  1.00  0.00    -0.206 F 
ATOM     81  C   UNL A   1      35.930  32.639  32.852  1.00  0.00     0.060 A 
BRANCH  81  82
ATOM     82  S   UNL A   1      34.577  33.405  31.920  1.00  0.00     0.124 S 
ATOM     83  O   UNL A   1      35.141  34.701  31.560  1.00  0.00    -0.237 OA
ATOM     84  O   UNL A   1      34.403  32.459  30.819  1.00  0.00    -0.237 OA
ATOM     85  O   UNL A   1      33.481  33.450  32.879  1.00  0.00    -0.744 OA
ENDBRANCH  81  82
ENDBRANCH  49  74
BRANCH  61  86
ATOM     86  C   UNL A   1      43.986  26.897  34.540  1.00  0.00     0.058 A 
ATOM     87  C   UNL A   1      43.213  25.783  34.911  1.00  0.00     0.135 A 
ATOM     88  C   UNL A   1      45.387  26.736  34.710  1.00  0.00     0.135 A 
ATOM     89  F   UNL A   1      41.891  25.745  34.696  1.00  0.00    -0.206 F 
ATOM     90  C   UNL A   1      43.775  24.633  35.484  1.00  0.00     0.059 A 
ATOM     91  C   UNL A   1      45.972  25.575  35.215  1.00  0.00     0.059 A 
ATOM     92  F   UNL A   1      46.246  27.712  34.378  1.00  0.00    -0.206 F 
ATOM     93  C   UNL A   1      45.155  24.541  35.639  1.00  0.00     0.060 A 
BRANCH  93  94
ATOM     94  S   UNL A   1      45.906  23.074  36.373  1.00  0.00     0.124 S 
ATOM     95  O   UNL A   1      47.286  23.196  35.919  1.00  0.00    -0.237 OA
ATOM     96  O   UNL A   1      45.696  23.272  37.805  1.00  0.00    -0.237 OA
ATOM     97  O   UNL A   1      45.139  21.982  35.781  1.00  0.00    -0.744 OA
ENDBRANCH  93  94
ENDBRANCH  61  86
ENDBRANCH  35  36
ENDBRANCH  28  30
ENDBRANCH  27  28
ENDBRANCH  26  27
ENDBRANCH  25  26
ENDBRANCH  24  25
ENDBRANCH   1  24
TORSDOF 21
ENDMDL
MODEL 2
REMARK VINA RESULT:     -11.0      4.129     10.745
REMARK SMILES Cc1ccc(-c2cc(Cl)ccc2Cl)c(C(=O)OCCOCCOCCOC(=O)c2ccc(-c3c4nc(c(-c5c(F)cc(S(=O)(=O)[O-])cc5F)c5ccc([nH]5)c(-c5c(F)cc(S(=O)(=O)[O-])cc5F)c5nc(c(-c6c(F)cc(S(=O)(=O)[O-])cc6F)c6ccc3[nH]6)C=C5)C=C4)cc2)c1
REMARK SMILES IDX 22 1 21 2 20 3 19 4 18 5 17 6 15 7 16 8 14 9 1 10 2 11 3 12
REMARK SMILES IDX 95 13 4 14 5 15 6 16 7 17 12 18 8 19 11 20 13 21 9 22 10 23
REMARK SMILES IDX 23 24 24 25 25 26 26 27 27 28 28 29 29 30 30 31 94 32 31 33
REMARK SMILES IDX 93 34 32 35 33 36 34 37 87 38 35 39 92 40 86 41 88 42 36 43
REMARK SMILES IDX 91 44 85 45 84 46 37 48 71 49 50 50 70 51 51 52 54 53 69 54
REMARK SMILES IDX 89 55 52 56 53 57 68 59 90 60 55 61 38 62 39 63 48 64 40 65
REMARK SMILES IDX 41 66 47 67 49 68 42 69 43 70 44 71 45 72 46 73 72 74 73 75
REMARK SMILES IDX 82 76 74 77 75 78 81 79 83 80 76 81 77 82 78 83 79 84 80 85
REMARK SMILES IDX 56 86 57 87 66 88 58 89 59 90 65 91 67 92 60 93 61 94 62 95
REMARK SMILES IDX 63 96 64 97
REMARK H PARENT 88 47 54 58
REMARK Flexibility Score: inf
ROOT
ATOM      1  C   UNL A   1      40.345  22.106  26.859  1.00  0.00     0.188 C 
ENDROOT
BRANCH   1   2
ATOM      2  C   UNL A   1      39.034  22.077  26.044  1.00  0.00     0.188 C 
BRANCH   2   3
ATOM      3  O   UNL A   1      37.960  23.045  26.099  1.00  0.00    -0.376 OA
BRANCH   3   4
ATOM      4  C   UNL A   1      36.560  22.880  25.779  1.00  0.00     0.202 C 
BRANCH   4   5
ATOM      5  C   UNL A   1      35.596  23.429  24.377  1.00  0.00     0.261 C 
BRANCH   5   6
ATOM      6  O   UNL A   1      34.501  24.755  24.111  1.00  0.00    -0.460 OA
BRANCH   6   7
ATOM      7  C   UNL A   1      33.825  25.817  24.865  1.00  0.00     0.338 C 
ATOM      8  O   UNL A   1      34.279  26.497  25.786  1.00  0.00    -0.246 OA
BRANCH   7   9
ATOM      9  C   UNL A   1      32.377  26.074  24.863  1.00  0.00     0.068 A 
ATOM     10  C   UNL A   1      30.518  29.197  23.827  1.00  0.00     0.044 C 
ATOM     11  C   UNL A   1      30.787  27.786  24.235  1.00  0.00    -0.050 A 
ATOM     12  C   UNL A   1      29.790  26.820  24.084  1.00  0.00     0.004 A 
ATOM     13  C   UNL A   1      32.061  27.418  24.666  1.00  0.00     0.019 A 
ATOM     14  C   UNL A   1      30.082  25.477  24.276  1.00  0.00     0.010 A 
ATOM     15  C   UNL A   1      31.381  25.044  24.608  1.00  0.00    -0.002 A 
BRANCH  15  16
ATOM     16  C   UNL A   1      31.503  23.536  24.552  1.00  0.00     0.003 A 
ATOM     17  C   UNL A   1      31.473  22.906  23.285  1.00  0.00     0.030 A 
ATOM     18  C   UNL A   1      32.002  22.742  25.622  1.00  0.00     0.049 A 
ATOM     19  C   UNL A   1      31.928  21.591  23.094  1.00  0.00     0.041 A 
ATOM     20  C   UNL A   1      32.418  21.404  25.428  1.00  0.00     0.023 A 
ATOM     21  Cl  UNL A   1      32.275  23.392  27.204  1.00  0.00    -0.084 Cl
ATOM     22  Cl  UNL A   1      31.991  20.923  21.507  1.00  0.00    -0.084 Cl
ATOM     23  C   UNL A   1      32.388  20.830  24.162  1.00  0.00     0.022 A 
ENDBRANCH  15  16
ENDBRANCH   7   9
ENDBRANCH   6   7
ENDBRANCH   5   6
ENDBRANCH   4   5
ENDBRANCH   3   4
ENDBRANCH   2   3
ENDBRANCH   1   2
BRANCH   1  24
ATOM     24  O   UNL A   1      41.425  22.724  26.180  1.00  0.00    -0.376 OA
BRANCH  24  25
ATOM     25  C   UNL A   1      41.661  24.088  26.522  1.00  0.00     0.202 C 
BRANCH  25  26
ATOM     26  C   UNL A   1      42.322  24.986  25.442  1.00  0.00     0.261 C 
BRANCH  26  27
ATOM     27  O   UNL A   1      41.635  26.234  25.155  1.00  0.00    -0.460 OA
BRANCH  27  28
ATOM     28  C   UNL A   1      42.370  27.420  25.110  1.00  0.00     0.338 C 
ATOM     29  O   UNL A   1      42.964  27.773  24.133  1.00  0.00    -0.246 OA
BRANCH  28  30
ATOM     30  C   UNL A   1      42.063  28.297  26.290  1.00  0.00     0.060 A 
ATOM     31  C   UNL A   1      42.878  29.124  27.074  1.00  0.00     0.016 A 
ATOM     32  C   UNL A   1      40.775  28.266  26.663  1.00  0.00     0.016 A 
ATOM     33  C   UNL A   1      42.409  29.746  28.329  1.00  0.00     0.010 A 
ATOM     34  C   UNL A   1      40.459  28.705  27.940  1.00  0.00     0.010 A 
ATOM     35  C   UNL A   1      41.146  29.517  28.878  1.00  0.00    -0.014 A 
BRANCH  35  36
ATOM     36  C   UNL A   1      40.489  30.091  30.342  1.00  0.00     0.031 A 
ATOM     37  C   UNL A   1      39.818  31.633  30.852  1.00  0.00     0.074 A 
ATOM     38  C   UNL A   1      40.473  29.214  31.376  1.00  0.00     0.049 A 
ATOM     39  N   UNL A   1      39.313  31.838  32.056  1.00  0.00    -0.248 NA
ATOM     40  C   UNL A   1      39.628  32.972  30.139  1.00  0.00     0.031 C 
ATOM     41  C   UNL A   1      39.618  29.255  32.562  1.00  0.00     0.029 A 
ATOM     42  N   UNL A   1      41.337  28.146  31.635  1.00  0.00    -0.354 N 
ATOM     43  C   UNL A   1      38.592  33.029  32.086  1.00  0.00     0.074 A 
ATOM     44  C   UNL A   1      38.893  33.746  30.919  1.00  0.00     0.031 C 
ATOM     45  C   UNL A   1      40.174  28.524  33.533  1.00  0.00     0.029 A 
ATOM     46  C   UNL A   1      41.453  28.072  33.042  1.00  0.00     0.049 A 
ATOM     47  H   UNL A   1      41.775  27.564  30.973  1.00  0.00     0.167 HD
ATOM     48  C   UNL A   1      37.694  33.347  33.050  1.00  0.00     0.037 A 
ATOM     49  C   UNL A   1      42.650  28.251  33.667  1.00  0.00     0.037 A 
ATOM     50  C   UNL A   1      38.109  32.749  34.289  1.00  0.00     0.049 A 
ATOM     51  C   UNL A   1      42.681  29.404  34.655  1.00  0.00     0.074 A 
ATOM     52  C   UNL A   1      37.698  31.669  35.037  1.00  0.00     0.029 A 
ATOM     53  N   UNL A   1      39.369  33.107  34.753  1.00  0.00    -0.354 N 
ATOM     54  N   UNL A   1      41.659  30.160  34.959  1.00  0.00    -0.248 NA
ATOM     55  C   UNL A   1      43.887  29.819  35.369  1.00  0.00     0.031 C 
ATOM     56  C   UNL A   1      38.818  31.261  35.822  1.00  0.00     0.029 A 
ATOM     57  C   UNL A   1      39.865  32.142  35.603  1.00  0.00     0.049 A 
ATOM     58  H   UNL A   1      39.841  33.935  34.510  1.00  0.00     0.167 HD
ATOM     59  C   UNL A   1      42.067  31.207  35.754  1.00  0.00     0.074 A 
ATOM     60  C   UNL A   1      43.452  30.895  36.049  1.00  0.00     0.031 C 
ATOM     61  C   UNL A   1      41.248  32.262  36.061  1.00  0.00     0.037 A 
BRANCH  48  62
ATOM     62  C   UNL A   1      36.431  34.150  32.770  1.00  0.00     0.058 A 
ATOM     63  C   UNL A   1      35.791  34.898  33.776  1.00  0.00     0.135 A 
ATOM     64  C   UNL A   1      35.704  34.071  31.550  1.00  0.00     0.135 A 
ATOM     65  F   UNL A   1      36.351  35.025  34.989  1.00  0.00    -0.206 F 
ATOM     66  C   UNL A   1      34.535  35.506  33.592  1.00  0.00     0.059 A 
ATOM     67  C   UNL A   1      34.483  34.714  31.326  1.00  0.00     0.059 A 
ATOM     68  F   UNL A   1      36.107  33.298  30.529  1.00  0.00    -0.206 F 
ATOM     69  C   UNL A   1      33.883  35.400  32.365  1.00  0.00     0.060 A 
BRANCH  69  70
ATOM     70  S   UNL A   1      32.232  36.101  32.140  1.00  0.00     0.124 S 
ATOM     71  O   UNL A   1      32.265  37.243  33.047  1.00  0.00    -0.237 OA
ATOM     72  O   UNL A   1      32.208  36.416  30.716  1.00  0.00    -0.237 OA
ATOM     73  O   UNL A   1      31.342  35.013  32.545  1.00  0.00    -0.744 OA
ENDBRANCH  69  70
ENDBRANCH  48  62
BRANCH  49  74
ATOM     74  C   UNL A   1      43.773  27.684  32.863  1.00  0.00     0.058 A 
ATOM     75  C   UNL A   1      43.976  26.290  32.926  1.00  0.00     0.135 A 
ATOM     76  C   UNL A   1      44.214  28.333  31.708  1.00  0.00     0.135 A 
ATOM     77  F   UNL A   1      43.591  25.611  34.018  1.00  0.00    -0.206 F 
ATOM     78  C   UNL A   1      44.410  25.553  31.823  1.00  0.00     0.059 A 
ATOM     79  C   UNL A   1      44.682  27.612  30.602  1.00  0.00     0.059 A 
ATOM     80  F   UNL A   1      43.992  29.646  31.568  1.00  0.00    -0.206 F 
ATOM     81  C   UNL A   1      44.680  26.221  30.637  1.00  0.00     0.060 A 
BRANCH  81  82
ATOM     82  S   UNL A   1      44.808  25.253  29.109  1.00  0.00     0.124 S 
ATOM     83  O   UNL A   1      43.946  24.111  29.391  1.00  0.00    -0.237 OA
ATOM     84  O   UNL A   1      44.304  26.199  28.115  1.00  0.00    -0.237 OA
ATOM     85  O   UNL A   1      46.229  24.949  29.012  1.00  0.00    -0.744 OA
ENDBRANCH  81  82
ENDBRANCH  49  74
BRANCH  61  86
ATOM     86  C   UNL A   1      41.642  33.533  36.806  1.00  0.00     0.058 A 
ATOM     87  C   UNL A   1      41.379  33.796  38.161  1.00  0.00     0.135 A 
ATOM     88  C   UNL A   1      42.449  34.504  36.154  1.00  0.00     0.135 A 
ATOM     89  F   UNL A   1      40.734  32.912  38.934  1.00  0.00    -0.206 F 
ATOM     90  C   UNL A   1      41.807  34.970  38.798  1.00  0.00     0.059 A 
ATOM     91  C   UNL A   1      42.941  35.644  36.787  1.00  0.00     0.059 A 
ATOM     92  F   UNL A   1      42.796  34.370  34.865  1.00  0.00    -0.206 F 
ATOM     93  C   UNL A   1      42.581  35.892  38.101  1.00  0.00     0.060 A 
BRANCH  93  94
ATOM     94  S   UNL A   1      43.147  37.410  38.894  1.00  0.00     0.124 S 
ATOM     95  O   UNL A   1      43.819  38.083  37.789  1.00  0.00    -0.237 OA
ATOM     96  O   UNL A   1      41.905  38.033  39.346  1.00  0.00    -0.237 OA
ATOM     97  O   UNL A   1      44.016  36.920  39.960  1.00  0.00    -0.744 OA
ENDBRANCH  93  94
ENDBRANCH  61  86
ENDBRANCH  35  36
ENDBRANCH  28  30
ENDBRANCH  27  28
ENDBRANCH  26  27
ENDBRANCH  25  26
ENDBRANCH  24  25
ENDBRANCH   1  24
TORSDOF 21
ENDMDL
MODEL 3
REMARK VINA RESULT:     -10.9      4.085     10.857
REMARK SMILES Cc1ccc(-c2cc(Cl)ccc2Cl)c(C(=O)OCCOCCOCCOC(=O)c2ccc(-c3c4nc(c(-c5c(F)cc(S(=O)(=O)[O-])cc5F)c5ccc([nH]5)c(-c5c(F)cc(S(=O)(=O)[O-])cc5F)c5nc(c(-c6c(F)cc(S(=O)(=O)[O-])cc6F)c6ccc3[nH]6)C=C5)C=C4)cc2)c1
REMARK SMILES IDX 22 1 21 2 20 3 19 4 18 5 17 6 15 7 16 8 14 9 1 10 2 11 3 12
REMARK SMILES IDX 95 13 4 14 5 15 6 16 7 17 12 18 8 19 11 20 13 21 9 22 10 23
REMARK SMILES IDX 23 24 24 25 25 26 26 27 27 28 28 29 29 30 30 31 94 32 31 33
REMARK SMILES IDX 93 34 32 35 33 36 34 37 87 38 35 39 92 40 86 41 88 42 36 43
REMARK SMILES IDX 91 44 85 45 84 46 37 48 71 49 50 50 70 51 51 52 54 53 69 54
REMARK SMILES IDX 89 55 52 56 53 57 68 59 90 60 55 61 38 62 39 63 48 64 40 65
REMARK SMILES IDX 41 66 47 67 49 68 42 69 43 70 44 71 45 72 46 73 72 74 73 75
REMARK SMILES IDX 82 76 74 77 75 78 81 79 83 80 76 81 77 82 78 83 79 84 80 85
REMARK SMILES IDX 56 86 57 87 66 88 58 89 59 90 65 91 67 92 60 93 61 94 62 95
REMARK SMILES IDX 63 96 64 97
REMARK H PARENT 88 47 54 58
REMARK Flexibility Score: inf
ROOT
ATOM      1  C   UNL A   1      40.180  22.070  26.681  1.00  0.00     0.188 C 
ENDROOT
BRANCH   1   2
ATOM      2  C   UNL A   1      38.851  22.313  25.934  1.00  0.00     0.188 C 
BRANCH   2   3
ATOM      3  O   UNL A   1      37.733  23.108  26.395  1.00  0.00    -0.376 OA
BRANCH   3   4
ATOM      4  C   UNL A   1      36.361  23.112  25.939  1.00  0.00     0.202 C 
BRANCH   4   5
ATOM      5  C   UNL A   1      35.442  24.297  24.966  1.00  0.00     0.261 C 
BRANCH   5   6
ATOM      6  O   UNL A   1      34.245  25.502  25.348  1.00  0.00    -0.460 OA
BRANCH   6   7
ATOM      7  C   UNL A   1      33.907  26.889  25.011  1.00  0.00     0.338 C 
ATOM      8  O   UNL A   1      34.116  27.484  23.954  1.00  0.00    -0.246 OA
BRANCH   7   9
ATOM      9  C   UNL A   1      33.516  27.929  25.976  1.00  0.00     0.068 A 
ATOM     10  C   UNL A   1      35.706  30.338  27.896  1.00  0.00     0.044 C 
ATOM     11  C   UNL A   1      34.490  29.688  27.321  1.00  0.00    -0.050 A 
ATOM     12  C   UNL A   1      33.271  30.368  27.333  1.00  0.00     0.004 A 
ATOM     13  C   UNL A   1      34.598  28.452  26.683  1.00  0.00     0.019 A 
ATOM     14  C   UNL A   1      32.181  29.865  26.637  1.00  0.00     0.010 A 
ATOM     15  C   UNL A   1      32.269  28.674  25.888  1.00  0.00    -0.002 A 
BRANCH  15  16
ATOM     16  C   UNL A   1      31.031  28.444  25.050  1.00  0.00     0.003 A 
ATOM     17  C   UNL A   1      30.745  29.359  24.009  1.00  0.00     0.030 A 
ATOM     18  C   UNL A   1      30.337  27.204  24.986  1.00  0.00     0.049 A 
ATOM     19  C   UNL A   1      29.853  29.051  22.968  1.00  0.00     0.041 A 
ATOM     20  C   UNL A   1      29.408  26.920  23.958  1.00  0.00     0.023 A 
ATOM     21  Cl  UNL A   1      30.682  25.897  26.069  1.00  0.00    -0.084 Cl
ATOM     22  Cl  UNL A   1      29.645  30.150  21.658  1.00  0.00    -0.084 Cl
ATOM     23  C   UNL A   1      29.170  27.841  22.944  1.00  0.00     0.022 A 
ENDBRANCH  15  16
ENDBRANCH   7   9
ENDBRANCH   6   7
ENDBRANCH   5   6
ENDBRANCH   4   5
ENDBRANCH   3   4
ENDBRANCH   2   3
ENDBRANCH   1   2
BRANCH   1  24
ATOM     24  O   UNL A   1      41.311  22.621  26.027  1.00  0.00    -0.376 OA
BRANCH  24  25
ATOM     25  C   UNL A   1      41.720  23.904  26.494  1.00  0.00     0.202 C 
BRANCH  25  26
ATOM     26  C   UNL A   1      42.416  24.842  25.470  1.00  0.00     0.261 C 
BRANCH  26  27
ATOM     27  O   UNL A   1      41.685  26.049  25.125  1.00  0.00    -0.460 OA
BRANCH  27  28
ATOM     28  C   UNL A   1      42.364  27.268  25.083  1.00  0.00     0.338 C 
ATOM     29  O   UNL A   1      42.936  27.653  24.106  1.00  0.00    -0.246 OA
BRANCH  28  30
ATOM     30  C   UNL A   1      42.023  28.123  26.270  1.00  0.00     0.060 A 
ATOM     31  C   UNL A   1      42.764  29.083  26.971  1.00  0.00     0.016 A 
ATOM     32  C   UNL A   1      40.786  27.914  26.746  1.00  0.00     0.016 A 
ATOM     33  C   UNL A   1      42.308  29.665  28.249  1.00  0.00     0.010 A 
ATOM     34  C   UNL A   1      40.510  28.337  28.037  1.00  0.00     0.010 A 
ATOM     35  C   UNL A   1      41.140  29.268  28.903  1.00  0.00    -0.014 A 
BRANCH  35  36
ATOM     36  C   UNL A   1      40.521  29.781  30.406  1.00  0.00     0.031 A 
ATOM     37  C   UNL A   1      39.754  31.259  30.965  1.00  0.00     0.074 A 
ATOM     38  C   UNL A   1      40.635  28.902  31.432  1.00  0.00     0.049 A 
ATOM     39  N   UNL A   1      39.302  31.419  32.196  1.00  0.00    -0.248 NA
ATOM     40  C   UNL A   1      39.414  32.581  30.274  1.00  0.00     0.031 C 
ATOM     41  C   UNL A   1      39.848  28.868  32.664  1.00  0.00     0.029 A 
ATOM     42  N   UNL A   1      41.598  27.908  31.634  1.00  0.00    -0.354 N 
ATOM     43  C   UNL A   1      38.488  32.545  32.277  1.00  0.00     0.074 A 
ATOM     44  C   UNL A   1      38.662  33.288  31.100  1.00  0.00     0.031 C 
ATOM     45  C   UNL A   1      40.516  28.182  33.597  1.00  0.00     0.029 A 
ATOM     46  C   UNL A   1      41.798  27.839  33.031  1.00  0.00     0.049 A 
ATOM     47  H   UNL A   1      42.044  27.367  30.944  1.00  0.00     0.167 HD
ATOM     48  C   UNL A   1      37.622  32.784  33.291  1.00  0.00     0.037 A 
ATOM     49  C   UNL A   1      43.010  28.115  33.590  1.00  0.00     0.037 A 
ATOM     50  C   UNL A   1      38.154  32.218  34.500  1.00  0.00     0.049 A 
ATOM     51  C   UNL A   1      43.001  29.263  34.584  1.00  0.00     0.074 A 
ATOM     52  C   UNL A   1      37.876  31.106  35.261  1.00  0.00     0.029 A 
ATOM     53  N   UNL A   1      39.404  32.678  34.897  1.00  0.00    -0.354 N 
ATOM     54  N   UNL A   1      41.938  29.930  34.951  1.00  0.00    -0.248 NA
ATOM     55  C   UNL A   1      44.206  29.774  35.234  1.00  0.00     0.031 C 
ATOM     56  C   UNL A   1      39.069  30.788  35.980  1.00  0.00     0.029 A 
ATOM     57  C   UNL A   1      40.026  31.755  35.709  1.00  0.00     0.049 A 
ATOM     58  H   UNL A   1      39.792  33.543  34.634  1.00  0.00     0.167 HD
ATOM     59  C   UNL A   1      42.302  31.005  35.730  1.00  0.00     0.074 A 
ATOM     60  C   UNL A   1      43.723  30.808  35.945  1.00  0.00     0.031 C 
ATOM     61  C   UNL A   1      41.418  31.988  36.091  1.00  0.00     0.037 A 
BRANCH  48  62
ATOM     62  C   UNL A   1      36.283  33.480  33.089  1.00  0.00     0.058 A 
ATOM     63  C   UNL A   1      35.424  33.137  32.028  1.00  0.00     0.135 A 
ATOM     64  C   UNL A   1      35.874  34.627  33.824  1.00  0.00     0.135 A 
ATOM     65  F   UNL A   1      35.708  32.096  31.232  1.00  0.00    -0.206 F 
ATOM     66  C   UNL A   1      34.266  33.875  31.716  1.00  0.00     0.059 A 
ATOM     67  C   UNL A   1      34.700  35.341  33.568  1.00  0.00     0.059 A 
ATOM     68  F   UNL A   1      36.638  35.165  34.787  1.00  0.00    -0.206 F 
ATOM     69  C   UNL A   1      33.917  34.982  32.487  1.00  0.00     0.060 A 
BRANCH  69  70
ATOM     70  S   UNL A   1      32.482  35.991  32.047  1.00  0.00     0.124 S 
ATOM     71  O   UNL A   1      31.379  35.170  32.534  1.00  0.00    -0.237 OA
ATOM     72  O   UNL A   1      32.726  37.230  32.776  1.00  0.00    -0.237 OA
ATOM     73  O   UNL A   1      32.578  36.102  30.592  1.00  0.00    -0.744 OA
ENDBRANCH  69  70
ENDBRANCH  48  62
BRANCH  49  74
ATOM     74  C   UNL A   1      44.129  27.646  32.720  1.00  0.00     0.058 A 
ATOM     75  C   UNL A   1      44.432  26.269  32.741  1.00  0.00     0.135 A 
ATOM     76  C   UNL A   1      44.465  28.347  31.561  1.00  0.00     0.135 A 
ATOM     77  F   UNL A   1      44.151  25.542  33.834  1.00  0.00    -0.206 F 
ATOM     78  C   UNL A   1      44.862  25.588  31.601  1.00  0.00     0.059 A 
ATOM     79  C   UNL A   1      44.928  27.684  30.417  1.00  0.00     0.059 A 
ATOM     80  F   UNL A   1      44.145  29.644  31.463  1.00  0.00    -0.206 F 
ATOM     81  C   UNL A   1      45.025  26.296  30.419  1.00  0.00     0.060 A 
BRANCH  81  82
ATOM     82  S   UNL A   1      45.145  25.371  28.865  1.00  0.00     0.124 S 
ATOM     83  O   UNL A   1      44.474  26.259  27.922  1.00  0.00    -0.237 OA
ATOM     84  O   UNL A   1      46.593  25.250  28.703  1.00  0.00    -0.237 OA
ATOM     85  O   UNL A   1      44.445  24.125  29.150  1.00  0.00    -0.744 OA
ENDBRANCH  81  82
ENDBRANCH  49  74
BRANCH  61  86
ATOM     86  C   UNL A   1      41.746  33.284  36.823  1.00  0.00     0.058 A 
ATOM     87  C   UNL A   1      41.366  33.594  38.140  1.00  0.00     0.135 A 
ATOM     88  C   UNL A   1      42.608  34.233  36.211  1.00  0.00     0.135 A 
ATOM     89  F   UNL A   1      40.655  32.735  38.883  1.00  0.00    -0.206 F 
ATOM     90  C   UNL A   1      41.738  34.790  38.771  1.00  0.00     0.059 A 
ATOM     91  C   UNL A   1      43.044  35.396  36.845  1.00  0.00     0.059 A 
ATOM     92  F   UNL A   1      43.066  34.056  34.963  1.00  0.00    -0.206 F 
ATOM     93  C   UNL A   1      42.571  35.689  38.113  1.00  0.00     0.060 A 
BRANCH  93  94
ATOM     94  S   UNL A   1      43.067  37.234  38.900  1.00  0.00     0.124 S 
ATOM     95  O   UNL A   1      44.091  36.772  39.830  1.00  0.00    -0.237 OA
ATOM     96  O   UNL A   1      43.552  38.038  37.781  1.00  0.00    -0.237 OA
ATOM     97  O   UNL A   1      41.826  37.706  39.508  1.00  0.00    -0.744 OA
ENDBRANCH  93  94
ENDBRANCH  61  86
ENDBRANCH  35  36
ENDBRANCH  28  30
ENDBRANCH  27  28
ENDBRANCH  26  27
ENDBRANCH  25  26
ENDBRANCH  24  25
ENDBRANCH   1  24
TORSDOF 21
ENDMDL
