MODEL 1
REMARK VINA RESULT:      -9.8      0.000      0.000
REMARK SMILES CN(CC(=O)OCCOCCOCCOC(=O)c1ccc(-c2c3nc(c(-c4c(F)cc(S(=O)(=O)[O-])cc4F)c4ccc([nH]4)c(-c4c(F)cc(S(=O)(=O)[O-])cc4F)c4nc(c(-c5c(F)cc(S(=O)(=O)[O-])cc5F)c5ccc2[nH]5)C=C4)C=C3)cc1)c1nc2cc(N)ccc2[nH]1
REMARK SMILES IDX 10 1 9 2 8 3 7 4 6 5 4 6 5 7 3 8 2 9 1 10 84 11 85 12 93 13
REMARK SMILES IDX 86 14 92 15 87 17 91 18 88 19 90 20 89 21 11 24 12 25 13 26
REMARK SMILES IDX 14 27 15 28 16 29 17 30 18 31 19 32 83 33 20 34 82 35 21 36
REMARK SMILES IDX 22 37 23 38 76 39 24 40 81 41 75 42 77 43 25 44 80 45 74 46
REMARK SMILES IDX 73 47 26 49 60 50 39 51 59 52 40 53 43 54 58 55 78 56 41 57
REMARK SMILES IDX 42 58 57 60 79 61 44 62 27 63 28 64 37 65 29 66 30 67 36 68
REMARK SMILES IDX 38 69 31 70 32 71 33 72 34 73 35 74 61 75 62 76 71 77 63 78
REMARK SMILES IDX 64 79 70 80 72 81 65 82 66 83 67 84 68 85 69 86 45 87 46 88
REMARK SMILES IDX 55 89 47 90 48 91 54 92 56 93 49 94 50 95 51 96 52 97 53 98
REMARK H PARENT 93 16 89 22 89 23 77 48 43 59
REMARK Flexibility Score: inf
ROOT
ATOM      1  C   UNL A   1      35.275  24.088  25.452  1.00  0.00     0.188 C 
ENDROOT
BRANCH   1   2
ATOM      2  O   UNL A   1      34.122  24.916  25.493  1.00  0.00    -0.376 OA
BRANCH   2   3
ATOM      3  C   UNL A   1      33.899  25.763  24.384  1.00  0.00     0.202 C 
BRANCH   3   4
ATOM      4  C   UNL A   1      32.567  25.556  23.651  1.00  0.00     0.261 C 
BRANCH   4   5
ATOM      5  O   UNL A   1      32.711  24.808  22.414  1.00  0.00    -0.462 OA
BRANCH   5   6
ATOM      6  C   UNL A   1      32.921  23.466  22.541  1.00  0.00     0.325 C 
ATOM      7  O   UNL A   1      34.009  22.944  22.300  1.00  0.00    -0.250 OA
BRANCH   6   8
ATOM      8  C   UNL A   1      31.754  22.652  23.161  1.00  0.00     0.241 C 
BRANCH   8   9
ATOM      9  N   UNL A   1      31.923  22.024  24.498  1.00  0.00    -0.334 N 
ATOM     10  C   UNL A   1      31.291  22.682  25.625  1.00  0.00     0.147 C 
BRANCH   9  11
ATOM     11  C   UNL A   1      32.348  20.722  24.589  1.00  0.00     0.204 A 
ATOM     12  N   UNL A   1      32.196  19.890  25.595  1.00  0.00    -0.213 NA
ATOM     13  N   UNL A   1      32.996  20.064  23.553  1.00  0.00    -0.324 N 
ATOM     14  C   UNL A   1      32.611  18.649  25.142  1.00  0.00     0.093 A 
ATOM     15  C   UNL A   1      33.158  18.737  23.877  1.00  0.00     0.067 A 
ATOM     16  H   UNL A   1      33.293  20.484  22.714  1.00  0.00     0.170 HD
ATOM     17  C   UNL A   1      32.529  17.375  25.718  1.00  0.00     0.056 A 
ATOM     18  C   UNL A   1      33.693  17.620  23.212  1.00  0.00     0.030 A 
ATOM     19  C   UNL A   1      32.894  16.218  25.041  1.00  0.00     0.034 A 
ATOM     20  C   UNL A   1      33.547  16.357  23.828  1.00  0.00     0.028 A 
BRANCH  19  21
ATOM     21  N   UNL A   1      32.641  14.986  25.628  1.00  0.00    -0.399 N 
ATOM     22  H   UNL A   1      32.584  14.910  26.608  1.00  0.00     0.156 HD
ATOM     23  H   UNL A   1      32.518  14.188  25.065  1.00  0.00     0.156 HD
ENDBRANCH  19  21
ENDBRANCH   9  11
ENDBRANCH   8   9
ENDBRANCH   6   8
ENDBRANCH   5   6
ENDBRANCH   4   5
ENDBRANCH   3   4
ENDBRANCH   2   3
ENDBRANCH   1   2
BRANCH   1  24
ATOM     24  C   UNL A   1      35.165  22.583  25.767  1.00  0.00     0.188 C 
BRANCH  24  25
ATOM     25  O   UNL A   1      35.699  21.776  24.741  1.00  0.00    -0.376 OA
BRANCH  25  26
ATOM     26  C   UNL A   1      36.983  21.226  24.915  1.00  0.00     0.202 C 
BRANCH  26  27
ATOM     27  C   UNL A   1      38.103  21.878  25.753  1.00  0.00     0.261 C 
BRANCH  27  28
ATOM     28  O   UNL A   1      39.247  21.093  26.140  1.00  0.00    -0.460 OA
BRANCH  28  29
ATOM     29  C   UNL A   1      40.405  21.798  26.227  1.00  0.00     0.338 C 
ATOM     30  O   UNL A   1      41.476  21.430  25.752  1.00  0.00    -0.246 OA
BRANCH  29  31
ATOM     31  C   UNL A   1      40.389  23.080  27.004  1.00  0.00     0.060 A 
ATOM     32  C   UNL A   1      40.085  24.319  26.411  1.00  0.00     0.016 A 
ATOM     33  C   UNL A   1      41.224  23.076  28.126  1.00  0.00     0.016 A 
ATOM     34  C   UNL A   1      40.734  25.493  26.825  1.00  0.00     0.010 A 
ATOM     35  C   UNL A   1      41.830  24.258  28.571  1.00  0.00     0.010 A 
ATOM     36  C   UNL A   1      41.632  25.471  27.895  1.00  0.00    -0.014 A 
BRANCH  36  37
ATOM     37  C   UNL A   1      42.261  26.709  28.413  1.00  0.00     0.031 A 
ATOM     38  C   UNL A   1      41.468  27.820  29.047  1.00  0.00     0.074 A 
ATOM     39  C   UNL A   1      43.572  26.872  28.164  1.00  0.00     0.049 A 
ATOM     40  N   UNL A   1      41.769  29.089  29.157  1.00  0.00    -0.248 NA
ATOM     41  C   UNL A   1      40.179  27.458  29.655  1.00  0.00     0.031 C 
ATOM     42  C   UNL A   1      44.468  25.831  27.656  1.00  0.00     0.029 A 
ATOM     43  N   UNL A   1      44.358  27.993  28.226  1.00  0.00    -0.354 N 
ATOM     44  C   UNL A   1      40.697  29.689  29.815  1.00  0.00     0.074 A 
ATOM     45  C   UNL A   1      39.742  28.635  30.094  1.00  0.00     0.031 C 
ATOM     46  C   UNL A   1      45.656  26.374  27.376  1.00  0.00     0.029 A 
ATOM     47  C   UNL A   1      45.565  27.811  27.594  1.00  0.00     0.049 A 
ATOM     48  H   UNL A   1      44.090  28.830  28.670  1.00  0.00     0.167 HD
ATOM     49  C   UNL A   1      40.540  31.000  30.134  1.00  0.00     0.037 A 
ATOM     50  C   UNL A   1      46.458  28.702  27.133  1.00  0.00     0.037 A 
ATOM     51  C   UNL A   1      41.532  32.014  29.848  1.00  0.00     0.049 A 
ATOM     52  C   UNL A   1      46.211  30.159  27.355  1.00  0.00     0.074 A 
ATOM     53  C   UNL A   1      41.491  33.369  30.134  1.00  0.00     0.029 A 
ATOM     54  N   UNL A   1      42.740  31.785  29.202  1.00  0.00    -0.354 N 
ATOM     55  N   UNL A   1      45.181  30.737  27.922  1.00  0.00    -0.248 NA
ATOM     56  C   UNL A   1      47.247  31.085  26.886  1.00  0.00     0.031 C 
ATOM     57  C   UNL A   1      42.638  33.966  29.603  1.00  0.00     0.029 A 
ATOM     58  C   UNL A   1      43.434  32.975  29.051  1.00  0.00     0.049 A 
ATOM     59  H   UNL A   1      43.058  30.904  28.897  1.00  0.00     0.167 HD
ATOM     60  C   UNL A   1      45.464  32.095  27.922  1.00  0.00     0.074 A 
ATOM     61  C   UNL A   1      46.757  32.251  27.283  1.00  0.00     0.031 C 
ATOM     62  C   UNL A   1      44.728  33.115  28.425  1.00  0.00     0.037 A 
BRANCH  49  63
ATOM     63  C   UNL A   1      39.245  31.452  30.768  1.00  0.00     0.058 A 
ATOM     64  C   UNL A   1      39.109  31.653  32.150  1.00  0.00     0.135 A 
ATOM     65  C   UNL A   1      38.144  31.782  29.957  1.00  0.00     0.135 A 
ATOM     66  F   UNL A   1      40.122  31.362  32.979  1.00  0.00    -0.206 F 
ATOM     67  C   UNL A   1      37.924  32.140  32.706  1.00  0.00     0.059 A 
ATOM     68  C   UNL A   1      36.960  32.295  30.486  1.00  0.00     0.059 A 
ATOM     69  F   UNL A   1      38.215  31.625  28.626  1.00  0.00    -0.206 F 
ATOM     70  C   UNL A   1      36.854  32.456  31.865  1.00  0.00     0.060 A 
BRANCH  70  71
ATOM     71  S   UNL A   1      35.322  33.078  32.596  1.00  0.00     0.124 S 
ATOM     72  O   UNL A   1      34.317  32.328  31.843  1.00  0.00    -0.237 OA
ATOM     73  O   UNL A   1      35.468  32.697  34.001  1.00  0.00    -0.237 OA
ATOM     74  O   UNL A   1      35.366  34.506  32.329  1.00  0.00    -0.744 OA
ENDBRANCH  70  71
ENDBRANCH  49  63
BRANCH  50  75
ATOM     75  C   UNL A   1      47.631  28.202  26.376  1.00  0.00     0.058 A 
ATOM     76  C   UNL A   1      47.521  27.897  25.015  1.00  0.00     0.135 A 
ATOM     77  C   UNL A   1      48.903  28.134  26.970  1.00  0.00     0.135 A 
ATOM     78  F   UNL A   1      46.327  27.958  24.409  1.00  0.00    -0.206 F 
ATOM     79  C   UNL A   1      48.634  27.539  24.265  1.00  0.00     0.059 A 
ATOM     80  C   UNL A   1      50.035  27.807  26.233  1.00  0.00     0.059 A 
ATOM     81  F   UNL A   1      49.061  28.450  28.265  1.00  0.00    -0.206 F 
ATOM     82  C   UNL A   1      49.886  27.505  24.879  1.00  0.00     0.060 A 
BRANCH  82  83
ATOM     83  S   UNL A   1      51.332  27.109  23.875  1.00  0.00     0.124 S 
ATOM     84  O   UNL A   1      50.718  26.858  22.571  1.00  0.00    -0.237 OA
ATOM     85  O   UNL A   1      52.117  28.341  23.977  1.00  0.00    -0.237 OA
ATOM     86  O   UNL A   1      51.903  25.953  24.538  1.00  0.00    -0.744 OA
ENDBRANCH  82  83
ENDBRANCH  50  75
BRANCH  62  87
ATOM     87  C   UNL A   1      45.327  34.490  28.371  1.00  0.00     0.058 A 
ATOM     88  C   UNL A   1      45.073  35.373  27.311  1.00  0.00     0.135 A 
ATOM     89  C   UNL A   1      46.114  34.954  29.439  1.00  0.00     0.135 A 
ATOM     90  F   UNL A   1      44.344  34.972  26.257  1.00  0.00    -0.206 F 
ATOM     91  C   UNL A   1      45.577  36.669  27.312  1.00  0.00     0.059 A 
ATOM     92  C   UNL A   1      46.605  36.254  29.474  1.00  0.00     0.059 A 
ATOM     93  F   UNL A   1      46.388  34.147  30.477  1.00  0.00    -0.206 F 
ATOM     94  C   UNL A   1      46.332  37.104  28.404  1.00  0.00     0.060 A 
BRANCH  94  95
ATOM     95  S   UNL A   1      46.911  38.814  28.428  1.00  0.00     0.124 S 
ATOM     96  O   UNL A   1      47.210  39.005  29.843  1.00  0.00    -0.237 OA
ATOM     97  O   UNL A   1      48.067  38.762  27.537  1.00  0.00    -0.237 OA
ATOM     98  O   UNL A   1      45.769  39.568  27.920  1.00  0.00    -0.744 OA
ENDBRANCH  94  95
ENDBRANCH  62  87
ENDBRANCH  36  37
ENDBRANCH  29  31
ENDBRANCH  28  29
ENDBRANCH  27  28
ENDBRANCH  26  27
ENDBRANCH  25  26
ENDBRANCH  24  25
ENDBRANCH   1  24
TORSDOF 23
ENDMDL
MODEL 2
REMARK VINA RESULT:      -9.6      5.368      9.115
REMARK SMILES CN(CC(=O)OCCOCCOCCOC(=O)c1ccc(-c2c3nc(c(-c4c(F)cc(S(=O)(=O)[O-])cc4F)c4ccc([nH]4)c(-c4c(F)cc(S(=O)(=O)[O-])cc4F)c4nc(c(-c5c(F)cc(S(=O)(=O)[O-])cc5F)c5ccc2[nH]5)C=C4)C=C3)cc1)c1nc2cc(N)ccc2[nH]1
REMARK SMILES IDX 10 1 9 2 8 3 7 4 6 5 4 6 5 7 3 8 2 9 1 10 84 11 85 12 93 13
REMARK SMILES IDX 86 14 92 15 87 17 91 18 88 19 90 20 89 21 11 24 12 25 13 26
REMARK SMILES IDX 14 27 15 28 16 29 17 30 18 31 19 32 83 33 20 34 82 35 21 36
REMARK SMILES IDX 22 37 23 38 76 39 24 40 81 41 75 42 77 43 25 44 80 45 74 46
REMARK SMILES IDX 73 47 26 49 60 50 39 51 59 52 40 53 43 54 58 55 78 56 41 57
REMARK SMILES IDX 42 58 57 60 79 61 44 62 27 63 28 64 37 65 29 66 30 67 36 68
REMARK SMILES IDX 38 69 31 70 32 71 33 72 34 73 35 74 61 75 62 76 71 77 63 78
REMARK SMILES IDX 64 79 70 80 72 81 65 82 66 83 67 84 68 85 69 86 45 87 46 88
REMARK SMILES IDX 55 89 47 90 48 91 54 92 56 93 49 94 50 95 51 96 52 97 53 98
REMARK H PARENT 93 16 89 22 89 23 77 48 43 59
REMARK Flexibility Score: inf
ROOT
ATOM      1  C   UNL A   1      34.136  26.054  24.945  1.00  0.00     0.188 C 
ENDROOT
BRANCH   1   2
ATOM      2  O   UNL A   1      32.752  26.326  25.111  1.00  0.00    -0.376 OA
BRANCH   2   3
ATOM      3  C   UNL A   1      32.110  27.047  24.080  1.00  0.00     0.202 C 
BRANCH   3   4
ATOM      4  C   UNL A   1      30.890  26.360  23.453  1.00  0.00     0.261 C 
BRANCH   4   5
ATOM      5  O   UNL A   1      31.245  25.421  22.403  1.00  0.00    -0.462 OA
BRANCH   5   6
ATOM      6  C   UNL A   1      31.696  24.200  22.813  1.00  0.00     0.325 C 
ATOM      7  O   UNL A   1      32.754  23.720  22.410  1.00  0.00    -0.250 OA
BRANCH   6   8
ATOM      8  C   UNL A   1      30.877  23.519  23.942  1.00  0.00     0.241 C 
BRANCH   8   9
ATOM      9  N   UNL A   1      31.583  22.773  25.017  1.00  0.00    -0.334 N 
ATOM     10  C   UNL A   1      31.463  23.286  26.368  1.00  0.00     0.147 C 
BRANCH   9  11
ATOM     11  C   UNL A   1      32.016  21.492  24.784  1.00  0.00     0.204 A 
ATOM     12  N   UNL A   1      32.281  20.555  25.668  1.00  0.00    -0.213 NA
ATOM     13  N   UNL A   1      32.203  20.976  23.510  1.00  0.00    -0.324 N 
ATOM     14  C   UNL A   1      32.488  19.388  24.950  1.00  0.00     0.093 A 
ATOM     15  C   UNL A   1      32.488  19.633  23.590  1.00  0.00     0.067 A 
ATOM     16  H   UNL A   1      32.139  21.493  22.675  1.00  0.00     0.170 HD
ATOM     17  C   UNL A   1      32.649  18.060  25.364  1.00  0.00     0.056 A 
ATOM     18  C   UNL A   1      32.721  18.618  22.647  1.00  0.00     0.030 A 
ATOM     19  C   UNL A   1      32.722  16.999  24.470  1.00  0.00     0.034 A 
ATOM     20  C   UNL A   1      32.838  17.292  23.122  1.00  0.00     0.028 A 
BRANCH  19  21
ATOM     21  N   UNL A   1      32.729  15.701  24.965  1.00  0.00    -0.399 N 
ATOM     22  H   UNL A   1      33.082  15.521  25.868  1.00  0.00     0.156 HD
ATOM     23  H   UNL A   1      32.383  14.962  24.415  1.00  0.00     0.156 HD
ENDBRANCH  19  21
ENDBRANCH   9  11
ENDBRANCH   8   9
ENDBRANCH   6   8
ENDBRANCH   5   6
ENDBRANCH   4   5
ENDBRANCH   3   4
ENDBRANCH   2   3
ENDBRANCH   1   2
BRANCH   1  24
ATOM     24  C   UNL A   1      34.696  24.649  25.245  1.00  0.00     0.188 C 
BRANCH  24  25
ATOM     25  O   UNL A   1      35.470  24.139  24.183  1.00  0.00    -0.376 OA
BRANCH  25  26
ATOM     26  C   UNL A   1      36.613  23.375  24.488  1.00  0.00     0.202 C 
BRANCH  26  27
ATOM     27  C   UNL A   1      37.398  23.475  25.811  1.00  0.00     0.261 C 
BRANCH  27  28
ATOM     28  O   UNL A   1      38.470  22.548  26.071  1.00  0.00    -0.460 OA
BRANCH  28  29
ATOM     29  C   UNL A   1      39.637  23.135  26.447  1.00  0.00     0.338 C 
ATOM     30  O   UNL A   1      40.716  22.551  26.506  1.00  0.00    -0.246 OA
BRANCH  29  31
ATOM     31  C   UNL A   1      39.595  24.571  26.874  1.00  0.00     0.060 A 
ATOM     32  C   UNL A   1      40.485  25.535  26.368  1.00  0.00     0.016 A 
ATOM     33  C   UNL A   1      39.072  24.768  28.156  1.00  0.00     0.016 A 
ATOM     34  C   UNL A   1      40.966  26.571  27.185  1.00  0.00     0.010 A 
ATOM     35  C   UNL A   1      39.513  25.833  28.953  1.00  0.00     0.010 A 
ATOM     36  C   UNL A   1      40.502  26.717  28.495  1.00  0.00    -0.014 A 
BRANCH  36  37
ATOM     37  C   UNL A   1      40.920  27.854  29.350  1.00  0.00     0.031 A 
ATOM     38  C   UNL A   1      41.996  27.732  30.394  1.00  0.00     0.074 A 
ATOM     39  C   UNL A   1      40.192  28.980  29.257  1.00  0.00     0.049 A 
ATOM     40  N   UNL A   1      42.187  28.453  31.470  1.00  0.00    -0.248 NA
ATOM     41  C   UNL A   1      43.004  26.681  30.196  1.00  0.00     0.031 C 
ATOM     42  C   UNL A   1      39.199  29.257  28.217  1.00  0.00     0.029 A 
ATOM     43  N   UNL A   1      40.118  30.064  30.093  1.00  0.00    -0.354 N 
ATOM     44  C   UNL A   1      43.312  27.926  32.100  1.00  0.00     0.074 A 
ATOM     45  C   UNL A   1      43.773  26.830  31.271  1.00  0.00     0.031 C 
ATOM     46  C   UNL A   1      38.557  30.390  28.516  1.00  0.00     0.029 A 
ATOM     47  C   UNL A   1      39.031  30.856  29.812  1.00  0.00     0.049 A 
ATOM     48  H   UNL A   1      40.765  30.252  30.810  1.00  0.00     0.167 HD
ATOM     49  C   UNL A   1      43.882  28.327  33.267  1.00  0.00     0.037 A 
ATOM     50  C   UNL A   1      38.403  31.783  30.556  1.00  0.00     0.037 A 
ATOM     51  C   UNL A   1      43.393  29.440  34.051  1.00  0.00     0.049 A 
ATOM     52  C   UNL A   1      38.947  32.120  31.906  1.00  0.00     0.074 A 
ATOM     53  C   UNL A   1      43.894  29.946  35.239  1.00  0.00     0.029 A 
ATOM     54  N   UNL A   1      42.285  30.214  33.730  1.00  0.00    -0.354 N 
ATOM     55  N   UNL A   1      39.970  31.592  32.531  1.00  0.00    -0.248 NA
ATOM     56  C   UNL A   1      38.260  33.181  32.650  1.00  0.00     0.031 C 
ATOM     57  C   UNL A   1      43.052  30.977  35.668  1.00  0.00     0.029 A 
ATOM     58  C   UNL A   1      42.067  31.167  34.712  1.00  0.00     0.049 A 
ATOM     59  H   UNL A   1      41.734  30.102  32.921  1.00  0.00     0.167 HD
ATOM     60  C   UNL A   1      40.083  32.289  33.725  1.00  0.00     0.074 A 
ATOM     61  C   UNL A   1      39.011  33.266  33.739  1.00  0.00     0.031 C 
ATOM     62  C   UNL A   1      41.004  32.144  34.708  1.00  0.00     0.037 A 
BRANCH  49  63
ATOM     63  C   UNL A   1      45.052  27.547  33.818  1.00  0.00     0.058 A 
ATOM     64  C   UNL A   1      46.385  27.884  33.542  1.00  0.00     0.135 A 
ATOM     65  C   UNL A   1      44.829  26.493  34.724  1.00  0.00     0.135 A 
ATOM     66  F   UNL A   1      46.668  28.881  32.689  1.00  0.00    -0.206 F 
ATOM     67  C   UNL A   1      47.451  27.193  34.121  1.00  0.00     0.059 A 
ATOM     68  C   UNL A   1      45.876  25.806  35.336  1.00  0.00     0.059 A 
ATOM     69  F   UNL A   1      43.576  26.130  35.041  1.00  0.00    -0.206 F 
ATOM     70  C   UNL A   1      47.186  26.153  35.015  1.00  0.00     0.060 A 
BRANCH  70  71
ATOM     71  S   UNL A   1      48.573  25.259  35.753  1.00  0.00     0.124 S 
ATOM     72  O   UNL A   1      49.417  26.360  36.213  1.00  0.00    -0.237 OA
ATOM     73  O   UNL A   1      47.920  24.484  36.809  1.00  0.00    -0.237 OA
ATOM     74  O   UNL A   1      49.108  24.479  34.649  1.00  0.00    -0.744 OA
ENDBRANCH  70  71
ENDBRANCH  49  63
BRANCH  50  75
ATOM     75  C   UNL A   1      37.164  32.398  30.022  1.00  0.00     0.058 A 
ATOM     76  C   UNL A   1      35.909  31.892  30.377  1.00  0.00     0.135 A 
ATOM     77  C   UNL A   1      37.211  33.571  29.246  1.00  0.00     0.135 A 
ATOM     78  F   UNL A   1      35.821  30.782  31.123  1.00  0.00    -0.206 F 
ATOM     79  C   UNL A   1      34.738  32.526  29.981  1.00  0.00     0.059 A 
ATOM     80  C   UNL A   1      36.054  34.238  28.864  1.00  0.00     0.059 A 
ATOM     81  F   UNL A   1      38.394  34.110  28.910  1.00  0.00    -0.206 F 
ATOM     82  C   UNL A   1      34.820  33.702  29.234  1.00  0.00     0.060 A 
BRANCH  82  83
ATOM     83  S   UNL A   1      33.293  34.553  28.789  1.00  0.00     0.124 S 
ATOM     84  O   UNL A   1      33.810  35.713  28.064  1.00  0.00    -0.237 OA
ATOM     85  O   UNL A   1      32.613  33.547  27.971  1.00  0.00    -0.237 OA
ATOM     86  O   UNL A   1      32.672  34.833  30.070  1.00  0.00    -0.744 OA
ENDBRANCH  82  83
ENDBRANCH  50  75
BRANCH  62  87
ATOM     87  C   UNL A   1      40.943  33.108  35.857  1.00  0.00     0.058 A 
ATOM     88  C   UNL A   1      41.803  34.213  35.949  1.00  0.00     0.135 A 
ATOM     89  C   UNL A   1      39.956  32.959  36.846  1.00  0.00     0.135 A 
ATOM     90  F   UNL A   1      42.776  34.390  35.040  1.00  0.00    -0.206 F 
ATOM     91  C   UNL A   1      41.686  35.137  36.981  1.00  0.00     0.059 A 
ATOM     92  C   UNL A   1      39.803  33.885  37.871  1.00  0.00     0.059 A 
ATOM     93  F   UNL A   1      39.111  31.917  36.804  1.00  0.00    -0.206 F 
ATOM     94  C   UNL A   1      40.675  34.971  37.930  1.00  0.00     0.060 A 
BRANCH  94  95
ATOM     95  S   UNL A   1      40.485  36.222  39.218  1.00  0.00     0.124 S 
ATOM     96  O   UNL A   1      41.870  36.457  39.610  1.00  0.00    -0.237 OA
ATOM     97  O   UNL A   1      39.836  37.313  38.497  1.00  0.00    -0.237 OA
ATOM     98  O   UNL A   1      39.653  35.559  40.218  1.00  0.00    -0.744 OA
ENDBRANCH  94  95
ENDBRANCH  62  87
ENDBRANCH  36  37
ENDBRANCH  29  31
ENDBRANCH  28  29
ENDBRANCH  27  28
ENDBRANCH  26  27
ENDBRANCH  25  26
ENDBRANCH  24  25
ENDBRANCH   1  24
TORSDOF 23
ENDMDL
MODEL 3
REMARK VINA RESULT:      -9.4      2.919      7.802
REMARK SMILES CN(CC(=O)OCCOCCOCCOC(=O)c1ccc(-c2c3nc(c(-c4c(F)cc(S(=O)(=O)[O-])cc4F)c4ccc([nH]4)c(-c4c(F)cc(S(=O)(=O)[O-])cc4F)c4nc(c(-c5c(F)cc(S(=O)(=O)[O-])cc5F)c5ccc2[nH]5)C=C4)C=C3)cc1)c1nc2cc(N)ccc2[nH]1
REMARK SMILES IDX 10 1 9 2 8 3 7 4 6 5 4 6 5 7 3 8 2 9 1 10 84 11 85 12 93 13
REMARK SMILES IDX 86 14 92 15 87 17 91 18 88 19 90 20 89 21 11 24 12 25 13 26
REMARK SMILES IDX 14 27 15 28 16 29 17 30 18 31 19 32 83 33 20 34 82 35 21 36
REMARK SMILES IDX 22 37 23 38 76 39 24 40 81 41 75 42 77 43 25 44 80 45 74 46
REMARK SMILES IDX 73 47 26 49 60 50 39 51 59 52 40 53 43 54 58 55 78 56 41 57
REMARK SMILES IDX 42 58 57 60 79 61 44 62 27 63 28 64 37 65 29 66 30 67 36 68
REMARK SMILES IDX 38 69 31 70 32 71 33 72 34 73 35 74 61 75 62 76 71 77 63 78
REMARK SMILES IDX 64 79 70 80 72 81 65 82 66 83 67 84 68 85 69 86 45 87 46 88
REMARK SMILES IDX 55 89 47 90 48 91 54 92 56 93 49 94 50 95 51 96 52 97 53 98
REMARK H PARENT 93 16 89 22 89 23 77 48 43 59
REMARK Flexibility Score: inf
ROOT
ATOM      1  C   UNL A   1      29.997  30.614  23.820  1.00  0.00     0.188 C 
ENDROOT
BRANCH   1   2
ATOM      2  O   UNL A   1      30.000  29.701  22.731  1.00  0.00    -0.376 OA
BRANCH   2   3
ATOM      3  C   UNL A   1      29.163  28.569  22.840  1.00  0.00     0.202 C 
BRANCH   3   4
ATOM      4  C   UNL A   1      29.881  27.240  23.111  1.00  0.00     0.261 C 
BRANCH   4   5
ATOM      5  O   UNL A   1      31.092  27.079  22.325  1.00  0.00    -0.462 OA
BRANCH   5   6
ATOM      6  C   UNL A   1      32.192  26.632  22.996  1.00  0.00     0.325 C 
ATOM      7  O   UNL A   1      33.334  26.970  22.688  1.00  0.00    -0.250 OA
BRANCH   6   8
ATOM      8  C   UNL A   1      31.914  25.796  24.274  1.00  0.00     0.241 C 
BRANCH   8   9
ATOM      9  N   UNL A   1      31.931  24.311  24.202  1.00  0.00    -0.334 N 
ATOM     10  C   UNL A   1      30.826  23.667  23.519  1.00  0.00     0.147 C 
BRANCH   9  11
ATOM     11  C   UNL A   1      33.096  23.632  24.455  1.00  0.00     0.204 A 
ATOM     12  N   UNL A   1      33.245  22.493  25.096  1.00  0.00    -0.213 NA
ATOM     13  N   UNL A   1      34.336  24.063  24.008  1.00  0.00    -0.324 N 
ATOM     14  C   UNL A   1      34.566  22.117  24.922  1.00  0.00     0.093 A 
ATOM     15  C   UNL A   1      35.286  23.105  24.279  1.00  0.00     0.067 A 
ATOM     16  H   UNL A   1      34.509  24.923  23.563  1.00  0.00     0.170 HD
ATOM     17  C   UNL A   1      35.244  20.934  25.242  1.00  0.00     0.056 A 
ATOM     18  C   UNL A   1      36.662  22.983  24.023  1.00  0.00     0.030 A 
ATOM     19  C   UNL A   1      36.562  20.698  24.868  1.00  0.00     0.034 A 
ATOM     20  C   UNL A   1      37.283  21.753  24.334  1.00  0.00     0.028 A 
BRANCH  19  21
ATOM     21  N   UNL A   1      37.111  19.442  25.092  1.00  0.00    -0.399 N 
ATOM     22  H   UNL A   1      37.833  19.110  24.510  1.00  0.00     0.156 HD
ATOM     23  H   UNL A   1      36.779  18.885  25.832  1.00  0.00     0.156 HD
ENDBRANCH  19  21
ENDBRANCH   9  11
ENDBRANCH   8   9
ENDBRANCH   6   8
ENDBRANCH   5   6
ENDBRANCH   4   5
ENDBRANCH   3   4
ENDBRANCH   2   3
ENDBRANCH   1   2
BRANCH   1  24
ATOM     24  C   UNL A   1      30.842  30.330  25.077  1.00  0.00     0.188 C 
BRANCH  24  25
ATOM     25  O   UNL A   1      31.992  29.565  24.793  1.00  0.00    -0.376 OA
BRANCH  25  26
ATOM     26  C   UNL A   1      33.145  29.763  25.578  1.00  0.00     0.202 C 
BRANCH  26  27
ATOM     27  C   UNL A   1      33.168  30.548  26.906  1.00  0.00     0.261 C 
BRANCH  27  28
ATOM     28  O   UNL A   1      33.950  30.051  28.009  1.00  0.00    -0.460 OA
BRANCH  28  29
ATOM     29  C   UNL A   1      35.166  30.643  28.144  1.00  0.00     0.338 C 
ATOM     30  O   UNL A   1      35.366  31.847  28.009  1.00  0.00    -0.246 OA
BRANCH  29  31
ATOM     31  C   UNL A   1      36.349  29.763  28.415  1.00  0.00     0.060 A 
ATOM     32  C   UNL A   1      36.786  29.467  29.719  1.00  0.00     0.016 A 
ATOM     33  C   UNL A   1      37.296  29.750  27.386  1.00  0.00     0.016 A 
ATOM     34  C   UNL A   1      38.153  29.329  30.006  1.00  0.00     0.010 A 
ATOM     35  C   UNL A   1      38.655  29.561  27.666  1.00  0.00     0.010 A 
ATOM     36  C   UNL A   1      39.105  29.399  28.985  1.00  0.00    -0.014 A 
BRANCH  36  37
ATOM     37  C   UNL A   1      40.546  29.166  29.244  1.00  0.00     0.031 A 
ATOM     38  C   UNL A   1      41.522  30.287  29.478  1.00  0.00     0.074 A 
ATOM     39  C   UNL A   1      40.986  27.902  29.118  1.00  0.00     0.049 A 
ATOM     40  N   UNL A   1      42.819  30.303  29.299  1.00  0.00    -0.248 NA
ATOM     41  C   UNL A   1      40.977  31.548  30.001  1.00  0.00     0.031 C 
ATOM     42  C   UNL A   1      40.130  26.720  28.999  1.00  0.00     0.029 A 
ATOM     43  N   UNL A   1      42.260  27.411  28.988  1.00  0.00    -0.354 N 
ATOM     44  C   UNL A   1      43.247  31.581  29.652  1.00  0.00     0.074 A 
ATOM     45  C   UNL A   1      42.067  32.309  30.074  1.00  0.00     0.031 C 
ATOM     46  C   UNL A   1      40.890  25.654  28.733  1.00  0.00     0.029 A 
ATOM     47  C   UNL A   1      42.266  26.102  28.569  1.00  0.00     0.049 A 
ATOM     48  H   UNL A   1      43.073  27.934  29.171  1.00  0.00     0.167 HD
ATOM     49  C   UNL A   1      44.509  32.081  29.608  1.00  0.00     0.037 A 
ATOM     50  C   UNL A   1      43.237  25.364  28.006  1.00  0.00     0.037 A 
ATOM     51  C   UNL A   1      45.659  31.307  29.195  1.00  0.00     0.049 A 
ATOM     52  C   UNL A   1      44.592  25.966  27.823  1.00  0.00     0.074 A 
ATOM     53  C   UNL A   1      46.985  31.701  29.123  1.00  0.00     0.029 A 
ATOM     54  N   UNL A   1      45.618  29.984  28.775  1.00  0.00    -0.354 N 
ATOM     55  N   UNL A   1      44.991  27.183  28.099  1.00  0.00    -0.248 NA
ATOM     56  C   UNL A   1      45.632  25.098  27.260  1.00  0.00     0.031 C 
ATOM     57  C   UNL A   1      47.731  30.641  28.598  1.00  0.00     0.029 A 
ATOM     58  C   UNL A   1      46.887  29.559  28.412  1.00  0.00     0.049 A 
ATOM     59  H   UNL A   1      44.807  29.428  28.743  1.00  0.00     0.167 HD
ATOM     60  C   UNL A   1      46.343  27.217  27.790  1.00  0.00     0.074 A 
ATOM     61  C   UNL A   1      46.688  25.900  27.289  1.00  0.00     0.031 C 
ATOM     62  C   UNL A   1      47.219  28.240  27.928  1.00  0.00     0.037 A 
BRANCH  49  63
ATOM     63  C   UNL A   1      44.734  33.536  29.951  1.00  0.00     0.058 A 
ATOM     64  C   UNL A   1      44.573  34.568  29.014  1.00  0.00     0.135 A 
ATOM     65  C   UNL A   1      45.025  33.908  31.276  1.00  0.00     0.135 A 
ATOM     66  F   UNL A   1      44.291  34.281  27.734  1.00  0.00    -0.206 F 
ATOM     67  C   UNL A   1      44.715  35.910  29.371  1.00  0.00     0.059 A 
ATOM     68  C   UNL A   1      45.145  35.243  31.662  1.00  0.00     0.059 A 
ATOM     69  F   UNL A   1      45.178  32.969  32.223  1.00  0.00    -0.206 F 
ATOM     70  C   UNL A   1      45.004  36.237  30.698  1.00  0.00     0.060 A 
BRANCH  70  71
ATOM     71  S   UNL A   1      45.195  37.978  31.148  1.00  0.00     0.124 S 
ATOM     72  O   UNL A   1      43.803  38.387  31.319  1.00  0.00    -0.237 OA
ATOM     73  O   UNL A   1      45.982  37.897  32.379  1.00  0.00    -0.237 OA
ATOM     74  O   UNL A   1      45.883  38.556  30.006  1.00  0.00    -0.744 OA
ENDBRANCH  70  71
ENDBRANCH  49  63
BRANCH  50  75
ATOM     75  C   UNL A   1      42.908  23.994  27.544  1.00  0.00     0.058 A 
ATOM     76  C   UNL A   1      42.977  22.911  28.427  1.00  0.00     0.135 A 
ATOM     77  C   UNL A   1      42.408  23.764  26.250  1.00  0.00     0.135 A 
ATOM     78  F   UNL A   1      43.440  23.090  29.672  1.00  0.00    -0.206 F 
ATOM     79  C   UNL A   1      42.562  21.642  28.044  1.00  0.00     0.059 A 
ATOM     80  C   UNL A   1      41.960  22.510  25.855  1.00  0.00     0.059 A 
ATOM     81  F   UNL A   1      42.293  24.780  25.381  1.00  0.00    -0.206 F 
ATOM     82  C   UNL A   1      42.047  21.453  26.761  1.00  0.00     0.060 A 
BRANCH  82  83
ATOM     83  S   UNL A   1      41.444  19.815  26.303  1.00  0.00     0.124 S 
ATOM     84  O   UNL A   1      40.054  20.107  25.953  1.00  0.00    -0.237 OA
ATOM     85  O   UNL A   1      42.320  19.472  25.182  1.00  0.00    -0.237 OA
ATOM     86  O   UNL A   1      41.641  19.029  27.507  1.00  0.00    -0.744 OA
ENDBRANCH  82  83
ENDBRANCH  50  75
BRANCH  62  87
ATOM     87  C   UNL A   1      48.658  27.964  27.600  1.00  0.00     0.058 A 
ATOM     88  C   UNL A   1      49.594  27.618  28.586  1.00  0.00     0.135 A 
ATOM     89  C   UNL A   1      49.087  27.979  26.262  1.00  0.00     0.135 A 
ATOM     90  F   UNL A   1      49.239  27.610  29.881  1.00  0.00    -0.206 F 
ATOM     91  C   UNL A   1      50.906  27.294  28.257  1.00  0.00     0.059 A 
ATOM     92  C   UNL A   1      50.386  27.632  25.908  1.00  0.00     0.059 A 
ATOM     93  F   UNL A   1      48.231  28.306  25.281  1.00  0.00    -0.206 F 
ATOM     94  C   UNL A   1      51.289  27.293  26.914  1.00  0.00     0.060 A 
BRANCH  94  95
ATOM     95  S   UNL A   1      52.972  26.792  26.496  1.00  0.00     0.124 S 
ATOM     96  O   UNL A   1      52.855  26.523  25.067  1.00  0.00    -0.237 OA
ATOM     97  O   UNL A   1      53.747  27.976  26.858  1.00  0.00    -0.237 OA
ATOM     98  O   UNL A   1      53.200  25.621  27.338  1.00  0.00    -0.744 OA
ENDBRANCH  94  95
ENDBRANCH  62  87
ENDBRANCH  36  37
ENDBRANCH  29  31
ENDBRANCH  28  29
ENDBRANCH  27  28
ENDBRANCH  26  27
ENDBRANCH  25  26
ENDBRANCH  24  25
ENDBRANCH   1  24
TORSDOF 23
ENDMDL
