MODEL 1
REMARK VINA RESULT:      -8.2      0.000      0.000
REMARK SMILES CC[C@H]1CCCC[C@@H]1C1(C(=O)OCCOCCOCCOC(=O)c2ccc(-c3c4nc(c(-c5c(F)cc(S(=O)(=O)[O-])cc5F)c5ccc([nH]5)c(-c5c(F)cc(S(=O)(=O)[O-])cc5F)c5nc(c(-c6c(F)cc(S(=O)(=O)[O-])cc6F)c6ccc3[nH]6)C=C5)C=C4)cc2)CC1
REMARK SMILES IDX 17 1 16 2 15 3 14 4 13 5 12 6 10 7 11 8 9 9 90 10 91 11 8 12
REMARK SMILES IDX 3 13 4 14 5 15 7 16 6 17 2 18 1 19 18 20 19 21 20 22 21 23
REMARK SMILES IDX 22 24 23 25 24 26 25 27 89 28 26 29 88 30 27 31 28 32 29 33
REMARK SMILES IDX 82 34 30 35 87 36 81 37 83 38 31 39 86 40 80 41 79 42 32 44
REMARK SMILES IDX 66 45 45 46 65 47 46 48 49 49 64 50 84 51 47 52 48 53 63 55
REMARK SMILES IDX 85 56 50 57 33 58 34 59 43 60 35 61 36 62 42 63 44 64 37 65
REMARK SMILES IDX 38 66 39 67 40 68 41 69 67 70 68 71 77 72 69 73 70 74 76 75
REMARK SMILES IDX 78 76 71 77 72 78 73 79 74 80 75 81 51 82 52 83 61 84 53 85
REMARK SMILES IDX 54 86 60 87 62 88 55 89 56 90 57 91 58 92 59 93
REMARK H PARENT 83 43 49 54
REMARK Flexibility Score: inf
ROOT
ATOM      1  C   UNL A   1      34.318  34.525  32.533  1.00  0.00     0.188 C 
ENDROOT
BRANCH   1   2
ATOM      2  C   UNL A   1      35.710  33.882  32.774  1.00  0.00     0.188 C 
BRANCH   2   3
ATOM      3  O   UNL A   1      36.794  34.672  33.220  1.00  0.00    -0.376 OA
BRANCH   3   4
ATOM      4  C   UNL A   1      37.855  34.958  32.329  1.00  0.00     0.202 C 
BRANCH   4   5
ATOM      5  C   UNL A   1      39.040  33.987  32.166  1.00  0.00     0.261 C 
BRANCH   5   6
ATOM      6  O   UNL A   1      38.953  32.779  32.937  1.00  0.00    -0.463 OA
BRANCH   6   7
ATOM      7  C   UNL A   1      40.066  32.449  33.647  1.00  0.00     0.312 C 
ATOM      8  O   UNL A   1      40.982  33.212  33.936  1.00  0.00    -0.252 OA
BRANCH   7   9
ATOM      9  C   UNL A   1      40.074  30.996  34.107  1.00  0.00     0.071 C 
ATOM     10  C   UNL A   1      38.792  30.234  33.769  1.00  0.00     0.020 C 
ATOM     11  C   UNL A   1      39.066  30.603  35.188  1.00  0.00     0.020 C 
BRANCH   9  12
ATOM     12  C   UNL A   1      41.467  30.311  34.059  1.00  0.00     0.009 C 
ATOM     13  C   UNL A   1      41.723  29.107  33.126  1.00  0.00    -0.007 C 
ATOM     14  C   UNL A   1      41.348  27.758  33.796  1.00  0.00     0.004 C 
ATOM     15  C   UNL A   1      41.991  27.541  35.166  1.00  0.00     0.000 C 
ATOM     16  C   UNL A   1      42.056  30.035  35.436  1.00  0.00     0.005 C 
ATOM     17  C   UNL A   1      41.715  28.705  36.089  1.00  0.00     0.000 C 
BRANCH  13  18
ATOM     18  C   UNL A   1      43.221  29.022  32.671  1.00  0.00     0.000 C 
ATOM     19  C   UNL A   1      43.659  27.717  32.017  1.00  0.00     0.004 C 
ENDBRANCH  13  18
ENDBRANCH   9  12
ENDBRANCH   7   9
ENDBRANCH   6   7
ENDBRANCH   5   6
ENDBRANCH   4   5
ENDBRANCH   3   4
ENDBRANCH   2   3
ENDBRANCH   1   2
BRANCH   1  20
ATOM     20  O   UNL A   1      33.575  34.194  31.376  1.00  0.00    -0.376 OA
BRANCH  20  21
ATOM     21  C   UNL A   1      34.063  34.666  30.133  1.00  0.00     0.202 C 
BRANCH  21  22
ATOM     22  C   UNL A   1      34.424  33.618  29.071  1.00  0.00     0.261 C 
BRANCH  22  23
ATOM     23  O   UNL A   1      34.653  32.291  29.593  1.00  0.00    -0.460 OA
BRANCH  23  24
ATOM     24  C   UNL A   1      34.571  31.289  28.679  1.00  0.00     0.338 C 
ATOM     25  O   UNL A   1      33.659  31.095  27.893  1.00  0.00    -0.246 OA
BRANCH  24  26
ATOM     26  C   UNL A   1      35.794  30.458  28.651  1.00  0.00     0.060 A 
ATOM     27  C   UNL A   1      36.347  30.082  29.870  1.00  0.00     0.016 A 
ATOM     28  C   UNL A   1      36.536  30.278  27.486  1.00  0.00     0.016 A 
ATOM     29  C   UNL A   1      37.646  29.567  29.950  1.00  0.00     0.010 A 
ATOM     30  C   UNL A   1      37.834  29.732  27.560  1.00  0.00     0.010 A 
ATOM     31  C   UNL A   1      38.422  29.402  28.798  1.00  0.00    -0.014 A 
BRANCH  31  32
ATOM     32  C   UNL A   1      39.874  29.042  28.913  1.00  0.00     0.031 A 
ATOM     33  C   UNL A   1      40.856  30.073  29.418  1.00  0.00     0.074 A 
ATOM     34  C   UNL A   1      40.327  27.795  28.663  1.00  0.00     0.049 A 
ATOM     35  N   UNL A   1      42.165  30.044  29.433  1.00  0.00    -0.248 NA
ATOM     36  C   UNL A   1      40.280  31.299  29.994  1.00  0.00     0.031 C 
ATOM     37  C   UNL A   1      39.496  26.647  28.303  1.00  0.00     0.029 A 
ATOM     38  N   UNL A   1      41.606  27.279  28.683  1.00  0.00    -0.354 N 
ATOM     39  C   UNL A   1      42.570  31.263  29.967  1.00  0.00     0.074 A 
ATOM     40  C   UNL A   1      41.366  32.005  30.275  1.00  0.00     0.031 C 
ATOM     41  C   UNL A   1      40.278  25.566  28.150  1.00  0.00     0.029 A 
ATOM     42  C   UNL A   1      41.677  25.955  28.308  1.00  0.00     0.049 A 
ATOM     43  H   UNL A   1      42.395  27.809  28.940  1.00  0.00     0.167 HD
ATOM     44  C   UNL A   1      43.828  31.728  30.171  1.00  0.00     0.037 A 
ATOM     45  C   UNL A   1      42.741  25.159  28.060  1.00  0.00     0.037 A 
ATOM     46  C   UNL A   1      45.025  30.971  29.898  1.00  0.00     0.049 A 
ATOM     47  C   UNL A   1      44.133  25.726  28.192  1.00  0.00     0.074 A 
ATOM     48  C   UNL A   1      46.345  31.371  30.031  1.00  0.00     0.029 A 
ATOM     49  N   UNL A   1      45.052  29.659  29.450  1.00  0.00    -0.354 N 
ATOM     50  N   UNL A   1      44.506  26.918  28.595  1.00  0.00    -0.248 NA
ATOM     51  C   UNL A   1      45.252  24.849  27.812  1.00  0.00     0.031 C 
ATOM     52  C   UNL A   1      47.167  30.320  29.608  1.00  0.00     0.029 A 
ATOM     53  C   UNL A   1      46.362  29.242  29.277  1.00  0.00     0.049 A 
ATOM     54  H   UNL A   1      44.256  29.105  29.279  1.00  0.00     0.167 HD
ATOM     55  C   UNL A   1      45.897  26.924  28.539  1.00  0.00     0.074 A 
ATOM     56  C   UNL A   1      46.302  25.613  28.082  1.00  0.00     0.031 C 
ATOM     57  C   UNL A   1      46.760  27.928  28.835  1.00  0.00     0.037 A 
BRANCH  44  58
ATOM     58  C   UNL A   1      43.982  33.152  30.637  1.00  0.00     0.058 A 
ATOM     59  C   UNL A   1      44.018  34.239  29.751  1.00  0.00     0.135 A 
ATOM     60  C   UNL A   1      44.070  33.429  32.013  1.00  0.00     0.135 A 
ATOM     61  F   UNL A   1      43.957  34.034  28.426  1.00  0.00    -0.206 F 
ATOM     62  C   UNL A   1      44.167  35.546  30.210  1.00  0.00     0.059 A 
ATOM     63  C   UNL A   1      44.190  34.728  32.495  1.00  0.00     0.059 A 
ATOM     64  F   UNL A   1      44.040  32.428  32.906  1.00  0.00    -0.206 F 
ATOM     65  C   UNL A   1      44.253  35.780  31.585  1.00  0.00     0.060 A 
BRANCH  65  66
ATOM     66  S   UNL A   1      44.455  37.478  32.165  1.00  0.00     0.124 S 
ATOM     67  O   UNL A   1      45.739  37.400  32.854  1.00  0.00    -0.237 OA
ATOM     68  O   UNL A   1      44.448  38.236  30.918  1.00  0.00    -0.237 OA
ATOM     69  O   UNL A   1      43.295  37.684  33.027  1.00  0.00    -0.744 OA
ENDBRANCH  65  66
ENDBRANCH  44  58
BRANCH  45  70
ATOM     70  C   UNL A   1      42.543  23.758  27.579  1.00  0.00     0.058 A 
ATOM     71  C   UNL A   1      42.543  22.668  28.462  1.00  0.00     0.135 A 
ATOM     72  C   UNL A   1      42.389  23.479  26.210  1.00  0.00     0.135 A 
ATOM     73  F   UNL A   1      42.711  22.870  29.778  1.00  0.00    -0.206 F 
ATOM     74  C   UNL A   1      42.415  21.356  28.009  1.00  0.00     0.059 A 
ATOM     75  C   UNL A   1      42.221  22.181  25.736  1.00  0.00     0.059 A 
ATOM     76  F   UNL A   1      42.385  24.478  25.314  1.00  0.00    -0.206 F 
ATOM     77  C   UNL A   1      42.249  21.123  26.642  1.00  0.00     0.060 A 
BRANCH  77  78
ATOM     78  S   UNL A   1      42.046  19.424  26.064  1.00  0.00     0.124 S 
ATOM     79  O   UNL A   1      42.942  19.394  24.914  1.00  0.00    -0.237 OA
ATOM     80  O   UNL A   1      42.472  18.653  27.227  1.00  0.00    -0.237 OA
ATOM     81  O   UNL A   1      40.621  19.344  25.755  1.00  0.00    -0.744 OA
ENDBRANCH  77  78
ENDBRANCH  45  70
BRANCH  57  82
ATOM     82  C   UNL A   1      48.235  27.639  28.730  1.00  0.00     0.058 A 
ATOM     83  C   UNL A   1      48.993  27.215  29.833  1.00  0.00     0.135 A 
ATOM     84  C   UNL A   1      48.888  27.743  27.490  1.00  0.00     0.135 A 
ATOM     85  F   UNL A   1      48.422  27.105  31.042  1.00  0.00    -0.206 F 
ATOM     86  C   UNL A   1      50.351  26.931  29.716  1.00  0.00     0.059 A 
ATOM     87  C   UNL A   1      50.238  27.431  27.344  1.00  0.00     0.059 A 
ATOM     88  F   UNL A   1      48.212  28.132  26.398  1.00  0.00    -0.206 F 
ATOM     89  C   UNL A   1      50.964  27.038  28.467  1.00  0.00     0.060 A 
BRANCH  89  90
ATOM     90  S   UNL A   1      52.719  26.637  28.324  1.00  0.00     0.124 S 
ATOM     91  O   UNL A   1      53.294  27.939  28.006  1.00  0.00    -0.237 OA
ATOM     92  O   UNL A   1      53.027  26.113  29.651  1.00  0.00    -0.237 OA
ATOM     93  O   UNL A   1      52.758  25.654  27.245  1.00  0.00    -0.744 OA
ENDBRANCH  89  90
ENDBRANCH  57  82
ENDBRANCH  31  32
ENDBRANCH  24  26
ENDBRANCH  23  24
ENDBRANCH  22  23
ENDBRANCH  21  22
ENDBRANCH  20  21
ENDBRANCH   1  20
TORSDOF 22
ENDMDL
MODEL 2
REMARK VINA RESULT:      -8.1      5.396     12.399
REMARK SMILES CC[C@H]1CCCC[C@@H]1C1(C(=O)OCCOCCOCCOC(=O)c2ccc(-c3c4nc(c(-c5c(F)cc(S(=O)(=O)[O-])cc5F)c5ccc([nH]5)c(-c5c(F)cc(S(=O)(=O)[O-])cc5F)c5nc(c(-c6c(F)cc(S(=O)(=O)[O-])cc6F)c6ccc3[nH]6)C=C5)C=C4)cc2)CC1
REMARK SMILES IDX 17 1 16 2 15 3 14 4 13 5 12 6 10 7 11 8 9 9 90 10 91 11 8 12
REMARK SMILES IDX 3 13 4 14 5 15 7 16 6 17 2 18 1 19 18 20 19 21 20 22 21 23
REMARK SMILES IDX 22 24 23 25 24 26 25 27 89 28 26 29 88 30 27 31 28 32 29 33
REMARK SMILES IDX 82 34 30 35 87 36 81 37 83 38 31 39 86 40 80 41 79 42 32 44
REMARK SMILES IDX 66 45 45 46 65 47 46 48 49 49 64 50 84 51 47 52 48 53 63 55
REMARK SMILES IDX 85 56 50 57 33 58 34 59 43 60 35 61 36 62 42 63 44 64 37 65
REMARK SMILES IDX 38 66 39 67 40 68 41 69 67 70 68 71 77 72 69 73 70 74 76 75
REMARK SMILES IDX 78 76 71 77 72 78 73 79 74 80 75 81 51 82 52 83 61 84 53 85
REMARK SMILES IDX 54 86 60 87 62 88 55 89 56 90 57 91 58 92 59 93
REMARK H PARENT 83 43 49 54
REMARK Flexibility Score: inf
ROOT
ATOM      1  C   UNL A   1      36.573  22.199  25.243  1.00  0.00     0.188 C 
ENDROOT
BRANCH   1   2
ATOM      2  C   UNL A   1      35.941  23.393  26.006  1.00  0.00     0.188 C 
BRANCH   2   3
ATOM      3  O   UNL A   1      34.611  23.313  26.480  1.00  0.00    -0.376 OA
BRANCH   3   4
ATOM      4  C   UNL A   1      33.684  22.482  25.806  1.00  0.00     0.202 C 
BRANCH   4   5
ATOM      5  C   UNL A   1      32.175  22.786  25.841  1.00  0.00     0.261 C 
BRANCH   5   6
ATOM      6  O   UNL A   1      31.754  23.897  25.035  1.00  0.00    -0.463 OA
BRANCH   6   7
ATOM      7  C   UNL A   1      31.291  24.980  25.717  1.00  0.00     0.312 C 
ATOM      8  O   UNL A   1      31.278  25.105  26.937  1.00  0.00    -0.252 OA
BRANCH   7   9
ATOM      9  C   UNL A   1      30.796  26.095  24.804  1.00  0.00     0.071 C 
ATOM     10  C   UNL A   1      29.277  26.268  24.807  1.00  0.00     0.020 C 
ATOM     11  C   UNL A   1      29.939  25.684  23.605  1.00  0.00     0.020 C 
BRANCH   9  12
ATOM     12  C   UNL A   1      31.755  27.312  24.691  1.00  0.00     0.009 C 
ATOM     13  C   UNL A   1      33.286  27.112  24.678  1.00  0.00    -0.007 C 
ATOM     14  C   UNL A   1      33.883  27.078  26.110  1.00  0.00     0.004 C 
ATOM     15  C   UNL A   1      33.490  28.273  26.979  1.00  0.00     0.000 C 
ATOM     16  C   UNL A   1      31.389  28.462  25.620  1.00  0.00     0.005 C 
ATOM     17  C   UNL A   1      31.991  28.451  27.017  1.00  0.00     0.000 C 
BRANCH  13  18
ATOM     18  C   UNL A   1      34.021  28.238  23.873  1.00  0.00     0.000 C 
ATOM     19  C   UNL A   1      33.337  28.718  22.598  1.00  0.00     0.004 C 
ENDBRANCH  13  18
ENDBRANCH   9  12
ENDBRANCH   7   9
ENDBRANCH   6   7
ENDBRANCH   5   6
ENDBRANCH   4   5
ENDBRANCH   3   4
ENDBRANCH   2   3
ENDBRANCH   1   2
BRANCH   1  20
ATOM     20  O   UNL A   1      37.955  22.203  24.940  1.00  0.00    -0.376 OA
BRANCH  20  21
ATOM     21  C   UNL A   1      38.831  21.627  25.892  1.00  0.00     0.202 C 
BRANCH  21  22
ATOM     22  C   UNL A   1      39.799  22.567  26.624  1.00  0.00     0.261 C 
BRANCH  22  23
ATOM     23  O   UNL A   1      39.401  23.955  26.622  1.00  0.00    -0.460 OA
BRANCH  23  24
ATOM     24  C   UNL A   1      40.421  24.848  26.541  1.00  0.00     0.338 C 
ATOM     25  O   UNL A   1      41.088  25.102  25.552  1.00  0.00    -0.246 OA
BRANCH  24  26
ATOM     26  C   UNL A   1      40.607  25.599  27.800  1.00  0.00     0.060 A 
ATOM     27  C   UNL A   1      39.496  25.776  28.617  1.00  0.00     0.016 A 
ATOM     28  C   UNL A   1      41.758  26.343  28.052  1.00  0.00     0.016 A 
ATOM     29  C   UNL A   1      39.499  26.714  29.656  1.00  0.00     0.010 A 
ATOM     30  C   UNL A   1      41.774  27.269  29.116  1.00  0.00     0.010 A 
ATOM     31  C   UNL A   1      40.632  27.494  29.911  1.00  0.00    -0.014 A 
BRANCH  31  32
ATOM     32  C   UNL A   1      40.560  28.630  30.888  1.00  0.00     0.031 A 
ATOM     33  C   UNL A   1      41.547  28.689  32.031  1.00  0.00     0.074 A 
ATOM     34  C   UNL A   1      39.697  29.657  30.734  1.00  0.00     0.049 A 
ATOM     35  N   UNL A   1      41.562  29.470  33.082  1.00  0.00    -0.248 NA
ATOM     36  C   UNL A   1      42.675  27.746  31.971  1.00  0.00     0.031 C 
ATOM     37  C   UNL A   1      38.773  29.828  29.612  1.00  0.00     0.029 A 
ATOM     38  N   UNL A   1      39.459  30.761  31.524  1.00  0.00    -0.354 N 
ATOM     39  C   UNL A   1      42.665  29.078  33.835  1.00  0.00     0.074 A 
ATOM     40  C   UNL A   1      43.301  27.997  33.113  1.00  0.00     0.031 C 
ATOM     41  C   UNL A   1      38.085  30.969  29.778  1.00  0.00     0.029 A 
ATOM     42  C   UNL A   1      38.443  31.569  31.061  1.00  0.00     0.049 A 
ATOM     43  H   UNL A   1      39.968  30.955  32.344  1.00  0.00     0.167 HD
ATOM     44  C   UNL A   1      43.100  29.564  35.024  1.00  0.00     0.037 A 
ATOM     45  C   UNL A   1      37.828  32.633  31.623  1.00  0.00     0.037 A 
ATOM     46  C   UNL A   1      42.487  30.666  35.723  1.00  0.00     0.049 A 
ATOM     47  C   UNL A   1      38.258  33.093  32.994  1.00  0.00     0.074 A 
ATOM     48  C   UNL A   1      42.828  31.203  36.953  1.00  0.00     0.029 A 
ATOM     49  N   UNL A   1      41.414  31.408  35.251  1.00  0.00    -0.354 N 
ATOM     50  N   UNL A   1      39.234  32.646  33.748  1.00  0.00    -0.248 NA
ATOM     51  C   UNL A   1      37.488  34.189  33.604  1.00  0.00     0.031 C 
ATOM     52  C   UNL A   1      41.926  32.231  37.250  1.00  0.00     0.029 A 
ATOM     53  C   UNL A   1      41.066  32.380  36.175  1.00  0.00     0.049 A 
ATOM     54  H   UNL A   1      40.965  31.265  34.386  1.00  0.00     0.167 HD
ATOM     55  C   UNL A   1      39.209  33.420  34.906  1.00  0.00     0.074 A 
ATOM     56  C   UNL A   1      38.135  34.375  34.747  1.00  0.00     0.031 C 
ATOM     57  C   UNL A   1      40.003  33.340  36.004  1.00  0.00     0.037 A 
BRANCH  44  58
ATOM     58  C   UNL A   1      44.250  28.855  35.692  1.00  0.00     0.058 A 
ATOM     59  C   UNL A   1      45.587  29.230  35.497  1.00  0.00     0.135 A 
ATOM     60  C   UNL A   1      43.993  27.785  36.568  1.00  0.00     0.135 A 
ATOM     61  F   UNL A   1      45.893  30.230  34.656  1.00  0.00    -0.206 F 
ATOM     62  C   UNL A   1      46.631  28.551  36.122  1.00  0.00     0.059 A 
ATOM     63  C   UNL A   1      45.018  27.113  37.227  1.00  0.00     0.059 A 
ATOM     64  F   UNL A   1      42.732  27.384  36.793  1.00  0.00    -0.206 F 
ATOM     65  C   UNL A   1      46.335  27.493  36.985  1.00  0.00     0.060 A 
BRANCH  65  66
ATOM     66  S   UNL A   1      47.698  26.617  37.783  1.00  0.00     0.124 S 
ATOM     67  O   UNL A   1      47.016  25.445  38.323  1.00  0.00    -0.237 OA
ATOM     68  O   UNL A   1      48.603  26.366  36.666  1.00  0.00    -0.237 OA
ATOM     69  O   UNL A   1      48.182  27.571  38.776  1.00  0.00    -0.744 OA
ENDBRANCH  65  66
ENDBRANCH  44  58
BRANCH  45  70
ATOM     70  C   UNL A   1      36.677  33.293  30.935  1.00  0.00     0.058 A 
ATOM     71  C   UNL A   1      36.869  34.191  29.873  1.00  0.00     0.135 A 
ATOM     72  C   UNL A   1      35.355  33.068  31.358  1.00  0.00     0.135 A 
ATOM     73  F   UNL A   1      38.110  34.465  29.443  1.00  0.00    -0.206 F 
ATOM     74  C   UNL A   1      35.801  34.851  29.268  1.00  0.00     0.059 A 
ATOM     75  C   UNL A   1      34.269  33.685  30.744  1.00  0.00     0.059 A 
ATOM     76  F   UNL A   1      35.107  32.224  32.371  1.00  0.00    -0.206 F 
ATOM     77  C   UNL A   1      34.503  34.586  29.708  1.00  0.00     0.060 A 
BRANCH  77  78
ATOM     78  S   UNL A   1      33.120  35.416  28.895  1.00  0.00     0.124 S 
ATOM     79  O   UNL A   1      33.809  36.414  28.086  1.00  0.00    -0.237 OA
ATOM     80  O   UNL A   1      32.494  34.320  28.163  1.00  0.00    -0.237 OA
ATOM     81  O   UNL A   1      32.340  35.940  30.013  1.00  0.00    -0.744 OA
ENDBRANCH  77  78
ENDBRANCH  45  70
BRANCH  57  82
ATOM     82  C   UNL A   1      39.781  34.346  37.103  1.00  0.00     0.058 A 
ATOM     83  C   UNL A   1      38.993  34.059  38.229  1.00  0.00     0.135 A 
ATOM     84  C   UNL A   1      40.410  35.602  37.050  1.00  0.00     0.135 A 
ATOM     85  F   UNL A   1      38.364  32.877  38.330  1.00  0.00    -0.206 F 
ATOM     86  C   UNL A   1      38.814  34.990  39.249  1.00  0.00     0.059 A 
ATOM     87  C   UNL A   1      40.271  36.535  38.073  1.00  0.00     0.059 A 
ATOM     88  F   UNL A   1      41.184  35.928  36.003  1.00  0.00    -0.206 F 
ATOM     89  C   UNL A   1      39.461  36.225  39.164  1.00  0.00     0.060 A 
BRANCH  89  90
ATOM     90  S   UNL A   1      39.245  37.411  40.508  1.00  0.00     0.124 S 
ATOM     91  O   UNL A   1      38.757  36.554  41.583  1.00  0.00    -0.237 OA
ATOM     92  O   UNL A   1      40.595  37.937  40.679  1.00  0.00    -0.237 OA
ATOM     93  O   UNL A   1      38.273  38.360  39.972  1.00  0.00    -0.744 OA
ENDBRANCH  89  90
ENDBRANCH  57  82
ENDBRANCH  31  32
ENDBRANCH  24  26
ENDBRANCH  23  24
ENDBRANCH  22  23
ENDBRANCH  21  22
ENDBRANCH  20  21
ENDBRANCH   1  20
TORSDOF 22
ENDMDL
MODEL 3
REMARK VINA RESULT:      -8.0      5.437     12.429
REMARK SMILES CC[C@H]1CCCC[C@@H]1C1(C(=O)OCCOCCOCCOC(=O)c2ccc(-c3c4nc(c(-c5c(F)cc(S(=O)(=O)[O-])cc5F)c5ccc([nH]5)c(-c5c(F)cc(S(=O)(=O)[O-])cc5F)c5nc(c(-c6c(F)cc(S(=O)(=O)[O-])cc6F)c6ccc3[nH]6)C=C5)C=C4)cc2)CC1
REMARK SMILES IDX 17 1 16 2 15 3 14 4 13 5 12 6 10 7 11 8 9 9 90 10 91 11 8 12
REMARK SMILES IDX 3 13 4 14 5 15 7 16 6 17 2 18 1 19 18 20 19 21 20 22 21 23
REMARK SMILES IDX 22 24 23 25 24 26 25 27 89 28 26 29 88 30 27 31 28 32 29 33
REMARK SMILES IDX 82 34 30 35 87 36 81 37 83 38 31 39 86 40 80 41 79 42 32 44
REMARK SMILES IDX 66 45 45 46 65 47 46 48 49 49 64 50 84 51 47 52 48 53 63 55
REMARK SMILES IDX 85 56 50 57 33 58 34 59 43 60 35 61 36 62 42 63 44 64 37 65
REMARK SMILES IDX 38 66 39 67 40 68 41 69 67 70 68 71 77 72 69 73 70 74 76 75
REMARK SMILES IDX 78 76 71 77 72 78 73 79 74 80 75 81 51 82 52 83 61 84 53 85
REMARK SMILES IDX 54 86 60 87 62 88 55 89 56 90 57 91 58 92 59 93
REMARK H PARENT 83 43 49 54
REMARK Flexibility Score: inf
ROOT
ATOM      1  C   UNL A   1      41.862  21.484  26.670  1.00  0.00     0.188 C 
ENDROOT
BRANCH   1   2
ATOM      2  C   UNL A   1      40.317  21.388  26.786  1.00  0.00     0.188 C 
BRANCH   2   3
ATOM      3  O   UNL A   1      39.513  21.378  25.624  1.00  0.00    -0.376 OA
BRANCH   3   4
ATOM      4  C   UNL A   1      38.168  21.808  25.709  1.00  0.00     0.202 C 
BRANCH   4   5
ATOM      5  C   UNL A   1      37.047  21.065  24.957  1.00  0.00     0.261 C 
BRANCH   5   6
ATOM      6  O   UNL A   1      35.778  21.029  25.628  1.00  0.00    -0.463 OA
BRANCH   6   7
ATOM      7  C   UNL A   1      34.775  20.394  24.962  1.00  0.00     0.312 C 
ATOM      8  O   UNL A   1      34.745  19.200  24.684  1.00  0.00    -0.252 OA
BRANCH   7   9
ATOM      9  C   UNL A   1      33.620  21.319  24.598  1.00  0.00     0.071 C 
ATOM     10  C   UNL A   1      32.276  20.891  25.187  1.00  0.00     0.020 C 
ATOM     11  C   UNL A   1      32.510  20.735  23.723  1.00  0.00     0.020 C 
BRANCH   9  12
ATOM     12  C   UNL A   1      34.010  22.816  24.458  1.00  0.00     0.009 C 
ATOM     13  C   UNL A   1      33.162  23.919  25.129  1.00  0.00    -0.007 C 
ATOM     14  C   UNL A   1      31.991  24.387  24.224  1.00  0.00     0.004 C 
ATOM     15  C   UNL A   1      32.417  24.799  22.814  1.00  0.00     0.000 C 
ATOM     16  C   UNL A   1      34.358  23.223  23.032  1.00  0.00     0.005 C 
ATOM     17  C   UNL A   1      33.221  23.708  22.146  1.00  0.00     0.000 C 
BRANCH  13  18
ATOM     18  C   UNL A   1      34.019  25.177  25.501  1.00  0.00     0.000 C 
ATOM     19  C   UNL A   1      33.248  26.441  25.863  1.00  0.00     0.004 C 
ENDBRANCH  13  18
ENDBRANCH   9  12
ENDBRANCH   7   9
ENDBRANCH   6   7
ENDBRANCH   5   6
ENDBRANCH   4   5
ENDBRANCH   3   4
ENDBRANCH   2   3
ENDBRANCH   1   2
BRANCH   1  20
ATOM     20  O   UNL A   1      42.449  22.236  25.626  1.00  0.00    -0.376 OA
BRANCH  20  21
ATOM     21  C   UNL A   1      43.236  23.355  25.994  1.00  0.00     0.202 C 
BRANCH  21  22
ATOM     22  C   UNL A   1      43.716  24.283  24.870  1.00  0.00     0.261 C 
BRANCH  22  23
ATOM     23  O   UNL A   1      43.816  25.674  25.244  1.00  0.00    -0.460 OA
BRANCH  23  24
ATOM     24  C   UNL A   1      42.652  26.250  25.642  1.00  0.00     0.338 C 
ATOM     25  O   UNL A   1      41.609  26.293  25.010  1.00  0.00    -0.246 OA
BRANCH  24  26
ATOM     26  C   UNL A   1      42.729  26.768  27.024  1.00  0.00     0.060 A 
ATOM     27  C   UNL A   1      41.934  26.159  27.988  1.00  0.00     0.016 A 
ATOM     28  C   UNL A   1      43.346  27.981  27.323  1.00  0.00     0.016 A 
ATOM     29  C   UNL A   1      41.710  26.761  29.232  1.00  0.00     0.010 A 
ATOM     30  C   UNL A   1      43.146  28.577  28.586  1.00  0.00     0.010 A 
ATOM     31  C   UNL A   1      42.295  27.992  29.546  1.00  0.00    -0.014 A 
BRANCH  31  32
ATOM     32  C   UNL A   1      41.891  28.722  30.793  1.00  0.00     0.031 A 
ATOM     33  C   UNL A   1      40.653  29.588  30.778  1.00  0.00     0.074 A 
ATOM     34  C   UNL A   1      42.548  28.564  31.963  1.00  0.00     0.049 A 
ATOM     35  N   UNL A   1      40.216  30.438  31.673  1.00  0.00    -0.248 NA
ATOM     36  C   UNL A   1      39.784  29.467  29.596  1.00  0.00     0.031 C 
ATOM     37  C   UNL A   1      43.676  27.661  32.187  1.00  0.00     0.029 A 
ATOM     38  N   UNL A   1      42.355  29.158  33.192  1.00  0.00    -0.354 N 
ATOM     39  C   UNL A   1      39.056  30.993  31.141  1.00  0.00     0.074 A 
ATOM     40  C   UNL A   1      38.850  30.373  29.850  1.00  0.00     0.031 C 
ATOM     41  C   UNL A   1      44.063  27.748  33.470  1.00  0.00     0.029 A 
ATOM     42  C   UNL A   1      43.277  28.780  34.143  1.00  0.00     0.049 A 
ATOM     43  H   UNL A   1      41.625  29.793  33.373  1.00  0.00     0.167 HD
ATOM     44  C   UNL A   1      38.245  31.941  31.673  1.00  0.00     0.037 A 
ATOM     45  C   UNL A   1      43.508  29.246  35.390  1.00  0.00     0.037 A 
ATOM     46  C   UNL A   1      38.432  32.529  32.976  1.00  0.00     0.049 A 
ATOM     47  C   UNL A   1      42.660  30.374  35.925  1.00  0.00     0.074 A 
ATOM     48  C   UNL A   1      37.689  33.527  33.585  1.00  0.00     0.029 A 
ATOM     49  N   UNL A   1      39.423  32.169  33.876  1.00  0.00    -0.354 N 
ATOM     50  N   UNL A   1      41.630  30.968  35.371  1.00  0.00    -0.248 NA
ATOM     51  C   UNL A   1      43.019  30.913  37.246  1.00  0.00     0.031 C 
ATOM     52  C   UNL A   1      38.265  33.809  34.828  1.00  0.00     0.029 A 
ATOM     53  C   UNL A   1      39.326  32.940  35.024  1.00  0.00     0.049 A 
ATOM     54  H   UNL A   1      40.097  31.468  33.723  1.00  0.00     0.167 HD
ATOM     55  C   UNL A   1      41.206  31.931  36.283  1.00  0.00     0.074 A 
ATOM     56  C   UNL A   1      42.077  31.828  37.433  1.00  0.00     0.031 C 
ATOM     57  C   UNL A   1      40.189  32.822  36.174  1.00  0.00     0.037 A 
BRANCH  44  58
ATOM     58  C   UNL A   1      37.124  32.465  30.814  1.00  0.00     0.058 A 
ATOM     59  C   UNL A   1      37.308  33.487  29.870  1.00  0.00     0.135 A 
ATOM     60  C   UNL A   1      35.839  31.906  30.928  1.00  0.00     0.135 A 
ATOM     61  F   UNL A   1      38.508  34.071  29.731  1.00  0.00    -0.206 F 
ATOM     62  C   UNL A   1      36.251  33.958  29.093  1.00  0.00     0.059 A 
ATOM     63  C   UNL A   1      34.776  32.339  30.141  1.00  0.00     0.059 A 
ATOM     64  F   UNL A   1      35.605  30.925  31.813  1.00  0.00    -0.206 F 
ATOM     65  C   UNL A   1      34.988  33.377  29.237  1.00  0.00     0.060 A 
BRANCH  65  66
ATOM     66  S   UNL A   1      33.627  34.002  28.229  1.00  0.00     0.124 S 
ATOM     67  O   UNL A   1      32.804  34.671  29.232  1.00  0.00    -0.237 OA
ATOM     68  O   UNL A   1      34.314  34.877  27.286  1.00  0.00    -0.237 OA
ATOM     69  O   UNL A   1      33.047  32.793  27.651  1.00  0.00    -0.744 OA
ENDBRANCH  65  66
ENDBRANCH  44  58
BRANCH  45  70
ATOM     70  C   UNL A   1      44.645  28.712  36.201  1.00  0.00     0.058 A 
ATOM     71  C   UNL A   1      44.476  27.641  37.091  1.00  0.00     0.135 A 
ATOM     72  C   UNL A   1      45.922  29.295  36.128  1.00  0.00     0.135 A 
ATOM     73  F   UNL A   1      43.273  27.060  37.222  1.00  0.00    -0.206 F 
ATOM     74  C   UNL A   1      45.521  27.177  37.889  1.00  0.00     0.059 A 
ATOM     75  C   UNL A   1      46.991  28.826  36.885  1.00  0.00     0.059 A 
ATOM     76  F   UNL A   1      46.146  30.326  35.298  1.00  0.00    -0.206 F 
ATOM     77  C   UNL A   1      46.778  27.775  37.774  1.00  0.00     0.060 A 
BRANCH  77  78
ATOM     78  S   UNL A   1      48.138  27.147  38.783  1.00  0.00     0.124 S 
ATOM     79  O   UNL A   1      48.659  28.374  39.375  1.00  0.00    -0.237 OA
ATOM     80  O   UNL A   1      47.449  26.240  39.694  1.00  0.00    -0.237 OA
ATOM     81  O   UNL A   1      49.009  26.500  37.806  1.00  0.00    -0.744 OA
ENDBRANCH  77  78
ENDBRANCH  45  70
BRANCH  57  82
ATOM     82  C   UNL A   1      39.921  33.727  37.349  1.00  0.00     0.058 A 
ATOM     83  C   UNL A   1      40.569  34.963  37.501  1.00  0.00     0.135 A 
ATOM     84  C   UNL A   1      38.961  33.370  38.311  1.00  0.00     0.135 A 
ATOM     85  F   UNL A   1      41.499  35.352  36.615  1.00  0.00    -0.206 F 
ATOM     86  C   UNL A   1      40.296  35.800  38.580  1.00  0.00     0.059 A 
ATOM     87  C   UNL A   1      38.649  34.206  39.380  1.00  0.00     0.059 A 
ATOM     88  F   UNL A   1      38.301  32.206  38.210  1.00  0.00    -0.206 F 
ATOM     89  C   UNL A   1      39.331  35.415  39.513  1.00  0.00     0.060 A 
BRANCH  89  90
ATOM     90  S   UNL A   1      38.964  36.523  40.890  1.00  0.00     0.124 S 
ATOM     91  O   UNL A   1      37.961  35.759  41.624  1.00  0.00    -0.237 OA
ATOM     92  O   UNL A   1      40.264  36.651  41.541  1.00  0.00    -0.237 OA
ATOM     93  O   UNL A   1      38.477  37.733  40.235  1.00  0.00    -0.744 OA
ENDBRANCH  89  90
ENDBRANCH  57  82
ENDBRANCH  31  32
ENDBRANCH  24  26
ENDBRANCH  23  24
ENDBRANCH  22  23
ENDBRANCH  21  22
ENDBRANCH  20  21
ENDBRANCH   1  20
TORSDOF 22
ENDMDL
