MODEL 1
REMARK VINA RESULT:      -8.8      0.000      0.000
REMARK SMILES CC(C)(Br)[C@H](Br)C(=O)OCCOCCOCCOC(=O)c1ccc(-c2c3nc(c(-c4c(F)cc(S(=O)(=O)[O-])cc4F)c4ccc([nH]4)c(-c4c(F)cc(S(=O)(=O)[O-])cc4F)c4nc(c(-c5c(F)cc(S(=O)(=O)[O-])cc5F)c5ccc2[nH]5)C=C4)C=C3)cc1
REMARK SMILES IDX 14 1 13 2 12 3 11 4 10 5 9 6 7 7 8 8 5 9 6 10 2 11 1 12 3 13
REMARK SMILES IDX 4 14 15 15 16 16 17 17 18 18 19 19 20 20 21 21 22 22 86 23
REMARK SMILES IDX 23 24 85 25 24 26 25 27 26 28 79 29 27 30 84 31 78 32 80 33
REMARK SMILES IDX 28 34 83 35 77 36 76 37 29 39 63 40 42 41 62 42 43 43 46 44
REMARK SMILES IDX 61 45 81 46 44 47 45 48 60 50 82 51 47 52 30 53 31 54 40 55
REMARK SMILES IDX 32 56 33 57 39 58 41 59 34 60 35 61 36 62 37 63 38 64 64 65
REMARK SMILES IDX 65 66 74 67 66 68 67 69 73 70 75 71 68 72 69 73 70 74 71 75
REMARK SMILES IDX 72 76 48 77 49 78 58 79 50 80 51 81 57 82 59 83 52 84 53 85
REMARK SMILES IDX 54 86 55 87 56 88
REMARK H PARENT 80 38 46 49
REMARK Flexibility Score: inf
ROOT
ATOM      1  C   UNL A   1      38.582  23.367  26.233  1.00  0.00     0.188 C 
ENDROOT
BRANCH   1   2
ATOM      2  C   UNL A   1      37.157  23.067  25.757  1.00  0.00     0.188 C 
BRANCH   2   3
ATOM      3  O   UNL A   1      36.650  23.736  24.612  1.00  0.00    -0.376 OA
BRANCH   3   4
ATOM      4  C   UNL A   1      36.144  22.992  23.514  1.00  0.00     0.202 C 
BRANCH   4   5
ATOM      5  C   UNL A   1      34.671  23.133  23.081  1.00  0.00     0.261 C 
BRANCH   5   6
ATOM      6  O   UNL A   1      33.837  24.073  23.796  1.00  0.00    -0.462 OA
BRANCH   6   7
ATOM      7  C   UNL A   1      33.285  25.064  23.048  1.00  0.00     0.321 C 
ATOM      8  O   UNL A   1      33.674  25.346  21.916  1.00  0.00    -0.251 OA
BRANCH   7   9
ATOM      9  C   UNL A   1      32.129  25.828  23.684  1.00  0.00     0.183 C 
ATOM     10  Br  UNL A   1      30.409  24.859  23.606  1.00  0.00    -0.075 Br
BRANCH   9  11
ATOM     11  C   UNL A   1      32.350  26.484  25.071  1.00  0.00     0.043 C 
ATOM     12  C   UNL A   1      33.807  26.540  25.565  1.00  0.00     0.025 C 
ATOM     13  C   UNL A   1      31.491  25.747  26.115  1.00  0.00     0.025 C 
ATOM     14  Br  UNL A   1      31.746  28.384  25.120  1.00  0.00    -0.084 Br
ENDBRANCH   9  11
ENDBRANCH   7   9
ENDBRANCH   6   7
ENDBRANCH   5   6
ENDBRANCH   4   5
ENDBRANCH   3   4
ENDBRANCH   2   3
ENDBRANCH   1   2
BRANCH   1  15
ATOM     15  O   UNL A   1      39.422  22.245  26.354  1.00  0.00    -0.376 OA
BRANCH  15  16
ATOM     16  C   UNL A   1      39.023  21.035  25.735  1.00  0.00     0.202 C 
BRANCH  16  17
ATOM     17  C   UNL A   1      39.742  19.712  26.063  1.00  0.00     0.261 C 
BRANCH  17  18
ATOM     18  O   UNL A   1      40.967  19.435  25.363  1.00  0.00    -0.460 OA
BRANCH  18  19
ATOM     19  C   UNL A   1      42.088  19.277  26.103  1.00  0.00     0.338 C 
ATOM     20  O   UNL A   1      42.636  18.220  26.380  1.00  0.00    -0.246 OA
BRANCH  19  21
ATOM     21  C   UNL A   1      42.679  20.620  26.320  1.00  0.00     0.060 A 
ATOM     22  C   UNL A   1      42.621  21.196  27.598  1.00  0.00     0.016 A 
ATOM     23  C   UNL A   1      43.313  21.296  25.275  1.00  0.00     0.016 A 
ATOM     24  C   UNL A   1      43.174  22.459  27.829  1.00  0.00     0.010 A 
ATOM     25  C   UNL A   1      43.842  22.572  25.502  1.00  0.00     0.010 A 
ATOM     26  C   UNL A   1      43.752  23.173  26.772  1.00  0.00    -0.014 A 
BRANCH  26  27
ATOM     27  C   UNL A   1      44.076  24.615  26.930  1.00  0.00     0.031 A 
ATOM     28  C   UNL A   1      45.506  25.046  26.739  1.00  0.00     0.074 A 
ATOM     29  C   UNL A   1      43.135  25.525  27.239  1.00  0.00     0.049 A 
ATOM     30  N   UNL A   1      46.054  26.219  26.920  1.00  0.00    -0.248 NA
ATOM     31  C   UNL A   1      46.445  24.006  26.286  1.00  0.00     0.031 C 
ATOM     32  C   UNL A   1      41.708  25.250  27.404  1.00  0.00     0.029 A 
ATOM     33  N   UNL A   1      43.248  26.873  27.488  1.00  0.00    -0.354 N 
ATOM     34  C   UNL A   1      47.402  26.056  26.621  1.00  0.00     0.074 A 
ATOM     35  C   UNL A   1      47.593  24.665  26.272  1.00  0.00     0.031 C 
ATOM     36  C   UNL A   1      41.082  26.389  27.747  1.00  0.00     0.029 A 
ATOM     37  C   UNL A   1      42.065  27.466  27.866  1.00  0.00     0.049 A 
ATOM     38  H   UNL A   1      44.094  27.367  27.403  1.00  0.00     0.167 HD
ATOM     39  C   UNL A   1      48.390  26.982  26.632  1.00  0.00     0.037 A 
ATOM     40  C   UNL A   1      41.814  28.722  28.288  1.00  0.00     0.037 A 
ATOM     41  C   UNL A   1      48.196  28.365  26.983  1.00  0.00     0.049 A 
ATOM     42  C   UNL A   1      42.945  29.720  28.368  1.00  0.00     0.074 A 
ATOM     43  C   UNL A   1      49.132  29.384  27.007  1.00  0.00     0.029 A 
ATOM     44  N   UNL A   1      46.989  28.920  27.383  1.00  0.00    -0.354 N 
ATOM     45  N   UNL A   1      44.212  29.560  28.064  1.00  0.00    -0.248 NA
ATOM     46  C   UNL A   1      42.613  31.069  28.850  1.00  0.00     0.031 C 
ATOM     47  C   UNL A   1      48.504  30.542  27.479  1.00  0.00     0.029 A 
ATOM     48  C   UNL A   1      47.163  30.261  27.683  1.00  0.00     0.049 A 
ATOM     49  H   UNL A   1      46.136  28.434  27.443  1.00  0.00     0.167 HD
ATOM     50  C   UNL A   1      44.817  30.795  28.286  1.00  0.00     0.074 A 
ATOM     51  C   UNL A   1      43.777  31.693  28.739  1.00  0.00     0.031 C 
ATOM     52  C   UNL A   1      46.117  31.153  28.125  1.00  0.00     0.037 A 
BRANCH  39  53
ATOM     53  C   UNL A   1      49.780  26.522  26.284  1.00  0.00     0.058 A 
ATOM     54  C   UNL A   1      50.616  25.902  27.227  1.00  0.00     0.135 A 
ATOM     55  C   UNL A   1      50.272  26.678  24.977  1.00  0.00     0.135 A 
ATOM     56  F   UNL A   1      50.206  25.746  28.496  1.00  0.00    -0.206 F 
ATOM     57  C   UNL A   1      51.898  25.476  26.894  1.00  0.00     0.059 A 
ATOM     58  C   UNL A   1      51.539  26.231  24.614  1.00  0.00     0.059 A 
ATOM     59  F   UNL A   1      49.518  27.267  24.037  1.00  0.00    -0.206 F 
ATOM     60  C   UNL A   1      52.350  25.644  25.584  1.00  0.00     0.060 A 
BRANCH  60  61
ATOM     61  S   UNL A   1      54.013  25.078  25.168  1.00  0.00     0.124 S 
ATOM     62  O   UNL A   1      54.278  25.829  23.945  1.00  0.00    -0.237 OA
ATOM     63  O   UNL A   1      54.781  25.484  26.340  1.00  0.00    -0.237 OA
ATOM     64  O   UNL A   1      53.850  23.638  24.996  1.00  0.00    -0.744 OA
ENDBRANCH  60  61
ENDBRANCH  39  53
BRANCH  40  65
ATOM     65  C   UNL A   1      40.434  29.115  28.690  1.00  0.00     0.058 A 
ATOM     66  C   UNL A   1      39.450  29.399  27.731  1.00  0.00     0.135 A 
ATOM     67  C   UNL A   1      40.073  29.227  30.043  1.00  0.00     0.135 A 
ATOM     68  F   UNL A   1      39.747  29.325  26.425  1.00  0.00    -0.206 F 
ATOM     69  C   UNL A   1      38.166  29.794  28.094  1.00  0.00     0.059 A 
ATOM     70  C   UNL A   1      38.788  29.591  30.432  1.00  0.00     0.059 A 
ATOM     71  F   UNL A   1      40.974  28.965  31.003  1.00  0.00    -0.206 F 
ATOM     72  C   UNL A   1      37.843  29.882  29.450  1.00  0.00     0.060 A 
BRANCH  72  73
ATOM     73  S   UNL A   1      36.158  30.348  29.909  1.00  0.00     0.124 S 
ATOM     74  O   UNL A   1      35.382  29.737  28.836  1.00  0.00    -0.237 OA
ATOM     75  O   UNL A   1      36.021  29.734  31.226  1.00  0.00    -0.237 OA
ATOM     76  O   UNL A   1      36.200  31.806  29.907  1.00  0.00    -0.744 OA
ENDBRANCH  72  73
ENDBRANCH  40  65
BRANCH  52  77
ATOM     77  C   UNL A   1      46.490  32.587  28.396  1.00  0.00     0.058 A 
ATOM     78  C   UNL A   1      46.372  33.585  27.416  1.00  0.00     0.135 A 
ATOM     79  C   UNL A   1      46.914  32.980  29.677  1.00  0.00     0.135 A 
ATOM     80  F   UNL A   1      45.974  33.268  26.173  1.00  0.00    -0.206 F 
ATOM     81  C   UNL A   1      46.687  34.913  27.688  1.00  0.00     0.059 A 
ATOM     82  C   UNL A   1      47.202  34.307  29.980  1.00  0.00     0.059 A 
ATOM     83  F   UNL A   1      47.032  32.071  30.659  1.00  0.00    -0.206 F 
ATOM     84  C   UNL A   1      47.097  35.266  28.974  1.00  0.00     0.060 A 
BRANCH  84  85
ATOM     85  S   UNL A   1      47.469  36.998  29.321  1.00  0.00     0.124 S 
ATOM     86  O   UNL A   1      48.605  36.880  30.230  1.00  0.00    -0.237 OA
ATOM     87  O   UNL A   1      47.772  37.524  27.994  1.00  0.00    -0.237 OA
ATOM     88  O   UNL A   1      46.236  37.499  29.921  1.00  0.00    -0.744 OA
ENDBRANCH  84  85
ENDBRANCH  52  77
ENDBRANCH  26  27
ENDBRANCH  19  21
ENDBRANCH  18  19
ENDBRANCH  17  18
ENDBRANCH  16  17
ENDBRANCH  15  16
ENDBRANCH   1  15
TORSDOF 21
ENDMDL
MODEL 2
REMARK VINA RESULT:      -8.8      0.881      8.552
REMARK SMILES CC(C)(Br)[C@H](Br)C(=O)OCCOCCOCCOC(=O)c1ccc(-c2c3nc(c(-c4c(F)cc(S(=O)(=O)[O-])cc4F)c4ccc([nH]4)c(-c4c(F)cc(S(=O)(=O)[O-])cc4F)c4nc(c(-c5c(F)cc(S(=O)(=O)[O-])cc5F)c5ccc2[nH]5)C=C4)C=C3)cc1
REMARK SMILES IDX 14 1 13 2 12 3 11 4 10 5 9 6 7 7 8 8 5 9 6 10 2 11 1 12 3 13
REMARK SMILES IDX 4 14 15 15 16 16 17 17 18 18 19 19 20 20 21 21 22 22 86 23
REMARK SMILES IDX 23 24 85 25 24 26 25 27 26 28 79 29 27 30 84 31 78 32 80 33
REMARK SMILES IDX 28 34 83 35 77 36 76 37 29 39 63 40 42 41 62 42 43 43 46 44
REMARK SMILES IDX 61 45 81 46 44 47 45 48 60 50 82 51 47 52 30 53 31 54 40 55
REMARK SMILES IDX 32 56 33 57 39 58 41 59 34 60 35 61 36 62 37 63 38 64 64 65
REMARK SMILES IDX 65 66 74 67 66 68 67 69 73 70 75 71 68 72 69 73 70 74 71 75
REMARK SMILES IDX 72 76 48 77 49 78 58 79 50 80 51 81 57 82 59 83 52 84 53 85
REMARK SMILES IDX 54 86 55 87 56 88
REMARK H PARENT 80 38 46 49
REMARK Flexibility Score: inf
ROOT
ATOM      1  C   UNL A   1      36.795  23.312  24.508  1.00  0.00     0.188 C 
ENDROOT
BRANCH   1   2
ATOM      2  C   UNL A   1      35.679  23.202  25.551  1.00  0.00     0.188 C 
BRANCH   2   3
ATOM      3  O   UNL A   1      34.415  22.683  25.165  1.00  0.00    -0.376 OA
BRANCH   3   4
ATOM      4  C   UNL A   1      34.163  22.346  23.809  1.00  0.00     0.202 C 
BRANCH   4   5
ATOM      5  C   UNL A   1      33.627  23.403  22.823  1.00  0.00     0.261 C 
BRANCH   5   6
ATOM      6  O   UNL A   1      33.310  24.717  23.337  1.00  0.00    -0.462 OA
BRANCH   6   7
ATOM      7  C   UNL A   1      32.917  25.635  22.417  1.00  0.00     0.321 C 
ATOM      8  O   UNL A   1      33.535  25.847  21.375  1.00  0.00    -0.251 OA
BRANCH   7   9
ATOM      9  C   UNL A   1      31.641  26.408  22.733  1.00  0.00     0.183 C 
ATOM     10  Br  UNL A   1      30.223  25.289  23.534  1.00  0.00    -0.075 Br
BRANCH   9  11
ATOM     11  C   UNL A   1      31.764  27.773  23.456  1.00  0.00     0.043 C 
ATOM     12  C   UNL A   1      33.128  28.477  23.338  1.00  0.00     0.025 C 
ATOM     13  C   UNL A   1      31.421  27.584  24.945  1.00  0.00     0.025 C 
ATOM     14  Br  UNL A   1      30.462  29.118  22.769  1.00  0.00    -0.084 Br
ENDBRANCH   9  11
ENDBRANCH   7   9
ENDBRANCH   6   7
ENDBRANCH   5   6
ENDBRANCH   4   5
ENDBRANCH   3   4
ENDBRANCH   2   3
ENDBRANCH   1   2
BRANCH   1  15
ATOM     15  O   UNL A   1      37.721  22.253  24.508  1.00  0.00    -0.376 OA
BRANCH  15  16
ATOM     16  C   UNL A   1      38.108  21.696  25.752  1.00  0.00     0.202 C 
BRANCH  16  17
ATOM     17  C   UNL A   1      39.597  21.478  26.084  1.00  0.00     0.261 C 
BRANCH  17  18
ATOM     18  O   UNL A   1      40.009  20.144  26.423  1.00  0.00    -0.460 OA
BRANCH  18  19
ATOM     19  C   UNL A   1      41.303  19.815  26.207  1.00  0.00     0.338 C 
ATOM     20  O   UNL A   1      41.718  18.786  25.695  1.00  0.00    -0.246 OA
BRANCH  19  21
ATOM     21  C   UNL A   1      42.126  21.019  26.474  1.00  0.00     0.060 A 
ATOM     22  C   UNL A   1      42.367  21.404  27.802  1.00  0.00     0.016 A 
ATOM     23  C   UNL A   1      42.681  21.751  25.422  1.00  0.00     0.016 A 
ATOM     24  C   UNL A   1      43.142  22.533  28.080  1.00  0.00     0.010 A 
ATOM     25  C   UNL A   1      43.435  22.896  25.702  1.00  0.00     0.010 A 
ATOM     26  C   UNL A   1      43.647  23.311  27.031  1.00  0.00    -0.014 A 
BRANCH  26  27
ATOM     27  C   UNL A   1      44.215  24.657  27.301  1.00  0.00     0.031 A 
ATOM     28  C   UNL A   1      43.274  25.754  27.725  1.00  0.00     0.074 A 
ATOM     29  C   UNL A   1      45.530  24.913  27.172  1.00  0.00     0.049 A 
ATOM     30  N   UNL A   1      43.509  27.025  27.919  1.00  0.00    -0.248 NA
ATOM     31  C   UNL A   1      41.875  25.357  27.958  1.00  0.00     0.031 C 
ATOM     32  C   UNL A   1      46.554  23.933  26.813  1.00  0.00     0.029 A 
ATOM     33  N   UNL A   1      46.226  26.091  27.310  1.00  0.00    -0.354 N 
ATOM     34  C   UNL A   1      42.288  27.584  28.279  1.00  0.00     0.074 A 
ATOM     35  C   UNL A   1      41.310  26.518  28.251  1.00  0.00     0.031 C 
ATOM     36  C   UNL A   1      47.745  24.554  26.741  1.00  0.00     0.029 A 
ATOM     37  C   UNL A   1      47.563  25.982  27.006  1.00  0.00     0.049 A 
ATOM     38  H   UNL A   1      45.807  26.933  27.599  1.00  0.00     0.167 HD
ATOM     39  C   UNL A   1      42.007  28.867  28.607  1.00  0.00     0.037 A 
ATOM     40  C   UNL A   1      48.520  26.928  26.922  1.00  0.00     0.037 A 
ATOM     41  C   UNL A   1      42.983  29.926  28.630  1.00  0.00     0.049 A 
ATOM     42  C   UNL A   1      48.169  28.368  27.216  1.00  0.00     0.074 A 
ATOM     43  C   UNL A   1      42.799  31.256  28.967  1.00  0.00     0.029 A 
ATOM     44  N   UNL A   1      44.321  29.779  28.294  1.00  0.00    -0.354 N 
ATOM     45  N   UNL A   1      47.015  28.882  27.574  1.00  0.00    -0.248 NA
ATOM     46  C   UNL A   1      49.251  29.357  27.093  1.00  0.00     0.031 C 
ATOM     47  C   UNL A   1      44.012  31.926  28.776  1.00  0.00     0.029 A 
ATOM     48  C   UNL A   1      44.968  31.001  28.386  1.00  0.00     0.049 A 
ATOM     49  H   UNL A   1      44.747  28.933  28.029  1.00  0.00     0.167 HD
ATOM     50  C   UNL A   1      47.242  30.245  27.750  1.00  0.00     0.074 A 
ATOM     51  C   UNL A   1      48.643  30.474  27.471  1.00  0.00     0.031 C 
ATOM     52  C   UNL A   1      46.369  31.218  28.115  1.00  0.00     0.037 A 
BRANCH  39  53
ATOM     53  C   UNL A   1      40.578  29.206  28.936  1.00  0.00     0.058 A 
ATOM     54  C   UNL A   1      40.129  29.326  30.261  1.00  0.00     0.135 A 
ATOM     55  C   UNL A   1      39.651  29.446  27.908  1.00  0.00     0.135 A 
ATOM     56  F   UNL A   1      40.966  29.088  31.284  1.00  0.00    -0.206 F 
ATOM     57  C   UNL A   1      38.807  29.645  30.555  1.00  0.00     0.059 A 
ATOM     58  C   UNL A   1      38.332  29.798  28.179  1.00  0.00     0.059 A 
ATOM     59  F   UNL A   1      40.025  29.342  26.623  1.00  0.00    -0.206 F 
ATOM     60  C   UNL A   1      37.917  29.881  29.506  1.00  0.00     0.060 A 
BRANCH  60  61
ATOM     61  S   UNL A   1      36.207  30.302  29.906  1.00  0.00     0.124 S 
ATOM     62  O   UNL A   1      35.489  29.700  28.788  1.00  0.00    -0.237 OA
ATOM     63  O   UNL A   1      36.023  29.654  31.200  1.00  0.00    -0.237 OA
ATOM     64  O   UNL A   1      36.213  31.761  29.935  1.00  0.00    -0.744 OA
ENDBRANCH  60  61
ENDBRANCH  39  53
BRANCH  40  65
ATOM     65  C   UNL A   1      49.907  26.558  26.524  1.00  0.00     0.058 A 
ATOM     66  C   UNL A   1      50.342  26.692  25.196  1.00  0.00     0.135 A 
ATOM     67  C   UNL A   1      50.823  26.048  27.459  1.00  0.00     0.135 A 
ATOM     68  F   UNL A   1      49.502  27.155  24.259  1.00  0.00    -0.206 F 
ATOM     69  C   UNL A   1      51.627  26.322  24.807  1.00  0.00     0.059 A 
ATOM     70  C   UNL A   1      52.121  25.700  27.101  1.00  0.00     0.059 A 
ATOM     71  F   UNL A   1      50.460  25.901  28.744  1.00  0.00    -0.206 F 
ATOM     72  C   UNL A   1      52.512  25.831  25.769  1.00  0.00     0.060 A 
BRANCH  72  73
ATOM     73  S   UNL A   1      54.191  25.402  25.260  1.00  0.00     0.124 S 
ATOM     74  O   UNL A   1      54.991  26.145  26.227  1.00  0.00    -0.237 OA
ATOM     75  O   UNL A   1      54.193  23.950  25.412  1.00  0.00    -0.237 OA
ATOM     76  O   UNL A   1      54.258  25.881  23.884  1.00  0.00    -0.744 OA
ENDBRANCH  72  73
ENDBRANCH  40  65
BRANCH  52  77
ATOM     77  C   UNL A   1      46.903  32.617  28.279  1.00  0.00     0.058 A 
ATOM     78  C   UNL A   1      47.534  33.040  29.459  1.00  0.00     0.135 A 
ATOM     79  C   UNL A   1      46.837  33.531  27.213  1.00  0.00     0.135 A 
ATOM     80  F   UNL A   1      47.624  32.210  30.512  1.00  0.00    -0.206 F 
ATOM     81  C   UNL A   1      48.055  34.324  29.587  1.00  0.00     0.059 A 
ATOM     82  C   UNL A   1      47.381  34.809  27.307  1.00  0.00     0.059 A 
ATOM     83  F   UNL A   1      46.257  33.178  26.054  1.00  0.00    -0.206 F 
ATOM     84  C   UNL A   1      47.977  35.200  28.503  1.00  0.00     0.060 A 
BRANCH  84  85
ATOM     85  S   UNL A   1      48.687  36.852  28.672  1.00  0.00     0.124 S 
ATOM     86  O   UNL A   1      50.083  36.544  28.966  1.00  0.00    -0.237 OA
ATOM     87  O   UNL A   1      48.430  37.437  27.360  1.00  0.00    -0.237 OA
ATOM     88  O   UNL A   1      47.930  37.439  29.773  1.00  0.00    -0.744 OA
ENDBRANCH  84  85
ENDBRANCH  52  77
ENDBRANCH  26  27
ENDBRANCH  19  21
ENDBRANCH  18  19
ENDBRANCH  17  18
ENDBRANCH  16  17
ENDBRANCH  15  16
ENDBRANCH   1  15
TORSDOF 21
ENDMDL
MODEL 3
REMARK VINA RESULT:      -8.7      2.982      4.435
REMARK SMILES CC(C)(Br)[C@H](Br)C(=O)OCCOCCOCCOC(=O)c1ccc(-c2c3nc(c(-c4c(F)cc(S(=O)(=O)[O-])cc4F)c4ccc([nH]4)c(-c4c(F)cc(S(=O)(=O)[O-])cc4F)c4nc(c(-c5c(F)cc(S(=O)(=O)[O-])cc5F)c5ccc2[nH]5)C=C4)C=C3)cc1
REMARK SMILES IDX 14 1 13 2 12 3 11 4 10 5 9 6 7 7 8 8 5 9 6 10 2 11 1 12 3 13
REMARK SMILES IDX 4 14 15 15 16 16 17 17 18 18 19 19 20 20 21 21 22 22 86 23
REMARK SMILES IDX 23 24 85 25 24 26 25 27 26 28 79 29 27 30 84 31 78 32 80 33
REMARK SMILES IDX 28 34 83 35 77 36 76 37 29 39 63 40 42 41 62 42 43 43 46 44
REMARK SMILES IDX 61 45 81 46 44 47 45 48 60 50 82 51 47 52 30 53 31 54 40 55
REMARK SMILES IDX 32 56 33 57 39 58 41 59 34 60 35 61 36 62 37 63 38 64 64 65
REMARK SMILES IDX 65 66 74 67 66 68 67 69 73 70 75 71 68 72 69 73 70 74 71 75
REMARK SMILES IDX 72 76 48 77 49 78 58 79 50 80 51 81 57 82 59 83 52 84 53 85
REMARK SMILES IDX 54 86 55 87 56 88
REMARK H PARENT 80 38 46 49
REMARK Flexibility Score: inf
ROOT
ATOM      1  C   UNL A   1      34.009  20.767  24.635  1.00  0.00     0.188 C 
ENDROOT
BRANCH   1   2
ATOM      2  C   UNL A   1      33.061  20.777  25.838  1.00  0.00     0.188 C 
BRANCH   2   3
ATOM      3  O   UNL A   1      33.425  21.502  27.004  1.00  0.00    -0.376 OA
BRANCH   3   4
ATOM      4  C   UNL A   1      32.895  22.799  27.235  1.00  0.00     0.202 C 
BRANCH   4   5
ATOM      5  C   UNL A   1      31.633  23.277  26.490  1.00  0.00     0.261 C 
BRANCH   5   6
ATOM      6  O   UNL A   1      30.941  24.441  26.997  1.00  0.00    -0.462 OA
BRANCH   6   7
ATOM      7  C   UNL A   1      31.290  25.628  26.437  1.00  0.00     0.321 C 
ATOM      8  O   UNL A   1      31.460  26.655  27.093  1.00  0.00    -0.251 OA
BRANCH   7   9
ATOM      9  C   UNL A   1      31.474  25.636  24.924  1.00  0.00     0.183 C 
ATOM     10  Br  UNL A   1      29.976  26.484  23.954  1.00  0.00    -0.075 Br
BRANCH   9  11
ATOM     11  C   UNL A   1      32.845  26.074  24.348  1.00  0.00     0.043 C 
ATOM     12  C   UNL A   1      34.073  25.768  25.225  1.00  0.00     0.025 C 
ATOM     13  C   UNL A   1      32.803  27.584  24.048  1.00  0.00     0.025 C 
ATOM     14  Br  UNL A   1      33.258  25.191  22.609  1.00  0.00    -0.084 Br
ENDBRANCH   9  11
ENDBRANCH   7   9
ENDBRANCH   6   7
ENDBRANCH   5   6
ENDBRANCH   4   5
ENDBRANCH   3   4
ENDBRANCH   2   3
ENDBRANCH   1   2
BRANCH   1  15
ATOM     15  O   UNL A   1      35.196  21.504  24.800  1.00  0.00    -0.376 OA
BRANCH  15  16
ATOM     16  C   UNL A   1      36.373  20.810  25.173  1.00  0.00     0.202 C 
BRANCH  16  17
ATOM     17  C   UNL A   1      37.762  21.418  24.899  1.00  0.00     0.261 C 
BRANCH  17  18
ATOM     18  O   UNL A   1      38.140  22.573  25.666  1.00  0.00    -0.460 OA
BRANCH  18  19
ATOM     19  C   UNL A   1      39.271  22.492  26.403  1.00  0.00     0.338 C 
ATOM     20  O   UNL A   1      39.995  21.514  26.523  1.00  0.00    -0.246 OA
BRANCH  19  21
ATOM     21  C   UNL A   1      39.621  23.863  26.847  1.00  0.00     0.060 A 
ATOM     22  C   UNL A   1      40.165  24.766  25.920  1.00  0.00     0.016 A 
ATOM     23  C   UNL A   1      39.387  24.267  28.163  1.00  0.00     0.016 A 
ATOM     24  C   UNL A   1      40.499  26.065  26.312  1.00  0.00     0.010 A 
ATOM     25  C   UNL A   1      39.748  25.560  28.560  1.00  0.00     0.010 A 
ATOM     26  C   UNL A   1      40.331  26.457  27.646  1.00  0.00    -0.014 A 
BRANCH  26  27
ATOM     27  C   UNL A   1      40.945  27.717  28.140  1.00  0.00     0.031 A 
ATOM     28  C   UNL A   1      42.447  27.825  28.136  1.00  0.00     0.074 A 
ATOM     29  C   UNL A   1      40.199  28.744  28.588  1.00  0.00     0.049 A 
ATOM     30  N   UNL A   1      43.216  28.772  28.606  1.00  0.00    -0.248 NA
ATOM     31  C   UNL A   1      43.178  26.706  27.519  1.00  0.00     0.031 C 
ATOM     32  C   UNL A   1      38.737  28.788  28.603  1.00  0.00     0.029 A 
ATOM     33  N   UNL A   1      40.577  29.946  29.137  1.00  0.00    -0.354 N 
ATOM     34  C   UNL A   1      44.520  28.358  28.358  1.00  0.00     0.074 A 
ATOM     35  C   UNL A   1      44.438  27.062  27.720  1.00  0.00     0.031 C 
ATOM     36  C   UNL A   1      38.342  29.950  29.153  1.00  0.00     0.029 A 
ATOM     37  C   UNL A   1      39.519  30.714  29.567  1.00  0.00     0.049 A 
ATOM     38  H   UNL A   1      41.515  30.231  29.215  1.00  0.00     0.167 HD
ATOM     39  C   UNL A   1      45.679  28.999  28.634  1.00  0.00     0.037 A 
ATOM     40  C   UNL A   1      39.505  31.882  30.243  1.00  0.00     0.037 A 
ATOM     41  C   UNL A   1      45.756  30.288  29.272  1.00  0.00     0.049 A 
ATOM     42  C   UNL A   1      40.812  32.544  30.610  1.00  0.00     0.074 A 
ATOM     43  C   UNL A   1      46.885  31.029  29.578  1.00  0.00     0.029 A 
ATOM     44  N   UNL A   1      44.664  31.022  29.713  1.00  0.00    -0.354 N 
ATOM     45  N   UNL A   1      42.038  32.152  30.353  1.00  0.00    -0.248 NA
ATOM     46  C   UNL A   1      40.733  33.807  31.360  1.00  0.00     0.031 C 
ATOM     47  C   UNL A   1      46.479  32.182  30.258  1.00  0.00     0.029 A 
ATOM     48  C   UNL A   1      45.095  32.193  30.315  1.00  0.00     0.049 A 
ATOM     49  H   UNL A   1      43.724  30.751  29.613  1.00  0.00     0.167 HD
ATOM     50  C   UNL A   1      42.872  33.136  30.881  1.00  0.00     0.074 A 
ATOM     51  C   UNL A   1      42.011  34.145  31.460  1.00  0.00     0.031 C 
ATOM     52  C   UNL A   1      44.228  33.199  30.881  1.00  0.00     0.037 A 
BRANCH  39  53
ATOM     53  C   UNL A   1      46.964  28.303  28.275  1.00  0.00     0.058 A 
ATOM     54  C   UNL A   1      47.605  28.513  27.043  1.00  0.00     0.135 A 
ATOM     55  C   UNL A   1      47.580  27.434  29.191  1.00  0.00     0.135 A 
ATOM     56  F   UNL A   1      47.052  29.317  26.121  1.00  0.00    -0.206 F 
ATOM     57  C   UNL A   1      48.795  27.869  26.723  1.00  0.00     0.059 A 
ATOM     58  C   UNL A   1      48.786  26.803  28.905  1.00  0.00     0.059 A 
ATOM     59  F   UNL A   1      47.009  27.193  30.382  1.00  0.00    -0.206 F 
ATOM     60  C   UNL A   1      49.379  27.016  27.662  1.00  0.00     0.060 A 
BRANCH  60  61
ATOM     61  S   UNL A   1      50.928  26.194  27.233  1.00  0.00     0.124 S 
ATOM     62  O   UNL A   1      51.167  26.706  25.887  1.00  0.00    -0.237 OA
ATOM     63  O   UNL A   1      51.835  26.682  28.266  1.00  0.00    -0.237 OA
ATOM     64  O   UNL A   1      50.596  24.775  27.314  1.00  0.00    -0.744 OA
ENDBRANCH  60  61
ENDBRANCH  39  53
BRANCH  40  65
ATOM     65  C   UNL A   1      38.209  32.501  30.640  1.00  0.00     0.058 A 
ATOM     66  C   UNL A   1      37.502  33.334  29.759  1.00  0.00     0.135 A 
ATOM     67  C   UNL A   1      37.658  32.284  31.913  1.00  0.00     0.135 A 
ATOM     68  F   UNL A   1      37.994  33.589  28.537  1.00  0.00    -0.206 F 
ATOM     69  C   UNL A   1      36.305  33.941  30.129  1.00  0.00     0.059 A 
ATOM     70  C   UNL A   1      36.448  32.856  32.296  1.00  0.00     0.059 A 
ATOM     71  F   UNL A   1      38.292  31.494  32.795  1.00  0.00    -0.206 F 
ATOM     72  C   UNL A   1      35.783  33.691  31.400  1.00  0.00     0.060 A 
BRANCH  72  73
ATOM     73  S   UNL A   1      34.204  34.444  31.849  1.00  0.00     0.124 S 
ATOM     74  O   UNL A   1      33.653  33.451  32.763  1.00  0.00    -0.237 OA
ATOM     75  O   UNL A   1      34.629  35.703  32.455  1.00  0.00    -0.237 OA
ATOM     76  O   UNL A   1      33.517  34.575  30.569  1.00  0.00    -0.744 OA
ENDBRANCH  72  73
ENDBRANCH  40  65
BRANCH  52  77
ATOM     77  C   UNL A   1      44.875  34.418  31.486  1.00  0.00     0.058 A 
ATOM     78  C   UNL A   1      45.276  34.458  32.831  1.00  0.00     0.135 A 
ATOM     79  C   UNL A   1      45.152  35.542  30.690  1.00  0.00     0.135 A 
ATOM     80  F   UNL A   1      45.035  33.414  33.640  1.00  0.00    -0.206 F 
ATOM     81  C   UNL A   1      45.904  35.578  33.370  1.00  0.00     0.059 A 
ATOM     82  C   UNL A   1      45.809  36.659  31.199  1.00  0.00     0.059 A 
ATOM     83  F   UNL A   1      44.803  35.556  29.393  1.00  0.00    -0.206 F 
ATOM     84  C   UNL A   1      46.170  36.672  32.545  1.00  0.00     0.060 A 
BRANCH  84  85
ATOM     85  S   UNL A   1      47.015  38.103  33.250  1.00  0.00     0.124 S 
ATOM     86  O   UNL A   1      46.450  38.146  34.595  1.00  0.00    -0.237 OA
ATOM     87  O   UNL A   1      48.418  37.710  33.164  1.00  0.00    -0.237 OA
ATOM     88  O   UNL A   1      46.623  39.199  32.370  1.00  0.00    -0.744 OA
ENDBRANCH  84  85
ENDBRANCH  52  77
ENDBRANCH  26  27
ENDBRANCH  19  21
ENDBRANCH  18  19
ENDBRANCH  17  18
ENDBRANCH  16  17
ENDBRANCH  15  16
ENDBRANCH   1  15
TORSDOF 21
ENDMDL
