MODEL 1
REMARK VINA RESULT:      -8.8      0.000      0.000
REMARK SMILES Cc1cc2c(c(C)c1Cl)C=C(C(=O)OCCOCCOCCOC(=O)c1ccc(-c3c4nc(c(-c5c(F)cc(S(=O)(=O)[O-])cc5F)c5ccc([nH]5)c(-c5c(F)cc(S(=O)(=O)[O-])cc5F)c5nc(c(-c6c(F)cc(S(=O)(=O)[O-])cc6F)c6ccc3[nH]6)C=C5)C=C4)cc1)[C@H](C(F)(F)F)O2
REMARK SMILES IDX 19 1 18 2 17 3 16 4 15 5 14 6 12 7 13 8 11 9 1 10 2 11 3 12
REMARK SMILES IDX 8 13 4 14 6 15 9 16 5 17 97 18 7 19 10 20 92 21 93 22 94 23
REMARK SMILES IDX 95 24 96 25 20 26 21 27 22 28 23 29 24 30 25 31 26 32 27 33
REMARK SMILES IDX 91 34 28 35 90 36 29 37 30 38 31 39 84 40 32 41 89 42 83 43
REMARK SMILES IDX 85 44 33 45 88 46 82 47 81 48 34 50 68 51 47 52 67 53 48 54
REMARK SMILES IDX 51 55 66 56 86 57 49 58 50 59 65 61 87 62 52 63 35 64 36 65
REMARK SMILES IDX 45 66 37 67 38 68 44 69 46 70 39 71 40 72 41 73 42 74 43 75
REMARK SMILES IDX 69 76 70 77 79 78 71 79 72 80 78 81 80 82 73 83 74 84 75 85
REMARK SMILES IDX 76 86 77 87 53 88 54 89 63 90 55 91 56 92 62 93 64 94 57 95
REMARK SMILES IDX 58 96 59 97 60 98 61 99
REMARK H PARENT 85 49 51 60
REMARK Flexibility Score: inf
ROOT
ATOM      1  C   UNL A   1      44.616  21.184  25.254  1.00  0.00     0.188 C 
ENDROOT
BRANCH   1   2
ATOM      2  C   UNL A   1      44.923  21.791  23.872  1.00  0.00     0.188 C 
BRANCH   2   3
ATOM      3  O   UNL A   1      44.893  23.204  23.708  1.00  0.00    -0.376 OA
BRANCH   3   4
ATOM      4  C   UNL A   1      45.270  24.048  24.789  1.00  0.00     0.202 C 
BRANCH   4   5
ATOM      5  C   UNL A   1      46.742  24.078  25.234  1.00  0.00     0.261 C 
BRANCH   5   6
ATOM      6  O   UNL A   1      46.971  23.659  26.594  1.00  0.00    -0.460 OA
BRANCH   6   7
ATOM      7  C   UNL A   1      47.680  24.515  27.363  1.00  0.00     0.338 C 
ATOM      8  O   UNL A   1      48.895  24.546  27.474  1.00  0.00    -0.246 OA
BRANCH   7   9
ATOM      9  C   UNL A   1      46.802  25.524  27.990  1.00  0.00     0.087 C 
ATOM     10  C   UNL A   1      44.633  31.064  30.564  1.00  0.00     0.046 C 
ATOM     11  C   UNL A   1      45.119  29.980  29.637  1.00  0.00    -0.028 A 
ATOM     12  C   UNL A   1      45.234  28.690  30.173  1.00  0.00     0.052 A 
ATOM     13  C   UNL A   1      45.523  30.201  28.305  1.00  0.00     0.047 A 
ATOM     14  C   UNL A   1      45.750  27.643  29.415  1.00  0.00     0.128 A 
ATOM     15  C   UNL A   1      46.029  29.142  27.510  1.00  0.00    -0.021 A 
ATOM     16  Cl  UNL A   1      45.430  31.812  27.657  1.00  0.00    -0.084 Cl
ATOM     17  C   UNL A   1      46.153  27.852  28.090  1.00  0.00     0.022 A 
ATOM     18  O   UNL A   1      45.914  26.460  30.089  1.00  0.00    -0.475 OA
ATOM     19  C   UNL A   1      46.465  29.362  26.076  1.00  0.00     0.047 C 
ATOM     20  C   UNL A   1      46.806  26.733  27.407  1.00  0.00     0.027 C 
ATOM     21  C   UNL A   1      46.129  25.253  29.305  1.00  0.00     0.316 C 
BRANCH  21  22
ATOM     22  C   UNL A   1      44.803  24.473  29.247  1.00  0.00     0.430 C 
ATOM     23  F   UNL A   1      43.791  25.203  29.786  1.00  0.00    -0.167 F 
ATOM     24  F   UNL A   1      44.432  24.165  27.983  1.00  0.00    -0.167 F 
ATOM     25  F   UNL A   1      44.856  23.328  29.961  1.00  0.00    -0.167 F 
ENDBRANCH  21  22
ENDBRANCH   7   9
ENDBRANCH   6   7
ENDBRANCH   5   6
ENDBRANCH   4   5
ENDBRANCH   3   4
ENDBRANCH   2   3
ENDBRANCH   1   2
BRANCH   1  26
ATOM     26  O   UNL A   1      43.282  20.752  25.406  1.00  0.00    -0.376 OA
BRANCH  26  27
ATOM     27  C   UNL A   1      42.448  21.508  26.267  1.00  0.00     0.202 C 
BRANCH  27  28
ATOM     28  C   UNL A   1      41.849  22.820  25.735  1.00  0.00     0.261 C 
BRANCH  28  29
ATOM     29  O   UNL A   1      41.709  23.895  26.678  1.00  0.00    -0.460 OA
BRANCH  29  30
ATOM     30  C   UNL A   1      41.885  25.158  26.224  1.00  0.00     0.338 C 
ATOM     31  O   UNL A   1      42.037  25.506  25.065  1.00  0.00    -0.246 OA
BRANCH  30  32
ATOM     32  C   UNL A   1      41.651  26.066  27.370  1.00  0.00     0.060 A 
ATOM     33  C   UNL A   1      42.425  27.228  27.499  1.00  0.00     0.016 A 
ATOM     34  C   UNL A   1      40.634  25.792  28.285  1.00  0.00     0.016 A 
ATOM     35  C   UNL A   1      42.173  28.122  28.543  1.00  0.00     0.010 A 
ATOM     36  C   UNL A   1      40.398  26.677  29.343  1.00  0.00     0.010 A 
ATOM     37  C   UNL A   1      41.173  27.841  29.486  1.00  0.00    -0.014 A 
BRANCH  37  38
ATOM     38  C   UNL A   1      41.032  28.687  30.697  1.00  0.00     0.031 A 
ATOM     39  C   UNL A   1      39.983  29.766  30.704  1.00  0.00     0.074 A 
ATOM     40  C   UNL A   1      41.807  28.490  31.781  1.00  0.00     0.049 A 
ATOM     41  N   UNL A   1      39.698  30.638  31.634  1.00  0.00    -0.248 NA
ATOM     42  C   UNL A   1      39.141  29.871  29.500  1.00  0.00     0.031 C 
ATOM     43  C   UNL A   1      42.829  27.453  31.912  1.00  0.00     0.029 A 
ATOM     44  N   UNL A   1      41.851  29.157  32.982  1.00  0.00    -0.354 N 
ATOM     45  C   UNL A   1      38.638  31.386  31.137  1.00  0.00     0.074 A 
ATOM     46  C   UNL A   1      38.359  30.896  29.805  1.00  0.00     0.031 C 
ATOM     47  C   UNL A   1      43.398  27.552  33.127  1.00  0.00     0.029 A 
ATOM     48  C   UNL A   1      42.805  28.679  33.848  1.00  0.00     0.049 A 
ATOM     49  H   UNL A   1      41.255  29.909  33.201  1.00  0.00     0.167 HD
ATOM     50  C   UNL A   1      37.946  32.379  31.743  1.00  0.00     0.037 A 
ATOM     51  C   UNL A   1      43.167  29.109  35.076  1.00  0.00     0.037 A 
ATOM     52  C   UNL A   1      38.233  32.873  33.064  1.00  0.00     0.049 A 
ATOM     53  C   UNL A   1      42.448  30.287  35.689  1.00  0.00     0.074 A 
ATOM     54  C   UNL A   1      37.594  33.885  33.758  1.00  0.00     0.029 A 
ATOM     55  N   UNL A   1      39.240  32.395  33.888  1.00  0.00    -0.354 N 
ATOM     56  N   UNL A   1      41.442  30.980  35.211  1.00  0.00    -0.248 NA
ATOM     57  C   UNL A   1      42.913  30.743  37.008  1.00  0.00     0.031 C 
ATOM     58  C   UNL A   1      38.247  34.054  34.981  1.00  0.00     0.029 A 
ATOM     59  C   UNL A   1      39.254  33.106  35.076  1.00  0.00     0.049 A 
ATOM     60  H   UNL A   1      39.855  31.660  33.662  1.00  0.00     0.167 HD
ATOM     61  C   UNL A   1      41.130  31.925  36.184  1.00  0.00     0.074 A 
ATOM     62  C   UNL A   1      42.053  31.717  37.279  1.00  0.00     0.031 C 
ATOM     63  C   UNL A   1      40.163  32.875  36.171  1.00  0.00     0.037 A 
BRANCH  50  64
ATOM     64  C   UNL A   1      36.809  33.006  30.985  1.00  0.00     0.058 A 
ATOM     65  C   UNL A   1      35.472  32.727  31.309  1.00  0.00     0.135 A 
ATOM     66  C   UNL A   1      37.055  33.945  29.971  1.00  0.00     0.135 A 
ATOM     67  F   UNL A   1      35.180  31.820  32.256  1.00  0.00    -0.206 F 
ATOM     68  C   UNL A   1      34.419  33.349  30.648  1.00  0.00     0.059 A 
ATOM     69  C   UNL A   1      36.017  34.601  29.315  1.00  0.00     0.059 A 
ATOM     70  F   UNL A   1      38.315  34.245  29.619  1.00  0.00    -0.206 F 
ATOM     71  C   UNL A   1      34.702  34.290  29.656  1.00  0.00     0.060 A 
BRANCH  71  72
ATOM     72  S   UNL A   1      33.321  35.107  28.831  1.00  0.00     0.124 S 
ATOM     73  O   UNL A   1      32.799  34.027  27.999  1.00  0.00    -0.237 OA
ATOM     74  O   UNL A   1      32.479  35.503  29.955  1.00  0.00    -0.237 OA
ATOM     75  O   UNL A   1      33.955  36.204  28.106  1.00  0.00    -0.744 OA
ENDBRANCH  71  72
ENDBRANCH  50  64
BRANCH  51  76
ATOM     76  C   UNL A   1      44.257  28.418  35.821  1.00  0.00     0.058 A 
ATOM     77  C   UNL A   1      45.601  28.764  35.619  1.00  0.00     0.135 A 
ATOM     78  C   UNL A   1      43.980  27.396  36.743  1.00  0.00     0.135 A 
ATOM     79  F   UNL A   1      45.921  29.724  34.737  1.00  0.00    -0.206 F 
ATOM     80  C   UNL A   1      46.632  28.117  36.293  1.00  0.00     0.059 A 
ATOM     81  C   UNL A   1      44.991  26.752  37.450  1.00  0.00     0.059 A 
ATOM     82  F   UNL A   1      42.711  27.027  36.978  1.00  0.00    -0.206 F 
ATOM     83  C   UNL A   1      46.316  27.113  37.211  1.00  0.00     0.060 A 
BRANCH  83  84
ATOM     84  S   UNL A   1      47.662  26.312  38.111  1.00  0.00     0.124 S 
ATOM     85  O   UNL A   1      47.244  26.500  39.495  1.00  0.00    -0.237 OA
ATOM     86  O   UNL A   1      47.595  24.946  37.603  1.00  0.00    -0.237 OA
ATOM     87  O   UNL A   1      48.840  27.070  37.699  1.00  0.00    -0.744 OA
ENDBRANCH  83  84
ENDBRANCH  51  76
BRANCH  63  88
ATOM     88  C   UNL A   1      40.003  33.749  37.387  1.00  0.00     0.058 A 
ATOM     89  C   UNL A   1      40.774  34.907  37.571  1.00  0.00     0.135 A 
ATOM     90  C   UNL A   1      38.984  33.486  38.318  1.00  0.00     0.135 A 
ATOM     91  F   UNL A   1      41.764  35.203  36.715  1.00  0.00    -0.206 F 
ATOM     92  C   UNL A   1      40.538  35.774  38.634  1.00  0.00     0.059 A 
ATOM     93  C   UNL A   1      38.713  34.353  39.371  1.00  0.00     0.059 A 
ATOM     94  F   UNL A   1      38.210  32.397  38.183  1.00  0.00    -0.206 F 
ATOM     95  C   UNL A   1      39.497  35.496  39.521  1.00  0.00     0.060 A 
BRANCH  95  96
ATOM     96  S   UNL A   1      39.157  36.671  40.850  1.00  0.00     0.124 S 
ATOM     97  O   UNL A   1      40.501  36.955  41.345  1.00  0.00    -0.237 OA
ATOM     98  O   UNL A   1      38.501  37.762  40.136  1.00  0.00    -0.237 OA
ATOM     99  O   UNL A   1      38.300  35.920  41.762  1.00  0.00    -0.744 OA
ENDBRANCH  95  96
ENDBRANCH  63  88
ENDBRANCH  37  38
ENDBRANCH  30  32
ENDBRANCH  29  30
ENDBRANCH  28  29
ENDBRANCH  27  28
ENDBRANCH  26  27
ENDBRANCH   1  26
TORSDOF 21
ENDMDL
MODEL 2
REMARK VINA RESULT:      -8.7      0.465      7.962
REMARK SMILES Cc1cc2c(c(C)c1Cl)C=C(C(=O)OCCOCCOCCOC(=O)c1ccc(-c3c4nc(c(-c5c(F)cc(S(=O)(=O)[O-])cc5F)c5ccc([nH]5)c(-c5c(F)cc(S(=O)(=O)[O-])cc5F)c5nc(c(-c6c(F)cc(S(=O)(=O)[O-])cc6F)c6ccc3[nH]6)C=C5)C=C4)cc1)[C@H](C(F)(F)F)O2
REMARK SMILES IDX 19 1 18 2 17 3 16 4 15 5 14 6 12 7 13 8 11 9 1 10 2 11 3 12
REMARK SMILES IDX 8 13 4 14 6 15 9 16 5 17 97 18 7 19 10 20 92 21 93 22 94 23
REMARK SMILES IDX 95 24 96 25 20 26 21 27 22 28 23 29 24 30 25 31 26 32 27 33
REMARK SMILES IDX 91 34 28 35 90 36 29 37 30 38 31 39 84 40 32 41 89 42 83 43
REMARK SMILES IDX 85 44 33 45 88 46 82 47 81 48 34 50 68 51 47 52 67 53 48 54
REMARK SMILES IDX 51 55 66 56 86 57 49 58 50 59 65 61 87 62 52 63 35 64 36 65
REMARK SMILES IDX 45 66 37 67 38 68 44 69 46 70 39 71 40 72 41 73 42 74 43 75
REMARK SMILES IDX 69 76 70 77 79 78 71 79 72 80 78 81 80 82 73 83 74 84 75 85
REMARK SMILES IDX 76 86 77 87 53 88 54 89 63 90 55 91 56 92 62 93 64 94 57 95
REMARK SMILES IDX 58 96 59 97 60 98 61 99
REMARK H PARENT 85 49 51 60
REMARK Flexibility Score: inf
ROOT
ATOM      1  C   UNL A   1      44.542  20.989  25.219  1.00  0.00     0.188 C 
ENDROOT
BRANCH   1   2
ATOM      2  C   UNL A   1      44.779  21.512  23.790  1.00  0.00     0.188 C 
BRANCH   2   3
ATOM      3  O   UNL A   1      44.933  22.910  23.574  1.00  0.00    -0.376 OA
BRANCH   3   4
ATOM      4  C   UNL A   1      45.245  23.762  24.670  1.00  0.00     0.202 C 
BRANCH   4   5
ATOM      5  C   UNL A   1      46.696  23.823  25.177  1.00  0.00     0.261 C 
BRANCH   5   6
ATOM      6  O   UNL A   1      46.862  23.507  26.574  1.00  0.00    -0.460 OA
BRANCH   6   7
ATOM      7  C   UNL A   1      47.573  24.399  27.299  1.00  0.00     0.338 C 
ATOM      8  O   UNL A   1      48.788  24.428  27.412  1.00  0.00    -0.246 OA
BRANCH   7   9
ATOM      9  C   UNL A   1      46.699  25.443  27.871  1.00  0.00     0.087 C 
ATOM     10  C   UNL A   1      44.538  31.130  30.108  1.00  0.00     0.046 C 
ATOM     11  C   UNL A   1      45.017  29.990  29.247  1.00  0.00    -0.028 A 
ATOM     12  C   UNL A   1      45.145  28.738  29.864  1.00  0.00     0.052 A 
ATOM     13  C   UNL A   1      45.403  30.126  27.898  1.00  0.00     0.047 A 
ATOM     14  C   UNL A   1      45.656  27.646  29.169  1.00  0.00     0.128 A 
ATOM     15  C   UNL A   1      45.904  29.019  27.167  1.00  0.00    -0.021 A 
ATOM     16  Cl  UNL A   1      45.294  31.690  27.148  1.00  0.00    -0.084 Cl
ATOM     17  C   UNL A   1      46.041  27.770  27.829  1.00  0.00     0.022 A 
ATOM     18  O   UNL A   1      45.834  26.510  29.917  1.00  0.00    -0.475 OA
ATOM     19  C   UNL A   1      46.320  29.147  25.717  1.00  0.00     0.047 C 
ATOM     20  C   UNL A   1      46.690  26.612  27.211  1.00  0.00     0.027 C 
ATOM     21  C   UNL A   1      46.044  25.256  29.209  1.00  0.00     0.316 C 
BRANCH  21  22
ATOM     22  C   UNL A   1      44.721  24.468  29.220  1.00  0.00     0.430 C 
ATOM     23  F   UNL A   1      44.351  24.133  27.956  1.00  0.00    -0.167 F 
ATOM     24  F   UNL A   1      44.806  23.314  29.921  1.00  0.00    -0.167 F 
ATOM     25  F   UNL A   1      43.701  25.195  29.726  1.00  0.00    -0.167 F 
ENDBRANCH  21  22
ENDBRANCH   7   9
ENDBRANCH   6   7
ENDBRANCH   5   6
ENDBRANCH   4   5
ENDBRANCH   3   4
ENDBRANCH   2   3
ENDBRANCH   1   2
BRANCH   1  26
ATOM     26  O   UNL A   1      43.217  20.567  25.461  1.00  0.00    -0.376 OA
BRANCH  26  27
ATOM     27  C   UNL A   1      42.434  21.356  26.340  1.00  0.00     0.202 C 
BRANCH  27  28
ATOM     28  C   UNL A   1      41.783  22.635  25.787  1.00  0.00     0.261 C 
BRANCH  28  29
ATOM     29  O   UNL A   1      41.703  23.757  26.682  1.00  0.00    -0.460 OA
BRANCH  29  30
ATOM     30  C   UNL A   1      41.862  24.994  26.157  1.00  0.00     0.338 C 
ATOM     31  O   UNL A   1      42.041  25.275  24.984  1.00  0.00    -0.246 OA
BRANCH  30  32
ATOM     32  C   UNL A   1      41.570  25.963  27.237  1.00  0.00     0.060 A 
ATOM     33  C   UNL A   1      42.279  27.171  27.291  1.00  0.00     0.016 A 
ATOM     34  C   UNL A   1      40.562  25.696  28.165  1.00  0.00     0.016 A 
ATOM     35  C   UNL A   1      41.971  28.119  28.271  1.00  0.00     0.010 A 
ATOM     36  C   UNL A   1      40.270  26.636  29.159  1.00  0.00     0.010 A 
ATOM     37  C   UNL A   1      40.980  27.848  29.226  1.00  0.00    -0.014 A 
BRANCH  37  38
ATOM     38  C   UNL A   1      40.785  28.765  30.377  1.00  0.00     0.031 A 
ATOM     39  C   UNL A   1      41.686  28.621  31.573  1.00  0.00     0.074 A 
ATOM     40  C   UNL A   1      39.839  29.724  30.354  1.00  0.00     0.049 A 
ATOM     41  N   UNL A   1      41.684  29.288  32.697  1.00  0.00    -0.248 NA
ATOM     42  C   UNL A   1      42.731  27.587  31.488  1.00  0.00     0.031 C 
ATOM     43  C   UNL A   1      38.933  29.990  29.238  1.00  0.00     0.029 A 
ATOM     44  N   UNL A   1      39.486  30.654  31.301  1.00  0.00    -0.354 N 
ATOM     45  C   UNL A   1      42.731  28.767  33.447  1.00  0.00     0.074 A 
ATOM     46  C   UNL A   1      43.319  27.697  32.670  1.00  0.00     0.031 C 
ATOM     47  C   UNL A   1      38.128  31.018  29.564  1.00  0.00     0.029 A 
ATOM     48  C   UNL A   1      38.439  31.462  30.924  1.00  0.00     0.049 A 
ATOM     49  H   UNL A   1      39.941  30.735  32.170  1.00  0.00     0.167 HD
ATOM     50  C   UNL A   1      43.176  29.157  34.664  1.00  0.00     0.037 A 
ATOM     51  C   UNL A   1      37.798  32.437  31.602  1.00  0.00     0.037 A 
ATOM     52  C   UNL A   1      42.582  30.213  35.439  1.00  0.00     0.049 A 
ATOM     53  C   UNL A   1      38.247  32.785  33.001  1.00  0.00     0.074 A 
ATOM     54  C   UNL A   1      42.956  30.673  36.690  1.00  0.00     0.029 A 
ATOM     55  N   UNL A   1      41.492  30.973  35.042  1.00  0.00    -0.354 N 
ATOM     56  N   UNL A   1      39.244  32.288  33.694  1.00  0.00    -0.248 NA
ATOM     57  C   UNL A   1      37.484  33.822  33.712  1.00  0.00     0.031 C 
ATOM     58  C   UNL A   1      42.060  31.675  37.071  1.00  0.00     0.029 A 
ATOM     59  C   UNL A   1      41.166  31.883  36.033  1.00  0.00     0.049 A 
ATOM     60  H   UNL A   1      41.019  30.878  34.184  1.00  0.00     0.167 HD
ATOM     61  C   UNL A   1      39.252  32.979  34.903  1.00  0.00     0.074 A 
ATOM     62  C   UNL A   1      38.160  33.928  34.848  1.00  0.00     0.031 C 
ATOM     63  C   UNL A   1      40.091  32.841  35.959  1.00  0.00     0.037 A 
BRANCH  50  64
ATOM     64  C   UNL A   1      44.363  28.437  35.241  1.00  0.00     0.058 A 
ATOM     65  C   UNL A   1      44.208  27.298  36.046  1.00  0.00     0.135 A 
ATOM     66  C   UNL A   1      45.670  28.849  34.932  1.00  0.00     0.135 A 
ATOM     67  F   UNL A   1      42.980  26.875  36.390  1.00  0.00    -0.206 F 
ATOM     68  C   UNL A   1      45.305  26.598  36.533  1.00  0.00     0.059 A 
ATOM     69  C   UNL A   1      46.783  28.146  35.385  1.00  0.00     0.059 A 
ATOM     70  F   UNL A   1      45.874  29.934  34.170  1.00  0.00    -0.206 F 
ATOM     71  C   UNL A   1      46.590  27.026  36.192  1.00  0.00     0.060 A 
BRANCH  71  72
ATOM     72  S   UNL A   1      48.000  26.085  36.811  1.00  0.00     0.124 S 
ATOM     73  O   UNL A   1      49.025  26.413  35.825  1.00  0.00    -0.237 OA
ATOM     74  O   UNL A   1      48.194  26.656  38.139  1.00  0.00    -0.237 OA
ATOM     75  O   UNL A   1      47.527  24.704  36.786  1.00  0.00    -0.744 OA
ENDBRANCH  71  72
ENDBRANCH  50  64
BRANCH  51  76
ATOM     76  C   UNL A   1      36.667  33.171  30.968  1.00  0.00     0.058 A 
ATOM     77  C   UNL A   1      36.894  34.099  29.941  1.00  0.00     0.135 A 
ATOM     78  C   UNL A   1      35.340  32.966  31.377  1.00  0.00     0.135 A 
ATOM     79  F   UNL A   1      38.145  34.344  29.523  1.00  0.00    -0.206 F 
ATOM     80  C   UNL A   1      35.851  34.807  29.351  1.00  0.00     0.059 A 
ATOM     81  C   UNL A   1      34.276  33.640  30.784  1.00  0.00     0.059 A 
ATOM     82  F   UNL A   1      35.064  32.086  32.352  1.00  0.00    -0.206 F 
ATOM     83  C   UNL A   1      34.543  34.566  29.776  1.00  0.00     0.060 A 
BRANCH  83  84
ATOM     84  S   UNL A   1      33.195  35.460  28.971  1.00  0.00     0.124 S 
ATOM     85  O   UNL A   1      33.921  36.502  28.254  1.00  0.00    -0.237 OA
ATOM     86  O   UNL A   1      32.592  34.419  28.145  1.00  0.00    -0.237 OA
ATOM     87  O   UNL A   1      32.377  35.916  30.090  1.00  0.00    -0.744 OA
ENDBRANCH  83  84
ENDBRANCH  51  76
BRANCH  63  88
ATOM     88  C   UNL A   1      39.910  33.758  37.140  1.00  0.00     0.058 A 
ATOM     89  C   UNL A   1      40.519  35.021  37.194  1.00  0.00     0.135 A 
ATOM     90  C   UNL A   1      39.021  33.415  38.173  1.00  0.00     0.135 A 
ATOM     91  F   UNL A   1      41.380  35.398  36.236  1.00  0.00    -0.206 F 
ATOM     92  C   UNL A   1      40.252  35.912  38.230  1.00  0.00     0.059 A 
ATOM     93  C   UNL A   1      38.718  34.299  39.202  1.00  0.00     0.059 A 
ATOM     94  F   UNL A   1      38.404  32.222  38.164  1.00  0.00    -0.206 F 
ATOM     95  C   UNL A   1      39.340  35.547  39.222  1.00  0.00     0.060 A 
BRANCH  95  96
ATOM     96  S   UNL A   1      38.948  36.745  40.516  1.00  0.00     0.124 S 
ATOM     97  O   UNL A   1      40.246  36.923  41.159  1.00  0.00    -0.237 OA
ATOM     98  O   UNL A   1      38.461  37.884  39.745  1.00  0.00    -0.237 OA
ATOM     99  O   UNL A   1      37.939  36.062  41.321  1.00  0.00    -0.744 OA
ENDBRANCH  95  96
ENDBRANCH  63  88
ENDBRANCH  37  38
ENDBRANCH  30  32
ENDBRANCH  29  30
ENDBRANCH  28  29
ENDBRANCH  27  28
ENDBRANCH  26  27
ENDBRANCH   1  26
TORSDOF 21
ENDMDL
MODEL 3
REMARK VINA RESULT:      -8.6      4.499      6.747
REMARK SMILES Cc1cc2c(c(C)c1Cl)C=C(C(=O)OCCOCCOCCOC(=O)c1ccc(-c3c4nc(c(-c5c(F)cc(S(=O)(=O)[O-])cc5F)c5ccc([nH]5)c(-c5c(F)cc(S(=O)(=O)[O-])cc5F)c5nc(c(-c6c(F)cc(S(=O)(=O)[O-])cc6F)c6ccc3[nH]6)C=C5)C=C4)cc1)[C@H](C(F)(F)F)O2
REMARK SMILES IDX 19 1 18 2 17 3 16 4 15 5 14 6 12 7 13 8 11 9 1 10 2 11 3 12
REMARK SMILES IDX 8 13 4 14 6 15 9 16 5 17 97 18 7 19 10 20 92 21 93 22 94 23
REMARK SMILES IDX 95 24 96 25 20 26 21 27 22 28 23 29 24 30 25 31 26 32 27 33
REMARK SMILES IDX 91 34 28 35 90 36 29 37 30 38 31 39 84 40 32 41 89 42 83 43
REMARK SMILES IDX 85 44 33 45 88 46 82 47 81 48 34 50 68 51 47 52 67 53 48 54
REMARK SMILES IDX 51 55 66 56 86 57 49 58 50 59 65 61 87 62 52 63 35 64 36 65
REMARK SMILES IDX 45 66 37 67 38 68 44 69 46 70 39 71 40 72 41 73 42 74 43 75
REMARK SMILES IDX 69 76 70 77 79 78 71 79 72 80 78 81 80 82 73 83 74 84 75 85
REMARK SMILES IDX 76 86 77 87 53 88 54 89 63 90 55 91 56 92 62 93 64 94 57 95
REMARK SMILES IDX 58 96 59 97 60 98 61 99
REMARK H PARENT 85 49 51 60
REMARK Flexibility Score: inf
ROOT
ATOM      1  C   UNL A   1      40.691  21.881  27.591  1.00  0.00     0.188 C 
ENDROOT
BRANCH   1   2
ATOM      2  C   UNL A   1      39.703  22.313  26.492  1.00  0.00     0.188 C 
BRANCH   2   3
ATOM      3  O   UNL A   1      38.987  21.319  25.767  1.00  0.00    -0.376 OA
BRANCH   3   4
ATOM      4  C   UNL A   1      37.801  21.674  25.065  1.00  0.00     0.202 C 
BRANCH   4   5
ATOM      5  C   UNL A   1      36.441  21.473  25.753  1.00  0.00     0.261 C 
BRANCH   5   6
ATOM      6  O   UNL A   1      35.536  20.592  25.058  1.00  0.00    -0.460 OA
BRANCH   6   7
ATOM      7  C   UNL A   1      34.233  20.695  25.402  1.00  0.00     0.338 C 
ATOM      8  O   UNL A   1      33.576  19.852  25.992  1.00  0.00    -0.246 OA
BRANCH   7   9
ATOM      9  C   UNL A   1      33.697  22.032  25.079  1.00  0.00     0.087 C 
ATOM     10  C   UNL A   1      32.915  27.875  22.383  1.00  0.00     0.046 C 
ATOM     11  C   UNL A   1      32.974  26.396  22.662  1.00  0.00    -0.028 A 
ATOM     12  C   UNL A   1      33.197  26.009  23.991  1.00  0.00     0.052 A 
ATOM     13  C   UNL A   1      32.889  25.399  21.669  1.00  0.00     0.047 A 
ATOM     14  C   UNL A   1      33.347  24.668  24.331  1.00  0.00     0.128 A 
ATOM     15  C   UNL A   1      33.016  24.026  22.001  1.00  0.00    -0.021 A 
ATOM     16  Cl  UNL A   1      32.666  25.881  20.014  1.00  0.00    -0.084 Cl
ATOM     17  C   UNL A   1      33.263  23.670  23.353  1.00  0.00     0.022 A 
ATOM     18  O   UNL A   1      33.671  24.431  25.642  1.00  0.00    -0.475 OA
ATOM     19  C   UNL A   1      32.925  22.943  20.946  1.00  0.00     0.047 C 
ATOM     20  C   UNL A   1      33.563  22.299  23.770  1.00  0.00     0.027 C 
ATOM     21  C   UNL A   1      33.522  23.074  26.146  1.00  0.00     0.316 C 
BRANCH  21  22
ATOM     22  C   UNL A   1      32.219  23.004  26.964  1.00  0.00     0.430 C 
ATOM     23  F   UNL A   1      32.428  22.369  28.148  1.00  0.00    -0.167 F 
ATOM     24  F   UNL A   1      31.721  24.226  27.260  1.00  0.00    -0.167 F 
ATOM     25  F   UNL A   1      31.257  22.300  26.330  1.00  0.00    -0.167 F 
ENDBRANCH  21  22
ENDBRANCH   7   9
ENDBRANCH   6   7
ENDBRANCH   5   6
ENDBRANCH   4   5
ENDBRANCH   3   4
ENDBRANCH   2   3
ENDBRANCH   1   2
BRANCH   1  26
ATOM     26  O   UNL A   1      41.914  21.380  27.097  1.00  0.00    -0.376 OA
BRANCH  26  27
ATOM     27  C   UNL A   1      42.422  21.959  25.908  1.00  0.00     0.202 C 
BRANCH  27  28
ATOM     28  C   UNL A   1      43.550  22.997  26.027  1.00  0.00     0.261 C 
BRANCH  28  29
ATOM     29  O   UNL A   1      43.307  24.120  26.889  1.00  0.00    -0.460 OA
BRANCH  29  30
ATOM     30  C   UNL A   1      42.665  25.190  26.364  1.00  0.00     0.338 C 
ATOM     31  O   UNL A   1      42.291  25.328  25.212  1.00  0.00    -0.246 OA
BRANCH  30  32
ATOM     32  C   UNL A   1      42.314  26.081  27.494  1.00  0.00     0.060 A 
ATOM     33  C   UNL A   1      43.026  27.274  27.679  1.00  0.00     0.016 A 
ATOM     34  C   UNL A   1      41.249  25.758  28.336  1.00  0.00     0.016 A 
ATOM     35  C   UNL A   1      42.665  28.150  28.706  1.00  0.00     0.010 A 
ATOM     36  C   UNL A   1      40.903  26.626  29.377  1.00  0.00     0.010 A 
ATOM     37  C   UNL A   1      41.615  27.821  29.576  1.00  0.00    -0.014 A 
BRANCH  37  38
ATOM     38  C   UNL A   1      41.355  28.654  30.778  1.00  0.00     0.031 A 
ATOM     39  C   UNL A   1      40.245  29.668  30.724  1.00  0.00     0.074 A 
ATOM     40  C   UNL A   1      42.077  28.500  31.904  1.00  0.00     0.049 A 
ATOM     41  N   UNL A   1      39.855  30.519  31.636  1.00  0.00    -0.248 NA
ATOM     42  C   UNL A   1      39.468  29.726  29.474  1.00  0.00     0.031 C 
ATOM     43  C   UNL A   1      43.150  27.526  32.094  1.00  0.00     0.029 A 
ATOM     44  N   UNL A   1      42.012  29.165  33.105  1.00  0.00    -0.354 N 
ATOM     45  C   UNL A   1      38.782  31.204  31.079  1.00  0.00     0.074 A 
ATOM     46  C   UNL A   1      38.610  30.702  29.733  1.00  0.00     0.031 C 
ATOM     47  C   UNL A   1      43.642  27.655  33.339  1.00  0.00     0.029 A 
ATOM     48  C   UNL A   1      42.943  28.742  34.025  1.00  0.00     0.049 A 
ATOM     49  H   UNL A   1      41.361  29.879  33.290  1.00  0.00     0.167 HD
ATOM     50  C   UNL A   1      37.999  32.151  31.644  1.00  0.00     0.037 A 
ATOM     51  C   UNL A   1      43.207  29.189  35.271  1.00  0.00     0.037 A 
ATOM     52  C   UNL A   1      38.179  32.657  32.979  1.00  0.00     0.049 A 
ATOM     53  C   UNL A   1      42.385  30.320  35.842  1.00  0.00     0.074 A 
ATOM     54  C   UNL A   1      37.443  33.627  33.635  1.00  0.00     0.029 A 
ATOM     55  N   UNL A   1      39.165  32.238  33.860  1.00  0.00    -0.354 N 
ATOM     56  N   UNL A   1      41.368  30.953  35.306  1.00  0.00    -0.248 NA
ATOM     57  C   UNL A   1      42.746  30.799  37.185  1.00  0.00     0.031 C 
ATOM     58  C   UNL A   1      38.013  33.831  34.893  1.00  0.00     0.029 A 
ATOM     59  C   UNL A   1      39.068  32.945  35.046  1.00  0.00     0.049 A 
ATOM     60  H   UNL A   1      39.834  31.541  33.669  1.00  0.00     0.167 HD
ATOM     61  C   UNL A   1      40.945  31.875  36.260  1.00  0.00     0.074 A 
ATOM     62  C   UNL A   1      41.815  31.719  37.406  1.00  0.00     0.031 C 
ATOM     63  C   UNL A   1      39.925  32.766  36.191  1.00  0.00     0.037 A 
BRANCH  50  64
ATOM     64  C   UNL A   1      36.871  32.711  30.822  1.00  0.00     0.058 A 
ATOM     65  C   UNL A   1      35.550  32.271  30.996  1.00  0.00     0.135 A 
ATOM     66  C   UNL A   1      37.102  33.745  29.900  1.00  0.00     0.135 A 
ATOM     67  F   UNL A   1      35.277  31.270  31.850  1.00  0.00    -0.206 F 
ATOM     68  C   UNL A   1      34.498  32.828  30.278  1.00  0.00     0.059 A 
ATOM     69  C   UNL A   1      36.060  34.336  29.191  1.00  0.00     0.059 A 
ATOM     70  F   UNL A   1      38.347  34.200  29.691  1.00  0.00    -0.206 F 
ATOM     71  C   UNL A   1      34.762  33.865  29.382  1.00  0.00     0.060 A 
BRANCH  71  72
ATOM     72  S   UNL A   1      33.378  34.593  28.482  1.00  0.00     0.124 S 
ATOM     73  O   UNL A   1      34.049  35.632  27.705  1.00  0.00    -0.237 OA
ATOM     74  O   UNL A   1      32.874  33.458  27.717  1.00  0.00    -0.237 OA
ATOM     75  O   UNL A   1      32.497  35.076  29.540  1.00  0.00    -0.744 OA
ENDBRANCH  71  72
ENDBRANCH  50  64
BRANCH  51  76
ATOM     76  C   UNL A   1      44.292  28.562  36.077  1.00  0.00     0.058 A 
ATOM     77  C   UNL A   1      45.611  29.032  36.002  1.00  0.00     0.135 A 
ATOM     78  C   UNL A   1      44.036  27.480  36.934  1.00  0.00     0.135 A 
ATOM     79  F   UNL A   1      45.913  30.055  35.187  1.00  0.00    -0.206 F 
ATOM     80  C   UNL A   1      46.640  28.447  36.734  1.00  0.00     0.059 A 
ATOM     81  C   UNL A   1      45.042  26.894  37.698  1.00  0.00     0.059 A 
ATOM     82  F   UNL A   1      42.791  26.991  37.048  1.00  0.00    -0.206 F 
ATOM     83  C   UNL A   1      46.344  27.380  37.584  1.00  0.00     0.060 A 
BRANCH  83  84
ATOM     84  S   UNL A   1      47.681  26.658  38.561  1.00  0.00     0.124 S 
ATOM     85  O   UNL A   1      48.643  26.301  37.525  1.00  0.00    -0.237 OA
ATOM     86  O   UNL A   1      48.058  27.771  39.427  1.00  0.00    -0.237 OA
ATOM     87  O   UNL A   1      47.036  25.536  39.237  1.00  0.00    -0.744 OA
ENDBRANCH  83  84
ENDBRANCH  51  76
BRANCH  63  88
ATOM     88  C   UNL A   1      39.644  33.624  37.396  1.00  0.00     0.058 A 
ATOM     89  C   UNL A   1      38.749  33.220  38.398  1.00  0.00     0.135 A 
ATOM     90  C   UNL A   1      40.371  34.809  37.606  1.00  0.00     0.135 A 
ATOM     91  F   UNL A   1      38.026  32.099  38.248  1.00  0.00    -0.206 F 
ATOM     92  C   UNL A   1      38.586  33.960  39.566  1.00  0.00     0.059 A 
ATOM     93  C   UNL A   1      40.244  35.548  38.776  1.00  0.00     0.059 A 
ATOM     94  F   UNL A   1      41.248  35.235  36.683  1.00  0.00    -0.206 F 
ATOM     95  C   UNL A   1      39.347  35.115  39.752  1.00  0.00     0.060 A 
BRANCH  95  96
ATOM     96  S   UNL A   1      39.177  36.020  41.306  1.00  0.00     0.124 S 
ATOM     97  O   UNL A   1      37.840  35.622  41.736  1.00  0.00    -0.237 OA
ATOM     98  O   UNL A   1      40.282  35.487  42.096  1.00  0.00    -0.237 OA
ATOM     99  O   UNL A   1      39.315  37.417  40.906  1.00  0.00    -0.744 OA
ENDBRANCH  95  96
ENDBRANCH  63  88
ENDBRANCH  37  38
ENDBRANCH  30  32
ENDBRANCH  29  30
ENDBRANCH  28  29
ENDBRANCH  27  28
ENDBRANCH  26  27
ENDBRANCH   1  26
TORSDOF 21
ENDMDL
