MODEL 1
REMARK VINA RESULT:     -10.9      0.000      0.000
REMARK SMILES O=C(OCCOCCOCCOC(=O)[C@@H]1CC(=O)N(c2ccc(Cl)cc2C(=O)c2ccccc2)C1)c1ccc(-c2c3nc(c(-c4c(F)cc(S(=O)(=O)[O-])cc4F)c4ccc([nH]4)c(-c4c(F)cc(S(=O)(=O)[O-])cc4F)c4nc(c(-c5c(F)cc(S(=O)(=O)[O-])cc5F)c5ccc2[nH]5)C=C4)C=C3)cc1
REMARK SMILES IDX 7 1 6 2 5 3 4 4 3 5 2 6 1 7 36 8 37 9 101 10 38 11 100 12
REMARK SMILES IDX 39 13 40 14 41 15 94 16 42 17 99 18 93 19 95 20 43 21 98 22
REMARK SMILES IDX 92 23 91 24 44 26 78 27 57 28 77 29 58 30 61 31 76 32 96 33
REMARK SMILES IDX 59 34 60 35 75 37 97 38 62 39 45 40 46 41 55 42 47 43 48 44
REMARK SMILES IDX 54 45 56 46 49 47 50 48 51 49 52 50 53 51 79 52 80 53 89 54
REMARK SMILES IDX 81 55 82 56 88 57 90 58 83 59 84 60 85 61 86 62 87 63 63 64
REMARK SMILES IDX 64 65 73 66 65 67 66 68 72 69 74 70 67 71 68 72 69 73 70 74
REMARK SMILES IDX 71 75 8 76 9 77 10 78 11 79 12 80 13 81 14 82 15 83 16 84
REMARK SMILES IDX 35 85 17 86 19 87 18 88 20 89 21 90 26 91 22 92 25 93 23 94
REMARK SMILES IDX 24 95 27 96 28 97 29 98 30 99 34 100 31 101 33 102 32 103
REMARK H PARENT 95 25 61 36
REMARK Flexibility Score: inf
ROOT
ATOM      1  C   UNL A   1      38.124  22.202  25.625  1.00  0.00     0.188 C 
ENDROOT
BRANCH   1   2
ATOM      2  O   UNL A   1      39.522  22.421  25.789  1.00  0.00    -0.376 OA
BRANCH   2   3
ATOM      3  C   UNL A   1      40.301  21.418  26.427  1.00  0.00     0.202 C 
BRANCH   3   4
ATOM      4  C   UNL A   1      41.805  21.466  26.124  1.00  0.00     0.261 C 
BRANCH   4   5
ATOM      5  O   UNL A   1      42.474  22.617  26.660  1.00  0.00    -0.460 OA
BRANCH   5   6
ATOM      6  C   UNL A   1      42.411  23.916  26.275  1.00  0.00     0.338 C 
ATOM      7  O   UNL A   1      42.761  24.187  25.126  1.00  0.00    -0.246 OA
BRANCH   6   8
ATOM      8  C   UNL A   1      41.986  25.058  27.151  1.00  0.00     0.060 A 
ATOM      9  C   UNL A   1      42.619  26.299  27.235  1.00  0.00     0.016 A 
ATOM     10  C   UNL A   1      40.821  24.876  27.921  1.00  0.00     0.016 A 
ATOM     11  C   UNL A   1      42.150  27.313  28.054  1.00  0.00     0.010 A 
ATOM     12  C   UNL A   1      40.355  25.876  28.783  1.00  0.00     0.010 A 
ATOM     13  C   UNL A   1      41.055  27.083  28.877  1.00  0.00    -0.014 A 
BRANCH  13  14
ATOM     14  C   UNL A   1      40.911  27.998  30.022  1.00  0.00     0.031 A 
ATOM     15  C   UNL A   1      41.974  27.928  31.080  1.00  0.00     0.074 A 
ATOM     16  C   UNL A   1      40.006  28.991  29.986  1.00  0.00     0.049 A 
ATOM     17  N   UNL A   1      42.119  28.642  32.160  1.00  0.00    -0.248 NA
ATOM     18  C   UNL A   1      43.043  26.931  30.873  1.00  0.00     0.031 C 
ATOM     19  C   UNL A   1      39.060  29.226  28.894  1.00  0.00     0.029 A 
ATOM     20  N   UNL A   1      39.765  30.012  30.862  1.00  0.00    -0.354 N 
ATOM     21  C   UNL A   1      43.268  28.158  32.776  1.00  0.00     0.074 A 
ATOM     22  C   UNL A   1      43.787  27.093  31.953  1.00  0.00     0.031 C 
ATOM     23  C   UNL A   1      38.349  30.334  29.160  1.00  0.00     0.029 A 
ATOM     24  C   UNL A   1      38.746  30.846  30.468  1.00  0.00     0.049 A 
ATOM     25  H   UNL A   1      40.272  30.138  31.697  1.00  0.00     0.167 HD
ATOM     26  C   UNL A   1      43.829  28.569  33.934  1.00  0.00     0.037 A 
ATOM     27  C   UNL A   1      38.187  31.883  31.119  1.00  0.00     0.037 A 
ATOM     28  C   UNL A   1      43.280  29.636  34.723  1.00  0.00     0.049 A 
ATOM     29  C   UNL A   1      38.753  32.243  32.468  1.00  0.00     0.074 A 
ATOM     30  C   UNL A   1      43.702  30.112  35.949  1.00  0.00     0.029 A 
ATOM     31  N   UNL A   1      42.175  30.393  34.351  1.00  0.00    -0.354 N 
ATOM     32  N   UNL A   1      39.790  31.728  33.090  1.00  0.00    -0.248 NA
ATOM     33  C   UNL A   1      38.077  33.314  33.207  1.00  0.00     0.031 C 
ATOM     34  C   UNL A   1      42.813  31.116  36.347  1.00  0.00     0.029 A 
ATOM     35  C   UNL A   1      41.882  31.317  35.336  1.00  0.00     0.049 A 
ATOM     36  H   UNL A   1      41.676  30.287  33.510  1.00  0.00     0.167 HD
ATOM     37  C   UNL A   1      39.910  32.431  34.281  1.00  0.00     0.074 A 
ATOM     38  C   UNL A   1      38.845  33.416  34.284  1.00  0.00     0.031 C 
ATOM     39  C   UNL A   1      40.814  32.285  35.283  1.00  0.00     0.037 A 
BRANCH  26  40
ATOM     40  C   UNL A   1      45.013  27.792  34.440  1.00  0.00     0.058 A 
ATOM     41  C   UNL A   1      46.337  28.152  34.143  1.00  0.00     0.135 A 
ATOM     42  C   UNL A   1      44.807  26.627  35.197  1.00  0.00     0.135 A 
ATOM     43  F   UNL A   1      46.593  29.232  33.387  1.00  0.00    -0.206 F 
ATOM     44  C   UNL A   1      47.413  27.368  34.553  1.00  0.00     0.059 A 
ATOM     45  C   UNL A   1      45.867  25.845  35.642  1.00  0.00     0.059 A 
ATOM     46  F   UNL A   1      43.560  26.224  35.491  1.00  0.00    -0.206 F 
ATOM     47  C   UNL A   1      47.166  26.214  35.301  1.00  0.00     0.060 A 
BRANCH  47  48
ATOM     48  S   UNL A   1      48.568  25.198  35.813  1.00  0.00     0.124 S 
ATOM     49  O   UNL A   1      49.691  25.954  35.267  1.00  0.00    -0.237 OA
ATOM     50  O   UNL A   1      48.445  25.211  37.268  1.00  0.00    -0.237 OA
ATOM     51  O   UNL A   1      48.307  23.913  35.175  1.00  0.00    -0.744 OA
ENDBRANCH  47  48
ENDBRANCH  26  40
BRANCH  27  52
ATOM     52  C   UNL A   1      37.021  32.605  30.539  1.00  0.00     0.058 A 
ATOM     53  C   UNL A   1      35.714  32.374  30.995  1.00  0.00     0.135 A 
ATOM     54  C   UNL A   1      37.189  33.540  29.505  1.00  0.00     0.135 A 
ATOM     55  F   UNL A   1      35.494  31.488  31.979  1.00  0.00    -0.206 F 
ATOM     56  C   UNL A   1      34.618  33.025  30.435  1.00  0.00     0.059 A 
ATOM     57  C   UNL A   1      36.115  34.227  28.949  1.00  0.00     0.059 A 
ATOM     58  F   UNL A   1      38.419  33.812  29.036  1.00  0.00    -0.206 F 
ATOM     59  C   UNL A   1      34.831  33.952  29.412  1.00  0.00     0.060 A 
BRANCH  59  60
ATOM     60  S   UNL A   1      33.405  34.812  28.711  1.00  0.00     0.124 S 
ATOM     61  O   UNL A   1      32.983  33.881  27.671  1.00  0.00    -0.237 OA
ATOM     62  O   UNL A   1      32.522  34.925  29.867  1.00  0.00    -0.237 OA
ATOM     63  O   UNL A   1      33.975  36.071  28.238  1.00  0.00    -0.744 OA
ENDBRANCH  59  60
ENDBRANCH  27  52
BRANCH  39  64
ATOM     64  C   UNL A   1      40.717  33.250  36.430  1.00  0.00     0.058 A 
ATOM     65  C   UNL A   1      41.526  34.392  36.508  1.00  0.00     0.135 A 
ATOM     66  C   UNL A   1      39.757  33.047  37.433  1.00  0.00     0.135 A 
ATOM     67  F   UNL A   1      42.461  34.625  35.574  1.00  0.00    -0.206 F 
ATOM     68  C   UNL A   1      41.410  35.286  37.565  1.00  0.00     0.059 A 
ATOM     69  C   UNL A   1      39.599  33.947  38.479  1.00  0.00     0.059 A 
ATOM     70  F   UNL A   1      38.948  31.976  37.392  1.00  0.00    -0.206 F 
ATOM     71  C   UNL A   1      40.441  35.055  38.545  1.00  0.00     0.060 A 
BRANCH  71  72
ATOM     72  S   UNL A   1      40.283  36.236  39.897  1.00  0.00     0.124 S 
ATOM     73  O   UNL A   1      40.415  37.507  39.193  1.00  0.00    -0.237 OA
ATOM     74  O   UNL A   1      38.954  35.933  40.422  1.00  0.00    -0.237 OA
ATOM     75  O   UNL A   1      41.393  35.888  40.781  1.00  0.00    -0.744 OA
ENDBRANCH  71  72
ENDBRANCH  39  64
ENDBRANCH  13  14
ENDBRANCH   6   8
ENDBRANCH   5   6
ENDBRANCH   4   5
ENDBRANCH   3   4
ENDBRANCH   2   3
ENDBRANCH   1   2
BRANCH   1  76
ATOM     76  C   UNL A   1      37.725  20.777  25.254  1.00  0.00     0.188 C 
BRANCH  76  77
ATOM     77  O   UNL A   1      36.354  20.510  24.993  1.00  0.00    -0.376 OA
BRANCH  77  78
ATOM     78  C   UNL A   1      35.403  21.230  25.744  1.00  0.00     0.202 C 
BRANCH  78  79
ATOM     79  C   UNL A   1      33.912  20.979  25.421  1.00  0.00     0.261 C 
BRANCH  79  80
ATOM     80  O   UNL A   1      32.952  22.039  25.210  1.00  0.00    -0.463 OA
BRANCH  80  81
ATOM     81  C   UNL A   1      33.077  22.891  24.166  1.00  0.00     0.311 C 
ATOM     82  O   UNL A   1      32.730  22.680  23.014  1.00  0.00    -0.252 OA
BRANCH  81  83
ATOM     83  C   UNL A   1      33.692  24.210  24.573  1.00  0.00     0.128 C 
ATOM     84  C   UNL A   1      33.338  24.507  26.019  1.00  0.00     0.117 C 
ATOM     85  C   UNL A   1      33.050  25.364  23.809  1.00  0.00     0.141 C 
ATOM     86  C   UNL A   1      32.022  25.245  25.909  1.00  0.00     0.227 C 
ATOM     87  N   UNL A   1      31.886  25.723  24.592  1.00  0.00    -0.311 N 
ATOM     88  O   UNL A   1      31.257  25.390  26.852  1.00  0.00    -0.274 OA
BRANCH  87  89
ATOM     89  C   UNL A   1      30.849  26.605  24.165  1.00  0.00     0.055 A 
ATOM     90  C   UNL A   1      29.550  26.064  24.041  1.00  0.00     0.028 A 
ATOM     91  C   UNL A   1      30.987  27.982  23.893  1.00  0.00     0.048 A 
ATOM     92  C   UNL A   1      28.444  26.839  23.668  1.00  0.00     0.023 A 
ATOM     93  C   UNL A   1      29.870  28.759  23.508  1.00  0.00     0.035 A 
ATOM     94  C   UNL A   1      28.612  28.185  23.395  1.00  0.00     0.041 A 
ATOM     95  Cl  UNL A   1      27.265  29.140  22.913  1.00  0.00    -0.084 Cl
BRANCH  91  96
ATOM     96  C   UNL A   1      32.232  28.770  23.956  1.00  0.00     0.195 C 
ATOM     97  O   UNL A   1      32.827  28.973  22.899  1.00  0.00    -0.289 OA
BRANCH  96  98
ATOM     98  C   UNL A   1      32.854  29.234  25.216  1.00  0.00     0.023 A 
ATOM     99  C   UNL A   1      34.026  28.577  25.626  1.00  0.00     0.012 A 
ATOM    100  C   UNL A   1      32.309  30.246  26.007  1.00  0.00     0.012 A 
ATOM    101  C   UNL A   1      34.646  28.921  26.822  1.00  0.00     0.001 A 
ATOM    102  C   UNL A   1      32.938  30.590  27.208  1.00  0.00     0.001 A 
ATOM    103  C   UNL A   1      34.092  29.920  27.618  1.00  0.00     0.000 A 
ENDBRANCH  96  98
ENDBRANCH  91  96
ENDBRANCH  87  89
ENDBRANCH  81  83
ENDBRANCH  80  81
ENDBRANCH  79  80
ENDBRANCH  78  79
ENDBRANCH  77  78
ENDBRANCH  76  77
ENDBRANCH   1  76
TORSDOF 23
ENDMDL
MODEL 2
REMARK VINA RESULT:     -10.4      1.429      2.636
REMARK SMILES O=C(OCCOCCOCCOC(=O)[C@@H]1CC(=O)N(c2ccc(Cl)cc2C(=O)c2ccccc2)C1)c1ccc(-c2c3nc(c(-c4c(F)cc(S(=O)(=O)[O-])cc4F)c4ccc([nH]4)c(-c4c(F)cc(S(=O)(=O)[O-])cc4F)c4nc(c(-c5c(F)cc(S(=O)(=O)[O-])cc5F)c5ccc2[nH]5)C=C4)C=C3)cc1
REMARK SMILES IDX 7 1 6 2 5 3 4 4 3 5 2 6 1 7 36 8 37 9 101 10 38 11 100 12
REMARK SMILES IDX 39 13 40 14 41 15 94 16 42 17 99 18 93 19 95 20 43 21 98 22
REMARK SMILES IDX 92 23 91 24 44 26 78 27 57 28 77 29 58 30 61 31 76 32 96 33
REMARK SMILES IDX 59 34 60 35 75 37 97 38 62 39 45 40 46 41 55 42 47 43 48 44
REMARK SMILES IDX 54 45 56 46 49 47 50 48 51 49 52 50 53 51 79 52 80 53 89 54
REMARK SMILES IDX 81 55 82 56 88 57 90 58 83 59 84 60 85 61 86 62 87 63 63 64
REMARK SMILES IDX 64 65 73 66 65 67 66 68 72 69 74 70 67 71 68 72 69 73 70 74
REMARK SMILES IDX 71 75 8 76 9 77 10 78 11 79 12 80 13 81 14 82 15 83 16 84
REMARK SMILES IDX 35 85 17 86 19 87 18 88 20 89 21 90 26 91 22 92 25 93 23 94
REMARK SMILES IDX 24 95 27 96 28 97 29 98 30 99 34 100 31 101 33 102 32 103
REMARK H PARENT 95 25 61 36
REMARK Flexibility Score: inf
ROOT
ATOM      1  C   UNL A   1      38.235  21.364  25.768  1.00  0.00     0.188 C 
ENDROOT
BRANCH   1   2
ATOM      2  O   UNL A   1      39.657  21.427  25.749  1.00  0.00    -0.376 OA
BRANCH   2   3
ATOM      3  C   UNL A   1      40.320  22.229  26.717  1.00  0.00     0.202 C 
BRANCH   3   4
ATOM      4  C   UNL A   1      41.844  22.321  26.559  1.00  0.00     0.261 C 
BRANCH   4   5
ATOM      5  O   UNL A   1      42.421  23.508  27.125  1.00  0.00    -0.460 OA
BRANCH   5   6
ATOM      6  C   UNL A   1      42.276  24.805  26.755  1.00  0.00     0.338 C 
ATOM      7  O   UNL A   1      42.634  25.115  25.618  1.00  0.00    -0.246 OA
BRANCH   6   8
ATOM      8  C   UNL A   1      41.753  25.902  27.634  1.00  0.00     0.060 A 
ATOM      9  C   UNL A   1      42.295  27.182  27.749  1.00  0.00     0.016 A 
ATOM     10  C   UNL A   1      40.585  25.628  28.373  1.00  0.00     0.016 A 
ATOM     11  C   UNL A   1      41.737  28.149  28.568  1.00  0.00     0.010 A 
ATOM     12  C   UNL A   1      40.030  26.582  29.236  1.00  0.00     0.010 A 
ATOM     13  C   UNL A   1      40.642  27.833  29.361  1.00  0.00    -0.014 A 
BRANCH  13  14
ATOM     14  C   UNL A   1      40.407  28.719  30.513  1.00  0.00     0.031 A 
ATOM     15  C   UNL A   1      41.388  28.626  31.647  1.00  0.00     0.074 A 
ATOM     16  C   UNL A   1      39.503  29.710  30.433  1.00  0.00     0.049 A 
ATOM     17  N   UNL A   1      41.447  29.315  32.752  1.00  0.00    -0.248 NA
ATOM     18  C   UNL A   1      42.473  27.638  31.498  1.00  0.00     0.031 C 
ATOM     19  C   UNL A   1      38.642  29.970  29.278  1.00  0.00     0.029 A 
ATOM     20  N   UNL A   1      39.192  30.710  31.312  1.00  0.00    -0.354 N 
ATOM     21  C   UNL A   1      42.548  28.819  33.442  1.00  0.00     0.074 A 
ATOM     22  C   UNL A   1      43.132  27.775  32.636  1.00  0.00     0.031 C 
ATOM     23  C   UNL A   1      37.908  31.069  29.515  1.00  0.00     0.029 A 
ATOM     24  C   UNL A   1      38.202  31.550  30.862  1.00  0.00     0.049 A 
ATOM     25  H   UNL A   1      39.634  30.817  32.186  1.00  0.00     0.167 HD
ATOM     26  C   UNL A   1      43.017  29.203  34.648  1.00  0.00     0.037 A 
ATOM     27  C   UNL A   1      37.591  32.570  31.492  1.00  0.00     0.037 A 
ATOM     28  C   UNL A   1      42.405  30.250  35.419  1.00  0.00     0.049 A 
ATOM     29  C   UNL A   1      38.051  32.899  32.889  1.00  0.00     0.074 A 
ATOM     30  C   UNL A   1      42.730  30.696  36.684  1.00  0.00     0.029 A 
ATOM     31  N   UNL A   1      41.329  31.013  34.982  1.00  0.00    -0.354 N 
ATOM     32  N   UNL A   1      39.041  32.371  33.576  1.00  0.00    -0.248 NA
ATOM     33  C   UNL A   1      37.316  33.949  33.600  1.00  0.00     0.031 C 
ATOM     34  C   UNL A   1      41.810  31.688  37.037  1.00  0.00     0.029 A 
ATOM     35  C   UNL A   1      40.957  31.911  35.964  1.00  0.00     0.049 A 
ATOM     36  H   UNL A   1      40.895  30.926  34.103  1.00  0.00     0.167 HD
ATOM     37  C   UNL A   1      39.066  33.045  34.789  1.00  0.00     0.074 A 
ATOM     38  C   UNL A   1      37.999  34.028  34.734  1.00  0.00     0.031 C 
ATOM     39  C   UNL A   1      39.892  32.878  35.853  1.00  0.00     0.037 A 
BRANCH  26  40
ATOM     40  C   UNL A   1      44.162  28.417  35.224  1.00  0.00     0.058 A 
ATOM     41  C   UNL A   1      45.505  28.770  35.011  1.00  0.00     0.135 A 
ATOM     42  C   UNL A   1      43.902  27.251  35.963  1.00  0.00     0.135 A 
ATOM     43  F   UNL A   1      45.813  29.850  34.276  1.00  0.00    -0.206 F 
ATOM     44  C   UNL A   1      46.548  27.977  35.485  1.00  0.00     0.059 A 
ATOM     45  C   UNL A   1      44.928  26.461  36.470  1.00  0.00     0.059 A 
ATOM     46  F   UNL A   1      42.637  26.856  36.178  1.00  0.00    -0.206 F 
ATOM     47  C   UNL A   1      46.248  26.823  36.212  1.00  0.00     0.060 A 
BRANCH  47  48
ATOM     48  S   UNL A   1      47.609  25.797  36.807  1.00  0.00     0.124 S 
ATOM     49  O   UNL A   1      48.287  25.459  35.559  1.00  0.00    -0.237 OA
ATOM     50  O   UNL A   1      48.326  26.713  37.688  1.00  0.00    -0.237 OA
ATOM     51  O   UNL A   1      46.934  24.689  37.473  1.00  0.00    -0.744 OA
ENDBRANCH  47  48
ENDBRANCH  26  40
BRANCH  27  52
ATOM     52  C   UNL A   1      36.469  33.302  30.844  1.00  0.00     0.058 A 
ATOM     53  C   UNL A   1      36.688  34.185  29.776  1.00  0.00     0.135 A 
ATOM     54  C   UNL A   1      35.145  33.140  31.288  1.00  0.00     0.135 A 
ATOM     55  F   UNL A   1      37.932  34.381  29.313  1.00  0.00    -0.206 F 
ATOM     56  C   UNL A   1      35.644  34.894  29.186  1.00  0.00     0.059 A 
ATOM     57  C   UNL A   1      34.081  33.813  30.696  1.00  0.00     0.059 A 
ATOM     58  F   UNL A   1      34.872  32.298  32.298  1.00  0.00    -0.206 F 
ATOM     59  C   UNL A   1      34.343  34.699  29.654  1.00  0.00     0.060 A 
BRANCH  59  60
ATOM     60  S   UNL A   1      32.993  35.603  28.865  1.00  0.00     0.124 S 
ATOM     61  O   UNL A   1      32.399  34.569  28.026  1.00  0.00    -0.237 OA
ATOM     62  O   UNL A   1      32.202  36.029  30.014  1.00  0.00    -0.237 OA
ATOM     63  O   UNL A   1      33.682  36.675  28.152  1.00  0.00    -0.744 OA
ENDBRANCH  59  60
ENDBRANCH  27  52
BRANCH  39  64
ATOM     64  C   UNL A   1      39.704  33.814  37.012  1.00  0.00     0.058 A 
ATOM     65  C   UNL A   1      38.909  33.477  38.116  1.00  0.00     0.135 A 
ATOM     66  C   UNL A   1      40.380  35.044  37.032  1.00  0.00     0.135 A 
ATOM     67  F   UNL A   1      38.241  32.313  38.140  1.00  0.00    -0.206 F 
ATOM     68  C   UNL A   1      38.763  34.346  39.191  1.00  0.00     0.059 A 
ATOM     69  C   UNL A   1      40.277  35.912  38.111  1.00  0.00     0.059 A 
ATOM     70  F   UNL A   1      41.166  35.403  36.003  1.00  0.00    -0.206 F 
ATOM     71  C   UNL A   1      39.453  35.561  39.178  1.00  0.00     0.060 A 
BRANCH  71  72
ATOM     72  S   UNL A   1      39.274  36.669  40.589  1.00  0.00     0.124 S 
ATOM     73  O   UNL A   1      38.767  37.878  39.949  1.00  0.00    -0.237 OA
ATOM     74  O   UNL A   1      38.325  35.949  41.432  1.00  0.00    -0.237 OA
ATOM     75  O   UNL A   1      40.631  36.761  41.121  1.00  0.00    -0.744 OA
ENDBRANCH  71  72
ENDBRANCH  39  64
ENDBRANCH  13  14
ENDBRANCH   6   8
ENDBRANCH   5   6
ENDBRANCH   4   5
ENDBRANCH   3   4
ENDBRANCH   2   3
ENDBRANCH   1   2
BRANCH   1  76
ATOM     76  C   UNL A   1      37.518  22.645  25.350  1.00  0.00     0.188 C 
BRANCH  76  77
ATOM     77  O   UNL A   1      36.099  22.629  25.283  1.00  0.00    -0.376 OA
BRANCH  77  78
ATOM     78  C   UNL A   1      35.396  23.148  26.388  1.00  0.00     0.202 C 
BRANCH  78  79
ATOM     79  C   UNL A   1      33.997  23.749  26.115  1.00  0.00     0.261 C 
BRANCH  79  80
ATOM     80  O   UNL A   1      33.692  25.156  26.255  1.00  0.00    -0.463 OA
BRANCH  80  81
ATOM     81  C   UNL A   1      34.088  26.048  25.319  1.00  0.00     0.311 C 
ATOM     82  O   UNL A   1      34.416  25.794  24.170  1.00  0.00    -0.252 OA
BRANCH  81  83
ATOM     83  C   UNL A   1      34.065  27.469  25.834  1.00  0.00     0.128 C 
ATOM     84  C   UNL A   1      33.216  27.536  27.092  1.00  0.00     0.117 C 
ATOM     85  C   UNL A   1      33.327  28.384  24.862  1.00  0.00     0.141 C 
ATOM     86  C   UNL A   1      31.824  27.791  26.557  1.00  0.00     0.227 C 
ATOM     87  N   UNL A   1      31.934  28.277  25.241  1.00  0.00    -0.311 N 
ATOM     88  O   UNL A   1      30.811  27.608  27.218  1.00  0.00    -0.274 OA
BRANCH  87  89
ATOM     89  C   UNL A   1      30.835  28.782  24.482  1.00  0.00     0.055 A 
ATOM     90  C   UNL A   1      30.660  30.183  24.450  1.00  0.00     0.028 A 
ATOM     91  C   UNL A   1      29.926  28.016  23.723  1.00  0.00     0.048 A 
ATOM     92  C   UNL A   1      29.643  30.799  23.710  1.00  0.00     0.023 A 
ATOM     93  C   UNL A   1      28.895  28.640  22.985  1.00  0.00     0.035 A 
ATOM     94  C   UNL A   1      28.758  30.021  22.984  1.00  0.00     0.041 A 
ATOM     95  Cl  UNL A   1      27.490  30.765  22.091  1.00  0.00    -0.084 Cl
BRANCH  91  96
ATOM     96  C   UNL A   1      29.906  26.547  23.597  1.00  0.00     0.195 C 
ATOM     97  O   UNL A   1      29.017  25.940  24.192  1.00  0.00    -0.289 OA
BRANCH  96  98
ATOM     98  C   UNL A   1      30.943  25.763  22.891  1.00  0.00     0.023 A 
ATOM     99  C   UNL A   1      31.184  24.461  23.359  1.00  0.00     0.012 A 
ATOM    100  C   UNL A   1      31.695  26.274  21.831  1.00  0.00     0.012 A 
ATOM    101  C   UNL A   1      32.175  23.675  22.781  1.00  0.00     0.001 A 
ATOM    102  C   UNL A   1      32.688  25.479  21.252  1.00  0.00     0.001 A 
ATOM    103  C   UNL A   1      32.935  24.192  21.734  1.00  0.00     0.000 A 
ENDBRANCH  96  98
ENDBRANCH  91  96
ENDBRANCH  87  89
ENDBRANCH  81  83
ENDBRANCH  80  81
ENDBRANCH  79  80
ENDBRANCH  78  79
ENDBRANCH  77  78
ENDBRANCH  76  77
ENDBRANCH   1  76
TORSDOF 23
ENDMDL
MODEL 3
REMARK VINA RESULT:      -9.8      2.332      4.019
REMARK SMILES O=C(OCCOCCOCCOC(=O)[C@@H]1CC(=O)N(c2ccc(Cl)cc2C(=O)c2ccccc2)C1)c1ccc(-c2c3nc(c(-c4c(F)cc(S(=O)(=O)[O-])cc4F)c4ccc([nH]4)c(-c4c(F)cc(S(=O)(=O)[O-])cc4F)c4nc(c(-c5c(F)cc(S(=O)(=O)[O-])cc5F)c5ccc2[nH]5)C=C4)C=C3)cc1
REMARK SMILES IDX 7 1 6 2 5 3 4 4 3 5 2 6 1 7 36 8 37 9 101 10 38 11 100 12
REMARK SMILES IDX 39 13 40 14 41 15 94 16 42 17 99 18 93 19 95 20 43 21 98 22
REMARK SMILES IDX 92 23 91 24 44 26 78 27 57 28 77 29 58 30 61 31 76 32 96 33
REMARK SMILES IDX 59 34 60 35 75 37 97 38 62 39 45 40 46 41 55 42 47 43 48 44
REMARK SMILES IDX 54 45 56 46 49 47 50 48 51 49 52 50 53 51 79 52 80 53 89 54
REMARK SMILES IDX 81 55 82 56 88 57 90 58 83 59 84 60 85 61 86 62 87 63 63 64
REMARK SMILES IDX 64 65 73 66 65 67 66 68 72 69 74 70 67 71 68 72 69 73 70 74
REMARK SMILES IDX 71 75 8 76 9 77 10 78 11 79 12 80 13 81 14 82 15 83 16 84
REMARK SMILES IDX 35 85 17 86 19 87 18 88 20 89 21 90 26 91 22 92 25 93 23 94
REMARK SMILES IDX 24 95 27 96 28 97 29 98 30 99 34 100 31 101 33 102 32 103
REMARK H PARENT 95 25 61 36
REMARK Flexibility Score: inf
ROOT
ATOM      1  C   UNL A   1      44.471  23.704  28.516  1.00  0.00     0.188 C 
ENDROOT
BRANCH   1   2
ATOM      2  O   UNL A   1      45.494  23.347  27.592  1.00  0.00    -0.376 OA
BRANCH   2   3
ATOM      3  C   UNL A   1      45.330  23.692  26.223  1.00  0.00     0.202 C 
BRANCH   3   4
ATOM      4  C   UNL A   1      43.968  23.330  25.616  1.00  0.00     0.261 C 
BRANCH   4   5
ATOM      5  O   UNL A   1      43.166  24.466  25.258  1.00  0.00    -0.460 OA
BRANCH   5   6
ATOM      6  C   UNL A   1      43.374  25.785  25.495  1.00  0.00     0.338 C 
ATOM      7  O   UNL A   1      44.240  26.352  24.829  1.00  0.00    -0.246 OA
BRANCH   6   8
ATOM      8  C   UNL A   1      42.661  26.601  26.533  1.00  0.00     0.060 A 
ATOM      9  C   UNL A   1      42.781  27.979  26.709  1.00  0.00     0.016 A 
ATOM     10  C   UNL A   1      41.758  25.920  27.374  1.00  0.00     0.016 A 
ATOM     11  C   UNL A   1      42.069  28.664  27.680  1.00  0.00     0.010 A 
ATOM     12  C   UNL A   1      41.060  26.590  28.385  1.00  0.00     0.010 A 
ATOM     13  C   UNL A   1      41.256  27.964  28.561  1.00  0.00    -0.014 A 
BRANCH  13  14
ATOM     14  C   UNL A   1      40.919  28.659  29.814  1.00  0.00     0.031 A 
ATOM     15  C   UNL A   1      41.869  28.476  30.963  1.00  0.00     0.074 A 
ATOM     16  C   UNL A   1      39.946  29.586  29.835  1.00  0.00     0.049 A 
ATOM     17  N   UNL A   1      41.842  29.004  32.155  1.00  0.00    -0.248 NA
ATOM     18  C   UNL A   1      43.030  27.597  30.723  1.00  0.00     0.031 C 
ATOM     19  C   UNL A   1      39.103  29.945  28.694  1.00  0.00     0.029 A 
ATOM     20  N   UNL A   1      39.534  30.426  30.832  1.00  0.00    -0.354 N 
ATOM     21  C   UNL A   1      42.956  28.494  32.813  1.00  0.00     0.074 A 
ATOM     22  C   UNL A   1      43.641  27.618  31.894  1.00  0.00     0.031 C 
ATOM     23  C   UNL A   1      38.282  30.945  29.051  1.00  0.00     0.029 A 
ATOM     24  C   UNL A   1      38.498  31.250  30.462  1.00  0.00     0.049 A 
ATOM     25  H   UNL A   1      39.939  30.439  31.729  1.00  0.00     0.167 HD
ATOM     26  C   UNL A   1      43.358  28.736  34.080  1.00  0.00     0.037 A 
ATOM     27  C   UNL A   1      37.792  32.125  31.203  1.00  0.00     0.037 A 
ATOM     28  C   UNL A   1      42.646  29.617  34.963  1.00  0.00     0.049 A 
ATOM     29  C   UNL A   1      38.183  32.285  32.649  1.00  0.00     0.074 A 
ATOM     30  C   UNL A   1      42.897  29.902  36.290  1.00  0.00     0.029 A 
ATOM     31  N   UNL A   1      41.528  30.356  34.592  1.00  0.00    -0.354 N 
ATOM     32  N   UNL A   1      39.188  31.736  33.296  1.00  0.00    -0.248 NA
ATOM     33  C   UNL A   1      37.350  33.169  33.469  1.00  0.00     0.031 C 
ATOM     34  C   UNL A   1      41.894  30.766  36.739  1.00  0.00     0.029 A 
ATOM     35  C   UNL A   1      41.060  31.078  35.673  1.00  0.00     0.049 A 
ATOM     36  H   UNL A   1      41.130  30.365  33.693  1.00  0.00     0.167 HD
ATOM     37  C   UNL A   1      39.126  32.232  34.591  1.00  0.00     0.074 A 
ATOM     38  C   UNL A   1      37.990  33.134  34.630  1.00  0.00     0.031 C 
ATOM     39  C   UNL A   1      39.929  31.974  35.655  1.00  0.00     0.037 A 
BRANCH  26  40
ATOM     40  C   UNL A   1      44.541  27.959  34.587  1.00  0.00     0.058 A 
ATOM     41  C   UNL A   1      45.849  28.469  34.560  1.00  0.00     0.135 A 
ATOM     42  C   UNL A   1      44.360  26.649  35.061  1.00  0.00     0.135 A 
ATOM     43  F   UNL A   1      46.087  29.698  34.077  1.00  0.00    -0.206 F 
ATOM     44  C   UNL A   1      46.939  27.696  34.958  1.00  0.00     0.059 A 
ATOM     45  C   UNL A   1      45.429  25.871  35.491  1.00  0.00     0.059 A 
ATOM     46  F   UNL A   1      43.133  26.104  35.089  1.00  0.00    -0.206 F 
ATOM     47  C   UNL A   1      46.717  26.397  35.419  1.00  0.00     0.060 A 
BRANCH  47  48
ATOM     48  S   UNL A   1      48.139  25.402  35.917  1.00  0.00     0.124 S 
ATOM     49  O   UNL A   1      49.208  26.396  35.911  1.00  0.00    -0.237 OA
ATOM     50  O   UNL A   1      47.733  24.918  37.233  1.00  0.00    -0.237 OA
ATOM     51  O   UNL A   1      48.223  24.384  34.875  1.00  0.00    -0.744 OA
ENDBRANCH  47  48
ENDBRANCH  26  40
BRANCH  27  52
ATOM     52  C   UNL A   1      36.638  32.861  30.617  1.00  0.00     0.058 A 
ATOM     53  C   UNL A   1      35.315  32.549  30.965  1.00  0.00     0.135 A 
ATOM     54  C   UNL A   1      36.836  33.893  29.684  1.00  0.00     0.135 A 
ATOM     55  F   UNL A   1      35.067  31.571  31.849  1.00  0.00    -0.206 F 
ATOM     56  C   UNL A   1      34.233  33.216  30.396  1.00  0.00     0.059 A 
ATOM     57  C   UNL A   1      35.774  34.594  29.124  1.00  0.00     0.059 A 
ATOM     58  F   UNL A   1      38.081  34.244  29.322  1.00  0.00    -0.206 F 
ATOM     59  C   UNL A   1      34.474  34.239  29.477  1.00  0.00     0.060 A 
BRANCH  59  60
ATOM     60  S   UNL A   1      33.065  35.116  28.766  1.00  0.00     0.124 S 
ATOM     61  O   UNL A   1      32.647  34.197  27.713  1.00  0.00    -0.237 OA
ATOM     62  O   UNL A   1      32.168  35.227  29.911  1.00  0.00    -0.237 OA
ATOM     63  O   UNL A   1      33.650  36.374  28.309  1.00  0.00    -0.744 OA
ENDBRANCH  59  60
ENDBRANCH  27  52
BRANCH  39  64
ATOM     64  C   UNL A   1      39.636  32.721  36.924  1.00  0.00     0.058 A 
ATOM     65  C   UNL A   1      38.612  32.328  37.796  1.00  0.00     0.135 A 
ATOM     66  C   UNL A   1      40.436  33.815  37.290  1.00  0.00     0.135 A 
ATOM     67  F   UNL A   1      37.819  31.290  37.486  1.00  0.00    -0.206 F 
ATOM     68  C   UNL A   1      38.367  33.018  38.977  1.00  0.00     0.059 A 
ATOM     69  C   UNL A   1      40.232  34.497  38.482  1.00  0.00     0.059 A 
ATOM     70  F   UNL A   1      41.439  34.218  36.493  1.00  0.00    -0.206 F 
ATOM     71  C   UNL A   1      39.185  34.100  39.312  1.00  0.00     0.060 A 
BRANCH  71  72
ATOM     72  S   UNL A   1      38.873  34.971  40.858  1.00  0.00     0.124 S 
ATOM     73  O   UNL A   1      40.011  34.548  41.667  1.00  0.00    -0.237 OA
ATOM     74  O   UNL A   1      38.877  36.368  40.435  1.00  0.00    -0.237 OA
ATOM     75  O   UNL A   1      37.574  34.454  41.282  1.00  0.00    -0.744 OA
ENDBRANCH  71  72
ENDBRANCH  39  64
ENDBRANCH  13  14
ENDBRANCH   6   8
ENDBRANCH   5   6
ENDBRANCH   4   5
ENDBRANCH   3   4
ENDBRANCH   2   3
ENDBRANCH   1   2
BRANCH   1  76
ATOM     76  C   UNL A   1      43.476  22.596  28.850  1.00  0.00     0.188 C 
BRANCH  76  77
ATOM     77  O   UNL A   1      42.097  22.930  28.919  1.00  0.00    -0.376 OA
BRANCH  77  78
ATOM     78  C   UNL A   1      41.194  22.079  28.251  1.00  0.00     0.202 C 
BRANCH  78  79
ATOM     79  C   UNL A   1      40.699  22.529  26.857  1.00  0.00     0.261 C 
BRANCH  79  80
ATOM     80  O   UNL A   1      39.353  22.988  26.598  1.00  0.00    -0.463 OA
BRANCH  80  81
ATOM     81  C   UNL A   1      38.540  22.313  25.754  1.00  0.00     0.311 C 
ATOM     82  O   UNL A   1      38.588  21.118  25.503  1.00  0.00    -0.252 OA
BRANCH  81  83
ATOM     83  C   UNL A   1      37.491  23.204  25.131  1.00  0.00     0.128 C 
ATOM     84  C   UNL A   1      36.528  23.678  26.204  1.00  0.00     0.117 C 
ATOM     85  C   UNL A   1      36.599  22.409  24.183  1.00  0.00     0.141 C 
ATOM     86  C   UNL A   1      35.476  22.592  26.229  1.00  0.00     0.227 C 
ATOM     87  N   UNL A   1      35.559  21.862  25.028  1.00  0.00    -0.311 N 
ATOM     88  O   UNL A   1      34.695  22.439  27.158  1.00  0.00    -0.274 OA
BRANCH  87  89
ATOM     89  C   UNL A   1      34.614  20.869  24.630  1.00  0.00     0.055 A 
ATOM     90  C   UNL A   1      34.941  19.521  24.897  1.00  0.00     0.028 A 
ATOM     91  C   UNL A   1      33.360  21.106  24.030  1.00  0.00     0.048 A 
ATOM     92  C   UNL A   1      34.079  18.461  24.589  1.00  0.00     0.023 A 
ATOM     93  C   UNL A   1      32.496  20.033  23.712  1.00  0.00     0.035 A 
ATOM     94  C   UNL A   1      32.859  18.723  23.989  1.00  0.00     0.041 A 
ATOM     95  Cl  UNL A   1      31.803  17.428  23.584  1.00  0.00    -0.084 Cl
BRANCH  91  96
ATOM     96  C   UNL A   1      32.797  22.418  23.659  1.00  0.00     0.195 C 
ATOM     97  O   UNL A   1      32.813  22.724  22.468  1.00  0.00    -0.289 OA
BRANCH  96  98
ATOM     98  C   UNL A   1      32.317  23.418  24.638  1.00  0.00     0.023 A 
ATOM     99  C   UNL A   1      33.036  24.621  24.722  1.00  0.00     0.012 A 
ATOM    100  C   UNL A   1      31.228  23.195  25.484  1.00  0.00     0.012 A 
ATOM    101  C   UNL A   1      32.678  25.594  25.650  1.00  0.00     0.001 A 
ATOM    102  C   UNL A   1      30.872  24.177  26.413  1.00  0.00     0.001 A 
ATOM    103  C   UNL A   1      31.603  25.364  26.503  1.00  0.00     0.000 A 
ENDBRANCH  96  98
ENDBRANCH  91  96
ENDBRANCH  87  89
ENDBRANCH  81  83
ENDBRANCH  80  81
ENDBRANCH  79  80
ENDBRANCH  78  79
ENDBRANCH  77  78
ENDBRANCH  76  77
ENDBRANCH   1  76
TORSDOF 23
ENDMDL
