MODEL 1
REMARK VINA RESULT:     -10.7      0.000      0.000
REMARK SMILES O=C(Nc1cccc(C(=O)OCCOCCOCCOC(=O)c2ccc(-c3c4nc(c(-c5c(F)cc(S(=O)(=O)[O-])cc5F)c5ccc([nH]5)c(-c5c(F)cc(S(=O)(=O)[O-])cc5F)c5nc(c(-c6c(F)cc(S(=O)(=O)[O-])cc6F)c6ccc3[nH]6)C=C5)C=C4)cc2)c1)Nc1cc(Cl)c(Cl)cc1Cl
REMARK SMILES IDX 16 1 15 2 14 3 13 4 12 5 11 6 9 7 10 8 8 9 4 10 5 11 89 12
REMARK SMILES IDX 6 13 7 14 3 15 1 16 2 17 90 18 91 21 92 22 98 23 93 24 97 25
REMARK SMILES IDX 99 26 94 27 95 28 96 29 17 30 18 31 19 32 20 33 21 34 22 35
REMARK SMILES IDX 23 36 24 37 88 38 25 39 87 40 26 41 27 42 28 43 81 44 29 45
REMARK SMILES IDX 86 46 80 47 82 48 30 49 85 50 79 51 78 52 31 54 65 55 44 56
REMARK SMILES IDX 64 57 45 58 48 59 63 60 83 61 46 62 47 63 62 65 84 66 49 67
REMARK SMILES IDX 32 68 33 69 42 70 34 71 35 72 41 73 43 74 36 75 37 76 38 77
REMARK SMILES IDX 39 78 40 79 66 80 67 81 76 82 68 83 69 84 75 85 77 86 70 87
REMARK SMILES IDX 71 88 72 89 73 90 74 91 50 92 51 93 60 94 52 95 53 96 59 97
REMARK SMILES IDX 61 98 54 99 55 100 56 101 57 102 58 103
REMARK H PARENT 3 19 90 20 82 53 48 64
REMARK Flexibility Score: inf
ROOT
ATOM      1  C   UNL A   1      33.928  34.182  29.470  1.00  0.00     0.188 C 
ENDROOT
BRANCH   1   2
ATOM      2  C   UNL A   1      33.499  33.682  28.075  1.00  0.00     0.188 C 
BRANCH   2   3
ATOM      3  O   UNL A   1      34.209  32.606  27.469  1.00  0.00    -0.376 OA
BRANCH   3   4
ATOM      4  C   UNL A   1      33.813  31.264  27.730  1.00  0.00     0.202 C 
BRANCH   4   5
ATOM      5  C   UNL A   1      32.651  30.674  26.924  1.00  0.00     0.261 C 
BRANCH   5   6
ATOM      6  O   UNL A   1      33.082  29.986  25.739  1.00  0.00    -0.460 OA
BRANCH   6   7
ATOM      7  C   UNL A   1      33.195  28.640  25.851  1.00  0.00     0.338 C 
ATOM      8  O   UNL A   1      33.710  28.015  26.762  1.00  0.00    -0.246 OA
BRANCH   7   9
ATOM      9  C   UNL A   1      32.464  27.990  24.744  1.00  0.00     0.062 A 
ATOM     10  C   UNL A   1      32.403  26.509  22.826  1.00  0.00     0.043 A 
ATOM     11  C   UNL A   1      31.049  26.816  22.653  1.00  0.00     0.026 A 
ATOM     12  C   UNL A   1      33.124  27.156  23.836  1.00  0.00     0.041 A 
ATOM     13  C   UNL A   1      30.395  27.671  23.545  1.00  0.00     0.003 A 
ATOM     14  C   UNL A   1      31.095  28.234  24.610  1.00  0.00     0.016 A 
BRANCH  10  15
ATOM     15  N   UNL A   1      32.969  25.546  21.969  1.00  0.00    -0.308 N 
ATOM     16  O   UNL A   1      33.750  23.547  21.300  1.00  0.00    -0.248 OA
ATOM     17  C   UNL A   1      33.093  24.183  22.118  1.00  0.00     0.323 C 
ATOM     18  N   UNL A   1      32.321  23.635  23.105  1.00  0.00    -0.306 N 
ATOM     19  H   UNL A   1      33.335  25.904  21.128  1.00  0.00     0.171 HD
ATOM     20  H   UNL A   1      31.585  24.207  23.421  1.00  0.00     0.171 HD
BRANCH  18  21
ATOM     21  C   UNL A   1      32.415  22.382  23.741  1.00  0.00     0.063 A 
ATOM     22  C   UNL A   1      32.893  22.435  25.063  1.00  0.00     0.049 A 
ATOM     23  C   UNL A   1      32.155  21.122  23.175  1.00  0.00     0.066 A 
ATOM     24  C   UNL A   1      33.051  21.276  25.829  1.00  0.00     0.061 A 
ATOM     25  C   UNL A   1      32.293  19.962  23.953  1.00  0.00     0.044 A 
ATOM     26  Cl  UNL A   1      31.835  20.849  21.500  1.00  0.00    -0.082 Cl
ATOM     27  Cl  UNL A   1      33.653  21.450  27.438  1.00  0.00    -0.083 Cl
ATOM     28  C   UNL A   1      32.732  20.036  25.276  1.00  0.00     0.061 A 
ATOM     29  Cl  UNL A   1      32.892  18.559  26.158  1.00  0.00    -0.083 Cl
ENDBRANCH  18  21
ENDBRANCH  10  15
ENDBRANCH   7   9
ENDBRANCH   6   7
ENDBRANCH   5   6
ENDBRANCH   4   5
ENDBRANCH   3   4
ENDBRANCH   2   3
ENDBRANCH   1   2
BRANCH   1  30
ATOM     30  O   UNL A   1      35.319  34.191  29.683  1.00  0.00    -0.376 OA
BRANCH  30  31
ATOM     31  C   UNL A   1      35.998  33.014  30.072  1.00  0.00     0.202 C 
BRANCH  31  32
ATOM     32  C   UNL A   1      35.430  31.924  31.001  1.00  0.00     0.261 C 
BRANCH  32  33
ATOM     33  O   UNL A   1      36.255  30.805  31.324  1.00  0.00    -0.460 OA
BRANCH  33  34
ATOM     34  C   UNL A   1      37.364  31.061  32.057  1.00  0.00     0.338 C 
ATOM     35  O   UNL A   1      37.410  31.510  33.187  1.00  0.00    -0.246 OA
BRANCH  34  36
ATOM     36  C   UNL A   1      38.529  30.541  31.312  1.00  0.00     0.060 A 
ATOM     37  C   UNL A   1      39.524  29.851  32.015  1.00  0.00     0.016 A 
ATOM     38  C   UNL A   1      38.642  30.742  29.934  1.00  0.00     0.016 A 
ATOM     39  C   UNL A   1      40.655  29.384  31.341  1.00  0.00     0.010 A 
ATOM     40  C   UNL A   1      39.781  30.289  29.265  1.00  0.00     0.010 A 
ATOM     41  C   UNL A   1      40.805  29.630  29.969  1.00  0.00    -0.014 A 
BRANCH  41  42
ATOM     42  C   UNL A   1      42.098  29.347  29.298  1.00  0.00     0.031 A 
ATOM     43  C   UNL A   1      42.324  27.974  28.725  1.00  0.00     0.074 A 
ATOM     44  C   UNL A   1      43.061  30.284  29.214  1.00  0.00     0.049 A 
ATOM     45  N   UNL A   1      43.393  27.478  28.159  1.00  0.00    -0.248 NA
ATOM     46  C   UNL A   1      41.194  27.034  28.803  1.00  0.00     0.031 C 
ATOM     47  C   UNL A   1      42.955  31.654  29.715  1.00  0.00     0.029 A 
ATOM     48  N   UNL A   1      44.330  30.214  28.693  1.00  0.00    -0.354 N 
ATOM     49  C   UNL A   1      43.074  26.165  27.833  1.00  0.00     0.074 A 
ATOM     50  C   UNL A   1      41.714  25.937  28.269  1.00  0.00     0.031 C 
ATOM     51  C   UNL A   1      44.122  32.287  29.500  1.00  0.00     0.029 A 
ATOM     52  C   UNL A   1      45.065  31.362  28.873  1.00  0.00     0.049 A 
ATOM     53  H   UNL A   1      44.680  29.417  28.233  1.00  0.00     0.167 HD
ATOM     54  C   UNL A   1      43.844  25.236  27.224  1.00  0.00     0.037 A 
ATOM     55  C   UNL A   1      46.358  31.622  28.592  1.00  0.00     0.037 A 
ATOM     56  C   UNL A   1      45.193  25.468  26.776  1.00  0.00     0.049 A 
ATOM     57  C   UNL A   1      47.209  30.551  27.951  1.00  0.00     0.074 A 
ATOM     58  C   UNL A   1      46.032  24.603  26.097  1.00  0.00     0.029 A 
ATOM     59  N   UNL A   1      45.901  26.642  26.974  1.00  0.00    -0.354 N 
ATOM     60  N   UNL A   1      46.872  29.335  27.590  1.00  0.00    -0.248 NA
ATOM     61  C   UNL A   1      48.613  30.889  27.676  1.00  0.00     0.031 C 
ATOM     62  C   UNL A   1      47.267  25.237  25.926  1.00  0.00     0.029 A 
ATOM     63  C   UNL A   1      47.178  26.515  26.456  1.00  0.00     0.049 A 
ATOM     64  H   UNL A   1      45.548  27.448  27.417  1.00  0.00     0.167 HD
ATOM     65  C   UNL A   1      48.013  28.778  27.021  1.00  0.00     0.074 A 
ATOM     66  C   UNL A   1      49.047  29.790  27.076  1.00  0.00     0.031 C 
ATOM     67  C   UNL A   1      48.190  27.539  26.498  1.00  0.00     0.037 A 
BRANCH  54  68
ATOM     68  C   UNL A   1      43.266  23.865  27.020  1.00  0.00     0.058 A 
ATOM     69  C   UNL A   1      42.845  23.421  25.758  1.00  0.00     0.135 A 
ATOM     70  C   UNL A   1      43.201  22.960  28.092  1.00  0.00     0.135 A 
ATOM     71  F   UNL A   1      42.868  24.254  24.705  1.00  0.00    -0.206 F 
ATOM     72  C   UNL A   1      42.376  22.126  25.564  1.00  0.00     0.059 A 
ATOM     73  C   UNL A   1      42.755  21.655  27.918  1.00  0.00     0.059 A 
ATOM     74  F   UNL A   1      43.585  23.340  29.321  1.00  0.00    -0.206 F 
ATOM     75  C   UNL A   1      42.339  21.248  26.650  1.00  0.00     0.060 A 
BRANCH  75  76
ATOM     76  S   UNL A   1      41.768  19.558  26.375  1.00  0.00     0.124 S 
ATOM     77  O   UNL A   1      42.515  19.191  25.176  1.00  0.00    -0.237 OA
ATOM     78  O   UNL A   1      42.175  18.887  27.606  1.00  0.00    -0.237 OA
ATOM     79  O   UNL A   1      40.327  19.711  26.194  1.00  0.00    -0.744 OA
ENDBRANCH  75  76
ENDBRANCH  54  68
BRANCH  55  80
ATOM     80  C   UNL A   1      46.955  32.939  28.940  1.00  0.00     0.058 A 
ATOM     81  C   UNL A   1      47.559  33.158  30.187  1.00  0.00     0.135 A 
ATOM     82  C   UNL A   1      46.887  34.023  28.050  1.00  0.00     0.135 A 
ATOM     83  F   UNL A   1      47.637  32.157  31.078  1.00  0.00    -0.206 F 
ATOM     84  C   UNL A   1      48.043  34.409  30.555  1.00  0.00     0.059 A 
ATOM     85  C   UNL A   1      47.390  35.278  28.383  1.00  0.00     0.059 A 
ATOM     86  F   UNL A   1      46.329  33.865  26.840  1.00  0.00    -0.206 F 
ATOM     87  C   UNL A   1      47.950  35.465  29.646  1.00  0.00     0.060 A 
BRANCH  87  88
ATOM     88  S   UNL A   1      48.588  37.085  30.126  1.00  0.00     0.124 S 
ATOM     89  O   UNL A   1      47.358  37.860  30.244  1.00  0.00    -0.237 OA
ATOM     90  O   UNL A   1      49.278  36.787  31.376  1.00  0.00    -0.237 OA
ATOM     91  O   UNL A   1      49.457  37.445  29.010  1.00  0.00    -0.744 OA
ENDBRANCH  87  88
ENDBRANCH  55  80
BRANCH  67  92
ATOM     92  C   UNL A   1      49.530  27.216  25.898  1.00  0.00     0.058 A 
ATOM     93  C   UNL A   1      50.564  26.649  26.658  1.00  0.00     0.135 A 
ATOM     94  C   UNL A   1      49.758  27.417  24.526  1.00  0.00     0.135 A 
ATOM     95  F   UNL A   1      50.399  26.442  27.975  1.00  0.00    -0.206 F 
ATOM     96  C   UNL A   1      51.785  26.308  26.084  1.00  0.00     0.059 A 
ATOM     97  C   UNL A   1      50.962  27.059  23.926  1.00  0.00     0.059 A 
ATOM     98  F   UNL A   1      48.798  27.945  23.751  1.00  0.00    -0.206 F 
ATOM     99  C   UNL A   1      51.974  26.515  24.716  1.00  0.00     0.060 A 
BRANCH  99 100
ATOM    100  S   UNL A   1      53.546  26.030  23.973  1.00  0.00     0.124 S 
ATOM    101  O   UNL A   1      53.168  25.852  22.575  1.00  0.00    -0.237 OA
ATOM    102  O   UNL A   1      54.397  27.182  24.257  1.00  0.00    -0.237 OA
ATOM    103  O   UNL A   1      53.898  24.808  24.689  1.00  0.00    -0.744 OA
ENDBRANCH  99 100
ENDBRANCH  67  92
ENDBRANCH  41  42
ENDBRANCH  34  36
ENDBRANCH  33  34
ENDBRANCH  32  33
ENDBRANCH  31  32
ENDBRANCH  30  31
ENDBRANCH   1  30
TORSDOF 22
ENDMDL
MODEL 2
REMARK VINA RESULT:      -9.9      1.001      2.102
REMARK SMILES O=C(Nc1cccc(C(=O)OCCOCCOCCOC(=O)c2ccc(-c3c4nc(c(-c5c(F)cc(S(=O)(=O)[O-])cc5F)c5ccc([nH]5)c(-c5c(F)cc(S(=O)(=O)[O-])cc5F)c5nc(c(-c6c(F)cc(S(=O)(=O)[O-])cc6F)c6ccc3[nH]6)C=C5)C=C4)cc2)c1)Nc1cc(Cl)c(Cl)cc1Cl
REMARK SMILES IDX 16 1 15 2 14 3 13 4 12 5 11 6 9 7 10 8 8 9 4 10 5 11 89 12
REMARK SMILES IDX 6 13 7 14 3 15 1 16 2 17 90 18 91 21 92 22 98 23 93 24 97 25
REMARK SMILES IDX 99 26 94 27 95 28 96 29 17 30 18 31 19 32 20 33 21 34 22 35
REMARK SMILES IDX 23 36 24 37 88 38 25 39 87 40 26 41 27 42 28 43 81 44 29 45
REMARK SMILES IDX 86 46 80 47 82 48 30 49 85 50 79 51 78 52 31 54 65 55 44 56
REMARK SMILES IDX 64 57 45 58 48 59 63 60 83 61 46 62 47 63 62 65 84 66 49 67
REMARK SMILES IDX 32 68 33 69 42 70 34 71 35 72 41 73 43 74 36 75 37 76 38 77
REMARK SMILES IDX 39 78 40 79 66 80 67 81 76 82 68 83 69 84 75 85 77 86 70 87
REMARK SMILES IDX 71 88 72 89 73 90 74 91 50 92 51 93 60 94 52 95 53 96 59 97
REMARK SMILES IDX 61 98 54 99 55 100 56 101 57 102 58 103
REMARK H PARENT 3 19 90 20 82 53 48 64
REMARK Flexibility Score: inf
ROOT
ATOM      1  C   UNL A   1      34.031  34.125  29.372  1.00  0.00     0.188 C 
ENDROOT
BRANCH   1   2
ATOM      2  C   UNL A   1      33.415  33.505  28.101  1.00  0.00     0.188 C 
BRANCH   2   3
ATOM      3  O   UNL A   1      34.129  32.489  27.403  1.00  0.00    -0.376 OA
BRANCH   3   4
ATOM      4  C   UNL A   1      33.816  31.120  27.636  1.00  0.00     0.202 C 
BRANCH   4   5
ATOM      5  C   UNL A   1      32.635  30.501  26.883  1.00  0.00     0.261 C 
BRANCH   5   6
ATOM      6  O   UNL A   1      33.028  29.832  25.673  1.00  0.00    -0.460 OA
BRANCH   6   7
ATOM      7  C   UNL A   1      33.381  28.531  25.810  1.00  0.00     0.338 C 
ATOM      8  O   UNL A   1      34.143  28.054  26.634  1.00  0.00    -0.246 OA
BRANCH   7   9
ATOM      9  C   UNL A   1      32.587  27.704  24.879  1.00  0.00     0.062 A 
ATOM     10  C   UNL A   1      32.438  26.103  23.066  1.00  0.00     0.043 A 
ATOM     11  C   UNL A   1      31.043  26.190  23.124  1.00  0.00     0.026 A 
ATOM     12  C   UNL A   1      33.207  26.918  23.903  1.00  0.00     0.041 A 
ATOM     13  C   UNL A   1      30.422  26.996  24.083  1.00  0.00     0.003 A 
ATOM     14  C   UNL A   1      31.194  27.729  24.982  1.00  0.00     0.016 A 
BRANCH  10  15
ATOM     15  N   UNL A   1      32.998  25.179  22.161  1.00  0.00    -0.308 N 
ATOM     16  O   UNL A   1      33.825  23.228  21.414  1.00  0.00    -0.248 OA
ATOM     17  C   UNL A   1      33.187  23.820  22.278  1.00  0.00     0.323 C 
ATOM     18  N   UNL A   1      32.494  23.224  23.295  1.00  0.00    -0.306 N 
ATOM     19  H   UNL A   1      33.302  25.567  21.309  1.00  0.00     0.171 HD
ATOM     20  H   UNL A   1      31.753  23.758  23.660  1.00  0.00     0.171 HD
BRANCH  18  21
ATOM     21  C   UNL A   1      32.675  21.965  23.901  1.00  0.00     0.063 A 
ATOM     22  C   UNL A   1      32.339  20.871  23.083  1.00  0.00     0.049 A 
ATOM     23  C   UNL A   1      33.074  21.711  25.224  1.00  0.00     0.066 A 
ATOM     24  C   UNL A   1      32.455  19.556  23.540  1.00  0.00     0.061 A 
ATOM     25  C   UNL A   1      33.211  20.389  25.673  1.00  0.00     0.044 A 
ATOM     26  Cl  UNL A   1      33.254  22.922  26.443  1.00  0.00    -0.082 Cl
ATOM     27  Cl  UNL A   1      32.009  18.286  22.458  1.00  0.00    -0.083 Cl
ATOM     28  C   UNL A   1      32.911  19.313  24.835  1.00  0.00     0.061 A 
ATOM     29  Cl  UNL A   1      33.089  17.718  25.472  1.00  0.00    -0.083 Cl
ENDBRANCH  18  21
ENDBRANCH  10  15
ENDBRANCH   7   9
ENDBRANCH   6   7
ENDBRANCH   5   6
ENDBRANCH   4   5
ENDBRANCH   3   4
ENDBRANCH   2   3
ENDBRANCH   1   2
BRANCH   1  30
ATOM     30  O   UNL A   1      35.438  34.118  29.401  1.00  0.00    -0.376 OA
BRANCH  30  31
ATOM     31  C   UNL A   1      36.146  32.995  29.887  1.00  0.00     0.202 C 
BRANCH  31  32
ATOM     32  C   UNL A   1      35.742  32.150  31.111  1.00  0.00     0.261 C 
BRANCH  32  33
ATOM     33  O   UNL A   1      36.675  31.197  31.620  1.00  0.00    -0.460 OA
BRANCH  33  34
ATOM     34  C   UNL A   1      37.803  31.692  32.180  1.00  0.00     0.338 C 
ATOM     35  O   UNL A   1      37.882  32.423  33.151  1.00  0.00    -0.246 OA
BRANCH  34  36
ATOM     36  C   UNL A   1      38.957  31.055  31.514  1.00  0.00     0.060 A 
ATOM     37  C   UNL A   1      39.817  30.254  32.274  1.00  0.00     0.016 A 
ATOM     38  C   UNL A   1      39.193  31.257  30.151  1.00  0.00     0.016 A 
ATOM     39  C   UNL A   1      40.938  29.673  31.676  1.00  0.00     0.010 A 
ATOM     40  C   UNL A   1      40.324  30.688  29.559  1.00  0.00     0.010 A 
ATOM     41  C   UNL A   1      41.216  29.915  30.323  1.00  0.00    -0.014 A 
BRANCH  41  42
ATOM     42  C   UNL A   1      42.517  29.499  29.744  1.00  0.00     0.031 A 
ATOM     43  C   UNL A   1      42.626  28.126  29.137  1.00  0.00     0.074 A 
ATOM     44  C   UNL A   1      43.586  30.317  29.770  1.00  0.00     0.049 A 
ATOM     45  N   UNL A   1      43.672  27.523  28.637  1.00  0.00    -0.248 NA
ATOM     46  C   UNL A   1      41.391  27.326  29.092  1.00  0.00     0.031 C 
ATOM     47  C   UNL A   1      43.600  31.674  30.314  1.00  0.00     0.029 A 
ATOM     48  N   UNL A   1      44.876  30.111  29.346  1.00  0.00    -0.354 N 
ATOM     49  C   UNL A   1      43.230  26.268  28.236  1.00  0.00     0.074 A 
ATOM     50  C   UNL A   1      41.821  26.191  28.558  1.00  0.00     0.031 C 
ATOM     51  C   UNL A   1      44.847  32.170  30.215  1.00  0.00     0.029 A 
ATOM     52  C   UNL A   1      45.723  31.157  29.626  1.00  0.00     0.049 A 
ATOM     53  H   UNL A   1      45.166  29.292  28.884  1.00  0.00     0.167 HD
ATOM     54  C   UNL A   1      43.933  25.271  27.653  1.00  0.00     0.037 A 
ATOM     55  C   UNL A   1      47.056  31.269  29.456  1.00  0.00     0.037 A 
ATOM     56  C   UNL A   1      45.331  25.354  27.319  1.00  0.00     0.049 A 
ATOM     57  C   UNL A   1      47.825  30.124  28.841  1.00  0.00     0.074 A 
ATOM     58  C   UNL A   1      46.117  24.415  26.674  1.00  0.00     0.029 A 
ATOM     59  N   UNL A   1      46.153  26.429  27.617  1.00  0.00    -0.354 N 
ATOM     60  N   UNL A   1      47.379  28.968  28.409  1.00  0.00    -0.248 NA
ATOM     61  C   UNL A   1      49.277  30.299  28.689  1.00  0.00     0.031 C 
ATOM     62  C   UNL A   1      47.426  24.902  26.624  1.00  0.00     0.029 A 
ATOM     63  C   UNL A   1      47.444  26.165  27.194  1.00  0.00     0.049 A 
ATOM     64  H   UNL A   1      45.862  27.258  28.061  1.00  0.00     0.167 HD
ATOM     65  C   UNL A   1      48.490  28.295  27.908  1.00  0.00     0.074 A 
ATOM     66  C   UNL A   1      49.626  29.174  28.081  1.00  0.00     0.031 C 
ATOM     67  C   UNL A   1      48.563  27.059  27.353  1.00  0.00     0.037 A 
BRANCH  54  68
ATOM     68  C   UNL A   1      43.218  23.986  27.353  1.00  0.00     0.058 A 
ATOM     69  C   UNL A   1      43.075  22.978  28.318  1.00  0.00     0.135 A 
ATOM     70  C   UNL A   1      42.605  23.793  26.104  1.00  0.00     0.135 A 
ATOM     71  F   UNL A   1      43.658  23.104  29.521  1.00  0.00    -0.206 F 
ATOM     72  C   UNL A   1      42.350  21.820  28.054  1.00  0.00     0.059 A 
ATOM     73  C   UNL A   1      41.859  22.654  25.825  1.00  0.00     0.059 A 
ATOM     74  F   UNL A   1      42.720  24.726  25.145  1.00  0.00    -0.206 F 
ATOM     75  C   UNL A   1      41.741  21.669  26.806  1.00  0.00     0.060 A 
BRANCH  75  76
ATOM     76  S   UNL A   1      40.769  20.181  26.493  1.00  0.00     0.124 S 
ATOM     77  O   UNL A   1      40.681  19.605  27.832  1.00  0.00    -0.237 OA
ATOM     78  O   UNL A   1      39.526  20.728  25.956  1.00  0.00    -0.237 OA
ATOM     79  O   UNL A   1      41.586  19.434  25.541  1.00  0.00    -0.744 OA
ENDBRANCH  75  76
ENDBRANCH  54  68
BRANCH  55  80
ATOM     80  C   UNL A   1      47.772  32.495  29.899  1.00  0.00     0.058 A 
ATOM     81  C   UNL A   1      48.130  33.499  28.987  1.00  0.00     0.135 A 
ATOM     82  C   UNL A   1      48.160  32.663  31.238  1.00  0.00     0.135 A 
ATOM     83  F   UNL A   1      47.793  33.379  27.694  1.00  0.00    -0.206 F 
ATOM     84  C   UNL A   1      48.874  34.608  29.376  1.00  0.00     0.059 A 
ATOM     85  C   UNL A   1      48.881  33.777  31.658  1.00  0.00     0.059 A 
ATOM     86  F   UNL A   1      47.835  31.737  32.154  1.00  0.00    -0.206 F 
ATOM     87  C   UNL A   1      49.250  34.736  30.714  1.00  0.00     0.060 A 
BRANCH  87  88
ATOM     88  S   UNL A   1      50.209  36.181  31.215  1.00  0.00     0.124 S 
ATOM     89  O   UNL A   1      50.153  36.080  32.668  1.00  0.00    -0.237 OA
ATOM     90  O   UNL A   1      51.507  35.917  30.605  1.00  0.00    -0.237 OA
ATOM     91  O   UNL A   1      49.465  37.294  30.630  1.00  0.00    -0.744 OA
ENDBRANCH  87  88
ENDBRANCH  55  80
BRANCH  67  92
ATOM     92  C   UNL A   1      49.900  26.597  26.846  1.00  0.00     0.058 A 
ATOM     93  C   UNL A   1      50.311  26.831  25.524  1.00  0.00     0.135 A 
ATOM     94  C   UNL A   1      50.808  25.969  27.714  1.00  0.00     0.135 A 
ATOM     95  F   UNL A   1      49.478  27.422  24.653  1.00  0.00    -0.206 F 
ATOM     96  C   UNL A   1      51.570  26.442  25.076  1.00  0.00     0.059 A 
ATOM     97  C   UNL A   1      52.082  25.596  27.294  1.00  0.00     0.059 A 
ATOM     98  F   UNL A   1      50.469  25.733  28.991  1.00  0.00    -0.206 F 
ATOM     99  C   UNL A   1      52.450  25.828  25.970  1.00  0.00     0.060 A 
BRANCH  99 100
ATOM    100  S   UNL A   1      54.096  25.366  25.390  1.00  0.00     0.124 S 
ATOM    101  O   UNL A   1      54.489  26.556  24.643  1.00  0.00    -0.237 OA
ATOM    102  O   UNL A   1      54.817  25.135  26.639  1.00  0.00    -0.237 OA
ATOM    103  O   UNL A   1      53.850  24.172  24.586  1.00  0.00    -0.744 OA
ENDBRANCH  99 100
ENDBRANCH  67  92
ENDBRANCH  41  42
ENDBRANCH  34  36
ENDBRANCH  33  34
ENDBRANCH  32  33
ENDBRANCH  31  32
ENDBRANCH  30  31
ENDBRANCH   1  30
TORSDOF 22
ENDMDL
MODEL 3
REMARK VINA RESULT:      -9.5      7.907     14.579
REMARK SMILES O=C(Nc1cccc(C(=O)OCCOCCOCCOC(=O)c2ccc(-c3c4nc(c(-c5c(F)cc(S(=O)(=O)[O-])cc5F)c5ccc([nH]5)c(-c5c(F)cc(S(=O)(=O)[O-])cc5F)c5nc(c(-c6c(F)cc(S(=O)(=O)[O-])cc6F)c6ccc3[nH]6)C=C5)C=C4)cc2)c1)Nc1cc(Cl)c(Cl)cc1Cl
REMARK SMILES IDX 16 1 15 2 14 3 13 4 12 5 11 6 9 7 10 8 8 9 4 10 5 11 89 12
REMARK SMILES IDX 6 13 7 14 3 15 1 16 2 17 90 18 91 21 92 22 98 23 93 24 97 25
REMARK SMILES IDX 99 26 94 27 95 28 96 29 17 30 18 31 19 32 20 33 21 34 22 35
REMARK SMILES IDX 23 36 24 37 88 38 25 39 87 40 26 41 27 42 28 43 81 44 29 45
REMARK SMILES IDX 86 46 80 47 82 48 30 49 85 50 79 51 78 52 31 54 65 55 44 56
REMARK SMILES IDX 64 57 45 58 48 59 63 60 83 61 46 62 47 63 62 65 84 66 49 67
REMARK SMILES IDX 32 68 33 69 42 70 34 71 35 72 41 73 43 74 36 75 37 76 38 77
REMARK SMILES IDX 39 78 40 79 66 80 67 81 76 82 68 83 69 84 75 85 77 86 70 87
REMARK SMILES IDX 71 88 72 89 73 90 74 91 50 92 51 93 60 94 52 95 53 96 59 97
REMARK SMILES IDX 61 98 54 99 55 100 56 101 57 102 58 103
REMARK H PARENT 3 19 90 20 82 53 48 64
REMARK Flexibility Score: inf
ROOT
ATOM      1  C   UNL A   1      43.052  23.515  28.866  1.00  0.00     0.188 C 
ENDROOT
BRANCH   1   2
ATOM      2  C   UNL A   1      43.312  25.035  28.842  1.00  0.00     0.188 C 
BRANCH   2   3
ATOM      3  O   UNL A   1      44.577  25.521  28.404  1.00  0.00    -0.376 OA
BRANCH   3   4
ATOM      4  C   UNL A   1      45.771  24.961  28.939  1.00  0.00     0.202 C 
BRANCH   4   5
ATOM      5  C   UNL A   1      46.405  25.625  30.166  1.00  0.00     0.261 C 
BRANCH   5   6
ATOM      6  O   UNL A   1      45.569  25.564  31.333  1.00  0.00    -0.460 OA
BRANCH   6   7
ATOM      7  C   UNL A   1      46.158  25.075  32.451  1.00  0.00     0.338 C 
ATOM      8  O   UNL A   1      47.310  25.242  32.814  1.00  0.00    -0.246 OA
BRANCH   7   9
ATOM      9  C   UNL A   1      45.146  24.392  33.283  1.00  0.00     0.062 A 
ATOM     10  C   UNL A   1      44.284  22.402  34.365  1.00  0.00     0.043 A 
ATOM     11  C   UNL A   1      43.193  23.146  34.827  1.00  0.00     0.026 A 
ATOM     12  C   UNL A   1      45.224  23.019  33.532  1.00  0.00     0.041 A 
ATOM     13  C   UNL A   1      43.100  24.514  34.556  1.00  0.00     0.003 A 
ATOM     14  C   UNL A   1      44.093  25.145  33.810  1.00  0.00     0.016 A 
BRANCH  10  15
ATOM     15  N   UNL A   1      44.380  21.059  34.777  1.00  0.00    -0.308 N 
ATOM     16  O   UNL A   1      45.352  19.139  35.426  1.00  0.00    -0.248 OA
ATOM     17  C   UNL A   1      45.460  20.349  35.253  1.00  0.00     0.323 C 
ATOM     18  N   UNL A   1      46.527  21.109  35.645  1.00  0.00    -0.306 N 
ATOM     19  H   UNL A   1      43.543  20.545  34.715  1.00  0.00     0.171 HD
ATOM     20  H   UNL A   1      46.326  22.061  35.790  1.00  0.00     0.171 HD
BRANCH  18  21
ATOM     21  C   UNL A   1      47.869  20.743  35.871  1.00  0.00     0.063 A 
ATOM     22  C   UNL A   1      48.689  20.808  34.730  1.00  0.00     0.049 A 
ATOM     23  C   UNL A   1      48.426  20.264  37.068  1.00  0.00     0.066 A 
ATOM     24  C   UNL A   1      50.044  20.469  34.787  1.00  0.00     0.061 A 
ATOM     25  C   UNL A   1      49.792  19.946  37.128  1.00  0.00     0.044 A 
ATOM     26  Cl  UNL A   1      47.516  19.855  38.478  1.00  0.00    -0.082 Cl
ATOM     27  Cl  UNL A   1      50.962  20.577  33.328  1.00  0.00    -0.083 Cl
ATOM     28  C   UNL A   1      50.602  20.054  35.995  1.00  0.00     0.061 A 
ATOM     29  Cl  UNL A   1      52.268  19.625  36.150  1.00  0.00    -0.083 Cl
ENDBRANCH  18  21
ENDBRANCH  10  15
ENDBRANCH   7   9
ENDBRANCH   6   7
ENDBRANCH   5   6
ENDBRANCH   4   5
ENDBRANCH   3   4
ENDBRANCH   2   3
ENDBRANCH   1   2
BRANCH   1  30
ATOM     30  O   UNL A   1      42.836  22.941  27.599  1.00  0.00    -0.376 OA
BRANCH  30  31
ATOM     31  C   UNL A   1      41.757  23.363  26.789  1.00  0.00     0.202 C 
BRANCH  31  32
ATOM     32  C   UNL A   1      40.269  23.304  27.186  1.00  0.00     0.261 C 
BRANCH  32  33
ATOM     33  O   UNL A   1      39.595  24.525  27.489  1.00  0.00    -0.460 OA
BRANCH  33  34
ATOM     34  C   UNL A   1      40.191  25.666  27.070  1.00  0.00     0.338 C 
ATOM     35  O   UNL A   1      40.631  25.901  25.959  1.00  0.00    -0.246 OA
BRANCH  34  36
ATOM     36  C   UNL A   1      40.069  26.665  28.151  1.00  0.00     0.060 A 
ATOM     37  C   UNL A   1      40.770  27.872  28.036  1.00  0.00     0.016 A 
ATOM     38  C   UNL A   1      39.279  26.407  29.274  1.00  0.00     0.016 A 
ATOM     39  C   UNL A   1      40.703  28.816  29.063  1.00  0.00     0.010 A 
ATOM     40  C   UNL A   1      39.227  27.345  30.308  1.00  0.00     0.010 A 
ATOM     41  C   UNL A   1      39.958  28.543  30.220  1.00  0.00    -0.014 A 
BRANCH  41  42
ATOM     42  C   UNL A   1      40.071  29.429  31.405  1.00  0.00     0.031 A 
ATOM     43  C   UNL A   1      41.162  29.155  32.405  1.00  0.00     0.074 A 
ATOM     44  C   UNL A   1      39.210  30.445  31.601  1.00  0.00     0.049 A 
ATOM     45  N   UNL A   1      41.411  29.748  33.543  1.00  0.00    -0.248 NA
ATOM     46  C   UNL A   1      42.097  28.066  32.077  1.00  0.00     0.031 C 
ATOM     47  C   UNL A   1      38.123  30.820  30.698  1.00  0.00     0.029 A 
ATOM     48  N   UNL A   1      39.105  31.336  32.641  1.00  0.00    -0.354 N 
ATOM     49  C   UNL A   1      42.514  29.094  34.077  1.00  0.00     0.074 A 
ATOM     50  C   UNL A   1      42.885  28.053  33.143  1.00  0.00     0.031 C 
ATOM     51  C   UNL A   1      37.444  31.848  31.237  1.00  0.00     0.029 A 
ATOM     52  C   UNL A   1      38.029  32.186  32.534  1.00  0.00     0.049 A 
ATOM     53  H   UNL A   1      39.741  31.364  33.392  1.00  0.00     0.167 HD
ATOM     54  C   UNL A   1      43.159  29.339  35.240  1.00  0.00     0.037 A 
ATOM     55  C   UNL A   1      37.556  33.106  33.399  1.00  0.00     0.037 A 
ATOM     56  C   UNL A   1      42.799  30.384  36.162  1.00  0.00     0.049 A 
ATOM     57  C   UNL A   1      38.272  33.330  34.710  1.00  0.00     0.074 A 
ATOM     58  C   UNL A   1      43.430  30.745  37.339  1.00  0.00     0.029 A 
ATOM     59  N   UNL A   1      41.707  31.224  36.018  1.00  0.00    -0.354 N 
ATOM     60  N   UNL A   1      39.352  32.746  35.171  1.00  0.00    -0.248 NA
ATOM     61  C   UNL A   1      37.705  34.340  35.617  1.00  0.00     0.031 C 
ATOM     62  C   UNL A   1      42.691  31.773  37.933  1.00  0.00     0.029 A 
ATOM     63  C   UNL A   1      41.628  32.084  37.099  1.00  0.00     0.049 A 
ATOM     64  H   UNL A   1      41.080  31.212  35.258  1.00  0.00     0.167 HD
ATOM     65  C   UNL A   1      39.608  33.339  36.404  1.00  0.00     0.074 A 
ATOM     66  C   UNL A   1      38.577  34.333  36.614  1.00  0.00     0.031 C 
ATOM     67  C   UNL A   1      40.608  33.085  37.285  1.00  0.00     0.037 A 
BRANCH  54  68
ATOM     68  C   UNL A   1      44.313  28.450  35.607  1.00  0.00     0.058 A 
ATOM     69  C   UNL A   1      44.167  27.385  36.508  1.00  0.00     0.135 A 
ATOM     70  C   UNL A   1      45.562  28.625  34.991  1.00  0.00     0.135 A 
ATOM     71  F   UNL A   1      42.998  27.188  37.140  1.00  0.00    -0.206 F 
ATOM     72  C   UNL A   1      45.223  26.524  36.789  1.00  0.00     0.059 A 
ATOM     73  C   UNL A   1      46.625  27.764  35.240  1.00  0.00     0.059 A 
ATOM     74  F   UNL A   1      45.754  29.635  34.126  1.00  0.00    -0.206 F 
ATOM     75  C   UNL A   1      46.447  26.718  36.145  1.00  0.00     0.060 A 
BRANCH  75  76
ATOM     76  S   UNL A   1      47.795  25.568  36.488  1.00  0.00     0.124 S 
ATOM     77  O   UNL A   1      48.818  26.033  35.557  1.00  0.00    -0.237 OA
ATOM     78  O   UNL A   1      48.064  25.815  37.901  1.00  0.00    -0.237 OA
ATOM     79  O   UNL A   1      47.215  24.263  36.181  1.00  0.00    -0.744 OA
ENDBRANCH  75  76
ENDBRANCH  54  68
BRANCH  55  80
ATOM     80  C   UNL A   1      36.321  33.873  33.083  1.00  0.00     0.058 A 
ATOM     81  C   UNL A   1      35.087  33.532  33.656  1.00  0.00     0.135 A 
ATOM     82  C   UNL A   1      36.342  34.930  32.160  1.00  0.00     0.135 A 
ATOM     83  F   UNL A   1      35.013  32.521  34.535  1.00  0.00    -0.206 F 
ATOM     84  C   UNL A   1      33.912  34.188  33.302  1.00  0.00     0.059 A 
ATOM     85  C   UNL A   1      35.185  35.620  31.810  1.00  0.00     0.059 A 
ATOM     86  F   UNL A   1      37.499  35.303  31.589  1.00  0.00    -0.206 F 
ATOM     87  C   UNL A   1      33.971  35.228  32.373  1.00  0.00     0.060 A 
BRANCH  87  88
ATOM     88  S   UNL A   1      32.443  36.081  31.924  1.00  0.00     0.124 S 
ATOM     89  O   UNL A   1      31.436  35.205  32.512  1.00  0.00    -0.237 OA
ATOM     90  O   UNL A   1      32.614  37.379  32.566  1.00  0.00    -0.237 OA
ATOM     91  O   UNL A   1      32.489  36.101  30.465  1.00  0.00    -0.744 OA
ENDBRANCH  87  88
ENDBRANCH  55  80
BRANCH  67  92
ATOM     92  C   UNL A   1      40.673  33.920  38.533  1.00  0.00     0.058 A 
ATOM     93  C   UNL A   1      41.430  35.101  38.594  1.00  0.00     0.135 A 
ATOM     94  C   UNL A   1      39.914  33.568  39.661  1.00  0.00     0.135 A 
ATOM     95  F   UNL A   1      42.178  35.478  37.545  1.00  0.00    -0.206 F 
ATOM     96  C   UNL A   1      41.446  35.894  39.737  1.00  0.00     0.059 A 
ATOM     97  C   UNL A   1      39.894  34.360  40.805  1.00  0.00     0.059 A 
ATOM     98  F   UNL A   1      39.163  32.455  39.650  1.00  0.00    -0.206 F 
ATOM     99  C   UNL A   1      40.672  35.516  40.837  1.00  0.00     0.060 A 
BRANCH  99 100
ATOM    100  S   UNL A   1      40.667  36.575  42.299  1.00  0.00     0.124 S 
ATOM    101  O   UNL A   1      40.738  35.592  43.374  1.00  0.00    -0.237 OA
ATOM    102  O   UNL A   1      41.864  37.389  42.104  1.00  0.00    -0.237 OA
ATOM    103  O   UNL A   1      39.402  37.297  42.191  1.00  0.00    -0.744 OA
ENDBRANCH  99 100
ENDBRANCH  67  92
ENDBRANCH  41  42
ENDBRANCH  34  36
ENDBRANCH  33  34
ENDBRANCH  32  33
ENDBRANCH  31  32
ENDBRANCH  30  31
ENDBRANCH   1  30
TORSDOF 22
ENDMDL
