MODEL 1
REMARK VINA RESULT:      -9.7      0.000      0.000
REMARK SMILES C[C@H](SC1CCOCC1)c1ccc(C(=O)OCCOCCOCCOC(=O)c2ccc(-c3c4nc(c(-c5c(F)cc(S(=O)(=O)[O-])cc5F)c5ccc([nH]5)c(-c5c(F)cc(S(=O)(=O)[O-])cc5F)c5nc(c(-c6c(F)cc(S(=O)(=O)[O-])cc6F)c6ccc3[nH]6)C=C5)C=C4)cc2)o1
REMARK SMILES IDX 20 1 19 2 18 3 17 4 16 5 14 6 15 7 13 8 10 9 11 10 94 11
REMARK SMILES IDX 12 12 2 13 1 14 3 15 4 16 5 17 9 18 6 19 8 20 7 21 21 22
REMARK SMILES IDX 22 23 23 24 24 25 25 26 26 27 27 28 28 29 29 30 93 31 30 32
REMARK SMILES IDX 92 33 31 34 32 35 33 36 86 37 34 38 91 39 85 40 87 41 35 42
REMARK SMILES IDX 90 43 84 44 83 45 36 47 70 48 49 49 69 50 50 51 53 52 68 53
REMARK SMILES IDX 88 54 51 55 52 56 67 58 89 59 54 60 37 61 38 62 47 63 39 64
REMARK SMILES IDX 40 65 46 66 48 67 41 68 42 69 43 70 44 71 45 72 71 73 72 74
REMARK SMILES IDX 81 75 73 76 74 77 80 78 82 79 75 80 76 81 77 82 78 83 79 84
REMARK SMILES IDX 55 85 56 86 65 87 57 88 58 89 64 90 66 91 59 92 60 93 61 94
REMARK SMILES IDX 62 95 63 96
REMARK H PARENT 87 46 53 57
REMARK Flexibility Score: inf
ROOT
ATOM      1  C   UNL A   1      38.351  21.837  25.630  1.00  0.00     0.188 C 
ENDROOT
BRANCH   1   2
ATOM      2  O   UNL A   1      37.021  21.362  25.817  1.00  0.00    -0.376 OA
BRANCH   2   3
ATOM      3  C   UNL A   1      36.068  21.551  24.776  1.00  0.00     0.202 C 
BRANCH   3   4
ATOM      4  C   UNL A   1      34.871  20.600  24.783  1.00  0.00     0.261 C 
BRANCH   4   5
ATOM      5  O   UNL A   1      33.633  21.331  24.842  1.00  0.00    -0.457 OA
BRANCH   5   6
ATOM      6  C   UNL A   1      33.129  21.528  26.094  1.00  0.00     0.374 C 
ATOM      7  O   UNL A   1      33.511  20.936  27.098  1.00  0.00    -0.242 OA
BRANCH   6   8
ATOM      8  C   UNL A   1      32.181  22.616  26.068  1.00  0.00     0.211 A 
ATOM      9  C   UNL A   1      31.176  24.321  25.071  1.00  0.00     0.117 A 
ATOM     10  C   UNL A   1      30.475  24.074  26.237  1.00  0.00     0.048 A 
ATOM     11  O   UNL A   1      32.228  23.457  24.992  1.00  0.00    -0.453 OA
ATOM     12  C   UNL A   1      31.119  22.980  26.874  1.00  0.00     0.058 A 
BRANCH   9  13
ATOM     13  C   UNL A   1      30.966  25.207  23.879  1.00  0.00     0.110 C 
ATOM     14  C   UNL A   1      32.182  25.298  22.966  1.00  0.00     0.028 C 
BRANCH  13  15
ATOM     15  S   UNL A   1      30.148  26.810  24.254  1.00  0.00    -0.147 SA
BRANCH  15  16
ATOM     16  C   UNL A   1      31.338  27.809  25.230  1.00  0.00     0.052 C 
ATOM     17  C   UNL A   1      31.304  27.618  26.745  1.00  0.00     0.043 C 
ATOM     18  C   UNL A   1      31.374  29.290  24.868  1.00  0.00     0.043 C 
ATOM     19  C   UNL A   1      32.462  28.381  27.382  1.00  0.00     0.161 C 
ATOM     20  C   UNL A   1      32.540  29.950  25.597  1.00  0.00     0.161 C 
ATOM     21  O   UNL A   1      32.433  29.759  27.007  1.00  0.00    -0.381 OA
ENDBRANCH  15  16
ENDBRANCH  13  15
ENDBRANCH   9  13
ENDBRANCH   6   8
ENDBRANCH   5   6
ENDBRANCH   4   5
ENDBRANCH   3   4
ENDBRANCH   2   3
ENDBRANCH   1   2
BRANCH   1  22
ATOM     22  C   UNL A   1      39.518  20.910  26.015  1.00  0.00     0.188 C 
BRANCH  22  23
ATOM     23  O   UNL A   1      40.194  21.290  27.208  1.00  0.00    -0.376 OA
BRANCH  23  24
ATOM     24  C   UNL A   1      41.613  21.218  27.158  1.00  0.00     0.202 C 
BRANCH  24  25
ATOM     25  C   UNL A   1      42.267  22.598  27.055  1.00  0.00     0.261 C 
BRANCH  25  26
ATOM     26  O   UNL A   1      41.344  23.671  26.816  1.00  0.00    -0.460 OA
BRANCH  26  27
ATOM     27  C   UNL A   1      41.873  24.833  26.368  1.00  0.00     0.338 C 
ATOM     28  O   UNL A   1      42.430  25.026  25.303  1.00  0.00    -0.246 OA
BRANCH  27  29
ATOM     29  C   UNL A   1      41.529  25.889  27.336  1.00  0.00     0.060 A 
ATOM     30  C   UNL A   1      42.306  27.052  27.370  1.00  0.00     0.016 A 
ATOM     31  C   UNL A   1      40.455  25.719  28.214  1.00  0.00     0.016 A 
ATOM     32  C   UNL A   1      42.019  28.044  28.308  1.00  0.00     0.010 A 
ATOM     33  C   UNL A   1      40.179  26.705  29.160  1.00  0.00     0.010 A 
ATOM     34  C   UNL A   1      40.975  27.861  29.227  1.00  0.00    -0.014 A 
BRANCH  34  35
ATOM     35  C   UNL A   1      40.799  28.802  30.356  1.00  0.00     0.031 A 
ATOM     36  C   UNL A   1      41.671  28.645  31.570  1.00  0.00     0.074 A 
ATOM     37  C   UNL A   1      39.867  29.769  30.310  1.00  0.00     0.049 A 
ATOM     38  N   UNL A   1      41.676  29.334  32.680  1.00  0.00    -0.248 NA
ATOM     39  C   UNL A   1      42.668  27.563  31.523  1.00  0.00     0.031 C 
ATOM     40  C   UNL A   1      38.969  30.028  29.185  1.00  0.00     0.029 A 
ATOM     41  N   UNL A   1      39.515  30.709  31.246  1.00  0.00    -0.354 N 
ATOM     42  C   UNL A   1      42.678  28.777  33.463  1.00  0.00     0.074 A 
ATOM     43  C   UNL A   1      43.240  27.673  32.713  1.00  0.00     0.031 C 
ATOM     44  C   UNL A   1      38.158  31.052  29.504  1.00  0.00     0.029 A 
ATOM     45  C   UNL A   1      38.468  31.507  30.859  1.00  0.00     0.049 A 
ATOM     46  H   UNL A   1      39.971  30.800  32.114  1.00  0.00     0.167 HD
ATOM     47  C   UNL A   1      43.099  29.152  34.695  1.00  0.00     0.037 A 
ATOM     48  C   UNL A   1      37.825  32.483  31.530  1.00  0.00     0.037 A 
ATOM     49  C   UNL A   1      42.528  30.233  35.450  1.00  0.00     0.049 A 
ATOM     50  C   UNL A   1      38.267  32.844  32.923  1.00  0.00     0.074 A 
ATOM     51  C   UNL A   1      42.897  30.704  36.699  1.00  0.00     0.029 A 
ATOM     52  N   UNL A   1      41.453  31.006  35.034  1.00  0.00    -0.354 N 
ATOM     53  N   UNL A   1      39.245  32.337  33.635  1.00  0.00    -0.248 NA
ATOM     54  C   UNL A   1      37.517  33.909  33.605  1.00  0.00     0.031 C 
ATOM     55  C   UNL A   1      42.023  31.738  37.052  1.00  0.00     0.029 A 
ATOM     56  C   UNL A   1      41.131  31.935  36.009  1.00  0.00     0.049 A 
ATOM     57  H   UNL A   1      40.988  30.908  34.172  1.00  0.00     0.167 HD
ATOM     58  C   UNL A   1      39.242  33.037  34.838  1.00  0.00     0.074 A 
ATOM     59  C   UNL A   1      38.167  34.004  34.757  1.00  0.00     0.031 C 
ATOM     60  C   UNL A   1      40.060  32.893  35.911  1.00  0.00     0.037 A 
BRANCH  47  61
ATOM     61  C   UNL A   1      44.221  28.362  35.299  1.00  0.00     0.058 A 
ATOM     62  C   UNL A   1      43.981  27.164  35.990  1.00  0.00     0.135 A 
ATOM     63  C   UNL A   1      45.547  28.810  35.198  1.00  0.00     0.135 A 
ATOM     64  F   UNL A   1      42.727  26.704  36.131  1.00  0.00    -0.206 F 
ATOM     65  C   UNL A   1      45.015  26.452  36.588  1.00  0.00     0.059 A 
ATOM     66  C   UNL A   1      46.599  28.105  35.774  1.00  0.00     0.059 A 
ATOM     67  F   UNL A   1      45.826  29.953  34.553  1.00  0.00    -0.206 F 
ATOM     68  C   UNL A   1      46.320  26.937  36.483  1.00  0.00     0.060 A 
BRANCH  68  69
ATOM     69  S   UNL A   1      47.652  26.023  37.288  1.00  0.00     0.124 S 
ATOM     70  O   UNL A   1      48.708  26.107  36.283  1.00  0.00    -0.237 OA
ATOM     71  O   UNL A   1      47.875  26.796  38.506  1.00  0.00    -0.237 OA
ATOM     72  O   UNL A   1      47.079  24.697  37.489  1.00  0.00    -0.744 OA
ENDBRANCH  68  69
ENDBRANCH  47  61
BRANCH  48  73
ATOM     73  C   UNL A   1      36.688  33.193  30.890  1.00  0.00     0.058 A 
ATOM     74  C   UNL A   1      36.909  34.154  29.893  1.00  0.00     0.135 A 
ATOM     75  C   UNL A   1      35.362  32.919  31.256  1.00  0.00     0.135 A 
ATOM     76  F   UNL A   1      38.162  34.456  29.519  1.00  0.00    -0.206 F 
ATOM     77  C   UNL A   1      35.854  34.827  29.285  1.00  0.00     0.059 A 
ATOM     78  C   UNL A   1      34.290  33.566  30.651  1.00  0.00     0.059 A 
ATOM     79  F   UNL A   1      35.102  32.002  32.201  1.00  0.00    -0.206 F 
ATOM     80  C   UNL A   1      34.547  34.525  29.671  1.00  0.00     0.060 A 
BRANCH  80  81
ATOM     81  S   UNL A   1      33.180  35.363  28.839  1.00  0.00     0.124 S 
ATOM     82  O   UNL A   1      33.887  36.364  28.049  1.00  0.00    -0.237 OA
ATOM     83  O   UNL A   1      32.562  34.276  28.086  1.00  0.00    -0.237 OA
ATOM     84  O   UNL A   1      32.382  35.880  29.947  1.00  0.00    -0.744 OA
ENDBRANCH  80  81
ENDBRANCH  48  73
BRANCH  60  85
ATOM     85  C   UNL A   1      39.842  33.816  37.077  1.00  0.00     0.058 A 
ATOM     86  C   UNL A   1      40.465  35.071  37.146  1.00  0.00     0.135 A 
ATOM     87  C   UNL A   1      38.955  33.462  38.106  1.00  0.00     0.135 A 
ATOM     88  F   UNL A   1      41.326  35.451  36.189  1.00  0.00    -0.206 F 
ATOM     89  C   UNL A   1      40.225  35.941  38.205  1.00  0.00     0.059 A 
ATOM     90  C   UNL A   1      38.686  34.325  39.164  1.00  0.00     0.059 A 
ATOM     91  F   UNL A   1      38.327  32.276  38.081  1.00  0.00    -0.206 F 
ATOM     92  C   UNL A   1      39.334  35.560  39.210  1.00  0.00     0.060 A 
BRANCH  92  93
ATOM     93  S   UNL A   1      38.996  36.712  40.559  1.00  0.00     0.124 S 
ATOM     94  O   UNL A   1      38.037  35.957  41.357  1.00  0.00    -0.237 OA
ATOM     95  O   UNL A   1      40.314  36.896  41.157  1.00  0.00    -0.237 OA
ATOM     96  O   UNL A   1      38.458  37.884  39.873  1.00  0.00    -0.744 OA
ENDBRANCH  92  93
ENDBRANCH  60  85
ENDBRANCH  34  35
ENDBRANCH  27  29
ENDBRANCH  26  27
ENDBRANCH  25  26
ENDBRANCH  24  25
ENDBRANCH  23  24
ENDBRANCH  22  23
ENDBRANCH   1  22
TORSDOF 23
ENDMDL
MODEL 2
REMARK VINA RESULT:      -9.4      1.354      2.240
REMARK SMILES C[C@H](SC1CCOCC1)c1ccc(C(=O)OCCOCCOCCOC(=O)c2ccc(-c3c4nc(c(-c5c(F)cc(S(=O)(=O)[O-])cc5F)c5ccc([nH]5)c(-c5c(F)cc(S(=O)(=O)[O-])cc5F)c5nc(c(-c6c(F)cc(S(=O)(=O)[O-])cc6F)c6ccc3[nH]6)C=C5)C=C4)cc2)o1
REMARK SMILES IDX 20 1 19 2 18 3 17 4 16 5 14 6 15 7 13 8 10 9 11 10 94 11
REMARK SMILES IDX 12 12 2 13 1 14 3 15 4 16 5 17 9 18 6 19 8 20 7 21 21 22
REMARK SMILES IDX 22 23 23 24 24 25 25 26 26 27 27 28 28 29 29 30 93 31 30 32
REMARK SMILES IDX 92 33 31 34 32 35 33 36 86 37 34 38 91 39 85 40 87 41 35 42
REMARK SMILES IDX 90 43 84 44 83 45 36 47 70 48 49 49 69 50 50 51 53 52 68 53
REMARK SMILES IDX 88 54 51 55 52 56 67 58 89 59 54 60 37 61 38 62 47 63 39 64
REMARK SMILES IDX 40 65 46 66 48 67 41 68 42 69 43 70 44 71 45 72 71 73 72 74
REMARK SMILES IDX 81 75 73 76 74 77 80 78 82 79 75 80 76 81 77 82 78 83 79 84
REMARK SMILES IDX 55 85 56 86 65 87 57 88 58 89 64 90 66 91 59 92 60 93 61 94
REMARK SMILES IDX 62 95 63 96
REMARK H PARENT 87 46 53 57
REMARK Flexibility Score: inf
ROOT
ATOM      1  C   UNL A   1      38.210  22.099  25.740  1.00  0.00     0.188 C 
ENDROOT
BRANCH   1   2
ATOM      2  O   UNL A   1      36.916  21.915  25.173  1.00  0.00    -0.376 OA
BRANCH   2   3
ATOM      3  C   UNL A   1      36.570  22.638  23.997  1.00  0.00     0.202 C 
BRANCH   3   4
ATOM      4  C   UNL A   1      35.087  22.972  23.828  1.00  0.00     0.261 C 
BRANCH   4   5
ATOM      5  O   UNL A   1      34.512  23.406  25.074  1.00  0.00    -0.457 OA
BRANCH   5   6
ATOM      6  C   UNL A   1      33.180  23.149  25.223  1.00  0.00     0.374 C 
ATOM      7  O   UNL A   1      32.690  22.026  25.275  1.00  0.00    -0.242 OA
BRANCH   6   8
ATOM      8  C   UNL A   1      32.471  24.388  25.437  1.00  0.00     0.211 A 
ATOM      9  C   UNL A   1      31.618  26.309  24.734  1.00  0.00     0.117 A 
ATOM     10  C   UNL A   1      31.144  26.111  26.017  1.00  0.00     0.048 A 
ATOM     11  O   UNL A   1      32.448  25.279  24.401  1.00  0.00    -0.453 OA
ATOM     12  C   UNL A   1      31.690  24.879  26.466  1.00  0.00     0.058 A 
BRANCH   9  13
ATOM     13  C   UNL A   1      31.333  27.298  23.643  1.00  0.00     0.110 C 
ATOM     14  C   UNL A   1      32.183  27.091  22.395  1.00  0.00     0.028 C 
BRANCH  13  15
ATOM     15  S   UNL A   1      31.190  29.040  24.209  1.00  0.00    -0.147 SA
BRANCH  15  16
ATOM     16  C   UNL A   1      29.676  29.737  23.440  1.00  0.00     0.052 C 
ATOM     17  C   UNL A   1      29.603  29.685  21.915  1.00  0.00     0.043 C 
ATOM     18  C   UNL A   1      29.274  31.114  23.958  1.00  0.00     0.043 C 
ATOM     19  C   UNL A   1      28.220  30.137  21.454  1.00  0.00     0.161 C 
ATOM     20  C   UNL A   1      27.902  31.473  23.396  1.00  0.00     0.161 C 
ATOM     21  O   UNL A   1      27.910  31.433  21.970  1.00  0.00    -0.381 OA
ENDBRANCH  15  16
ENDBRANCH  13  15
ENDBRANCH   9  13
ENDBRANCH   6   8
ENDBRANCH   5   6
ENDBRANCH   4   5
ENDBRANCH   3   4
ENDBRANCH   2   3
ENDBRANCH   1   2
BRANCH   1  22
ATOM     22  C   UNL A   1      39.215  20.935  25.655  1.00  0.00     0.188 C 
BRANCH  22  23
ATOM     23  O   UNL A   1      40.298  21.033  26.572  1.00  0.00    -0.376 OA
BRANCH  23  24
ATOM     24  C   UNL A   1      41.485  21.626  26.059  1.00  0.00     0.202 C 
BRANCH  24  25
ATOM     25  C   UNL A   1      41.826  22.947  26.752  1.00  0.00     0.261 C 
BRANCH  25  26
ATOM     26  O   UNL A   1      40.930  24.025  26.440  1.00  0.00    -0.460 OA
BRANCH  26  27
ATOM     27  C   UNL A   1      41.497  25.226  26.186  1.00  0.00     0.338 C 
ATOM     28  O   UNL A   1      41.905  25.637  25.114  1.00  0.00    -0.246 OA
BRANCH  27  29
ATOM     29  C   UNL A   1      41.407  26.037  27.413  1.00  0.00     0.060 A 
ATOM     30  C   UNL A   1      40.222  26.006  28.157  1.00  0.00     0.016 A 
ATOM     31  C   UNL A   1      42.483  26.834  27.813  1.00  0.00     0.016 A 
ATOM     32  C   UNL A   1      40.105  26.798  29.299  1.00  0.00     0.010 A 
ATOM     33  C   UNL A   1      42.358  27.636  28.947  1.00  0.00     0.010 A 
ATOM     34  C   UNL A   1      41.160  27.640  29.680  1.00  0.00    -0.014 A 
BRANCH  34  35
ATOM     35  C   UNL A   1      40.969  28.636  30.757  1.00  0.00     0.031 A 
ATOM     36  C   UNL A   1      41.835  28.552  31.982  1.00  0.00     0.074 A 
ATOM     37  C   UNL A   1      40.027  29.591  30.657  1.00  0.00     0.049 A 
ATOM     38  N   UNL A   1      41.827  29.298  33.055  1.00  0.00    -0.248 NA
ATOM     39  C   UNL A   1      42.843  27.479  31.998  1.00  0.00     0.031 C 
ATOM     40  C   UNL A   1      39.133  29.781  29.516  1.00  0.00     0.029 A 
ATOM     41  N   UNL A   1      39.661  30.574  31.541  1.00  0.00    -0.354 N 
ATOM     42  C   UNL A   1      42.830  28.793  33.872  1.00  0.00     0.074 A 
ATOM     43  C   UNL A   1      43.408  27.657  33.183  1.00  0.00     0.031 C 
ATOM     44  C   UNL A   1      38.309  30.812  29.776  1.00  0.00     0.029 A 
ATOM     45  C   UNL A   1      38.608  31.340  31.107  1.00  0.00     0.049 A 
ATOM     46  H   UNL A   1      40.111  30.715  32.405  1.00  0.00     0.167 HD
ATOM     47  C   UNL A   1      43.240  29.236  35.084  1.00  0.00     0.037 A 
ATOM     48  C   UNL A   1      37.951  32.343  31.723  1.00  0.00     0.037 A 
ATOM     49  C   UNL A   1      42.655  30.350  35.779  1.00  0.00     0.049 A 
ATOM     50  C   UNL A   1      38.382  32.781  33.097  1.00  0.00     0.074 A 
ATOM     51  C   UNL A   1      43.013  30.888  37.003  1.00  0.00     0.029 A 
ATOM     52  N   UNL A   1      41.575  31.088  35.318  1.00  0.00    -0.354 N 
ATOM     53  N   UNL A   1      39.361  32.322  33.840  1.00  0.00    -0.248 NA
ATOM     54  C   UNL A   1      37.618  33.872  33.719  1.00  0.00     0.031 C 
ATOM     55  C   UNL A   1      42.127  31.931  37.297  1.00  0.00     0.029 A 
ATOM     56  C   UNL A   1      41.239  32.063  36.241  1.00  0.00     0.049 A 
ATOM     57  H   UNL A   1      41.116  30.941  34.459  1.00  0.00     0.167 HD
ATOM     58  C   UNL A   1      39.345  33.083  35.005  1.00  0.00     0.074 A 
ATOM     59  C   UNL A   1      38.260  34.034  34.868  1.00  0.00     0.031 C 
ATOM     60  C   UNL A   1      40.158  33.004  36.088  1.00  0.00     0.037 A 
BRANCH  47  61
ATOM     61  C   UNL A   1      44.367  28.490  35.735  1.00  0.00     0.058 A 
ATOM     62  C   UNL A   1      45.705  28.859  35.525  1.00  0.00     0.135 A 
ATOM     63  C   UNL A   1      44.109  27.390  36.567  1.00  0.00     0.135 A 
ATOM     64  F   UNL A   1      46.003  29.893  34.721  1.00  0.00    -0.206 F 
ATOM     65  C   UNL A   1      46.752  28.142  36.092  1.00  0.00     0.059 A 
ATOM     66  C   UNL A   1      45.141  26.669  37.159  1.00  0.00     0.059 A 
ATOM     67  F   UNL A   1      42.847  26.995  36.793  1.00  0.00    -0.206 F 
ATOM     68  C   UNL A   1      46.460  27.042  36.900  1.00  0.00     0.060 A 
BRANCH  68  69
ATOM     69  S   UNL A   1      47.826  26.099  37.609  1.00  0.00     0.124 S 
ATOM     70  O   UNL A   1      47.131  24.918  38.113  1.00  0.00    -0.237 OA
ATOM     71  O   UNL A   1      48.692  25.879  36.454  1.00  0.00    -0.237 OA
ATOM     72  O   UNL A   1      48.363  26.995  38.628  1.00  0.00    -0.744 OA
ENDBRANCH  68  69
ENDBRANCH  47  61
BRANCH  48  73
ATOM     73  C   UNL A   1      36.811  33.007  31.041  1.00  0.00     0.058 A 
ATOM     74  C   UNL A   1      37.030  33.990  30.066  1.00  0.00     0.135 A 
ATOM     75  C   UNL A   1      35.485  32.667  31.345  1.00  0.00     0.135 A 
ATOM     76  F   UNL A   1      38.281  34.355  29.750  1.00  0.00    -0.206 F 
ATOM     77  C   UNL A   1      35.971  34.620  29.419  1.00  0.00     0.059 A 
ATOM     78  C   UNL A   1      34.410  33.270  30.701  1.00  0.00     0.059 A 
ATOM     79  F   UNL A   1      35.227  31.727  32.268  1.00  0.00    -0.206 F 
ATOM     80  C   UNL A   1      34.665  34.252  29.743  1.00  0.00     0.060 A 
BRANCH  80  81
ATOM     81  S   UNL A   1      33.296  35.036  28.861  1.00  0.00     0.124 S 
ATOM     82  O   UNL A   1      32.874  33.965  27.966  1.00  0.00    -0.237 OA
ATOM     83  O   UNL A   1      32.375  35.362  29.945  1.00  0.00    -0.237 OA
ATOM     84  O   UNL A   1      33.927  36.185  28.220  1.00  0.00    -0.744 OA
ENDBRANCH  80  81
ENDBRANCH  48  73
BRANCH  60  85
ATOM     85  C   UNL A   1      39.924  33.984  37.203  1.00  0.00     0.058 A 
ATOM     86  C   UNL A   1      39.230  33.620  38.366  1.00  0.00     0.135 A 
ATOM     87  C   UNL A   1      40.452  35.283  37.129  1.00  0.00     0.135 A 
ATOM     88  F   UNL A   1      38.702  32.392  38.481  1.00  0.00    -0.206 F 
ATOM     89  C   UNL A   1      39.055  34.518  39.416  1.00  0.00     0.059 A 
ATOM     90  C   UNL A   1      40.305  36.189  38.174  1.00  0.00     0.059 A 
ATOM     91  F   UNL A   1      41.132  35.676  36.040  1.00  0.00    -0.206 F 
ATOM     92  C   UNL A   1      39.596  35.801  39.311  1.00  0.00     0.060 A 
BRANCH  92  93
ATOM     93  S   UNL A   1      39.401  36.945  40.694  1.00  0.00     0.124 S 
ATOM     94  O   UNL A   1      39.445  38.235  40.017  1.00  0.00    -0.237 OA
ATOM     95  O   UNL A   1      38.105  36.560  41.244  1.00  0.00    -0.237 OA
ATOM     96  O   UNL A   1      40.549  36.641  41.546  1.00  0.00    -0.744 OA
ENDBRANCH  92  93
ENDBRANCH  60  85
ENDBRANCH  34  35
ENDBRANCH  27  29
ENDBRANCH  26  27
ENDBRANCH  25  26
ENDBRANCH  24  25
ENDBRANCH  23  24
ENDBRANCH  22  23
ENDBRANCH   1  22
TORSDOF 23
ENDMDL
MODEL 3
REMARK VINA RESULT:      -8.9      9.452     16.885
REMARK SMILES C[C@H](SC1CCOCC1)c1ccc(C(=O)OCCOCCOCCOC(=O)c2ccc(-c3c4nc(c(-c5c(F)cc(S(=O)(=O)[O-])cc5F)c5ccc([nH]5)c(-c5c(F)cc(S(=O)(=O)[O-])cc5F)c5nc(c(-c6c(F)cc(S(=O)(=O)[O-])cc6F)c6ccc3[nH]6)C=C5)C=C4)cc2)o1
REMARK SMILES IDX 20 1 19 2 18 3 17 4 16 5 14 6 15 7 13 8 10 9 11 10 94 11
REMARK SMILES IDX 12 12 2 13 1 14 3 15 4 16 5 17 9 18 6 19 8 20 7 21 21 22
REMARK SMILES IDX 22 23 23 24 24 25 25 26 26 27 27 28 28 29 29 30 93 31 30 32
REMARK SMILES IDX 92 33 31 34 32 35 33 36 86 37 34 38 91 39 85 40 87 41 35 42
REMARK SMILES IDX 90 43 84 44 83 45 36 47 70 48 49 49 69 50 50 51 53 52 68 53
REMARK SMILES IDX 88 54 51 55 52 56 67 58 89 59 54 60 37 61 38 62 47 63 39 64
REMARK SMILES IDX 40 65 46 66 48 67 41 68 42 69 43 70 44 71 45 72 71 73 72 74
REMARK SMILES IDX 81 75 73 76 74 77 80 78 82 79 75 80 76 81 77 82 78 83 79 84
REMARK SMILES IDX 55 85 56 86 65 87 57 88 58 89 64 90 66 91 59 92 60 93 61 94
REMARK SMILES IDX 62 95 63 96
REMARK H PARENT 87 46 53 57
REMARK Flexibility Score: inf
ROOT
ATOM      1  C   UNL A   1      45.671  40.808  25.629  1.00  0.00     0.188 C 
ENDROOT
BRANCH   1   2
ATOM      2  O   UNL A   1      44.917  41.556  24.678  1.00  0.00    -0.376 OA
BRANCH   2   3
ATOM      3  C   UNL A   1      43.723  42.205  25.102  1.00  0.00     0.202 C 
BRANCH   3   4
ATOM      4  C   UNL A   1      42.576  42.223  24.090  1.00  0.00     0.261 C 
BRANCH   4   5
ATOM      5  O   UNL A   1      42.939  42.967  22.914  1.00  0.00    -0.457 OA
BRANCH   5   6
ATOM      6  C   UNL A   1      42.000  42.989  21.924  1.00  0.00     0.374 C 
ATOM      7  O   UNL A   1      40.828  42.659  22.069  1.00  0.00    -0.242 OA
BRANCH   6   8
ATOM      8  C   UNL A   1      42.568  43.574  20.732  1.00  0.00     0.211 A 
ATOM      9  C   UNL A   1      44.202  44.585  19.628  1.00  0.00     0.117 A 
ATOM     10  C   UNL A   1      43.267  44.198  18.686  1.00  0.00     0.048 A 
ATOM     11  O   UNL A   1      43.757  44.234  20.869  1.00  0.00    -0.453 OA
ATOM     12  C   UNL A   1      42.221  43.549  19.395  1.00  0.00     0.058 A 
BRANCH   9  13
ATOM     13  C   UNL A   1      45.584  45.165  19.569  1.00  0.00     0.110 C 
ATOM     14  C   UNL A   1      46.670  44.130  19.302  1.00  0.00     0.028 C 
BRANCH  13  15
ATOM     15  S   UNL A   1      45.964  46.367  20.906  1.00  0.00    -0.147 SA
BRANCH  15  16
ATOM     16  C   UNL A   1      46.937  45.472  22.178  1.00  0.00     0.052 C 
ATOM     17  C   UNL A   1      46.200  45.107  23.466  1.00  0.00     0.043 C 
ATOM     18  C   UNL A   1      48.300  46.085  22.486  1.00  0.00     0.043 C 
ATOM     19  C   UNL A   1      47.093  44.222  24.332  1.00  0.00     0.161 C 
ATOM     20  C   UNL A   1      49.078  45.133  23.390  1.00  0.00     0.161 C 
ATOM     21  O   UNL A   1      48.348  44.856  24.585  1.00  0.00    -0.381 OA
ENDBRANCH  15  16
ENDBRANCH  13  15
ENDBRANCH   9  13
ENDBRANCH   6   8
ENDBRANCH   5   6
ENDBRANCH   4   5
ENDBRANCH   3   4
ENDBRANCH   2   3
ENDBRANCH   1   2
BRANCH   1  22
ATOM     22  C   UNL A   1      45.008  39.582  26.282  1.00  0.00     0.188 C 
BRANCH  22  23
ATOM     23  O   UNL A   1      44.694  39.755  27.659  1.00  0.00    -0.376 OA
BRANCH  23  24
ATOM     24  C   UNL A   1      44.689  38.567  28.441  1.00  0.00     0.202 C 
BRANCH  24  25
ATOM     25  C   UNL A   1      45.749  38.587  29.544  1.00  0.00     0.261 C 
BRANCH  25  26
ATOM     26  O   UNL A   1      46.135  37.286  30.015  1.00  0.00    -0.460 OA
BRANCH  26  27
ATOM     27  C   UNL A   1      47.308  36.800  29.550  1.00  0.00     0.338 C 
ATOM     28  O   UNL A   1      48.387  37.364  29.540  1.00  0.00    -0.246 OA
BRANCH  27  29
ATOM     29  C   UNL A   1      47.098  35.389  29.183  1.00  0.00     0.060 A 
ATOM     30  C   UNL A   1      46.618  35.088  27.903  1.00  0.00     0.016 A 
ATOM     31  C   UNL A   1      47.359  34.372  30.106  1.00  0.00     0.016 A 
ATOM     32  C   UNL A   1      46.375  33.760  27.553  1.00  0.00     0.010 A 
ATOM     33  C   UNL A   1      47.101  33.047  29.759  1.00  0.00     0.010 A 
ATOM     34  C   UNL A   1      46.585  32.738  28.489  1.00  0.00    -0.014 A 
BRANCH  34  35
ATOM     35  C   UNL A   1      46.130  31.358  28.204  1.00  0.00     0.031 A 
ATOM     36  C   UNL A   1      44.711  30.984  28.523  1.00  0.00     0.074 A 
ATOM     37  C   UNL A   1      46.972  30.446  27.687  1.00  0.00     0.049 A 
ATOM     38  N   UNL A   1      44.104  29.836  28.382  1.00  0.00    -0.248 NA
ATOM     39  C   UNL A   1      43.862  32.052  29.078  1.00  0.00     0.031 C 
ATOM     40  C   UNL A   1      48.368  30.691  27.327  1.00  0.00     0.029 A 
ATOM     41  N   UNL A   1      46.772  29.122  27.387  1.00  0.00    -0.354 N 
ATOM     42  C   UNL A   1      42.804  30.040  28.823  1.00  0.00     0.074 A 
ATOM     43  C   UNL A   1      42.716  31.416  29.265  1.00  0.00     0.031 C 
ATOM     44  C   UNL A   1      48.904  29.547  26.866  1.00  0.00     0.029 A 
ATOM     45  C   UNL A   1      47.895  28.489  26.916  1.00  0.00     0.049 A 
ATOM     46  H   UNL A   1      45.905  28.671  27.500  1.00  0.00     0.167 HD
ATOM     47  C   UNL A   1      41.772  29.163  28.853  1.00  0.00     0.037 A 
ATOM     48  C   UNL A   1      48.088  27.199  26.579  1.00  0.00     0.037 A 
ATOM     49  C   UNL A   1      41.863  27.791  28.436  1.00  0.00     0.049 A 
ATOM     50  C   UNL A   1      46.944  26.225  26.679  1.00  0.00     0.074 A 
ATOM     51  C   UNL A   1      40.868  26.829  28.409  1.00  0.00     0.029 A 
ATOM     52  N   UNL A   1      43.023  27.179  27.984  1.00  0.00    -0.354 N 
ATOM     53  N   UNL A   1      45.706  26.441  27.056  1.00  0.00    -0.248 NA
ATOM     54  C   UNL A   1      47.222  24.830  26.307  1.00  0.00     0.031 C 
ATOM     55  C   UNL A   1      41.436  25.626  27.975  1.00  0.00     0.029 A 
ATOM     56  C   UNL A   1      42.776  25.847  27.698  1.00  0.00     0.049 A 
ATOM     57  H   UNL A   1      43.894  27.626  27.882  1.00  0.00     0.167 HD
ATOM     58  C   UNL A   1      45.054  25.218  26.946  1.00  0.00     0.074 A 
ATOM     59  C   UNL A   1      46.033  24.264  26.464  1.00  0.00     0.031 C 
ATOM     60  C   UNL A   1      43.760  24.912  27.216  1.00  0.00     0.037 A 
BRANCH  47  61
ATOM     61  C   UNL A   1      40.463  29.673  29.379  1.00  0.00     0.058 A 
ATOM     62  C   UNL A   1      40.274  29.927  30.746  1.00  0.00     0.135 A 
ATOM     63  C   UNL A   1      39.384  29.900  28.511  1.00  0.00     0.135 A 
ATOM     64  F   UNL A   1      41.271  29.707  31.619  1.00  0.00    -0.206 F 
ATOM     65  C   UNL A   1      39.049  30.358  31.241  1.00  0.00     0.059 A 
ATOM     66  C   UNL A   1      38.154  30.348  28.982  1.00  0.00     0.059 A 
ATOM     67  F   UNL A   1      39.513  29.666  27.196  1.00  0.00    -0.206 F 
ATOM     68  C   UNL A   1      37.991  30.556  30.351  1.00  0.00     0.060 A 
BRANCH  68  69
ATOM     69  S   UNL A   1      36.395  31.088  31.006  1.00  0.00     0.124 S 
ATOM     70  O   UNL A   1      36.753  32.346  31.655  1.00  0.00    -0.237 OA
ATOM     71  O   UNL A   1      35.582  31.207  29.799  1.00  0.00    -0.237 OA
ATOM     72  O   UNL A   1      36.019  30.001  31.904  1.00  0.00    -0.744 OA
ENDBRANCH  68  69
ENDBRANCH  47  61
BRANCH  48  73
ATOM     73  C   UNL A   1      49.424  26.749  26.112  1.00  0.00     0.058 A 
ATOM     74  C   UNL A   1      49.810  26.909  24.774  1.00  0.00     0.135 A 
ATOM     75  C   UNL A   1      50.341  26.160  26.995  1.00  0.00     0.135 A 
ATOM     76  F   UNL A   1      48.961  27.458  23.892  1.00  0.00    -0.206 F 
ATOM     77  C   UNL A   1      51.059  26.493  24.323  1.00  0.00     0.059 A 
ATOM     78  C   UNL A   1      51.602  25.752  26.572  1.00  0.00     0.059 A 
ATOM     79  F   UNL A   1      50.018  25.992  28.286  1.00  0.00    -0.206 F 
ATOM     80  C   UNL A   1      51.948  25.915  25.231  1.00  0.00     0.060 A 
BRANCH  80  81
ATOM     81  S   UNL A   1      53.588  25.427  24.650  1.00  0.00     0.124 S 
ATOM     82  O   UNL A   1      53.579  25.938  23.285  1.00  0.00    -0.237 OA
ATOM     83  O   UNL A   1      54.467  26.121  25.585  1.00  0.00    -0.237 OA
ATOM     84  O   UNL A   1      53.569  23.973  24.782  1.00  0.00    -0.744 OA
ENDBRANCH  80  81
ENDBRANCH  48  73
BRANCH  60  85
ATOM     85  C   UNL A   1      43.318  23.496  26.976  1.00  0.00     0.058 A 
ATOM     86  C   UNL A   1      43.089  23.009  25.680  1.00  0.00     0.135 A 
ATOM     87  C   UNL A   1      43.178  22.604  28.050  1.00  0.00     0.135 A 
ATOM     88  F   UNL A   1      43.204  23.825  24.621  1.00  0.00    -0.206 F 
ATOM     89  C   UNL A   1      42.723  21.684  25.459  1.00  0.00     0.059 A 
ATOM     90  C   UNL A   1      42.832  21.271  27.850  1.00  0.00     0.059 A 
ATOM     91  F   UNL A   1      43.395  23.020  29.308  1.00  0.00    -0.206 F 
ATOM     92  C   UNL A   1      42.597  20.822  26.550  1.00  0.00     0.060 A 
BRANCH  92  93
ATOM     93  S   UNL A   1      42.163  19.095  26.251  1.00  0.00     0.124 S 
ATOM     94  O   UNL A   1      42.418  18.498  27.557  1.00  0.00    -0.237 OA
ATOM     95  O   UNL A   1      40.760  19.184  25.857  1.00  0.00    -0.237 OA
ATOM     96  O   UNL A   1      43.081  18.697  25.187  1.00  0.00    -0.744 OA
ENDBRANCH  92  93
ENDBRANCH  60  85
ENDBRANCH  34  35
ENDBRANCH  27  29
ENDBRANCH  26  27
ENDBRANCH  25  26
ENDBRANCH  24  25
ENDBRANCH  23  24
ENDBRANCH  22  23
ENDBRANCH   1  22
TORSDOF 23
ENDMDL
