MODEL 1
REMARK VINA RESULT:     -11.5      0.000      0.000
REMARK SMILES O=C(OCCOCCOCCOC(=O)c1nccnc1C(=O)Nc1ccc(-n2cncn2)c(Cl)c1)c1ccc(-c2c3nc(c(-c4c(F)cc(S(=O)(=O)[O-])cc4F)c4ccc([nH]4)c(-c4c(F)cc(S(=O)(=O)[O-])cc4F)c4nc(c(-c5c(F)cc(S(=O)(=O)[O-])cc5F)c5ccc2[nH]5)C=C4)C=C3)cc1
REMARK SMILES IDX 7 1 6 2 5 3 4 4 3 5 2 6 1 7 36 8 37 9 101 10 38 11 100 12
REMARK SMILES IDX 39 13 40 14 41 15 94 16 42 17 99 18 93 19 95 20 43 21 98 22
REMARK SMILES IDX 92 23 91 24 44 26 78 27 57 28 77 29 58 30 61 31 76 32 96 33
REMARK SMILES IDX 59 34 60 35 75 37 97 38 62 39 45 40 46 41 55 42 47 43 48 44
REMARK SMILES IDX 54 45 56 46 49 47 50 48 51 49 52 50 53 51 79 52 80 53 89 54
REMARK SMILES IDX 81 55 82 56 88 57 90 58 83 59 84 60 85 61 86 62 87 63 63 64
REMARK SMILES IDX 64 65 73 66 65 67 66 68 72 69 74 70 67 71 68 72 69 73 70 74
REMARK SMILES IDX 71 75 8 76 9 77 10 78 11 79 12 80 13 81 14 82 15 83 16 84
REMARK SMILES IDX 20 85 17 86 19 87 18 88 21 89 22 90 23 91 24 93 25 94 35 95
REMARK SMILES IDX 26 96 33 97 27 98 34 99 28 100 29 101 32 102 30 103 31 104
REMARK H PARENT 95 25 61 36 23 92
REMARK Flexibility Score: inf
ROOT
ATOM      1  C   UNL A   1      39.457  21.714  26.044  1.00  0.00     0.188 C 
ENDROOT
BRANCH   1   2
ATOM      2  O   UNL A   1      40.147  20.476  25.885  1.00  0.00    -0.376 OA
BRANCH   2   3
ATOM      3  C   UNL A   1      41.314  20.179  26.628  1.00  0.00     0.202 C 
BRANCH   3   4
ATOM      4  C   UNL A   1      42.272  19.065  26.196  1.00  0.00     0.261 C 
BRANCH   4   5
ATOM      5  O   UNL A   1      43.032  19.316  25.009  1.00  0.00    -0.460 OA
BRANCH   5   6
ATOM      6  C   UNL A   1      44.199  19.969  24.828  1.00  0.00     0.338 C 
ATOM      7  O   UNL A   1      45.173  19.309  24.466  1.00  0.00    -0.246 OA
BRANCH   6   8
ATOM      8  C   UNL A   1      44.406  21.418  25.122  1.00  0.00     0.060 A 
ATOM      9  C   UNL A   1      45.430  21.952  25.902  1.00  0.00     0.016 A 
ATOM     10  C   UNL A   1      43.467  22.298  24.542  1.00  0.00     0.016 A 
ATOM     11  C   UNL A   1      45.390  23.273  26.284  1.00  0.00     0.010 A 
ATOM     12  C   UNL A   1      43.439  23.635  24.893  1.00  0.00     0.010 A 
ATOM     13  C   UNL A   1      44.337  24.070  25.854  1.00  0.00    -0.014 A 
BRANCH  13  14
ATOM     14  C   UNL A   1      44.163  25.314  26.568  1.00  0.00     0.031 A 
ATOM     15  C   UNL A   1      45.259  26.293  26.403  1.00  0.00     0.074 A 
ATOM     16  C   UNL A   1      43.107  25.465  27.389  1.00  0.00     0.049 A 
ATOM     17  N   UNL A   1      46.153  26.642  27.270  1.00  0.00    -0.248 NA
ATOM     18  C   UNL A   1      45.492  26.819  25.052  1.00  0.00     0.031 C 
ATOM     19  C   UNL A   1      41.889  24.649  27.461  1.00  0.00     0.029 A 
ATOM     20  N   UNL A   1      42.867  26.449  28.290  1.00  0.00    -0.354 N 
ATOM     21  C   UNL A   1      46.920  27.620  26.643  1.00  0.00     0.074 A 
ATOM     22  C   UNL A   1      46.594  27.546  25.243  1.00  0.00     0.031 C 
ATOM     23  C   UNL A   1      40.953  25.313  28.171  1.00  0.00     0.029 A 
ATOM     24  C   UNL A   1      41.548  26.520  28.713  1.00  0.00     0.049 A 
ATOM     25  H   UNL A   1      43.568  27.058  28.617  1.00  0.00     0.167 HD
ATOM     26  C   UNL A   1      47.560  28.580  27.365  1.00  0.00     0.037 A 
ATOM     27  C   UNL A   1      40.982  27.562  29.369  1.00  0.00     0.037 A 
ATOM     28  C   UNL A   1      47.750  28.162  28.734  1.00  0.00     0.049 A 
ATOM     29  C   UNL A   1      42.091  28.324  30.011  1.00  0.00     0.074 A 
ATOM     30  C   UNL A   1      48.401  27.105  29.342  1.00  0.00     0.029 A 
ATOM     31  N   UNL A   1      46.920  28.688  29.693  1.00  0.00    -0.354 N 
ATOM     32  N   UNL A   1      42.828  27.850  30.981  1.00  0.00    -0.248 NA
ATOM     33  C   UNL A   1      42.693  29.416  29.258  1.00  0.00     0.031 C 
ATOM     34  C   UNL A   1      47.585  26.759  30.459  1.00  0.00     0.029 A 
ATOM     35  C   UNL A   1      46.516  27.655  30.500  1.00  0.00     0.049 A 
ATOM     36  H   UNL A   1      46.661  29.634  29.786  1.00  0.00     0.167 HD
ATOM     37  C   UNL A   1      44.117  28.284  30.705  1.00  0.00     0.074 A 
ATOM     38  C   UNL A   1      43.957  29.312  29.679  1.00  0.00     0.031 C 
ATOM     39  C   UNL A   1      45.211  27.579  31.121  1.00  0.00     0.037 A 
BRANCH  26  40
ATOM     40  C   UNL A   1      47.630  30.035  26.944  1.00  0.00     0.058 A 
ATOM     41  C   UNL A   1      48.856  30.723  27.067  1.00  0.00     0.135 A 
ATOM     42  C   UNL A   1      46.498  30.855  26.733  1.00  0.00     0.135 A 
ATOM     43  F   UNL A   1      50.005  30.050  27.241  1.00  0.00    -0.206 F 
ATOM     44  C   UNL A   1      48.931  32.115  27.112  1.00  0.00     0.059 A 
ATOM     45  C   UNL A   1      46.558  32.243  26.726  1.00  0.00     0.059 A 
ATOM     46  F   UNL A   1      45.259  30.371  26.616  1.00  0.00    -0.206 F 
ATOM     47  C   UNL A   1      47.769  32.864  26.973  1.00  0.00     0.060 A 
BRANCH  47  48
ATOM     48  S   UNL A   1      47.827  34.649  27.193  1.00  0.00     0.124 S 
ATOM     49  O   UNL A   1      48.669  34.765  28.378  1.00  0.00    -0.237 OA
ATOM     50  O   UNL A   1      48.423  35.087  25.935  1.00  0.00    -0.237 OA
ATOM     51  O   UNL A   1      46.425  35.010  27.375  1.00  0.00    -0.744 OA
ENDBRANCH  47  48
ENDBRANCH  26  40
BRANCH  27  52
ATOM     52  C   UNL A   1      39.638  28.135  29.094  1.00  0.00     0.058 A 
ATOM     53  C   UNL A   1      38.649  28.184  30.088  1.00  0.00     0.135 A 
ATOM     54  C   UNL A   1      39.377  28.883  27.923  1.00  0.00     0.135 A 
ATOM     55  F   UNL A   1      38.824  27.525  31.244  1.00  0.00    -0.206 F 
ATOM     56  C   UNL A   1      37.489  28.956  29.949  1.00  0.00     0.059 A 
ATOM     57  C   UNL A   1      38.223  29.645  27.756  1.00  0.00     0.059 A 
ATOM     58  F   UNL A   1      40.278  28.969  26.934  1.00  0.00    -0.206 F 
ATOM     59  C   UNL A   1      37.294  29.697  28.784  1.00  0.00     0.060 A 
BRANCH  59  60
ATOM     60  S   UNL A   1      35.884  30.822  28.662  1.00  0.00     0.124 S 
ATOM     61  O   UNL A   1      34.877  29.976  28.031  1.00  0.00    -0.237 OA
ATOM     62  O   UNL A   1      35.642  31.165  30.060  1.00  0.00    -0.237 OA
ATOM     63  O   UNL A   1      36.388  31.913  27.833  1.00  0.00    -0.744 OA
ENDBRANCH  59  60
ENDBRANCH  27  52
BRANCH  39  64
ATOM     64  C   UNL A   1      45.011  26.478  32.130  1.00  0.00     0.058 A 
ATOM     65  C   UNL A   1      44.651  25.159  31.798  1.00  0.00     0.135 A 
ATOM     66  C   UNL A   1      45.358  26.728  33.466  1.00  0.00     0.135 A 
ATOM     67  F   UNL A   1      44.412  24.811  30.526  1.00  0.00    -0.206 F 
ATOM     68  C   UNL A   1      44.601  24.147  32.760  1.00  0.00     0.059 A 
ATOM     69  C   UNL A   1      45.346  25.729  34.434  1.00  0.00     0.059 A 
ATOM     70  F   UNL A   1      45.777  27.952  33.833  1.00  0.00    -0.206 F 
ATOM     71  C   UNL A   1      44.953  24.441  34.076  1.00  0.00     0.060 A 
BRANCH  71  72
ATOM     72  S   UNL A   1      44.974  23.112  35.300  1.00  0.00     0.124 S 
ATOM     73  O   UNL A   1      44.176  22.080  34.647  1.00  0.00    -0.237 OA
ATOM     74  O   UNL A   1      46.400  22.824  35.431  1.00  0.00    -0.237 OA
ATOM     75  O   UNL A   1      44.362  23.723  36.478  1.00  0.00    -0.744 OA
ENDBRANCH  71  72
ENDBRANCH  39  64
ENDBRANCH  13  14
ENDBRANCH   6   8
ENDBRANCH   5   6
ENDBRANCH   4   5
ENDBRANCH   3   4
ENDBRANCH   2   3
ENDBRANCH   1   2
BRANCH   1  76
ATOM     76  C   UNL A   1      37.948  21.804  25.783  1.00  0.00     0.188 C 
BRANCH  76  77
ATOM     77  O   UNL A   1      37.342  23.052  26.110  1.00  0.00    -0.376 OA
BRANCH  77  78
ATOM     78  C   UNL A   1      36.714  23.710  25.027  1.00  0.00     0.202 C 
BRANCH  78  79
ATOM     79  C   UNL A   1      35.390  24.347  25.439  1.00  0.00     0.261 C 
BRANCH  79  80
ATOM     80  O   UNL A   1      34.805  23.654  26.559  1.00  0.00    -0.458 OA
BRANCH  80  81
ATOM     81  C   UNL A   1      34.239  22.464  26.305  1.00  0.00     0.359 C 
ATOM     82  O   UNL A   1      34.567  21.402  26.817  1.00  0.00    -0.244 OA
BRANCH  81  83
ATOM     83  C   UNL A   1      33.199  22.532  25.245  1.00  0.00     0.179 A 
ATOM     84  N   UNL A   1      33.550  21.737  24.175  1.00  0.00    -0.245 NA
ATOM     85  C   UNL A   1      31.956  23.164  25.295  1.00  0.00     0.161 A 
ATOM     86  C   UNL A   1      32.675  21.652  23.152  1.00  0.00     0.132 A 
ATOM     87  N   UNL A   1      31.068  23.013  24.251  1.00  0.00    -0.247 NA
ATOM     88  C   UNL A   1      31.455  22.281  23.189  1.00  0.00     0.132 A 
BRANCH  85  89
ATOM     89  C   UNL A   1      31.420  24.183  26.238  1.00  0.00     0.276 C 
ATOM     90  O   UNL A   1      31.080  23.765  27.356  1.00  0.00    -0.267 OA
ATOM     91  N   UNL A   1      31.353  25.550  26.092  1.00  0.00    -0.321 N 
ATOM     92  H   UNL A   1      31.360  26.027  26.954  1.00  0.00     0.170 HD
BRANCH  91  93
ATOM     93  C   UNL A   1      31.277  26.412  24.996  1.00  0.00     0.043 A 
ATOM     94  C   UNL A   1      30.942  26.012  23.717  1.00  0.00     0.028 A 
ATOM     95  C   UNL A   1      31.350  27.784  25.291  1.00  0.00     0.049 A 
ATOM     96  C   UNL A   1      30.394  26.939  22.831  1.00  0.00     0.032 A 
ATOM     97  C   UNL A   1      30.789  28.723  24.419  1.00  0.00     0.068 A 
ATOM     98  C   UNL A   1      30.242  28.281  23.216  1.00  0.00     0.085 A 
ATOM     99  Cl  UNL A   1      30.833  30.386  24.878  1.00  0.00    -0.082 Cl
BRANCH  98 100
ATOM    100  N   UNL A   1      29.376  29.079  22.441  1.00  0.00    -0.220 N 
ATOM    101  C   UNL A   1      28.095  29.451  22.764  1.00  0.00     0.226 A 
ATOM    102  N   UNL A   1      29.852  29.919  21.490  1.00  0.00    -0.155 NA
ATOM    103  N   UNL A   1      27.764  30.559  22.144  1.00  0.00    -0.223 NA
ATOM    104  C   UNL A   1      28.882  30.832  21.417  1.00  0.00     0.246 A 
ENDBRANCH  98 100
ENDBRANCH  91  93
ENDBRANCH  85  89
ENDBRANCH  81  83
ENDBRANCH  80  81
ENDBRANCH  79  80
ENDBRANCH  78  79
ENDBRANCH  77  78
ENDBRANCH  76  77
ENDBRANCH   1  76
TORSDOF 23
ENDMDL
MODEL 2
REMARK VINA RESULT:     -10.9      1.523      2.085
REMARK SMILES O=C(OCCOCCOCCOC(=O)c1nccnc1C(=O)Nc1ccc(-n2cncn2)c(Cl)c1)c1ccc(-c2c3nc(c(-c4c(F)cc(S(=O)(=O)[O-])cc4F)c4ccc([nH]4)c(-c4c(F)cc(S(=O)(=O)[O-])cc4F)c4nc(c(-c5c(F)cc(S(=O)(=O)[O-])cc5F)c5ccc2[nH]5)C=C4)C=C3)cc1
REMARK SMILES IDX 7 1 6 2 5 3 4 4 3 5 2 6 1 7 36 8 37 9 101 10 38 11 100 12
REMARK SMILES IDX 39 13 40 14 41 15 94 16 42 17 99 18 93 19 95 20 43 21 98 22
REMARK SMILES IDX 92 23 91 24 44 26 78 27 57 28 77 29 58 30 61 31 76 32 96 33
REMARK SMILES IDX 59 34 60 35 75 37 97 38 62 39 45 40 46 41 55 42 47 43 48 44
REMARK SMILES IDX 54 45 56 46 49 47 50 48 51 49 52 50 53 51 79 52 80 53 89 54
REMARK SMILES IDX 81 55 82 56 88 57 90 58 83 59 84 60 85 61 86 62 87 63 63 64
REMARK SMILES IDX 64 65 73 66 65 67 66 68 72 69 74 70 67 71 68 72 69 73 70 74
REMARK SMILES IDX 71 75 8 76 9 77 10 78 11 79 12 80 13 81 14 82 15 83 16 84
REMARK SMILES IDX 20 85 17 86 19 87 18 88 21 89 22 90 23 91 24 93 25 94 35 95
REMARK SMILES IDX 26 96 33 97 27 98 34 99 28 100 29 101 32 102 30 103 31 104
REMARK H PARENT 95 25 61 36 23 92
REMARK Flexibility Score: inf
ROOT
ATOM      1  C   UNL A   1      40.159  21.003  26.125  1.00  0.00     0.188 C 
ENDROOT
BRANCH   1   2
ATOM      2  O   UNL A   1      40.608  19.718  26.545  1.00  0.00    -0.376 OA
BRANCH   2   3
ATOM      3  C   UNL A   1      41.964  19.479  26.873  1.00  0.00     0.202 C 
BRANCH   3   4
ATOM      4  C   UNL A   1      42.880  18.680  25.942  1.00  0.00     0.261 C 
BRANCH   4   5
ATOM      5  O   UNL A   1      44.151  19.272  25.652  1.00  0.00    -0.460 OA
BRANCH   5   6
ATOM      6  C   UNL A   1      44.502  20.221  24.760  1.00  0.00     0.338 C 
ATOM      7  O   UNL A   1      44.737  19.862  23.607  1.00  0.00    -0.246 OA
BRANCH   6   8
ATOM      8  C   UNL A   1      44.708  21.659  25.100  1.00  0.00     0.060 A 
ATOM      9  C   UNL A   1      45.642  22.155  26.009  1.00  0.00     0.016 A 
ATOM     10  C   UNL A   1      43.871  22.573  24.424  1.00  0.00     0.016 A 
ATOM     11  C   UNL A   1      45.590  23.471  26.405  1.00  0.00     0.010 A 
ATOM     12  C   UNL A   1      43.835  23.906  24.790  1.00  0.00     0.010 A 
ATOM     13  C   UNL A   1      44.618  24.303  25.862  1.00  0.00    -0.014 A 
BRANCH  13  14
ATOM     14  C   UNL A   1      44.390  25.542  26.570  1.00  0.00     0.031 A 
ATOM     15  C   UNL A   1      45.440  26.568  26.397  1.00  0.00     0.074 A 
ATOM     16  C   UNL A   1      43.329  25.650  27.391  1.00  0.00     0.049 A 
ATOM     17  N   UNL A   1      46.319  26.962  27.260  1.00  0.00    -0.248 NA
ATOM     18  C   UNL A   1      45.647  27.097  25.043  1.00  0.00     0.031 C 
ATOM     19  C   UNL A   1      42.150  24.780  27.471  1.00  0.00     0.029 A 
ATOM     20  N   UNL A   1      43.047  26.626  28.288  1.00  0.00    -0.354 N 
ATOM     21  C   UNL A   1      47.040  27.969  26.627  1.00  0.00     0.074 A 
ATOM     22  C   UNL A   1      46.716  27.873  25.227  1.00  0.00     0.031 C 
ATOM     23  C   UNL A   1      41.186  25.406  28.178  1.00  0.00     0.029 A 
ATOM     24  C   UNL A   1      41.727  26.641  28.712  1.00  0.00     0.049 A 
ATOM     25  H   UNL A   1      43.720  27.269  28.610  1.00  0.00     0.167 HD
ATOM     26  C   UNL A   1      47.638  28.962  27.342  1.00  0.00     0.037 A 
ATOM     27  C   UNL A   1      41.115  27.660  29.363  1.00  0.00     0.037 A 
ATOM     28  C   UNL A   1      47.849  28.560  28.713  1.00  0.00     0.049 A 
ATOM     29  C   UNL A   1      42.190  28.474  29.999  1.00  0.00     0.074 A 
ATOM     30  C   UNL A   1      48.547  27.537  29.326  1.00  0.00     0.029 A 
ATOM     31  N   UNL A   1      46.997  29.054  29.671  1.00  0.00    -0.354 N 
ATOM     32  N   UNL A   1      42.949  28.039  30.971  1.00  0.00    -0.248 NA
ATOM     33  C   UNL A   1      42.741  29.589  29.240  1.00  0.00     0.031 C 
ATOM     34  C   UNL A   1      47.750  27.161  30.445  1.00  0.00     0.029 A 
ATOM     35  C   UNL A   1      46.641  28.008  30.484  1.00  0.00     0.049 A 
ATOM     36  H   UNL A   1      46.697  29.988  29.759  1.00  0.00     0.167 HD
ATOM     37  C   UNL A   1      44.217  28.530  30.689  1.00  0.00     0.074 A 
ATOM     38  C   UNL A   1      44.009  29.544  29.659  1.00  0.00     0.031 C 
ATOM     39  C   UNL A   1      45.342  27.877  31.108  1.00  0.00     0.037 A 
BRANCH  26  40
ATOM     40  C   UNL A   1      47.641  30.415  26.913  1.00  0.00     0.058 A 
ATOM     41  C   UNL A   1      48.839  31.155  27.019  1.00  0.00     0.135 A 
ATOM     42  C   UNL A   1      46.474  31.186  26.710  1.00  0.00     0.135 A 
ATOM     43  F   UNL A   1      50.017  30.532  27.184  1.00  0.00    -0.206 F 
ATOM     44  C   UNL A   1      48.856  32.550  27.056  1.00  0.00     0.059 A 
ATOM     45  C   UNL A   1      46.475  32.576  26.696  1.00  0.00     0.059 A 
ATOM     46  F   UNL A   1      45.255  30.649  26.609  1.00  0.00    -0.206 F 
ATOM     47  C   UNL A   1      47.661  33.248  26.926  1.00  0.00     0.060 A 
BRANCH  47  48
ATOM     48  S   UNL A   1      47.646  35.036  27.136  1.00  0.00     0.124 S 
ATOM     49  O   UNL A   1      48.606  35.205  28.221  1.00  0.00    -0.237 OA
ATOM     50  O   UNL A   1      48.075  35.496  25.820  1.00  0.00    -0.237 OA
ATOM     51  O   UNL A   1      46.255  35.322  27.471  1.00  0.00    -0.744 OA
ENDBRANCH  47  48
ENDBRANCH  26  40
BRANCH  27  52
ATOM     52  C   UNL A   1      39.747  28.171  29.088  1.00  0.00     0.058 A 
ATOM     53  C   UNL A   1      38.750  28.154  30.075  1.00  0.00     0.135 A 
ATOM     54  C   UNL A   1      39.456  28.923  27.927  1.00  0.00     0.135 A 
ATOM     55  F   UNL A   1      38.950  27.487  31.223  1.00  0.00    -0.206 F 
ATOM     56  C   UNL A   1      37.554  28.871  29.940  1.00  0.00     0.059 A 
ATOM     57  C   UNL A   1      38.268  29.630  27.763  1.00  0.00     0.059 A 
ATOM     58  F   UNL A   1      40.358  29.070  26.946  1.00  0.00    -0.206 F 
ATOM     59  C   UNL A   1      37.330  29.620  28.785  1.00  0.00     0.060 A 
BRANCH  59  60
ATOM     60  S   UNL A   1      35.867  30.676  28.671  1.00  0.00     0.124 S 
ATOM     61  O   UNL A   1      34.855  29.737  28.201  1.00  0.00    -0.237 OA
ATOM     62  O   UNL A   1      35.715  31.142  30.046  1.00  0.00    -0.237 OA
ATOM     63  O   UNL A   1      36.260  31.701  27.708  1.00  0.00    -0.744 OA
ENDBRANCH  59  60
ENDBRANCH  27  52
BRANCH  39  64
ATOM     64  C   UNL A   1      45.193  26.773  32.123  1.00  0.00     0.058 A 
ATOM     65  C   UNL A   1      45.215  26.972  33.515  1.00  0.00     0.135 A 
ATOM     66  C   UNL A   1      44.850  25.492  31.666  1.00  0.00     0.135 A 
ATOM     67  F   UNL A   1      45.425  28.191  34.032  1.00  0.00    -0.206 F 
ATOM     68  C   UNL A   1      44.947  25.934  34.410  1.00  0.00     0.059 A 
ATOM     69  C   UNL A   1      44.549  24.451  32.539  1.00  0.00     0.059 A 
ATOM     70  F   UNL A   1      44.745  25.255  30.347  1.00  0.00    -0.206 F 
ATOM     71  C   UNL A   1      44.612  24.676  33.912  1.00  0.00     0.060 A 
BRANCH  71  72
ATOM     72  S   UNL A   1      44.178  23.357  35.069  1.00  0.00     0.124 S 
ATOM     73  O   UNL A   1      44.567  23.934  36.352  1.00  0.00    -0.237 OA
ATOM     74  O   UNL A   1      42.742  23.203  34.852  1.00  0.00    -0.237 OA
ATOM     75  O   UNL A   1      44.990  22.229  34.620  1.00  0.00    -0.744 OA
ENDBRANCH  71  72
ENDBRANCH  39  64
ENDBRANCH  13  14
ENDBRANCH   6   8
ENDBRANCH   5   6
ENDBRANCH   4   5
ENDBRANCH   3   4
ENDBRANCH   2   3
ENDBRANCH   1   2
BRANCH   1  76
ATOM     76  C   UNL A   1      38.763  21.179  25.512  1.00  0.00     0.188 C 
BRANCH  76  77
ATOM     77  O   UNL A   1      38.061  22.354  25.910  1.00  0.00    -0.376 OA
BRANCH  77  78
ATOM     78  C   UNL A   1      36.652  22.249  25.863  1.00  0.00     0.202 C 
BRANCH  78  79
ATOM     79  C   UNL A   1      35.978  23.619  25.859  1.00  0.00     0.261 C 
BRANCH  79  80
ATOM     80  O   UNL A   1      35.883  24.147  24.522  1.00  0.00    -0.458 OA
BRANCH  80  81
ATOM     81  C   UNL A   1      35.660  23.264  23.537  1.00  0.00     0.359 C 
ATOM     82  O   UNL A   1      36.487  22.899  22.714  1.00  0.00    -0.244 OA
BRANCH  81  83
ATOM     83  C   UNL A   1      34.242  22.817  23.472  1.00  0.00     0.179 A 
ATOM     84  N   UNL A   1      34.042  21.734  24.301  1.00  0.00    -0.245 NA
ATOM     85  C   UNL A   1      33.174  23.427  22.814  1.00  0.00     0.161 A 
ATOM     86  C   UNL A   1      32.788  21.247  24.393  1.00  0.00     0.132 A 
ATOM     87  N   UNL A   1      31.898  22.930  22.971  1.00  0.00    -0.247 NA
ATOM     88  C   UNL A   1      31.733  21.834  23.738  1.00  0.00     0.132 A 
BRANCH  85  89
ATOM     89  C   UNL A   1      33.154  24.478  21.760  1.00  0.00     0.276 C 
ATOM     90  O   UNL A   1      33.305  24.083  20.594  1.00  0.00    -0.267 OA
ATOM     91  N   UNL A   1      32.875  25.821  21.879  1.00  0.00    -0.321 N 
ATOM     92  H   UNL A   1      32.521  26.212  21.047  1.00  0.00     0.170 HD
BRANCH  91  93
ATOM     93  C   UNL A   1      32.983  26.752  22.914  1.00  0.00     0.043 A 
ATOM     94  C   UNL A   1      33.430  28.048  22.747  1.00  0.00     0.028 A 
ATOM     95  C   UNL A   1      32.402  26.376  24.138  1.00  0.00     0.049 A 
ATOM     96  C   UNL A   1      33.036  29.031  23.655  1.00  0.00     0.032 A 
ATOM     97  C   UNL A   1      31.987  27.352  25.049  1.00  0.00     0.068 A 
ATOM     98  C   UNL A   1      32.243  28.692  24.763  1.00  0.00     0.085 A 
ATOM     99  Cl  UNL A   1      31.201  26.833  26.495  1.00  0.00    -0.082 Cl
BRANCH  98 100
ATOM    100  N   UNL A   1      31.589  29.746  25.432  1.00  0.00    -0.220 N 
ATOM    101  C   UNL A   1      31.998  30.362  26.589  1.00  0.00     0.226 A 
ATOM    102  N   UNL A   1      30.713  30.556  24.789  1.00  0.00    -0.155 NA
ATOM    103  N   UNL A   1      31.510  31.578  26.664  1.00  0.00    -0.223 NA
ATOM    104  C   UNL A   1      30.772  31.668  25.523  1.00  0.00     0.246 A 
ENDBRANCH  98 100
ENDBRANCH  91  93
ENDBRANCH  85  89
ENDBRANCH  81  83
ENDBRANCH  80  81
ENDBRANCH  79  80
ENDBRANCH  78  79
ENDBRANCH  77  78
ENDBRANCH  76  77
ENDBRANCH   1  76
TORSDOF 23
ENDMDL
MODEL 3
REMARK VINA RESULT:     -10.3      4.082      6.272
REMARK SMILES O=C(OCCOCCOCCOC(=O)c1nccnc1C(=O)Nc1ccc(-n2cncn2)c(Cl)c1)c1ccc(-c2c3nc(c(-c4c(F)cc(S(=O)(=O)[O-])cc4F)c4ccc([nH]4)c(-c4c(F)cc(S(=O)(=O)[O-])cc4F)c4nc(c(-c5c(F)cc(S(=O)(=O)[O-])cc5F)c5ccc2[nH]5)C=C4)C=C3)cc1
REMARK SMILES IDX 7 1 6 2 5 3 4 4 3 5 2 6 1 7 36 8 37 9 101 10 38 11 100 12
REMARK SMILES IDX 39 13 40 14 41 15 94 16 42 17 99 18 93 19 95 20 43 21 98 22
REMARK SMILES IDX 92 23 91 24 44 26 78 27 57 28 77 29 58 30 61 31 76 32 96 33
REMARK SMILES IDX 59 34 60 35 75 37 97 38 62 39 45 40 46 41 55 42 47 43 48 44
REMARK SMILES IDX 54 45 56 46 49 47 50 48 51 49 52 50 53 51 79 52 80 53 89 54
REMARK SMILES IDX 81 55 82 56 88 57 90 58 83 59 84 60 85 61 86 62 87 63 63 64
REMARK SMILES IDX 64 65 73 66 65 67 66 68 72 69 74 70 67 71 68 72 69 73 70 74
REMARK SMILES IDX 71 75 8 76 9 77 10 78 11 79 12 80 13 81 14 82 15 83 16 84
REMARK SMILES IDX 20 85 17 86 19 87 18 88 21 89 22 90 23 91 24 93 25 94 35 95
REMARK SMILES IDX 26 96 33 97 27 98 34 99 28 100 29 101 32 102 30 103 31 104
REMARK H PARENT 95 25 61 36 23 92
REMARK Flexibility Score: inf
ROOT
ATOM      1  C   UNL A   1      40.279  21.618  26.781  1.00  0.00     0.188 C 
ENDROOT
BRANCH   1   2
ATOM      2  O   UNL A   1      41.424  21.331  25.982  1.00  0.00    -0.376 OA
BRANCH   2   3
ATOM      3  C   UNL A   1      42.557  22.178  25.983  1.00  0.00     0.202 C 
BRANCH   3   4
ATOM      4  C   UNL A   1      42.479  23.616  25.463  1.00  0.00     0.261 C 
BRANCH   4   5
ATOM      5  O   UNL A   1      43.720  24.210  25.068  1.00  0.00    -0.460 OA
BRANCH   5   6
ATOM      6  C   UNL A   1      44.243  25.425  25.335  1.00  0.00     0.338 C 
ATOM      7  O   UNL A   1      45.332  25.700  24.832  1.00  0.00    -0.246 OA
BRANCH   6   8
ATOM      8  C   UNL A   1      43.631  26.418  26.265  1.00  0.00     0.060 A 
ATOM      9  C   UNL A   1      42.439  27.108  26.050  1.00  0.00     0.016 A 
ATOM     10  C   UNL A   1      44.343  26.654  27.461  1.00  0.00     0.016 A 
ATOM     11  C   UNL A   1      42.090  28.157  26.869  1.00  0.00     0.010 A 
ATOM     12  C   UNL A   1      43.981  27.683  28.310  1.00  0.00     0.010 A 
ATOM     13  C   UNL A   1      42.922  28.492  27.931  1.00  0.00    -0.014 A 
BRANCH  13  14
ATOM     14  C   UNL A   1      42.695  29.794  28.515  1.00  0.00     0.031 A 
ATOM     15  C   UNL A   1      43.559  30.876  27.996  1.00  0.00     0.074 A 
ATOM     16  C   UNL A   1      41.817  29.922  29.527  1.00  0.00     0.049 A 
ATOM     17  N   UNL A   1      44.540  31.468  28.595  1.00  0.00    -0.248 NA
ATOM     18  C   UNL A   1      43.424  31.221  26.575  1.00  0.00     0.031 C 
ATOM     19  C   UNL A   1      40.791  28.969  29.965  1.00  0.00     0.029 A 
ATOM     20  N   UNL A   1      41.607  30.988  30.338  1.00  0.00    -0.354 N 
ATOM     21  C   UNL A   1      44.993  32.436  27.703  1.00  0.00     0.074 A 
ATOM     22  C   UNL A   1      44.407  32.109  26.429  1.00  0.00     0.031 C 
ATOM     23  C   UNL A   1      39.921  29.600  30.782  1.00  0.00     0.029 A 
ATOM     24  C   UNL A   1      40.408  30.943  31.033  1.00  0.00     0.049 A 
ATOM     25  H   UNL A   1      42.250  31.729  30.426  1.00  0.00     0.167 HD
ATOM     26  C   UNL A   1      45.600  33.571  28.146  1.00  0.00     0.037 A 
ATOM     27  C   UNL A   1      39.823  31.985  31.672  1.00  0.00     0.037 A 
ATOM     28  C   UNL A   1      46.130  33.392  29.477  1.00  0.00     0.049 A 
ATOM     29  C   UNL A   1      40.899  32.977  31.956  1.00  0.00     0.074 A 
ATOM     30  C   UNL A   1      47.055  32.536  30.044  1.00  0.00     0.029 A 
ATOM     31  N   UNL A   1      45.436  33.939  30.529  1.00  0.00    -0.354 N 
ATOM     32  N   UNL A   1      41.885  32.758  32.787  1.00  0.00    -0.248 NA
ATOM     33  C   UNL A   1      41.148  34.016  30.966  1.00  0.00     0.031 C 
ATOM     34  C   UNL A   1      46.550  32.254  31.347  1.00  0.00     0.029 A 
ATOM     35  C   UNL A   1      45.380  32.993  31.521  1.00  0.00     0.049 A 
ATOM     36  H   UNL A   1      45.051  34.844  30.566  1.00  0.00     0.167 HD
ATOM     37  C   UNL A   1      43.002  33.316  32.180  1.00  0.00     0.074 A 
ATOM     38  C   UNL A   1      42.471  34.148  31.103  1.00  0.00     0.031 C 
ATOM     39  C   UNL A   1      44.259  32.835  32.422  1.00  0.00     0.037 A 
BRANCH  26  40
ATOM     40  C   UNL A   1      45.344  34.942  27.552  1.00  0.00     0.058 A 
ATOM     41  C   UNL A   1      46.444  35.775  27.259  1.00  0.00     0.135 A 
ATOM     42  C   UNL A   1      44.085  35.587  27.558  1.00  0.00     0.135 A 
ATOM     43  F   UNL A   1      47.687  35.272  27.196  1.00  0.00    -0.206 F 
ATOM     44  C   UNL A   1      46.319  37.158  27.117  1.00  0.00     0.059 A 
ATOM     45  C   UNL A   1      43.933  36.955  27.371  1.00  0.00     0.059 A 
ATOM     46  F   UNL A   1      42.943  34.952  27.837  1.00  0.00    -0.206 F 
ATOM     47  C   UNL A   1      45.060  37.740  27.208  1.00  0.00     0.060 A 
BRANCH  47  48
ATOM     48  S   UNL A   1      44.904  39.532  27.191  1.00  0.00     0.124 S 
ATOM     49  O   UNL A   1      43.598  39.712  27.814  1.00  0.00    -0.237 OA
ATOM     50  O   UNL A   1      46.057  39.943  27.983  1.00  0.00    -0.237 OA
ATOM     51  O   UNL A   1      44.978  39.861  25.771  1.00  0.00    -0.744 OA
ENDBRANCH  47  48
ENDBRANCH  26  40
BRANCH  27  52
ATOM     52  C   UNL A   1      38.376  32.324  31.638  1.00  0.00     0.058 A 
ATOM     53  C   UNL A   1      37.584  32.254  32.795  1.00  0.00     0.135 A 
ATOM     54  C   UNL A   1      37.792  32.971  30.526  1.00  0.00     0.135 A 
ATOM     55  F   UNL A   1      38.067  31.680  33.908  1.00  0.00    -0.206 F 
ATOM     56  C   UNL A   1      36.306  32.824  32.859  1.00  0.00     0.059 A 
ATOM     57  C   UNL A   1      36.518  33.531  30.561  1.00  0.00     0.059 A 
ATOM     58  F   UNL A   1      38.477  33.160  29.389  1.00  0.00    -0.206 F 
ATOM     59  C   UNL A   1      35.789  33.476  31.740  1.00  0.00     0.060 A 
BRANCH  59  60
ATOM     60  S   UNL A   1      34.213  34.355  31.863  1.00  0.00     0.124 S 
ATOM     61  O   UNL A   1      33.496  33.550  32.846  1.00  0.00    -0.237 OA
ATOM     62  O   UNL A   1      34.634  35.679  32.308  1.00  0.00    -0.237 OA
ATOM     63  O   UNL A   1      33.683  34.295  30.504  1.00  0.00    -0.744 OA
ENDBRANCH  59  60
ENDBRANCH  27  52
BRANCH  39  64
ATOM     64  C   UNL A   1      44.450  31.881  33.572  1.00  0.00     0.058 A 
ATOM     65  C   UNL A   1      44.694  32.280  34.898  1.00  0.00     0.135 A 
ATOM     66  C   UNL A   1      44.213  30.516  33.349  1.00  0.00     0.135 A 
ATOM     67  F   UNL A   1      44.821  33.577  35.213  1.00  0.00    -0.206 F 
ATOM     68  C   UNL A   1      44.739  31.358  35.947  1.00  0.00     0.059 A 
ATOM     69  C   UNL A   1      44.222  29.584  34.383  1.00  0.00     0.059 A 
ATOM     70  F   UNL A   1      43.907  30.080  32.114  1.00  0.00    -0.206 F 
ATOM     71  C   UNL A   1      44.499  30.011  35.679  1.00  0.00     0.060 A 
BRANCH  71  72
ATOM     72  S   UNL A   1      44.469  28.833  37.050  1.00  0.00     0.124 S 
ATOM     73  O   UNL A   1      43.169  28.193  36.876  1.00  0.00    -0.237 OA
ATOM     74  O   UNL A   1      45.632  27.994  36.772  1.00  0.00    -0.237 OA
ATOM     75  O   UNL A   1      44.594  29.682  38.232  1.00  0.00    -0.744 OA
ENDBRANCH  71  72
ENDBRANCH  39  64
ENDBRANCH  13  14
ENDBRANCH   6   8
ENDBRANCH   5   6
ENDBRANCH   4   5
ENDBRANCH   3   4
ENDBRANCH   2   3
ENDBRANCH   1   2
BRANCH   1  76
ATOM     76  C   UNL A   1      38.964  22.065  26.127  1.00  0.00     0.188 C 
BRANCH  76  77
ATOM     77  O   UNL A   1      38.685  23.461  26.202  1.00  0.00    -0.376 OA
BRANCH  77  78
ATOM     78  C   UNL A   1      37.315  23.799  26.107  1.00  0.00     0.202 C 
BRANCH  78  79
ATOM     79  C   UNL A   1      36.687  23.274  24.818  1.00  0.00     0.261 C 
BRANCH  79  80
ATOM     80  O   UNL A   1      35.479  23.990  24.499  1.00  0.00    -0.458 OA
BRANCH  80  81
ATOM     81  C   UNL A   1      34.899  23.706  23.323  1.00  0.00     0.359 C 
ATOM     82  O   UNL A   1      35.322  22.904  22.502  1.00  0.00    -0.244 OA
BRANCH  81  83
ATOM     83  C   UNL A   1      33.701  24.545  23.052  1.00  0.00     0.179 A 
ATOM     84  N   UNL A   1      33.930  25.379  21.979  1.00  0.00    -0.245 NA
ATOM     85  C   UNL A   1      32.441  24.467  23.647  1.00  0.00     0.161 A 
ATOM     86  C   UNL A   1      32.912  26.165  21.576  1.00  0.00     0.132 A 
ATOM     87  N   UNL A   1      31.411  25.252  23.175  1.00  0.00    -0.247 NA
ATOM     88  C   UNL A   1      31.672  26.104  22.165  1.00  0.00     0.132 A 
BRANCH  85  89
ATOM     89  C   UNL A   1      31.994  23.786  24.892  1.00  0.00     0.276 C 
ATOM     90  O   UNL A   1      31.420  24.501  25.728  1.00  0.00    -0.267 OA
ATOM     91  N   UNL A   1      32.021  22.446  25.206  1.00  0.00    -0.321 N 
ATOM     92  H   UNL A   1      31.329  22.193  25.859  1.00  0.00     0.170 HD
BRANCH  91  93
ATOM     93  C   UNL A   1      32.812  21.366  24.808  1.00  0.00     0.043 A 
ATOM     94  C   UNL A   1      33.865  20.862  25.547  1.00  0.00     0.028 A 
ATOM     95  C   UNL A   1      32.352  20.651  23.688  1.00  0.00     0.049 A 
ATOM     96  C   UNL A   1      34.254  19.535  25.367  1.00  0.00     0.032 A 
ATOM     97  C   UNL A   1      32.721  19.314  23.506  1.00  0.00     0.068 A 
ATOM     98  C   UNL A   1      33.621  18.737  24.400  1.00  0.00     0.085 A 
ATOM     99  Cl  UNL A   1      32.055  18.463  22.161  1.00  0.00    -0.082 Cl
BRANCH  98 100
ATOM    100  N   UNL A   1      33.796  17.343  24.502  1.00  0.00    -0.220 N 
ATOM    101  C   UNL A   1      34.987  16.672  24.629  1.00  0.00     0.226 A 
ATOM    102  N   UNL A   1      32.789  16.532  24.913  1.00  0.00    -0.155 NA
ATOM    103  N   UNL A   1      34.805  15.508  25.206  1.00  0.00    -0.223 NA
ATOM    104  C   UNL A   1      33.457  15.487  25.404  1.00  0.00     0.246 A 
ENDBRANCH  98 100
ENDBRANCH  91  93
ENDBRANCH  85  89
ENDBRANCH  81  83
ENDBRANCH  80  81
ENDBRANCH  79  80
ENDBRANCH  78  79
ENDBRANCH  77  78
ENDBRANCH  76  77
ENDBRANCH   1  76
TORSDOF 23
ENDMDL
