MODEL 1
REMARK VINA RESULT:     -10.3      0.000      0.000
REMARK SMILES Cc1ccc(S(=O)(=O)n2cc(C(=O)C(=O)NCC(=O)NCC(=O)OCCOCCOCCOC(=O)c3ccc(-c4c5nc(c(-c6c(F)cc(S(=O)(=O)[O-])cc6F)c6ccc([nH]6)c(-c6c(F)cc(S(=O)(=O)[O-])cc6F)c6nc(c(-c7c(F)cc(S(=O)(=O)[O-])cc7F)c7ccc4[nH]7)C=C6)C=C5)cc3)c3ccccc32)cc1
REMARK SMILES IDX 26 1 25 2 24 3 22 4 23 5 21 6 20 7 18 8 19 9 17 11 16 12
REMARK SMILES IDX 14 13 15 14 12 16 13 17 11 18 9 19 10 20 107 21 102 22
REMARK SMILES IDX 106 23 103 24 105 25 104 26 6 27 7 28 8 29 5 30 1 31 2 32
REMARK SMILES IDX 3 33 109 34 4 35 108 36 27 37 28 38 29 39 30 40 31 41 32 42
REMARK SMILES IDX 33 43 34 44 35 45 36 46 37 47 101 48 38 49 100 50 39 51
REMARK SMILES IDX 40 52 41 53 94 54 42 55 99 56 93 57 95 58 43 59 98 60 92 61
REMARK SMILES IDX 91 62 44 64 78 65 57 66 77 67 58 68 61 69 76 70 96 71 59 72
REMARK SMILES IDX 60 73 75 75 97 76 62 77 45 78 46 79 55 80 47 81 48 82 54 83
REMARK SMILES IDX 56 84 49 85 50 86 51 87 52 88 53 89 79 90 80 91 89 92 81 93
REMARK SMILES IDX 82 94 88 95 90 96 83 97 84 98 85 99 86 100 87 101 63 102
REMARK SMILES IDX 64 103 73 104 65 105 66 106 72 107 74 108 67 109 68 110
REMARK SMILES IDX 69 111 70 112 71 113
REMARK H PARENT 20 10 16 15 95 63 61 74
REMARK Flexibility Score: inf
ROOT
ATOM      1  C   UNL A   1      39.191  28.121  30.511  1.00  0.00     0.202 C 
ENDROOT
BRANCH   1   2
ATOM      2  C   UNL A   1      39.113  27.504  29.109  1.00  0.00     0.261 C 
BRANCH   2   3
ATOM      3  O   UNL A   1      40.587  26.879  28.420  1.00  0.00    -0.462 OA
BRANCH   3   4
ATOM      4  C   UNL A   1      41.454  26.012  27.599  1.00  0.00     0.325 C 
ATOM      5  O   UNL A   1      42.027  26.646  26.729  1.00  0.00    -0.250 OA
BRANCH   4   6
ATOM      6  C   UNL A   1      41.881  24.272  27.645  1.00  0.00     0.238 C 
BRANCH   6   7
ATOM      7  N   UNL A   1      41.880  23.327  26.359  1.00  0.00    -0.344 N 
ATOM      8  C   UNL A   1      41.467  22.040  26.047  1.00  0.00     0.239 C 
ATOM      9  O   UNL A   1      42.280  21.273  25.513  1.00  0.00    -0.273 OA
ATOM     10  H   UNL A   1      42.280  23.776  25.579  1.00  0.00     0.164 HD
BRANCH   8  11
ATOM     11  C   UNL A   1      40.010  21.584  26.087  1.00  0.00     0.216 C 
BRANCH  11  12
ATOM     12  N   UNL A   1      39.160  22.711  26.289  1.00  0.00    -0.340 N 
ATOM     13  C   UNL A   1      37.860  22.987  26.046  1.00  0.00     0.292 C 
ATOM     14  O   UNL A   1      37.379  23.997  26.537  1.00  0.00    -0.265 OA
ATOM     15  H   UNL A   1      39.633  23.468  26.706  1.00  0.00     0.164 HD
BRANCH  13  16
ATOM     16  C   UNL A   1      37.070  22.165  25.054  1.00  0.00     0.252 C 
ATOM     17  O   UNL A   1      37.627  21.164  24.605  1.00  0.00    -0.283 OA
BRANCH  16  18
ATOM     18  C   UNL A   1      35.749  22.629  24.583  1.00  0.00     0.054 A 
ATOM     19  N   UNL A   1      33.855  24.083  23.655  1.00  0.00    -0.240 N 
ATOM     20  C   UNL A   1      35.375  23.911  24.252  1.00  0.00     0.117 A 
ATOM     21  C   UNL A   1      33.492  22.472  23.951  1.00  0.00     0.065 A 
ATOM     22  C   UNL A   1      34.641  21.785  24.424  1.00  0.00     0.012 A 
ATOM     23  C   UNL A   1      32.297  21.689  23.899  1.00  0.00     0.028 A 
ATOM     24  C   UNL A   1      34.583  20.391  24.706  1.00  0.00     0.011 A 
ATOM     25  C   UNL A   1      32.266  20.342  24.284  1.00  0.00     0.002 A 
ATOM     26  C   UNL A   1      33.403  19.684  24.674  1.00  0.00     0.001 A 
BRANCH  19  27
ATOM     27  S   UNL A   1      33.014  25.710  21.955  1.00  0.00     0.268 S 
ATOM     28  O   UNL A   1      31.861  25.357  21.122  1.00  0.00    -0.201 OA
ATOM     29  O   UNL A   1      33.884  26.812  21.524  1.00  0.00    -0.201 OA
BRANCH  27  30
ATOM     30  C   UNL A   1      32.561  26.065  23.337  1.00  0.00     0.088 A 
ATOM     31  C   UNL A   1      31.817  28.081  27.660  1.00  0.00     0.044 C 
ATOM     32  C   UNL A   1      32.038  27.170  26.480  1.00  0.00    -0.051 A 
ATOM     33  C   UNL A   1      33.323  27.733  25.513  1.00  0.00     0.005 A 
ATOM     34  C   UNL A   1      30.877  25.971  26.044  1.00  0.00     0.005 A 
ATOM     35  C   UNL A   1      33.627  27.259  24.022  1.00  0.00     0.022 A 
ATOM     36  C   UNL A   1      30.990  25.295  24.425  1.00  0.00     0.022 A 
ENDBRANCH  27  30
ENDBRANCH  19  27
ENDBRANCH  16  18
ENDBRANCH  13  16
ENDBRANCH  11  12
ENDBRANCH   8  11
ENDBRANCH   6   7
ENDBRANCH   4   6
ENDBRANCH   3   4
ENDBRANCH   2   3
ENDBRANCH   1   2
BRANCH   1  37
ATOM     37  O   UNL A   1      40.201  29.035  30.869  1.00  0.00    -0.376 OA
BRANCH  37  38
ATOM     38  C   UNL A   1      40.114  29.595  32.166  1.00  0.00     0.188 C 
BRANCH  38  39
ATOM     39  C   UNL A   1      40.986  30.827  32.427  1.00  0.00     0.188 C 
BRANCH  39  40
ATOM     40  O   UNL A   1      40.614  32.019  31.736  1.00  0.00    -0.376 OA
BRANCH  40  41
ATOM     41  C   UNL A   1      41.491  32.824  30.992  1.00  0.00     0.202 C 
BRANCH  41  42
ATOM     42  C   UNL A   1      42.679  32.021  30.622  1.00  0.00     0.261 C 
BRANCH  42  43
ATOM     43  O   UNL A   1      43.614  32.687  29.706  1.00  0.00    -0.460 OA
BRANCH  43  44
ATOM     44  C   UNL A   1      44.530  32.225  28.800  1.00  0.00     0.338 C 
ATOM     45  O   UNL A   1      44.226  31.264  28.095  1.00  0.00    -0.246 OA
BRANCH  44  46
ATOM     46  C   UNL A   1      45.875  32.865  28.577  1.00  0.00     0.060 A 
ATOM     47  C   UNL A   1      46.089  33.425  27.352  1.00  0.00     0.016 A 
ATOM     48  C   UNL A   1      46.999  32.786  29.389  1.00  0.00     0.016 A 
ATOM     49  C   UNL A   1      47.402  33.439  26.844  1.00  0.00     0.010 A 
ATOM     50  C   UNL A   1      48.310  32.701  28.810  1.00  0.00     0.010 A 
ATOM     51  C   UNL A   1      48.568  32.845  27.427  1.00  0.00    -0.014 A 
BRANCH  51  52
ATOM     52  C   UNL A   1      50.088  32.104  26.769  1.00  0.00     0.031 A 
ATOM     53  C   UNL A   1      50.949  33.295  26.621  1.00  0.00     0.074 A 
ATOM     54  C   UNL A   1      50.689  30.693  26.589  1.00  0.00     0.049 A 
ATOM     55  N   UNL A   1      52.202  33.387  26.826  1.00  0.00    -0.248 NA
ATOM     56  C   UNL A   1      50.329  34.587  26.253  1.00  0.00     0.031 C 
ATOM     57  C   UNL A   1      52.085  30.103  26.797  1.00  0.00     0.029 A 
ATOM     58  N   UNL A   1      50.068  29.370  26.721  1.00  0.00    -0.354 N 
ATOM     59  C   UNL A   1      52.553  34.523  26.118  1.00  0.00     0.074 A 
ATOM     60  C   UNL A   1      51.378  35.330  25.958  1.00  0.00     0.031 C 
ATOM     61  C   UNL A   1      52.126  28.726  26.778  1.00  0.00     0.029 A 
ATOM     62  C   UNL A   1      50.785  28.195  26.646  1.00  0.00     0.049 A 
ATOM     63  H   UNL A   1      49.097  29.320  26.871  1.00  0.00     0.167 HD
ATOM     64  C   UNL A   1      53.572  34.449  25.234  1.00  0.00     0.037 A 
ATOM     65  C   UNL A   1      50.249  27.144  25.944  1.00  0.00     0.037 A 
ATOM     66  C   UNL A   1      53.978  33.054  25.069  1.00  0.00     0.049 A 
ATOM     67  C   UNL A   1      50.781  27.462  24.583  1.00  0.00     0.074 A 
ATOM     68  C   UNL A   1      54.691  32.162  25.846  1.00  0.00     0.029 A 
ATOM     69  N   UNL A   1      53.219  32.267  24.218  1.00  0.00    -0.354 N 
ATOM     70  N   UNL A   1      50.910  28.701  24.171  1.00  0.00    -0.248 NA
ATOM     71  C   UNL A   1      51.679  26.521  23.942  1.00  0.00     0.031 C 
ATOM     72  C   UNL A   1      54.454  30.844  25.333  1.00  0.00     0.029 A 
ATOM     73  C   UNL A   1      53.466  30.909  24.354  1.00  0.00     0.049 A 
ATOM     74  H   UNL A   1      52.568  32.637  23.579  1.00  0.00     0.167 HD
ATOM     75  C   UNL A   1      52.244  28.784  23.832  1.00  0.00     0.074 A 
ATOM     76  C   UNL A   1      52.603  27.393  23.518  1.00  0.00     0.031 C 
ATOM     77  C   UNL A   1      52.768  29.978  23.474  1.00  0.00     0.037 A 
BRANCH  64  78
ATOM     78  C   UNL A   1      54.288  35.678  24.768  1.00  0.00     0.058 A 
ATOM     79  C   UNL A   1      54.116  36.006  23.417  1.00  0.00     0.135 A 
ATOM     80  C   UNL A   1      55.304  36.401  25.443  1.00  0.00     0.135 A 
ATOM     81  F   UNL A   1      53.120  35.475  22.695  1.00  0.00    -0.206 F 
ATOM     82  C   UNL A   1      55.013  36.817  22.740  1.00  0.00     0.059 A 
ATOM     83  C   UNL A   1      56.208  37.222  24.788  1.00  0.00     0.059 A 
ATOM     84  F   UNL A   1      55.502  36.356  26.761  1.00  0.00    -0.206 F 
ATOM     85  C   UNL A   1      56.085  37.376  23.423  1.00  0.00     0.060 A 
BRANCH  85  86
ATOM     86  S   UNL A   1      57.336  38.257  22.494  1.00  0.00     0.124 S 
ATOM     87  O   UNL A   1      57.176  39.616  23.003  1.00  0.00    -0.237 OA
ATOM     88  O   UNL A   1      58.552  37.559  22.895  1.00  0.00    -0.237 OA
ATOM     89  O   UNL A   1      56.930  38.063  21.104  1.00  0.00    -0.744 OA
ENDBRANCH  85  86
ENDBRANCH  64  78
BRANCH  65  90
ATOM     90  C   UNL A   1      48.806  26.793  26.223  1.00  0.00     0.058 A 
ATOM     91  C   UNL A   1      47.887  26.832  25.151  1.00  0.00     0.135 A 
ATOM     92  C   UNL A   1      48.371  26.137  27.382  1.00  0.00     0.135 A 
ATOM     93  F   UNL A   1      48.175  27.551  24.051  1.00  0.00    -0.206 F 
ATOM     94  C   UNL A   1      46.741  26.023  25.119  1.00  0.00     0.059 A 
ATOM     95  C   UNL A   1      47.201  25.352  27.395  1.00  0.00     0.059 A 
ATOM     96  F   UNL A   1      49.175  26.072  28.453  1.00  0.00    -0.206 F 
ATOM     97  C   UNL A   1      46.460  25.202  26.214  1.00  0.00     0.060 A 
BRANCH  97  98
ATOM     98  S   UNL A   1      45.501  23.633  25.930  1.00  0.00     0.124 S 
ATOM     99  O   UNL A   1      44.488  24.078  24.982  1.00  0.00    -0.237 OA
ATOM    100  O   UNL A   1      46.517  22.735  25.380  1.00  0.00    -0.237 OA
ATOM    101  O   UNL A   1      44.971  23.238  27.233  1.00  0.00    -0.744 OA
ENDBRANCH  97  98
ENDBRANCH  65  90
BRANCH  77 102
ATOM    102  C   UNL A   1      53.017  30.041  22.041  1.00  0.00     0.058 A 
ATOM    103  C   UNL A   1      51.545  30.077  20.715  1.00  0.00     0.135 A 
ATOM    104  C   UNL A   1      54.802  29.744  21.252  1.00  0.00     0.135 A 
ATOM    105  F   UNL A   1      50.247  30.201  21.010  1.00  0.00    -0.206 F 
ATOM    106  C   UNL A   1      52.110  29.741  18.875  1.00  0.00     0.059 A 
ATOM    107  C   UNL A   1      55.404  29.322  19.443  1.00  0.00     0.059 A 
ATOM    108  F   UNL A   1      55.838  29.795  22.116  1.00  0.00    -0.206 F 
ATOM    109  C   UNL A   1      53.820  29.302  18.036  1.00  0.00     0.060 A 
BRANCH 109 110
ATOM    110  S   UNL A   1      53.412  29.304  16.159  1.00  0.00     0.124 S 
ATOM    111  O   UNL A   1      52.361  30.312  16.066  1.00  0.00    -0.237 OA
ATOM    112  O   UNL A   1      54.694  29.721  15.588  1.00  0.00    -0.237 OA
ATOM    113  O   UNL A   1      53.062  27.949  15.747  1.00  0.00    -0.744 OA
ENDBRANCH 109 110
ENDBRANCH  77 102
ENDBRANCH  51  52
ENDBRANCH  44  46
ENDBRANCH  43  44
ENDBRANCH  42  43
ENDBRANCH  41  42
ENDBRANCH  40  41
ENDBRANCH  39  40
ENDBRANCH  38  39
ENDBRANCH  37  38
ENDBRANCH   1  37
TORSDOF 27
ENDMDL
MODEL 2
REMARK VINA RESULT:      -9.9      8.387     13.802
REMARK SMILES Cc1ccc(S(=O)(=O)n2cc(C(=O)C(=O)NCC(=O)NCC(=O)OCCOCCOCCOC(=O)c3ccc(-c4c5nc(c(-c6c(F)cc(S(=O)(=O)[O-])cc6F)c6ccc([nH]6)c(-c6c(F)cc(S(=O)(=O)[O-])cc6F)c6nc(c(-c7c(F)cc(S(=O)(=O)[O-])cc7F)c7ccc4[nH]7)C=C6)C=C5)cc3)c3ccccc32)cc1
REMARK SMILES IDX 26 1 25 2 24 3 22 4 23 5 21 6 20 7 18 8 19 9 17 11 16 12
REMARK SMILES IDX 14 13 15 14 12 16 13 17 11 18 9 19 10 20 107 21 102 22
REMARK SMILES IDX 106 23 103 24 105 25 104 26 6 27 7 28 8 29 5 30 1 31 2 32
REMARK SMILES IDX 3 33 109 34 4 35 108 36 27 37 28 38 29 39 30 40 31 41 32 42
REMARK SMILES IDX 33 43 34 44 35 45 36 46 37 47 101 48 38 49 100 50 39 51
REMARK SMILES IDX 40 52 41 53 94 54 42 55 99 56 93 57 95 58 43 59 98 60 92 61
REMARK SMILES IDX 91 62 44 64 78 65 57 66 77 67 58 68 61 69 76 70 96 71 59 72
REMARK SMILES IDX 60 73 75 75 97 76 62 77 45 78 46 79 55 80 47 81 48 82 54 83
REMARK SMILES IDX 56 84 49 85 50 86 51 87 52 88 53 89 79 90 80 91 89 92 81 93
REMARK SMILES IDX 82 94 88 95 90 96 83 97 84 98 85 99 86 100 87 101 63 102
REMARK SMILES IDX 64 103 73 104 65 105 66 106 72 107 74 108 67 109 68 110
REMARK SMILES IDX 69 111 70 112 71 113
REMARK H PARENT 20 10 16 15 95 63 61 74
REMARK Flexibility Score: inf
ROOT
ATOM      1  C   UNL A   1      35.733  34.280  32.708  1.00  0.00     0.202 C 
ENDROOT
BRANCH   1   2
ATOM      2  C   UNL A   1      36.746  33.153  32.941  1.00  0.00     0.261 C 
BRANCH   2   3
ATOM      3  O   UNL A   1      37.284  32.879  34.576  1.00  0.00    -0.462 OA
BRANCH   3   4
ATOM      4  C   UNL A   1      38.105  32.332  35.674  1.00  0.00     0.325 C 
ATOM      5  O   UNL A   1      37.554  31.395  36.224  1.00  0.00    -0.250 OA
BRANCH   4   6
ATOM      6  C   UNL A   1      39.735  32.709  36.317  1.00  0.00     0.238 C 
BRANCH   6   7
ATOM      7  N   UNL A   1      39.997  33.721  37.524  1.00  0.00    -0.344 N 
ATOM      8  C   UNL A   1      39.314  34.157  38.649  1.00  0.00     0.239 C 
ATOM      9  O   UNL A   1      39.184  35.377  38.824  1.00  0.00    -0.273 OA
ATOM     10  H   UNL A   1      40.880  34.151  37.449  1.00  0.00     0.164 HD
BRANCH   8  11
ATOM     11  C   UNL A   1      38.929  33.246  39.812  1.00  0.00     0.216 C 
BRANCH  11  12
ATOM     12  N   UNL A   1      37.946  32.307  39.382  1.00  0.00    -0.340 N 
ATOM     13  C   UNL A   1      37.140  31.413  39.996  1.00  0.00     0.292 C 
ATOM     14  O   UNL A   1      36.245  30.895  39.345  1.00  0.00    -0.265 OA
ATOM     15  H   UNL A   1      37.827  32.310  38.404  1.00  0.00     0.164 HD
BRANCH  13  16
ATOM     16  C   UNL A   1      37.443  30.938  41.398  1.00  0.00     0.252 C 
ATOM     17  O   UNL A   1      38.381  30.152  41.520  1.00  0.00    -0.283 OA
BRANCH  16  18
ATOM     18  C   UNL A   1      36.568  31.327  42.524  1.00  0.00     0.054 A 
ATOM     19  N   UNL A   1      35.565  31.584  44.867  1.00  0.00    -0.240 N 
ATOM     20  C   UNL A   1      36.610  30.870  43.820  1.00  0.00     0.117 A 
ATOM     21  C   UNL A   1      34.833  32.456  43.635  1.00  0.00     0.065 A 
ATOM     22  C   UNL A   1      35.516  32.246  42.407  1.00  0.00     0.012 A 
ATOM     23  C   UNL A   1      33.666  33.278  43.546  1.00  0.00     0.028 A 
ATOM     24  C   UNL A   1      35.096  32.918  41.224  1.00  0.00     0.011 A 
ATOM     25  C   UNL A   1      33.234  33.837  42.336  1.00  0.00     0.002 A 
ATOM     26  C   UNL A   1      33.947  33.674  41.178  1.00  0.00     0.001 A 
BRANCH  19  27
ATOM     27  S   UNL A   1      35.859  32.043  47.306  1.00  0.00     0.268 S 
ATOM     28  O   UNL A   1      35.134  33.155  47.926  1.00  0.00    -0.201 OA
ATOM     29  O   UNL A   1      37.020  31.480  48.007  1.00  0.00    -0.201 OA
BRANCH  27  30
ATOM     30  C   UNL A   1      34.931  30.894  47.064  1.00  0.00     0.088 A 
ATOM     31  C   UNL A   1      32.833  26.569  46.614  1.00  0.00     0.044 C 
ATOM     32  C   UNL A   1      33.329  27.986  46.475  1.00  0.00    -0.051 A 
ATOM     33  C   UNL A   1      35.010  28.068  46.739  1.00  0.00     0.005 A 
ATOM     34  C   UNL A   1      32.234  29.317  46.427  1.00  0.00     0.005 A 
ATOM     35  C   UNL A   1      35.831  29.404  47.026  1.00  0.00     0.022 A 
ATOM     36  C   UNL A   1      32.898  30.916  46.732  1.00  0.00     0.022 A 
ENDBRANCH  27  30
ENDBRANCH  19  27
ENDBRANCH  16  18
ENDBRANCH  13  16
ENDBRANCH  11  12
ENDBRANCH   8  11
ENDBRANCH   6   7
ENDBRANCH   4   6
ENDBRANCH   3   4
ENDBRANCH   2   3
ENDBRANCH   1   2
BRANCH   1  37
ATOM     37  O   UNL A   1      34.543  34.077  31.981  1.00  0.00    -0.376 OA
BRANCH  37  38
ATOM     38  C   UNL A   1      34.509  32.947  31.130  1.00  0.00     0.188 C 
BRANCH  38  39
ATOM     39  C   UNL A   1      34.967  33.178  29.686  1.00  0.00     0.188 C 
BRANCH  39  40
ATOM     40  O   UNL A   1      36.253  32.662  29.344  1.00  0.00    -0.376 OA
BRANCH  40  41
ATOM     41  C   UNL A   1      36.564  32.013  28.139  1.00  0.00     0.202 C 
BRANCH  41  42
ATOM     42  C   UNL A   1      35.559  30.953  27.894  1.00  0.00     0.261 C 
BRANCH  42  43
ATOM     43  O   UNL A   1      35.627  29.812  28.814  1.00  0.00    -0.460 OA
BRANCH  43  44
ATOM     44  C   UNL A   1      36.529  29.431  29.771  1.00  0.00     0.338 C 
ATOM     45  O   UNL A   1      36.240  29.605  30.953  1.00  0.00    -0.246 OA
BRANCH  44  46
ATOM     46  C   UNL A   1      37.837  28.754  29.458  1.00  0.00     0.060 A 
ATOM     47  C   UNL A   1      38.388  27.999  30.452  1.00  0.00     0.016 A 
ATOM     48  C   UNL A   1      38.658  28.958  28.356  1.00  0.00     0.016 A 
ATOM     49  C   UNL A   1      39.791  27.893  30.511  1.00  0.00     0.010 A 
ATOM     50  C   UNL A   1      40.087  28.939  28.498  1.00  0.00     0.010 A 
ATOM     51  C   UNL A   1      40.751  28.568  29.690  1.00  0.00    -0.014 A 
BRANCH  51  52
ATOM     52  C   UNL A   1      42.440  29.180  29.941  1.00  0.00     0.031 A 
ATOM     53  C   UNL A   1      42.196  30.360  30.794  1.00  0.00     0.074 A 
ATOM     54  C   UNL A   1      43.884  28.684  29.710  1.00  0.00     0.049 A 
ATOM     55  N   UNL A   1      42.905  30.789  31.762  1.00  0.00    -0.248 NA
ATOM     56  C   UNL A   1      40.960  31.148  30.594  1.00  0.00     0.031 C 
ATOM     57  C   UNL A   1      45.171  28.751  30.534  1.00  0.00     0.029 A 
ATOM     58  N   UNL A   1      44.384  27.531  28.951  1.00  0.00    -0.354 N 
ATOM     59  C   UNL A   1      42.502  32.107  31.886  1.00  0.00     0.074 A 
ATOM     60  C   UNL A   1      41.194  32.230  31.310  1.00  0.00     0.031 C 
ATOM     61  C   UNL A   1      46.182  27.938  30.071  1.00  0.00     0.029 A 
ATOM     62  C   UNL A   1      45.710  27.156  28.947  1.00  0.00     0.049 A 
ATOM     63  H   UNL A   1      43.744  27.003  28.422  1.00  0.00     0.167 HD
ATOM     64  C   UNL A   1      43.443  33.076  31.894  1.00  0.00     0.037 A 
ATOM     65  C   UNL A   1      46.279  26.770  27.758  1.00  0.00     0.037 A 
ATOM     66  C   UNL A   1      44.743  32.499  31.555  1.00  0.00     0.049 A 
ATOM     67  C   UNL A   1      46.738  28.104  27.262  1.00  0.00     0.074 A 
ATOM     68  C   UNL A   1      45.655  31.718  32.237  1.00  0.00     0.029 A 
ATOM     69  N   UNL A   1      45.014  32.285  30.213  1.00  0.00    -0.354 N 
ATOM     70  N   UNL A   1      46.044  29.193  27.487  1.00  0.00    -0.248 NA
ATOM     71  C   UNL A   1      48.157  28.329  27.062  1.00  0.00     0.031 C 
ATOM     72  C   UNL A   1      46.564  31.162  31.276  1.00  0.00     0.029 A 
ATOM     73  C   UNL A   1      46.109  31.463  29.994  1.00  0.00     0.049 A 
ATOM     74  H   UNL A   1      44.479  32.679  29.486  1.00  0.00     0.167 HD
ATOM     75  C   UNL A   1      46.946  30.018  28.125  1.00  0.00     0.074 A 
ATOM     76  C   UNL A   1      48.249  29.525  27.655  1.00  0.00     0.031 C 
ATOM     77  C   UNL A   1      46.529  31.205  28.622  1.00  0.00     0.037 A 
BRANCH  64  78
ATOM     78  C   UNL A   1      43.154  34.436  32.448  1.00  0.00     0.058 A 
ATOM     79  C   UNL A   1      43.388  35.509  31.579  1.00  0.00     0.135 A 
ATOM     80  C   UNL A   1      42.919  34.791  33.801  1.00  0.00     0.135 A 
ATOM     81  F   UNL A   1      43.515  35.318  30.259  1.00  0.00    -0.206 F 
ATOM     82  C   UNL A   1      43.588  36.799  32.045  1.00  0.00     0.059 A 
ATOM     83  C   UNL A   1      43.108  36.075  34.288  1.00  0.00     0.059 A 
ATOM     84  F   UNL A   1      42.512  33.934  34.738  1.00  0.00    -0.206 F 
ATOM     85  C   UNL A   1      43.499  37.060  33.406  1.00  0.00     0.060 A 
BRANCH  85  86
ATOM     86  S   UNL A   1      43.952  38.685  34.004  1.00  0.00     0.124 S 
ATOM     87  O   UNL A   1      42.920  39.519  33.395  1.00  0.00    -0.237 OA
ATOM     88  O   UNL A   1      43.864  38.505  35.449  1.00  0.00    -0.237 OA
ATOM     89  O   UNL A   1      45.300  38.881  33.476  1.00  0.00    -0.744 OA
ENDBRANCH  85  86
ENDBRANCH  64  78
BRANCH  65  90
ATOM     90  C   UNL A   1      45.510  25.777  26.916  1.00  0.00     0.058 A 
ATOM     91  C   UNL A   1      45.763  24.401  27.105  1.00  0.00     0.135 A 
ATOM     92  C   UNL A   1      44.355  26.098  26.191  1.00  0.00     0.135 A 
ATOM     93  F   UNL A   1      46.914  24.006  27.677  1.00  0.00    -0.206 F 
ATOM     94  C   UNL A   1      44.789  23.422  26.856  1.00  0.00     0.059 A 
ATOM     95  C   UNL A   1      43.378  25.129  25.887  1.00  0.00     0.059 A 
ATOM     96  F   UNL A   1      44.052  27.382  25.951  1.00  0.00    -0.206 F 
ATOM     97  C   UNL A   1      43.551  23.813  26.339  1.00  0.00     0.060 A 
BRANCH  97  98
ATOM     98  S   UNL A   1      42.055  22.775  26.724  1.00  0.00     0.124 S 
ATOM     99  O   UNL A   1      40.999  23.779  26.736  1.00  0.00    -0.237 OA
ATOM    100  O   UNL A   1      42.015  21.843  25.596  1.00  0.00    -0.237 OA
ATOM    101  O   UNL A   1      42.311  22.157  28.024  1.00  0.00    -0.744 OA
ENDBRANCH  97  98
ENDBRANCH  65  90
BRANCH  77 102
ATOM    102  C   UNL A   1      47.002  32.316  27.808  1.00  0.00     0.058 A 
ATOM    103  C   UNL A   1      48.537  33.444  28.354  1.00  0.00     0.135 A 
ATOM    104  C   UNL A   1      45.978  33.037  26.283  1.00  0.00     0.135 A 
ATOM    105  F   UNL A   1      49.340  33.200  29.394  1.00  0.00    -0.206 F 
ATOM    106  C   UNL A   1      48.721  35.101  27.335  1.00  0.00     0.059 A 
ATOM    107  C   UNL A   1      46.069  34.717  25.292  1.00  0.00     0.059 A 
ATOM    108  F   UNL A   1      44.975  32.254  25.832  1.00  0.00    -0.206 F 
ATOM    109  C   UNL A   1      47.675  35.950  25.917  1.00  0.00     0.060 A 
BRANCH 109 110
ATOM    110  S   UNL A   1      48.724  37.489  25.448  1.00  0.00     0.124 S 
ATOM    111  O   UNL A   1      47.706  38.511  25.233  1.00  0.00    -0.237 OA
ATOM    112  O   UNL A   1      49.516  37.678  26.665  1.00  0.00    -0.237 OA
ATOM    113  O   UNL A   1      49.572  37.156  24.309  1.00  0.00    -0.744 OA
ENDBRANCH 109 110
ENDBRANCH  77 102
ENDBRANCH  51  52
ENDBRANCH  44  46
ENDBRANCH  43  44
ENDBRANCH  42  43
ENDBRANCH  41  42
ENDBRANCH  40  41
ENDBRANCH  39  40
ENDBRANCH  38  39
ENDBRANCH  37  38
ENDBRANCH   1  37
TORSDOF 27
ENDMDL
MODEL 3
REMARK VINA RESULT:      -9.8      7.635     13.151
REMARK SMILES Cc1ccc(S(=O)(=O)n2cc(C(=O)C(=O)NCC(=O)NCC(=O)OCCOCCOCCOC(=O)c3ccc(-c4c5nc(c(-c6c(F)cc(S(=O)(=O)[O-])cc6F)c6ccc([nH]6)c(-c6c(F)cc(S(=O)(=O)[O-])cc6F)c6nc(c(-c7c(F)cc(S(=O)(=O)[O-])cc7F)c7ccc4[nH]7)C=C6)C=C5)cc3)c3ccccc32)cc1
REMARK SMILES IDX 26 1 25 2 24 3 22 4 23 5 21 6 20 7 18 8 19 9 17 11 16 12
REMARK SMILES IDX 14 13 15 14 12 16 13 17 11 18 9 19 10 20 107 21 102 22
REMARK SMILES IDX 106 23 103 24 105 25 104 26 6 27 7 28 8 29 5 30 1 31 2 32
REMARK SMILES IDX 3 33 109 34 4 35 108 36 27 37 28 38 29 39 30 40 31 41 32 42
REMARK SMILES IDX 33 43 34 44 35 45 36 46 37 47 101 48 38 49 100 50 39 51
REMARK SMILES IDX 40 52 41 53 94 54 42 55 99 56 93 57 95 58 43 59 98 60 92 61
REMARK SMILES IDX 91 62 44 64 78 65 57 66 77 67 58 68 61 69 76 70 96 71 59 72
REMARK SMILES IDX 60 73 75 75 97 76 62 77 45 78 46 79 55 80 47 81 48 82 54 83
REMARK SMILES IDX 56 84 49 85 50 86 51 87 52 88 53 89 79 90 80 91 89 92 81 93
REMARK SMILES IDX 82 94 88 95 90 96 83 97 84 98 85 99 86 100 87 101 63 102
REMARK SMILES IDX 64 103 73 104 65 105 66 106 72 107 74 108 67 109 68 110
REMARK SMILES IDX 69 111 70 112 71 113
REMARK H PARENT 20 10 16 15 95 63 61 74
REMARK Flexibility Score: inf
ROOT
ATOM      1  C   UNL A   1      37.384  32.701  35.817  1.00  0.00     0.202 C 
ENDROOT
BRANCH   1   2
ATOM      2  C   UNL A   1      36.944  33.850  34.902  1.00  0.00     0.261 C 
BRANCH   2   3
ATOM      3  O   UNL A   1      36.146  33.430  33.409  1.00  0.00    -0.462 OA
BRANCH   3   4
ATOM      4  C   UNL A   1      35.998  32.912  32.035  1.00  0.00     0.325 C 
ATOM      5  O   UNL A   1      36.198  31.711  31.984  1.00  0.00    -0.250 OA
BRANCH   4   6
ATOM      6  C   UNL A   1      35.537  33.650  30.468  1.00  0.00     0.238 C 
BRANCH   6   7
ATOM      7  N   UNL A   1      34.026  33.871  30.005  1.00  0.00    -0.344 N 
ATOM      8  C   UNL A   1      33.355  34.118  28.816  1.00  0.00     0.239 C 
ATOM      9  O   UNL A   1      32.578  35.081  28.767  1.00  0.00    -0.273 OA
ATOM     10  H   UNL A   1      33.403  33.819  30.766  1.00  0.00     0.164 HD
BRANCH   8  11
ATOM     11  C   UNL A   1      33.320  33.139  27.645  1.00  0.00     0.216 C 
BRANCH  11  12
ATOM     12  N   UNL A   1      34.091  31.983  27.961  1.00  0.00    -0.340 N 
ATOM     13  C   UNL A   1      34.125  30.704  27.525  1.00  0.00     0.292 C 
ATOM     14  O   UNL A   1      35.064  29.999  27.864  1.00  0.00    -0.265 OA
ATOM     15  H   UNL A   1      34.757  32.157  28.666  1.00  0.00     0.164 HD
BRANCH  13  16
ATOM     16  C   UNL A   1      32.949  30.111  26.783  1.00  0.00     0.252 C 
ATOM     17  O   UNL A   1      31.833  30.492  27.132  1.00  0.00    -0.283 OA
BRANCH  16  18
ATOM     18  C   UNL A   1      33.159  29.048  25.779  1.00  0.00     0.054 A 
ATOM     19  N   UNL A   1      34.085  27.015  24.526  1.00  0.00    -0.240 N 
ATOM     20  C   UNL A   1      34.198  28.150  25.707  1.00  0.00     0.117 A 
ATOM     21  C   UNL A   1      32.711  27.733  23.884  1.00  0.00     0.065 A 
ATOM     22  C   UNL A   1      32.293  28.818  24.701  1.00  0.00     0.012 A 
ATOM     23  C   UNL A   1      31.941  27.539  22.695  1.00  0.00     0.028 A 
ATOM     24  C   UNL A   1      31.120  29.556  24.375  1.00  0.00     0.011 A 
ATOM     25  C   UNL A   1      30.853  28.358  22.365  1.00  0.00     0.002 A 
ATOM     26  C   UNL A   1      30.429  29.355  23.202  1.00  0.00     0.001 A 
BRANCH  19  27
ATOM     27  S   UNL A   1      34.893  24.650  24.542  1.00  0.00     0.268 S 
ATOM     28  O   UNL A   1      35.357  24.051  25.796  1.00  0.00    -0.201 OA
ATOM     29  O   UNL A   1      35.272  24.012  23.274  1.00  0.00    -0.201 OA
BRANCH  27  30
ATOM     30  C   UNL A   1      33.398  24.727  24.529  1.00  0.00     0.088 A 
ATOM     31  C   UNL A   1      28.731  25.538  25.462  1.00  0.00     0.044 C 
ATOM     32  C   UNL A   1      30.081  24.989  25.074  1.00  0.00    -0.051 A 
ATOM     33  C   UNL A   1      31.237  25.318  26.283  1.00  0.00     0.005 A 
ATOM     34  C   UNL A   1      30.403  24.456  23.467  1.00  0.00     0.005 A 
ATOM     35  C   UNL A   1      32.816  25.218  26.094  1.00  0.00     0.022 A 
ATOM     36  C   UNL A   1      32.090  24.280  23.002  1.00  0.00     0.022 A 
ENDBRANCH  27  30
ENDBRANCH  19  27
ENDBRANCH  16  18
ENDBRANCH  13  16
ENDBRANCH  11  12
ENDBRANCH   8  11
ENDBRANCH   6   7
ENDBRANCH   4   6
ENDBRANCH   3   4
ENDBRANCH   2   3
ENDBRANCH   1   2
BRANCH   1  37
ATOM     37  O   UNL A   1      37.795  32.920  37.146  1.00  0.00    -0.376 OA
BRANCH  37  38
ATOM     38  C   UNL A   1      39.156  33.252  37.339  1.00  0.00     0.188 C 
BRANCH  38  39
ATOM     39  C   UNL A   1      39.662  33.209  38.785  1.00  0.00     0.188 C 
BRANCH  39  40
ATOM     40  O   UNL A   1      41.073  33.077  38.955  1.00  0.00    -0.376 OA
BRANCH  40  41
ATOM     41  C   UNL A   1      41.945  34.126  39.280  1.00  0.00     0.202 C 
BRANCH  41  42
ATOM     42  C   UNL A   1      42.116  34.169  40.750  1.00  0.00     0.261 C 
BRANCH  42  43
ATOM     43  O   UNL A   1      43.458  34.553  41.206  1.00  0.00    -0.460 OA
BRANCH  43  44
ATOM     44  C   UNL A   1      44.712  34.077  40.936  1.00  0.00     0.338 C 
ATOM     45  O   UNL A   1      45.674  34.607  41.488  1.00  0.00    -0.246 OA
BRANCH  44  46
ATOM     46  C   UNL A   1      44.978  32.895  40.040  1.00  0.00     0.060 A 
ATOM     47  C   UNL A   1      45.761  33.122  38.946  1.00  0.00     0.016 A 
ATOM     48  C   UNL A   1      44.368  31.648  40.073  1.00  0.00     0.016 A 
ATOM     49  C   UNL A   1      45.536  32.348  37.791  1.00  0.00     0.010 A 
ATOM     50  C   UNL A   1      44.071  30.950  38.855  1.00  0.00     0.010 A 
ATOM     51  C   UNL A   1      44.500  31.381  37.579  1.00  0.00    -0.014 A 
BRANCH  51  52
ATOM     52  C   UNL A   1      43.562  30.812  36.134  1.00  0.00     0.031 A 
ATOM     53  C   UNL A   1      43.805  29.357  36.187  1.00  0.00     0.074 A 
ATOM     54  C   UNL A   1      42.519  31.383  35.149  1.00  0.00     0.049 A 
ATOM     55  N   UNL A   1      42.994  28.416  35.906  1.00  0.00    -0.248 NA
ATOM     56  C   UNL A   1      45.109  28.863  36.681  1.00  0.00     0.031 C 
ATOM     57  C   UNL A   1      41.239  30.826  34.523  1.00  0.00     0.029 A 
ATOM     58  N   UNL A   1      42.070  32.763  34.933  1.00  0.00    -0.354 N 
ATOM     59  C   UNL A   1      43.831  27.338  35.678  1.00  0.00     0.074 A 
ATOM     60  C   UNL A   1      45.073  27.588  36.350  1.00  0.00     0.031 C 
ATOM     61  C   UNL A   1      40.454  31.772  33.903  1.00  0.00     0.029 A 
ATOM     62  C   UNL A   1      41.029  33.088  34.089  1.00  0.00     0.049 A 
ATOM     63  H   UNL A   1      42.532  33.488  35.411  1.00  0.00     0.167 HD
ATOM     64  C   UNL A   1      43.694  26.641  34.529  1.00  0.00     0.037 A 
ATOM     65  C   UNL A   1      41.163  34.186  33.275  1.00  0.00     0.037 A 
ATOM     66  C   UNL A   1      42.767  27.338  33.640  1.00  0.00     0.049 A 
ATOM     67  C   UNL A   1      41.812  33.537  32.094  1.00  0.00     0.074 A 
ATOM     68  C   UNL A   1      41.395  27.496  33.614  1.00  0.00     0.029 A 
ATOM     69  N   UNL A   1      43.268  28.400  32.904  1.00  0.00    -0.354 N 
ATOM     70  N   UNL A   1      42.666  32.553  32.238  1.00  0.00    -0.248 NA
ATOM     71  C   UNL A   1      41.121  33.548  30.819  1.00  0.00     0.031 C 
ATOM     72  C   UNL A   1      41.093  28.579  32.724  1.00  0.00     0.029 A 
ATOM     73  C   UNL A   1      42.281  29.193  32.337  1.00  0.00     0.049 A 
ATOM     74  H   UNL A   1      44.231  28.573  32.795  1.00  0.00     0.167 HD
ATOM     75  C   UNL A   1      42.117  31.542  31.478  1.00  0.00     0.074 A 
ATOM     76  C   UNL A   1      41.305  32.264  30.487  1.00  0.00     0.031 C 
ATOM     77  C   UNL A   1      42.682  30.313  31.493  1.00  0.00     0.037 A 
BRANCH  64  78
ATOM     78  C   UNL A   1      44.228  25.248  34.396  1.00  0.00     0.058 A 
ATOM     79  C   UNL A   1      43.434  24.238  34.953  1.00  0.00     0.135 A 
ATOM     80  C   UNL A   1      45.533  24.851  34.009  1.00  0.00     0.135 A 
ATOM     81  F   UNL A   1      42.147  24.454  35.258  1.00  0.00    -0.206 F 
ATOM     82  C   UNL A   1      43.957  23.001  35.297  1.00  0.00     0.059 A 
ATOM     83  C   UNL A   1      46.075  23.618  34.338  1.00  0.00     0.059 A 
ATOM     84  F   UNL A   1      46.371  25.618  33.310  1.00  0.00    -0.206 F 
ATOM     85  C   UNL A   1      45.291  22.722  35.034  1.00  0.00     0.060 A 
BRANCH  85  86
ATOM     86  S   UNL A   1      45.994  21.200  35.661  1.00  0.00     0.124 S 
ATOM     87  O   UNL A   1      47.388  21.328  35.247  1.00  0.00    -0.237 OA
ATOM     88  O   UNL A   1      45.735  21.319  37.092  1.00  0.00    -0.237 OA
ATOM     89  O   UNL A   1      45.234  20.161  34.970  1.00  0.00    -0.744 OA
ENDBRANCH  85  86
ENDBRANCH  64  78
BRANCH  65  90
ATOM     90  C   UNL A   1      41.663  35.462  33.914  1.00  0.00     0.058 A 
ATOM     91  C   UNL A   1      40.958  35.975  35.026  1.00  0.00     0.135 A 
ATOM     92  C   UNL A   1      42.936  36.002  33.689  1.00  0.00     0.135 A 
ATOM     93  F   UNL A   1      39.683  35.604  35.236  1.00  0.00    -0.206 F 
ATOM     94  C   UNL A   1      41.585  36.745  36.016  1.00  0.00     0.059 A 
ATOM     95  C   UNL A   1      43.575  36.816  34.646  1.00  0.00     0.059 A 
ATOM     96  F   UNL A   1      43.663  35.583  32.643  1.00  0.00    -0.206 F 
ATOM     97  C   UNL A   1      42.934  37.076  35.865  1.00  0.00     0.060 A 
BRANCH  97  98
ATOM     98  S   UNL A   1      43.959  37.365  37.392  1.00  0.00     0.124 S 
ATOM     99  O   UNL A   1      42.973  37.162  38.446  1.00  0.00    -0.237 OA
ATOM    100  O   UNL A   1      44.983  36.326  37.290  1.00  0.00    -0.237 OA
ATOM    101  O   UNL A   1      44.459  38.735  37.294  1.00  0.00    -0.744 OA
ENDBRANCH  97  98
ENDBRANCH  65  90
BRANCH  77 102
ATOM    102  C   UNL A   1      43.396  30.042  30.254  1.00  0.00     0.058 A 
ATOM    103  C   UNL A   1      42.459  29.514  28.590  1.00  0.00     0.135 A 
ATOM    104  C   UNL A   1      45.357  29.825  30.175  1.00  0.00     0.135 A 
ATOM    105  F   UNL A   1      41.133  29.511  28.421  1.00  0.00    -0.206 F 
ATOM    106  C   UNL A   1      43.631  28.806  27.196  1.00  0.00     0.059 A 
ATOM    107  C   UNL A   1      46.558  29.048  28.846  1.00  0.00     0.059 A 
ATOM    108  F   UNL A   1      46.035  30.253  31.261  1.00  0.00    -0.206 F 
ATOM    109  C   UNL A   1      45.546  28.428  27.091  1.00  0.00     0.060 A 
BRANCH 109 110
ATOM    110  S   UNL A   1      45.796  27.886  25.265  1.00  0.00     0.124 S 
ATOM    111  O   UNL A   1      44.425  27.743  24.788  1.00  0.00    -0.237 OA
ATOM    112  O   UNL A   1      46.503  29.046  24.717  1.00  0.00    -0.237 OA
ATOM    113  O   UNL A   1      46.632  26.692  25.234  1.00  0.00    -0.744 OA
ENDBRANCH 109 110
ENDBRANCH  77 102
ENDBRANCH  51  52
ENDBRANCH  44  46
ENDBRANCH  43  44
ENDBRANCH  42  43
ENDBRANCH  41  42
ENDBRANCH  40  41
ENDBRANCH  39  40
ENDBRANCH  38  39
ENDBRANCH  37  38
ENDBRANCH   1  37
TORSDOF 27
ENDMDL
