MODEL 1
REMARK VINA RESULT:     -11.5      0.000      0.000
REMARK SMILES O=C(Nc1ccccc1C(=O)OCCOCCOCCOC(=O)c1ccc(-c2c3nc(c(-c4c(F)cc(S(=O)(=O)[O-])cc4F)c4ccc([nH]4)c(-c4c(F)cc(S(=O)(=O)[O-])cc4F)c4nc(c(-c5c(F)cc(S(=O)(=O)[O-])cc5F)c5ccc2[nH]5)C=C4)C=C3)cc1)c1ccc2c(c1)C(=O)N(Cc1ccccc1)C2=O
REMARK SMILES IDX 16 1 15 2 14 3 13 4 12 5 10 6 11 7 9 8 4 9 5 10 6 11 8 12
REMARK SMILES IDX 7 13 3 14 1 15 2 16 90 18 91 19 95 20 92 21 94 22 93 23
REMARK SMILES IDX 96 24 106 25 97 26 98 27 107 28 99 29 100 30 101 31 105 32
REMARK SMILES IDX 102 33 104 34 103 35 17 36 18 37 19 38 20 39 21 40 22 41
REMARK SMILES IDX 23 42 24 43 25 44 89 45 26 46 88 47 27 48 28 49 29 50 82 51
REMARK SMILES IDX 30 52 87 53 81 54 83 55 31 56 86 57 80 58 79 59 32 61 66 62
REMARK SMILES IDX 45 63 65 64 46 65 49 66 64 67 84 68 47 69 48 70 63 72 85 73
REMARK SMILES IDX 50 74 33 75 34 76 43 77 35 78 36 79 42 80 44 81 37 82 38 83
REMARK SMILES IDX 39 84 40 85 41 86 67 87 68 88 77 89 69 90 70 91 76 92 78 93
REMARK SMILES IDX 71 94 72 95 73 96 74 97 75 98 51 99 52 100 61 101 53 102
REMARK SMILES IDX 54 103 60 104 62 105 55 106 56 107 57 108 58 109 59 110
REMARK H PARENT 3 17 83 60 49 71
REMARK Flexibility Score: inf
ROOT
ATOM      1  C   UNL A   1      36.364  23.548  24.406  1.00  0.00     0.188 C 
ENDROOT
BRANCH   1   2
ATOM      2  O   UNL A   1      36.200  24.252  25.622  1.00  0.00    -0.376 OA
BRANCH   2   3
ATOM      3  C   UNL A   1      34.853  24.458  26.026  1.00  0.00     0.202 C 
BRANCH   3   4
ATOM      4  C   UNL A   1      34.194  25.663  25.359  1.00  0.00     0.261 C 
BRANCH   4   5
ATOM      5  O   UNL A   1      33.654  26.697  26.215  1.00  0.00    -0.460 OA
BRANCH   5   6
ATOM      6  C   UNL A   1      32.630  27.484  25.817  1.00  0.00     0.340 C 
ATOM      7  O   UNL A   1      31.826  28.064  26.522  1.00  0.00    -0.246 OA
BRANCH   6   8
ATOM      8  C   UNL A   1      32.734  27.672  24.355  1.00  0.00     0.083 A 
ATOM      9  C   UNL A   1      31.750  27.278  23.436  1.00  0.00     0.056 A 
ATOM     10  C   UNL A   1      32.141  27.131  22.090  1.00  0.00     0.027 A 
ATOM     11  C   UNL A   1      33.422  27.486  21.654  1.00  0.00     0.002 A 
ATOM     12  C   UNL A   1      34.007  28.083  23.906  1.00  0.00     0.018 A 
ATOM     13  C   UNL A   1      34.343  28.000  22.556  1.00  0.00     0.001 A 
BRANCH   9  14
ATOM     14  N   UNL A   1      30.386  26.993  23.681  1.00  0.00    -0.321 N 
ATOM     15  O   UNL A   1      28.466  25.921  24.163  1.00  0.00    -0.269 OA
ATOM     16  C   UNL A   1      29.697  25.923  24.205  1.00  0.00     0.255 C 
ATOM     17  H   UNL A   1      29.792  27.732  23.415  1.00  0.00     0.170 HD
BRANCH  16  18
ATOM     18  C   UNL A   1      30.357  24.773  24.849  1.00  0.00     0.041 A 
ATOM     19  C   UNL A   1      30.550  24.687  26.245  1.00  0.00     0.015 A 
ATOM     20  C   UNL A   1      30.854  23.784  23.992  1.00  0.00     0.028 A 
ATOM     21  C   UNL A   1      31.336  23.655  26.789  1.00  0.00     0.015 A 
ATOM     22  C   UNL A   1      31.705  22.846  24.545  1.00  0.00     0.054 A 
ATOM     23  C   UNL A   1      31.939  22.775  25.904  1.00  0.00     0.053 A 
ATOM     24  C   UNL A   1      32.624  21.921  23.882  1.00  0.00     0.261 C 
ATOM     25  C   UNL A   1      32.951  21.735  26.111  1.00  0.00     0.261 C 
ATOM     26  O   UNL A   1      32.692  21.781  22.675  1.00  0.00    -0.269 OA
ATOM     27  N   UNL A   1      33.350  21.321  24.868  1.00  0.00    -0.270 N 
ATOM     28  O   UNL A   1      33.293  21.322  27.204  1.00  0.00    -0.269 OA
BRANCH  27  29
ATOM     29  C   UNL A   1      34.370  20.325  24.621  1.00  0.00     0.164 C 
BRANCH  29  30
ATOM     30  C   UNL A   1      33.847  18.905  24.622  1.00  0.00    -0.028 A 
ATOM     31  C   UNL A   1      34.537  17.894  23.936  1.00  0.00     0.005 A 
ATOM     32  C   UNL A   1      32.687  18.562  25.334  1.00  0.00     0.005 A 
ATOM     33  C   UNL A   1      34.099  16.568  23.992  1.00  0.00     0.000 A 
ATOM     34  C   UNL A   1      32.251  17.235  25.390  1.00  0.00     0.000 A 
ATOM     35  C   UNL A   1      32.961  16.237  24.726  1.00  0.00     0.000 A 
ENDBRANCH  29  30
ENDBRANCH  27  29
ENDBRANCH  16  18
ENDBRANCH   9  14
ENDBRANCH   6   8
ENDBRANCH   5   6
ENDBRANCH   4   5
ENDBRANCH   3   4
ENDBRANCH   2   3
ENDBRANCH   1   2
BRANCH   1  36
ATOM     36  C   UNL A   1      37.048  22.166  24.511  1.00  0.00     0.188 C 
BRANCH  36  37
ATOM     37  O   UNL A   1      37.590  21.668  25.730  1.00  0.00    -0.376 OA
BRANCH  37  38
ATOM     38  C   UNL A   1      38.976  21.768  26.008  1.00  0.00     0.202 C 
BRANCH  38  39
ATOM     39  C   UNL A   1      39.585  23.147  26.280  1.00  0.00     0.261 C 
BRANCH  39  40
ATOM     40  O   UNL A   1      40.214  23.275  27.559  1.00  0.00    -0.460 OA
BRANCH  40  41
ATOM     41  C   UNL A   1      41.306  24.078  27.588  1.00  0.00     0.338 C 
ATOM     42  O   UNL A   1      42.358  23.915  26.996  1.00  0.00    -0.246 OA
BRANCH  41  43
ATOM     43  C   UNL A   1      40.955  25.333  28.291  1.00  0.00     0.060 A 
ATOM     44  C   UNL A   1      41.940  26.326  28.383  1.00  0.00     0.016 A 
ATOM     45  C   UNL A   1      39.676  25.553  28.811  1.00  0.00     0.016 A 
ATOM     46  C   UNL A   1      41.664  27.530  29.023  1.00  0.00     0.010 A 
ATOM     47  C   UNL A   1      39.409  26.746  29.488  1.00  0.00     0.010 A 
ATOM     48  C   UNL A   1      40.416  27.717  29.630  1.00  0.00    -0.014 A 
BRANCH  48  49
ATOM     49  C   UNL A   1      40.285  28.766  30.666  1.00  0.00     0.031 A 
ATOM     50  C   UNL A   1      41.223  28.685  31.841  1.00  0.00     0.074 A 
ATOM     51  C   UNL A   1      39.399  29.770  30.562  1.00  0.00     0.049 A 
ATOM     52  N   UNL A   1      41.318  29.463  32.884  1.00  0.00    -0.248 NA
ATOM     53  C   UNL A   1      42.187  27.570  31.831  1.00  0.00     0.031 C 
ATOM     54  C   UNL A   1      38.475  29.979  29.449  1.00  0.00     0.029 A 
ATOM     55  N   UNL A   1      39.133  30.806  31.420  1.00  0.00    -0.354 N 
ATOM     56  C   UNL A   1      42.347  28.932  33.653  1.00  0.00     0.074 A 
ATOM     57  C   UNL A   1      42.832  27.756  32.971  1.00  0.00     0.031 C 
ATOM     58  C   UNL A   1      37.734  31.074  29.699  1.00  0.00     0.029 A 
ATOM     59  C   UNL A   1      38.114  31.627  30.999  1.00  0.00     0.049 A 
ATOM     60  H   UNL A   1      39.627  30.950  32.260  1.00  0.00     0.167 HD
ATOM     61  C   UNL A   1      42.845  29.384  34.827  1.00  0.00     0.037 A 
ATOM     62  C   UNL A   1      37.548  32.687  31.609  1.00  0.00     0.037 A 
ATOM     63  C   UNL A   1      42.350  30.545  35.512  1.00  0.00     0.049 A 
ATOM     64  C   UNL A   1      38.065  33.125  32.958  1.00  0.00     0.074 A 
ATOM     65  C   UNL A   1      42.791  31.096  36.699  1.00  0.00     0.029 A 
ATOM     66  N   UNL A   1      41.287  31.321  35.075  1.00  0.00    -0.354 N 
ATOM     67  N   UNL A   1      39.060  32.635  33.661  1.00  0.00    -0.248 NA
ATOM     68  C   UNL A   1      37.383  34.260  33.596  1.00  0.00     0.031 C 
ATOM     69  C   UNL A   1      41.963  32.182  37.005  1.00  0.00     0.029 A 
ATOM     70  C   UNL A   1      41.039  32.334  35.983  1.00  0.00     0.049 A 
ATOM     71  H   UNL A   1      40.784  31.174  34.242  1.00  0.00     0.167 HD
ATOM     72  C   UNL A   1      39.141  33.420  34.807  1.00  0.00     0.074 A 
ATOM     73  C   UNL A   1      38.098  34.419  34.702  1.00  0.00     0.031 C 
ATOM     74  C   UNL A   1      40.002  33.327  35.852  1.00  0.00     0.037 A 
BRANCH  61  75
ATOM     75  C   UNL A   1      43.954  28.590  35.453  1.00  0.00     0.058 A 
ATOM     76  C   UNL A   1      43.698  27.570  36.383  1.00  0.00     0.135 A 
ATOM     77  C   UNL A   1      45.291  28.859  35.121  1.00  0.00     0.135 A 
ATOM     78  F   UNL A   1      42.438  27.294  36.756  1.00  0.00    -0.206 F 
ATOM     79  C   UNL A   1      44.733  26.858  36.981  1.00  0.00     0.059 A 
ATOM     80  C   UNL A   1      46.339  28.143  35.688  1.00  0.00     0.059 A 
ATOM     81  F   UNL A   1      45.588  29.833  34.248  1.00  0.00    -0.206 F 
ATOM     82  C   UNL A   1      46.050  27.153  36.627  1.00  0.00     0.060 A 
BRANCH  82  83
ATOM     83  S   UNL A   1      47.384  26.222  37.411  1.00  0.00     0.124 S 
ATOM     84  O   UNL A   1      48.522  26.580  36.568  1.00  0.00    -0.237 OA
ATOM     85  O   UNL A   1      47.398  26.773  38.762  1.00  0.00    -0.237 OA
ATOM     86  O   UNL A   1      46.937  24.837  37.306  1.00  0.00    -0.744 OA
ENDBRANCH  82  83
ENDBRANCH  61  75
BRANCH  62  87
ATOM     87  C   UNL A   1      36.422  33.412  30.961  1.00  0.00     0.058 A 
ATOM     88  C   UNL A   1      36.627  34.188  29.811  1.00  0.00     0.135 A 
ATOM     89  C   UNL A   1      35.121  33.358  31.489  1.00  0.00     0.135 A 
ATOM     90  F   UNL A   1      37.854  34.283  29.278  1.00  0.00    -0.206 F 
ATOM     91  C   UNL A   1      35.588  34.895  29.213  1.00  0.00     0.059 A 
ATOM     92  C   UNL A   1      34.062  34.037  30.896  1.00  0.00     0.059 A 
ATOM     93  F   UNL A   1      34.871  32.626  32.586  1.00  0.00    -0.206 F 
ATOM     94  C   UNL A   1      34.307  34.811  29.763  1.00  0.00     0.060 A 
BRANCH  94  95
ATOM     95  S   UNL A   1      32.959  35.696  28.951  1.00  0.00     0.124 S 
ATOM     96  O   UNL A   1      32.439  34.676  28.049  1.00  0.00    -0.237 OA
ATOM     97  O   UNL A   1      32.101  36.048  30.079  1.00  0.00    -0.237 OA
ATOM     98  O   UNL A   1      33.634  36.821  28.311  1.00  0.00    -0.744 OA
ENDBRANCH  94  95
ENDBRANCH  62  87
BRANCH  74  99
ATOM     99  C   UNL A   1      39.885  34.351  36.945  1.00  0.00     0.058 A 
ATOM    100  C   UNL A   1      40.574  35.572  36.891  1.00  0.00     0.135 A 
ATOM    101  C   UNL A   1      39.015  34.134  38.026  1.00  0.00     0.135 A 
ATOM    102  F   UNL A   1      41.419  35.827  35.881  1.00  0.00    -0.206 F 
ATOM    103  C   UNL A   1      40.417  36.536  37.882  1.00  0.00     0.059 A 
ATOM    104  C   UNL A   1      38.823  35.095  39.014  1.00  0.00     0.059 A 
ATOM    105  F   UNL A   1      38.322  32.987  38.117  1.00  0.00    -0.206 F 
ATOM    106  C   UNL A   1      39.539  36.289  38.939  1.00  0.00     0.060 A 
BRANCH 106 107
ATOM    107  S   UNL A   1      39.314  37.564  40.197  1.00  0.00     0.124 S 
ATOM    108  O   UNL A   1      40.649  38.149  40.264  1.00  0.00    -0.237 OA
ATOM    109  O   UNL A   1      38.280  38.408  39.609  1.00  0.00    -0.237 OA
ATOM    110  O   UNL A   1      38.900  36.808  41.376  1.00  0.00    -0.744 OA
ENDBRANCH 106 107
ENDBRANCH  74  99
ENDBRANCH  48  49
ENDBRANCH  41  43
ENDBRANCH  40  41
ENDBRANCH  39  40
ENDBRANCH  38  39
ENDBRANCH  37  38
ENDBRANCH  36  37
ENDBRANCH   1  36
TORSDOF 24
ENDMDL
MODEL 2
REMARK VINA RESULT:     -10.9      1.624      7.969
REMARK SMILES O=C(Nc1ccccc1C(=O)OCCOCCOCCOC(=O)c1ccc(-c2c3nc(c(-c4c(F)cc(S(=O)(=O)[O-])cc4F)c4ccc([nH]4)c(-c4c(F)cc(S(=O)(=O)[O-])cc4F)c4nc(c(-c5c(F)cc(S(=O)(=O)[O-])cc5F)c5ccc2[nH]5)C=C4)C=C3)cc1)c1ccc2c(c1)C(=O)N(Cc1ccccc1)C2=O
REMARK SMILES IDX 16 1 15 2 14 3 13 4 12 5 10 6 11 7 9 8 4 9 5 10 6 11 8 12
REMARK SMILES IDX 7 13 3 14 1 15 2 16 90 18 91 19 95 20 92 21 94 22 93 23
REMARK SMILES IDX 96 24 106 25 97 26 98 27 107 28 99 29 100 30 101 31 105 32
REMARK SMILES IDX 102 33 104 34 103 35 17 36 18 37 19 38 20 39 21 40 22 41
REMARK SMILES IDX 23 42 24 43 25 44 89 45 26 46 88 47 27 48 28 49 29 50 82 51
REMARK SMILES IDX 30 52 87 53 81 54 83 55 31 56 86 57 80 58 79 59 32 61 66 62
REMARK SMILES IDX 45 63 65 64 46 65 49 66 64 67 84 68 47 69 48 70 63 72 85 73
REMARK SMILES IDX 50 74 33 75 34 76 43 77 35 78 36 79 42 80 44 81 37 82 38 83
REMARK SMILES IDX 39 84 40 85 41 86 67 87 68 88 77 89 69 90 70 91 76 92 78 93
REMARK SMILES IDX 71 94 72 95 73 96 74 97 75 98 51 99 52 100 61 101 53 102
REMARK SMILES IDX 54 103 60 104 62 105 55 106 56 107 57 108 58 109 59 110
REMARK H PARENT 3 17 83 60 49 71
REMARK Flexibility Score: inf
ROOT
ATOM      1  C   UNL A   1      36.885  23.872  24.459  1.00  0.00     0.188 C 
ENDROOT
BRANCH   1   2
ATOM      2  O   UNL A   1      35.493  23.638  24.360  1.00  0.00    -0.376 OA
BRANCH   2   3
ATOM      3  C   UNL A   1      34.732  24.723  23.849  1.00  0.00     0.202 C 
BRANCH   3   4
ATOM      4  C   UNL A   1      33.964  25.490  24.923  1.00  0.00     0.261 C 
BRANCH   4   5
ATOM      5  O   UNL A   1      34.412  26.825  25.251  1.00  0.00    -0.460 OA
BRANCH   5   6
ATOM      6  C   UNL A   1      34.077  27.892  24.492  1.00  0.00     0.340 C 
ATOM      7  O   UNL A   1      34.355  28.085  23.323  1.00  0.00    -0.246 OA
BRANCH   6   8
ATOM      8  C   UNL A   1      33.157  28.743  25.274  1.00  0.00     0.083 A 
ATOM      9  C   UNL A   1      32.020  29.372  24.744  1.00  0.00     0.056 A 
ATOM     10  C   UNL A   1      31.485  30.459  25.464  1.00  0.00     0.027 A 
ATOM     11  C   UNL A   1      31.980  30.822  26.721  1.00  0.00     0.002 A 
ATOM     12  C   UNL A   1      33.619  29.074  26.565  1.00  0.00     0.018 A 
ATOM     13  C   UNL A   1      33.022  30.104  27.290  1.00  0.00     0.001 A 
BRANCH   9  14
ATOM     14  N   UNL A   1      31.322  29.062  23.553  1.00  0.00    -0.321 N 
ATOM     15  O   UNL A   1      30.273  27.945  21.903  1.00  0.00    -0.269 OA
ATOM     16  C   UNL A   1      30.682  27.946  23.066  1.00  0.00     0.255 C 
ATOM     17  H   UNL A   1      31.288  29.822  22.927  1.00  0.00     0.170 HD
BRANCH  16  18
ATOM     18  C   UNL A   1      30.426  26.742  23.877  1.00  0.00     0.041 A 
ATOM     19  C   UNL A   1      29.981  26.803  25.216  1.00  0.00     0.015 A 
ATOM     20  C   UNL A   1      30.714  25.513  23.270  1.00  0.00     0.028 A 
ATOM     21  C   UNL A   1      29.920  25.635  25.995  1.00  0.00     0.015 A 
ATOM     22  C   UNL A   1      30.742  24.402  24.090  1.00  0.00     0.054 A 
ATOM     23  C   UNL A   1      30.352  24.453  25.414  1.00  0.00     0.053 A 
ATOM     24  C   UNL A   1      31.318  23.081  23.842  1.00  0.00     0.261 C 
ATOM     25  C   UNL A   1      30.602  23.126  25.986  1.00  0.00     0.261 C 
ATOM     26  O   UNL A   1      31.791  22.735  22.775  1.00  0.00    -0.269 OA
ATOM     27  N   UNL A   1      31.228  22.391  25.015  1.00  0.00    -0.270 N 
ATOM     28  O   UNL A   1      30.249  22.786  27.100  1.00  0.00    -0.269 OA
BRANCH  27  29
ATOM     29  C   UNL A   1      31.685  21.028  25.183  1.00  0.00     0.164 C 
BRANCH  29  30
ATOM     30  C   UNL A   1      33.168  20.915  25.465  1.00  0.00    -0.028 A 
ATOM     31  C   UNL A   1      33.994  20.152  24.625  1.00  0.00     0.005 A 
ATOM     32  C   UNL A   1      33.752  21.594  26.546  1.00  0.00     0.005 A 
ATOM     33  C   UNL A   1      35.374  20.102  24.838  1.00  0.00     0.000 A 
ATOM     34  C   UNL A   1      35.133  21.543  26.756  1.00  0.00     0.000 A 
ATOM     35  C   UNL A   1      35.945  20.803  25.898  1.00  0.00     0.000 A 
ENDBRANCH  29  30
ENDBRANCH  27  29
ENDBRANCH  16  18
ENDBRANCH   9  14
ENDBRANCH   6   8
ENDBRANCH   5   6
ENDBRANCH   4   5
ENDBRANCH   3   4
ENDBRANCH   2   3
ENDBRANCH   1   2
BRANCH   1  36
ATOM     36  C   UNL A   1      37.456  23.957  25.894  1.00  0.00     0.188 C 
BRANCH  36  37
ATOM     37  O   UNL A   1      38.551  23.161  26.333  1.00  0.00    -0.376 OA
BRANCH  37  38
ATOM     38  C   UNL A   1      39.783  23.755  26.706  1.00  0.00     0.202 C 
BRANCH  38  39
ATOM     39  C   UNL A   1      40.141  25.139  26.155  1.00  0.00     0.261 C 
BRANCH  39  40
ATOM     40  O   UNL A   1      41.541  25.438  26.168  1.00  0.00    -0.460 OA
BRANCH  40  41
ATOM     41  C   UNL A   1      41.852  26.750  26.028  1.00  0.00     0.338 C 
ATOM     42  O   UNL A   1      41.856  27.401  24.998  1.00  0.00    -0.246 OA
BRANCH  41  43
ATOM     43  C   UNL A   1      41.984  27.355  27.372  1.00  0.00     0.060 A 
ATOM     44  C   UNL A   1      41.388  26.685  28.450  1.00  0.00     0.016 A 
ATOM     45  C   UNL A   1      42.713  28.530  27.583  1.00  0.00     0.016 A 
ATOM     46  C   UNL A   1      41.489  27.202  29.738  1.00  0.00     0.010 A 
ATOM     47  C   UNL A   1      42.783  29.069  28.870  1.00  0.00     0.010 A 
ATOM     48  C   UNL A   1      42.136  28.427  29.940  1.00  0.00    -0.014 A 
BRANCH  48  49
ATOM     49  C   UNL A   1      41.854  29.176  31.186  1.00  0.00     0.031 A 
ATOM     50  C   UNL A   1      40.662  30.097  31.174  1.00  0.00     0.074 A 
ATOM     51  C   UNL A   1      42.598  29.028  32.295  1.00  0.00     0.049 A 
ATOM     52  N   UNL A   1      40.198  30.868  32.119  1.00  0.00    -0.248 NA
ATOM     53  C   UNL A   1      39.889  30.147  29.920  1.00  0.00     0.031 C 
ATOM     54  C   UNL A   1      43.742  28.132  32.439  1.00  0.00     0.029 A 
ATOM     55  N   UNL A   1      42.493  29.642  33.516  1.00  0.00    -0.354 N 
ATOM     56  C   UNL A   1      39.084  31.496  31.574  1.00  0.00     0.074 A 
ATOM     57  C   UNL A   1      38.951  31.033  30.213  1.00  0.00     0.031 C 
ATOM     58  C   UNL A   1      44.243  28.263  33.682  1.00  0.00     0.029 A 
ATOM     59  C   UNL A   1      43.470  29.269  34.409  1.00  0.00     0.049 A 
ATOM     60  H   UNL A   1      41.784  30.289  33.735  1.00  0.00     0.167 HD
ATOM     61  C   UNL A   1      38.244  32.381  32.157  1.00  0.00     0.037 A 
ATOM     62  C   UNL A   1      43.715  29.710  35.658  1.00  0.00     0.037 A 
ATOM     63  C   UNL A   1      38.388  32.852  33.505  1.00  0.00     0.049 A 
ATOM     64  C   UNL A   1      42.812  30.760  36.261  1.00  0.00     0.074 A 
ATOM     65  C   UNL A   1      37.586  33.739  34.197  1.00  0.00     0.029 A 
ATOM     66  N   UNL A   1      39.416  32.485  34.360  1.00  0.00    -0.354 N 
ATOM     67  N   UNL A   1      41.742  31.323  35.748  1.00  0.00    -0.248 NA
ATOM     68  C   UNL A   1      43.150  31.235  37.610  1.00  0.00     0.031 C 
ATOM     69  C   UNL A   1      38.156  33.945  35.458  1.00  0.00     0.029 A 
ATOM     70  C   UNL A   1      39.285  33.149  35.567  1.00  0.00     0.049 A 
ATOM     71  H   UNL A   1      40.133  31.847  34.142  1.00  0.00     0.167 HD
ATOM     72  C   UNL A   1      41.264  32.194  36.723  1.00  0.00     0.074 A 
ATOM     73  C   UNL A   1      42.159  32.081  37.856  1.00  0.00     0.031 C 
ATOM     74  C   UNL A   1      40.182  33.011  36.687  1.00  0.00     0.037 A 
BRANCH  61  75
ATOM     75  C   UNL A   1      37.125  32.921  31.315  1.00  0.00     0.058 A 
ATOM     76  C   UNL A   1      37.287  34.061  30.513  1.00  0.00     0.135 A 
ATOM     77  C   UNL A   1      35.871  32.290  31.317  1.00  0.00     0.135 A 
ATOM     78  F   UNL A   1      38.458  34.718  30.499  1.00  0.00    -0.206 F 
ATOM     79  C   UNL A   1      36.236  34.572  29.758  1.00  0.00     0.059 A 
ATOM     80  C   UNL A   1      34.814  32.770  30.551  1.00  0.00     0.059 A 
ATOM     81  F   UNL A   1      35.661  31.205  32.078  1.00  0.00    -0.206 F 
ATOM     82  C   UNL A   1      35.003  33.919  29.786  1.00  0.00     0.060 A 
BRANCH  82  83
ATOM     83  S   UNL A   1      33.647  34.593  28.802  1.00  0.00     0.124 S 
ATOM     84  O   UNL A   1      33.313  33.455  27.950  1.00  0.00    -0.237 OA
ATOM     85  O   UNL A   1      32.660  34.932  29.821  1.00  0.00    -0.237 OA
ATOM     86  O   UNL A   1      34.256  35.730  28.119  1.00  0.00    -0.744 OA
ENDBRANCH  82  83
ENDBRANCH  61  75
BRANCH  62  87
ATOM     87  C   UNL A   1      44.865  29.171  36.433  1.00  0.00     0.058 A 
ATOM     88  C   UNL A   1      46.119  29.798  36.396  1.00  0.00     0.135 A 
ATOM     89  C   UNL A   1      44.738  28.010  37.211  1.00  0.00     0.135 A 
ATOM     90  F   UNL A   1      46.294  30.903  35.655  1.00  0.00    -0.206 F 
ATOM     91  C   UNL A   1      47.211  29.288  37.092  1.00  0.00     0.059 A 
ATOM     92  C   UNL A   1      45.809  27.492  37.934  1.00  0.00     0.059 A 
ATOM     93  F   UNL A   1      43.558  27.374  37.283  1.00  0.00    -0.206 F 
ATOM     94  C   UNL A   1      47.045  28.134  37.860  1.00  0.00     0.060 A 
BRANCH  94  95
ATOM     95  S   UNL A   1      48.457  27.507  38.795  1.00  0.00     0.124 S 
ATOM     96  O   UNL A   1      48.806  26.313  38.034  1.00  0.00    -0.237 OA
ATOM     97  O   UNL A   1      49.399  28.618  38.709  1.00  0.00    -0.237 OA
ATOM     98  O   UNL A   1      47.899  27.268  40.123  1.00  0.00    -0.744 OA
ENDBRANCH  94  95
ENDBRANCH  62  87
BRANCH  74  99
ATOM     99  C   UNL A   1      39.876  33.817  37.918  1.00  0.00     0.058 A 
ATOM    100  C   UNL A   1      39.039  33.328  38.933  1.00  0.00     0.135 A 
ATOM    101  C   UNL A   1      40.487  35.067  38.115  1.00  0.00     0.135 A 
ATOM    102  F   UNL A   1      38.430  32.141  38.793  1.00  0.00    -0.206 F 
ATOM    103  C   UNL A   1      38.805  34.059  40.093  1.00  0.00     0.059 A 
ATOM    104  C   UNL A   1      40.287  35.803  39.278  1.00  0.00     0.059 A 
ATOM    105  F   UNL A   1      41.307  35.573  37.179  1.00  0.00    -0.206 F 
ATOM    106  C   UNL A   1      39.434  35.295  40.257  1.00  0.00     0.060 A 
BRANCH 106 107
ATOM    107  S   UNL A   1      39.154  36.216  41.784  1.00  0.00     0.124 S 
ATOM    108  O   UNL A   1      37.885  35.656  42.236  1.00  0.00    -0.237 OA
ATOM    109  O   UNL A   1      40.323  35.865  42.583  1.00  0.00    -0.237 OA
ATOM    110  O   UNL A   1      39.103  37.606  41.338  1.00  0.00    -0.744 OA
ENDBRANCH 106 107
ENDBRANCH  74  99
ENDBRANCH  48  49
ENDBRANCH  41  43
ENDBRANCH  40  41
ENDBRANCH  39  40
ENDBRANCH  38  39
ENDBRANCH  37  38
ENDBRANCH  36  37
ENDBRANCH   1  36
TORSDOF 24
ENDMDL
MODEL 3
REMARK VINA RESULT:     -10.4      6.144     12.512
REMARK SMILES O=C(Nc1ccccc1C(=O)OCCOCCOCCOC(=O)c1ccc(-c2c3nc(c(-c4c(F)cc(S(=O)(=O)[O-])cc4F)c4ccc([nH]4)c(-c4c(F)cc(S(=O)(=O)[O-])cc4F)c4nc(c(-c5c(F)cc(S(=O)(=O)[O-])cc5F)c5ccc2[nH]5)C=C4)C=C3)cc1)c1ccc2c(c1)C(=O)N(Cc1ccccc1)C2=O
REMARK SMILES IDX 16 1 15 2 14 3 13 4 12 5 10 6 11 7 9 8 4 9 5 10 6 11 8 12
REMARK SMILES IDX 7 13 3 14 1 15 2 16 90 18 91 19 95 20 92 21 94 22 93 23
REMARK SMILES IDX 96 24 106 25 97 26 98 27 107 28 99 29 100 30 101 31 105 32
REMARK SMILES IDX 102 33 104 34 103 35 17 36 18 37 19 38 20 39 21 40 22 41
REMARK SMILES IDX 23 42 24 43 25 44 89 45 26 46 88 47 27 48 28 49 29 50 82 51
REMARK SMILES IDX 30 52 87 53 81 54 83 55 31 56 86 57 80 58 79 59 32 61 66 62
REMARK SMILES IDX 45 63 65 64 46 65 49 66 64 67 84 68 47 69 48 70 63 72 85 73
REMARK SMILES IDX 50 74 33 75 34 76 43 77 35 78 36 79 42 80 44 81 37 82 38 83
REMARK SMILES IDX 39 84 40 85 41 86 67 87 68 88 77 89 69 90 70 91 76 92 78 93
REMARK SMILES IDX 71 94 72 95 73 96 74 97 75 98 51 99 52 100 61 101 53 102
REMARK SMILES IDX 54 103 60 104 62 105 55 106 56 107 57 108 58 109 59 110
REMARK H PARENT 3 17 83 60 49 71
REMARK Flexibility Score: inf
ROOT
ATOM      1  C   UNL A   1      50.379  25.609  29.164  1.00  0.00     0.188 C 
ENDROOT
BRANCH   1   2
ATOM      2  O   UNL A   1      49.740  25.336  27.932  1.00  0.00    -0.376 OA
BRANCH   2   3
ATOM      3  C   UNL A   1      48.387  25.761  27.844  1.00  0.00     0.202 C 
BRANCH   3   4
ATOM      4  C   UNL A   1      48.190  26.994  26.965  1.00  0.00     0.261 C 
BRANCH   4   5
ATOM      5  O   UNL A   1      47.042  27.833  27.226  1.00  0.00    -0.460 OA
BRANCH   5   6
ATOM      6  C   UNL A   1      46.832  28.981  26.545  1.00  0.00     0.340 C 
ATOM      7  O   UNL A   1      46.545  29.101  25.369  1.00  0.00    -0.246 OA
BRANCH   6   8
ATOM      8  C   UNL A   1      46.847  30.099  27.510  1.00  0.00     0.083 A 
ATOM      9  C   UNL A   1      46.634  31.443  27.166  1.00  0.00     0.056 A 
ATOM     10  C   UNL A   1      47.080  32.423  28.075  1.00  0.00     0.027 A 
ATOM     11  C   UNL A   1      47.595  32.082  29.329  1.00  0.00     0.002 A 
ATOM     12  C   UNL A   1      47.314  29.757  28.796  1.00  0.00     0.018 A 
ATOM     13  C   UNL A   1      47.676  30.749  29.707  1.00  0.00     0.001 A 
BRANCH   9  14
ATOM     14  N   UNL A   1      46.026  31.963  25.999  1.00  0.00    -0.321 N 
ATOM     15  O   UNL A   1      44.648  33.066  24.601  1.00  0.00    -0.269 OA
ATOM     16  C   UNL A   1      45.082  32.931  25.746  1.00  0.00     0.255 C 
ATOM     17  H   UNL A   1      46.355  31.532  25.178  1.00  0.00     0.170 HD
BRANCH  16  18
ATOM     18  C   UNL A   1      44.570  33.852  26.778  1.00  0.00     0.041 A 
ATOM     19  C   UNL A   1      44.949  35.211  26.845  1.00  0.00     0.015 A 
ATOM     20  C   UNL A   1      43.730  33.291  27.748  1.00  0.00     0.028 A 
ATOM     21  C   UNL A   1      44.570  35.997  27.947  1.00  0.00     0.015 A 
ATOM     22  C   UNL A   1      43.462  34.059  28.865  1.00  0.00     0.054 A 
ATOM     23  C   UNL A   1      43.863  35.377  28.965  1.00  0.00     0.053 A 
ATOM     24  C   UNL A   1      42.920  33.654  30.161  1.00  0.00     0.261 C 
ATOM     25  C   UNL A   1      43.492  35.837  30.307  1.00  0.00     0.261 C 
ATOM     26  O   UNL A   1      42.516  32.533  30.408  1.00  0.00    -0.269 OA
ATOM     27  N   UNL A   1      42.996  34.748  30.973  1.00  0.00    -0.270 N 
ATOM     28  O   UNL A   1      43.581  36.991  30.682  1.00  0.00    -0.269 OA
BRANCH  27  29
ATOM     29  C   UNL A   1      42.547  34.760  32.348  1.00  0.00     0.164 C 
BRANCH  29  30
ATOM     30  C   UNL A   1      43.665  34.588  33.354  1.00  0.00    -0.028 A 
ATOM     31  C   UNL A   1      44.669  33.630  33.143  1.00  0.00     0.005 A 
ATOM     32  C   UNL A   1      43.742  35.402  34.495  1.00  0.00     0.005 A 
ATOM     33  C   UNL A   1      45.742  33.516  34.032  1.00  0.00     0.000 A 
ATOM     34  C   UNL A   1      44.817  35.287  35.382  1.00  0.00     0.000 A 
ATOM     35  C   UNL A   1      45.821  34.349  35.146  1.00  0.00     0.000 A 
ENDBRANCH  29  30
ENDBRANCH  27  29
ENDBRANCH  16  18
ENDBRANCH   9  14
ENDBRANCH   6   8
ENDBRANCH   5   6
ENDBRANCH   4   5
ENDBRANCH   3   4
ENDBRANCH   2   3
ENDBRANCH   1   2
BRANCH   1  36
ATOM     36  C   UNL A   1      49.448  25.994  30.337  1.00  0.00     0.188 C 
BRANCH  36  37
ATOM     37  O   UNL A   1      49.427  25.279  31.568  1.00  0.00    -0.376 OA
BRANCH  37  38
ATOM     38  C   UNL A   1      48.664  25.742  32.669  1.00  0.00     0.202 C 
BRANCH  38  39
ATOM     39  C   UNL A   1      49.389  26.302  33.896  1.00  0.00     0.261 C 
BRANCH  39  40
ATOM     40  O   UNL A   1      48.612  26.296  35.098  1.00  0.00    -0.460 OA
BRANCH  40  41
ATOM     41  C   UNL A   1      48.695  27.424  35.845  1.00  0.00     0.338 C 
ATOM     42  O   UNL A   1      49.656  27.818  36.482  1.00  0.00    -0.246 OA
BRANCH  41  43
ATOM     43  C   UNL A   1      47.489  28.247  35.600  1.00  0.00     0.060 A 
ATOM     44  C   UNL A   1      46.259  27.754  36.057  1.00  0.00     0.016 A 
ATOM     45  C   UNL A   1      47.564  29.497  34.977  1.00  0.00     0.016 A 
ATOM     46  C   UNL A   1      45.094  28.490  35.864  1.00  0.00     0.010 A 
ATOM     47  C   UNL A   1      46.390  30.219  34.749  1.00  0.00     0.010 A 
ATOM     48  C   UNL A   1      45.150  29.696  35.155  1.00  0.00    -0.014 A 
BRANCH  48  49
ATOM     49  C   UNL A   1      43.899  30.229  34.571  1.00  0.00     0.031 A 
ATOM     50  C   UNL A   1      43.493  29.693  33.223  1.00  0.00     0.074 A 
ATOM     51  C   UNL A   1      43.133  31.126  35.213  1.00  0.00     0.049 A 
ATOM     52  N   UNL A   1      42.457  29.991  32.487  1.00  0.00    -0.248 NA
ATOM     53  C   UNL A   1      44.383  28.679  32.629  1.00  0.00     0.031 C 
ATOM     54  C   UNL A   1      43.399  31.678  36.539  1.00  0.00     0.029 A 
ATOM     55  N   UNL A   1      41.966  31.731  34.823  1.00  0.00    -0.354 N 
ATOM     56  C   UNL A   1      42.571  29.205  31.347  1.00  0.00     0.074 A 
ATOM     57  C   UNL A   1      43.784  28.433  31.475  1.00  0.00     0.031 C 
ATOM     58  C   UNL A   1      42.424  32.554  36.849  1.00  0.00     0.029 A 
ATOM     59  C   UNL A   1      41.482  32.641  35.733  1.00  0.00     0.049 A 
ATOM     60  H   UNL A   1      41.516  31.533  33.969  1.00  0.00     0.167 HD
ATOM     61  C   UNL A   1      41.738  29.132  30.284  1.00  0.00     0.037 A 
ATOM     62  C   UNL A   1      40.413  33.457  35.656  1.00  0.00     0.037 A 
ATOM     63  C   UNL A   1      40.541  29.914  30.151  1.00  0.00     0.049 A 
ATOM     64  C   UNL A   1      39.542  33.419  34.424  1.00  0.00     0.074 A 
ATOM     65  C   UNL A   1      39.620  29.908  29.122  1.00  0.00     0.029 A 
ATOM     66  N   UNL A   1      40.110  30.855  31.074  1.00  0.00    -0.354 N 
ATOM     67  N   UNL A   1      39.641  32.648  33.365  1.00  0.00    -0.248 NA
ATOM     68  C   UNL A   1      38.414  34.361  34.375  1.00  0.00     0.031 C 
ATOM     69  C   UNL A   1      38.654  30.882  29.399  1.00  0.00     0.029 A 
ATOM     70  C   UNL A   1      38.949  31.458  30.625  1.00  0.00     0.049 A 
ATOM     71  H   UNL A   1      40.564  31.064  31.923  1.00  0.00     0.167 HD
ATOM     72  C   UNL A   1      38.573  32.992  32.541  1.00  0.00     0.074 A 
ATOM     73  C   UNL A   1      37.839  34.036  33.225  1.00  0.00     0.031 C 
ATOM     74  C   UNL A   1      38.227  32.488  31.330  1.00  0.00     0.037 A 
BRANCH  61  75
ATOM     75  C   UNL A   1      42.126  28.204  29.171  1.00  0.00     0.058 A 
ATOM     76  C   UNL A   1      43.181  28.501  28.294  1.00  0.00     0.135 A 
ATOM     77  C   UNL A   1      41.426  27.003  28.976  1.00  0.00     0.135 A 
ATOM     78  F   UNL A   1      43.862  29.652  28.420  1.00  0.00    -0.206 F 
ATOM     79  C   UNL A   1      43.515  27.649  27.246  1.00  0.00     0.059 A 
ATOM     80  C   UNL A   1      41.760  26.125  27.950  1.00  0.00     0.059 A 
ATOM     81  F   UNL A   1      40.400  26.680  29.778  1.00  0.00    -0.206 F 
ATOM     82  C   UNL A   1      42.797  26.463  27.083  1.00  0.00     0.060 A 
BRANCH  82  83
ATOM     83  S   UNL A   1      43.240  25.366  25.719  1.00  0.00     0.124 S 
ATOM     84  O   UNL A   1      41.965  25.245  25.017  1.00  0.00    -0.237 OA
ATOM     85  O   UNL A   1      44.274  26.129  25.028  1.00  0.00    -0.237 OA
ATOM     86  O   UNL A   1      43.702  24.157  26.394  1.00  0.00    -0.744 OA
ENDBRANCH  82  83
ENDBRANCH  61  75
BRANCH  62  87
ATOM     87  C   UNL A   1      40.100  34.390  36.772  1.00  0.00     0.058 A 
ATOM     88  C   UNL A   1      39.498  33.929  37.952  1.00  0.00     0.135 A 
ATOM     89  C   UNL A   1      40.380  35.763  36.675  1.00  0.00     0.135 A 
ATOM     90  F   UNL A   1      39.198  32.629  38.088  1.00  0.00    -0.206 F 
ATOM     91  C   UNL A   1      39.172  34.796  38.992  1.00  0.00     0.059 A 
ATOM     92  C   UNL A   1      40.085  36.645  37.709  1.00  0.00     0.059 A 
ATOM     93  F   UNL A   1      40.959  36.253  35.568  1.00  0.00    -0.206 F 
ATOM     94  C   UNL A   1      39.472  36.153  38.861  1.00  0.00     0.060 A 
BRANCH  94  95
ATOM     95  S   UNL A   1      39.087  37.261  40.234  1.00  0.00     0.124 S 
ATOM     96  O   UNL A   1      38.248  36.410  41.071  1.00  0.00    -0.237 OA
ATOM     97  O   UNL A   1      40.412  37.567  40.762  1.00  0.00    -0.237 OA
ATOM     98  O   UNL A   1      38.405  38.376  39.584  1.00  0.00    -0.744 OA
ENDBRANCH  94  95
ENDBRANCH  62  87
BRANCH  74  99
ATOM     99  C   UNL A   1      36.982  33.024  30.681  1.00  0.00     0.058 A 
ATOM    100  C   UNL A   1      35.702  32.634  31.103  1.00  0.00     0.135 A 
ATOM    101  C   UNL A   1      37.074  33.996  29.671  1.00  0.00     0.135 A 
ATOM    102  F   UNL A   1      35.561  31.707  32.063  1.00  0.00    -0.206 F 
ATOM    103  C   UNL A   1      34.555  33.176  30.533  1.00  0.00     0.059 A 
ATOM    104  C   UNL A   1      35.940  34.570  29.105  1.00  0.00     0.059 A 
ATOM    105  F   UNL A   1      38.276  34.413  29.242  1.00  0.00    -0.206 F 
ATOM    106  C   UNL A   1      34.685  34.145  29.535  1.00  0.00     0.060 A 
BRANCH 106 107
ATOM    107  S   UNL A   1      33.189  34.870  28.830  1.00  0.00     0.124 S 
ATOM    108  O   UNL A   1      32.761  33.822  27.910  1.00  0.00    -0.237 OA
ATOM    109  O   UNL A   1      32.348  35.064  30.007  1.00  0.00    -0.237 OA
ATOM    110  O   UNL A   1      33.670  36.098  28.203  1.00  0.00    -0.744 OA
ENDBRANCH 106 107
ENDBRANCH  74  99
ENDBRANCH  48  49
ENDBRANCH  41  43
ENDBRANCH  40  41
ENDBRANCH  39  40
ENDBRANCH  38  39
ENDBRANCH  37  38
ENDBRANCH  36  37
ENDBRANCH   1  36
TORSDOF 24
ENDMDL
