MODEL 1
REMARK VINA RESULT:     -10.2      0.000      0.000
REMARK SMILES C[C@H](CNC(=O)N1C[C@H]2CCCC[N@@H+]2C[C@@H]1C)C(=O)OCCOCCOCCOC(=O)c1ccc(-c2c3nc(c(-c4c(F)cc(S(=O)(=O)[O-])cc4F)c4ccc([nH]4)c(-c4c(F)cc(S(=O)(=O)[O-])cc4F)c4nc(c(-c5c(F)cc(S(=O)(=O)[O-])cc5F)c5ccc2[nH]5)C=C4)C=C3)cc1
REMARK SMILES IDX 24 1 23 2 22 3 21 4 20 5 18 6 19 7 2 8 1 9 3 10 4 11 5 12
REMARK SMILES IDX 6 14 7 15 8 16 16 17 9 18 15 19 17 20 10 21 14 22 11 23
REMARK SMILES IDX 13 24 12 26 25 27 26 28 27 29 28 30 29 31 30 32 31 33 32 34
REMARK SMILES IDX 33 35 97 36 34 37 96 38 35 39 36 40 37 41 90 42 38 43 95 44
REMARK SMILES IDX 89 45 91 46 39 47 94 48 88 49 87 50 40 52 74 53 53 54 73 55
REMARK SMILES IDX 54 56 57 57 72 58 92 59 55 60 56 61 71 63 93 64 58 65 41 66
REMARK SMILES IDX 42 67 51 68 43 69 44 70 50 71 52 72 45 73 46 74 47 75 48 76
REMARK SMILES IDX 49 77 75 78 76 79 85 80 77 81 78 82 84 83 86 84 79 85 80 86
REMARK SMILES IDX 81 87 82 88 83 89 59 90 60 91 69 92 61 93 62 94 68 95 70 96
REMARK SMILES IDX 63 97 64 98 65 99 66 100 67 101
REMARK H PARENT 4 13 14 25 91 51 57 62
REMARK Flexibility Score: inf
ROOT
ATOM      1  C   UNL A   1      33.025  35.548  30.216  1.00  0.00     0.188 C 
ENDROOT
BRANCH   1   2
ATOM      2  O   UNL A   1      33.055  34.294  29.550  1.00  0.00    -0.376 OA
BRANCH   2   3
ATOM      3  C   UNL A   1      33.693  34.219  28.277  1.00  0.00     0.202 C 
BRANCH   3   4
ATOM      4  C   UNL A   1      34.529  32.970  27.932  1.00  0.00     0.261 C 
BRANCH   4   5
ATOM      5  O   UNL A   1      33.953  31.706  28.346  1.00  0.00    -0.463 OA
BRANCH   5   6
ATOM      6  C   UNL A   1      33.208  31.048  27.420  1.00  0.00     0.310 C 
ATOM      7  O   UNL A   1      32.229  31.545  26.869  1.00  0.00    -0.252 OA
BRANCH   6   8
ATOM      8  C   UNL A   1      33.711  29.643  27.051  1.00  0.00     0.115 C 
ATOM      9  C   UNL A   1      35.108  29.467  27.636  1.00  0.00     0.022 C 
BRANCH   8  10
ATOM     10  C   UNL A   1      33.588  29.207  25.576  1.00  0.00     0.132 C 
BRANCH  10  11
ATOM     11  N   UNL A   1      32.372  29.542  24.858  1.00  0.00    -0.337 N 
ATOM     12  C   UNL A   1      31.433  28.780  24.245  1.00  0.00     0.318 C 
ATOM     13  H   UNL A   1      32.195  30.509  24.805  1.00  0.00     0.165 HD
ATOM     14  O   UNL A   1      30.550  29.360  23.613  1.00  0.00    -0.249 OA
BRANCH  12  15
ATOM     15  N   UNL A   1      31.567  27.411  24.269  1.00  0.00    -0.311 N 
ATOM     16  C   UNL A   1      30.645  26.633  25.106  1.00  0.00     0.186 C 
ATOM     17  C   UNL A   1      31.872  26.748  22.987  1.00  0.00     0.139 C 
ATOM     18  C   UNL A   1      31.223  25.236  25.391  1.00  0.00     0.203 C 
ATOM     19  C   UNL A   1      32.097  25.206  23.099  1.00  0.00     0.287 C 
ATOM     20  C   UNL A   1      33.136  27.329  22.328  1.00  0.00     0.037 C 
ATOM     21  C   UNL A   1      30.321  24.429  26.336  1.00  0.00     0.067 C 
ATOM     22  N   UNL A   1      31.387  24.456  24.147  1.00  0.00    -0.329 N 
ATOM     23  C   UNL A   1      30.970  23.084  26.664  1.00  0.00     0.012 C 
ATOM     24  C   UNL A   1      32.106  23.196  24.427  1.00  0.00     0.262 C 
ATOM     25  H   UNL A   1      30.450  24.256  23.798  1.00  0.00     0.348 HD
ATOM     26  C   UNL A   1      31.328  22.315  25.401  1.00  0.00     0.062 C 
ENDBRANCH  12  15
ENDBRANCH  10  11
ENDBRANCH   8  10
ENDBRANCH   6   8
ENDBRANCH   5   6
ENDBRANCH   4   5
ENDBRANCH   3   4
ENDBRANCH   2   3
ENDBRANCH   1   2
BRANCH   1  27
ATOM     27  C   UNL A   1      33.302  35.575  31.725  1.00  0.00     0.188 C 
BRANCH  27  28
ATOM     28  O   UNL A   1      34.646  35.372  32.091  1.00  0.00    -0.376 OA
BRANCH  28  29
ATOM     29  C   UNL A   1      35.117  34.035  32.158  1.00  0.00     0.202 C 
BRANCH  29  30
ATOM     30  C   UNL A   1      36.349  33.607  31.330  1.00  0.00     0.261 C 
BRANCH  30  31
ATOM     31  O   UNL A   1      36.277  32.354  30.628  1.00  0.00    -0.460 OA
BRANCH  31  32
ATOM     32  C   UNL A   1      36.551  31.232  31.331  1.00  0.00     0.338 C 
ATOM     33  O   UNL A   1      35.841  30.716  32.188  1.00  0.00    -0.246 OA
BRANCH  32  34
ATOM     34  C   UNL A   1      37.716  30.573  30.700  1.00  0.00     0.060 A 
ATOM     35  C   UNL A   1      38.551  29.782  31.498  1.00  0.00     0.016 A 
ATOM     36  C   UNL A   1      37.984  30.713  29.338  1.00  0.00     0.016 A 
ATOM     37  C   UNL A   1      39.656  29.144  30.940  1.00  0.00     0.010 A 
ATOM     38  C   UNL A   1      39.129  30.111  28.794  1.00  0.00     0.010 A 
ATOM     39  C   UNL A   1      39.995  29.353  29.602  1.00  0.00    -0.014 A 
BRANCH  39  40
ATOM     40  C   UNL A   1      41.352  28.963  29.131  1.00  0.00     0.031 A 
ATOM     41  C   UNL A   1      42.436  30.013  29.129  1.00  0.00     0.074 A 
ATOM     42  C   UNL A   1      41.656  27.697  28.787  1.00  0.00     0.049 A 
ATOM     43  N   UNL A   1      43.656  29.951  28.663  1.00  0.00    -0.248 NA
ATOM     44  C   UNL A   1      42.091  31.308  29.739  1.00  0.00     0.031 C 
ATOM     45  C   UNL A   1      40.741  26.559  28.846  1.00  0.00     0.029 A 
ATOM     46  N   UNL A   1      42.829  27.159  28.314  1.00  0.00    -0.354 N 
ATOM     47  C   UNL A   1      44.211  31.206  28.887  1.00  0.00     0.074 A 
ATOM     48  C   UNL A   1      43.191  32.012  29.519  1.00  0.00     0.031 C 
ATOM     49  C   UNL A   1      41.381  25.460  28.408  1.00  0.00     0.029 A 
ATOM     50  C   UNL A   1      42.733  25.826  27.987  1.00  0.00     0.049 A 
ATOM     51  H   UNL A   1      43.660  27.678  28.220  1.00  0.00     0.167 HD
ATOM     52  C   UNL A   1      45.457  31.648  28.592  1.00  0.00     0.037 A 
ATOM     53  C   UNL A   1      43.616  25.007  27.378  1.00  0.00     0.037 A 
ATOM     54  C   UNL A   1      46.478  30.834  27.985  1.00  0.00     0.049 A 
ATOM     55  C   UNL A   1      44.969  25.543  26.977  1.00  0.00     0.074 A 
ATOM     56  C   UNL A   1      47.773  31.190  27.649  1.00  0.00     0.029 A 
ATOM     57  N   UNL A   1      46.324  29.503  27.625  1.00  0.00    -0.354 N 
ATOM     58  N   UNL A   1      45.471  26.741  27.158  1.00  0.00    -0.248 NA
ATOM     59  C   UNL A   1      45.875  24.614  26.284  1.00  0.00     0.031 C 
ATOM     60  C   UNL A   1      48.382  30.093  27.033  1.00  0.00     0.029 A 
ATOM     61  C   UNL A   1      47.491  29.032  27.046  1.00  0.00     0.049 A 
ATOM     62  H   UNL A   1      45.505  28.973  27.760  1.00  0.00     0.167 HD
ATOM     63  C   UNL A   1      46.759  26.701  26.630  1.00  0.00     0.074 A 
ATOM     64  C   UNL A   1      46.963  25.356  26.134  1.00  0.00     0.031 C 
ATOM     65  C   UNL A   1      47.689  27.687  26.564  1.00  0.00     0.037 A 
BRANCH  52  66
ATOM     66  C   UNL A   1      45.772  33.092  28.876  1.00  0.00     0.058 A 
ATOM     67  C   UNL A   1      46.354  33.507  30.085  1.00  0.00     0.135 A 
ATOM     68  C   UNL A   1      45.514  34.072  27.904  1.00  0.00     0.135 A 
ATOM     69  F   UNL A   1      46.602  32.616  31.059  1.00  0.00    -0.206 F 
ATOM     70  C   UNL A   1      46.645  34.847  30.328  1.00  0.00     0.059 A 
ATOM     71  C   UNL A   1      45.826  35.412  28.113  1.00  0.00     0.059 A 
ATOM     72  F   UNL A   1      44.954  33.732  26.732  1.00  0.00    -0.206 F 
ATOM     73  C   UNL A   1      46.378  35.791  29.335  1.00  0.00     0.060 A 
BRANCH  73  74
ATOM     74  S   UNL A   1      46.768  37.523  29.663  1.00  0.00     0.124 S 
ATOM     75  O   UNL A   1      45.485  38.166  29.395  1.00  0.00    -0.237 OA
ATOM     76  O   UNL A   1      47.179  37.489  31.063  1.00  0.00    -0.237 OA
ATOM     77  O   UNL A   1      47.830  37.820  28.708  1.00  0.00    -0.744 OA
ENDBRANCH  73  74
ENDBRANCH  52  66
BRANCH  53  78
ATOM     78  C   UNL A   1      43.240  23.599  27.070  1.00  0.00     0.058 A 
ATOM     79  C   UNL A   1      43.178  22.623  28.076  1.00  0.00     0.135 A 
ATOM     80  C   UNL A   1      42.948  23.198  25.756  1.00  0.00     0.135 A 
ATOM     81  F   UNL A   1      43.467  22.951  29.345  1.00  0.00    -0.206 F 
ATOM     82  C   UNL A   1      42.853  21.300  27.792  1.00  0.00     0.059 A 
ATOM     83  C   UNL A   1      42.590  21.889  25.451  1.00  0.00     0.059 A 
ATOM     84  F   UNL A   1      42.989  24.091  24.755  1.00  0.00    -0.206 F 
ATOM     85  C   UNL A   1      42.555  20.944  26.475  1.00  0.00     0.060 A 
BRANCH  85  86
ATOM     86  S   UNL A   1      42.082  19.236  26.126  1.00  0.00     0.124 S 
ATOM     87  O   UNL A   1      40.662  19.378  25.832  1.00  0.00    -0.237 OA
ATOM     88  O   UNL A   1      42.941  18.908  24.993  1.00  0.00    -0.237 OA
ATOM     89  O   UNL A   1      42.404  18.540  27.369  1.00  0.00    -0.744 OA
ENDBRANCH  85  86
ENDBRANCH  53  78
BRANCH  65  90
ATOM     90  C   UNL A   1      49.036  27.343  25.981  1.00  0.00     0.058 A 
ATOM     91  C   UNL A   1      50.112  26.933  26.783  1.00  0.00     0.135 A 
ATOM     92  C   UNL A   1      49.234  27.378  24.590  1.00  0.00     0.135 A 
ATOM     93  F   UNL A   1      49.981  26.885  28.117  1.00  0.00    -0.206 F 
ATOM     94  C   UNL A   1      51.345  26.598  26.229  1.00  0.00     0.059 A 
ATOM     95  C   UNL A   1      50.447  27.017  24.013  1.00  0.00     0.059 A 
ATOM     96  F   UNL A   1      48.234  27.750  23.774  1.00  0.00    -0.206 F 
ATOM     97  C   UNL A   1      51.502  26.641  24.842  1.00  0.00     0.060 A 
BRANCH  97  98
ATOM     98  S   UNL A   1      53.100  26.182  24.137  1.00  0.00     0.124 S 
ATOM     99  O   UNL A   1      53.988  27.156  24.762  1.00  0.00    -0.237 OA
ATOM    100  O   UNL A   1      53.253  24.802  24.586  1.00  0.00    -0.237 OA
ATOM    101  O   UNL A   1      52.897  26.349  22.700  1.00  0.00    -0.744 OA
ENDBRANCH  97  98
ENDBRANCH  65  90
ENDBRANCH  39  40
ENDBRANCH  32  34
ENDBRANCH  31  32
ENDBRANCH  30  31
ENDBRANCH  29  30
ENDBRANCH  28  29
ENDBRANCH  27  28
ENDBRANCH   1  27
TORSDOF 23
ENDMDL
MODEL 2
REMARK VINA RESULT:      -9.8      1.313      8.195
REMARK SMILES C[C@H](CNC(=O)N1C[C@H]2CCCC[N@@H+]2C[C@@H]1C)C(=O)OCCOCCOCCOC(=O)c1ccc(-c2c3nc(c(-c4c(F)cc(S(=O)(=O)[O-])cc4F)c4ccc([nH]4)c(-c4c(F)cc(S(=O)(=O)[O-])cc4F)c4nc(c(-c5c(F)cc(S(=O)(=O)[O-])cc5F)c5ccc2[nH]5)C=C4)C=C3)cc1
REMARK SMILES IDX 24 1 23 2 22 3 21 4 20 5 18 6 19 7 2 8 1 9 3 10 4 11 5 12
REMARK SMILES IDX 6 14 7 15 8 16 16 17 9 18 15 19 17 20 10 21 14 22 11 23
REMARK SMILES IDX 13 24 12 26 25 27 26 28 27 29 28 30 29 31 30 32 31 33 32 34
REMARK SMILES IDX 33 35 97 36 34 37 96 38 35 39 36 40 37 41 90 42 38 43 95 44
REMARK SMILES IDX 89 45 91 46 39 47 94 48 88 49 87 50 40 52 74 53 53 54 73 55
REMARK SMILES IDX 54 56 57 57 72 58 92 59 55 60 56 61 71 63 93 64 58 65 41 66
REMARK SMILES IDX 42 67 51 68 43 69 44 70 50 71 52 72 45 73 46 74 47 75 48 76
REMARK SMILES IDX 49 77 75 78 76 79 85 80 77 81 78 82 84 83 86 84 79 85 80 86
REMARK SMILES IDX 81 87 82 88 83 89 59 90 60 91 69 92 61 93 62 94 68 95 70 96
REMARK SMILES IDX 63 97 64 98 65 99 66 100 67 101
REMARK H PARENT 4 13 14 25 91 51 57 62
REMARK Flexibility Score: inf
ROOT
ATOM      1  C   UNL A   1      35.300  33.605  28.780  1.00  0.00     0.188 C 
ENDROOT
BRANCH   1   2
ATOM      2  O   UNL A   1      35.281  32.791  27.617  1.00  0.00    -0.376 OA
BRANCH   2   3
ATOM      3  C   UNL A   1      35.246  31.375  27.783  1.00  0.00     0.202 C 
BRANCH   3   4
ATOM      4  C   UNL A   1      34.223  30.552  26.975  1.00  0.00     0.261 C 
BRANCH   4   5
ATOM      5  O   UNL A   1      33.274  29.795  27.766  1.00  0.00    -0.463 OA
BRANCH   5   6
ATOM      6  C   UNL A   1      32.249  29.214  27.090  1.00  0.00     0.310 C 
ATOM      7  O   UNL A   1      31.400  28.511  27.632  1.00  0.00    -0.252 OA
BRANCH   6   8
ATOM      8  C   UNL A   1      32.177  29.550  25.592  1.00  0.00     0.115 C 
ATOM      9  C   UNL A   1      31.157  30.667  25.401  1.00  0.00     0.022 C 
BRANCH   8  10
ATOM     10  C   UNL A   1      32.016  28.376  24.605  1.00  0.00     0.132 C 
BRANCH  10  11
ATOM     11  N   UNL A   1      30.679  27.869  24.350  1.00  0.00    -0.337 N 
ATOM     12  C   UNL A   1      30.185  26.612  24.232  1.00  0.00     0.318 C 
ATOM     13  H   UNL A   1      30.001  28.574  24.242  1.00  0.00     0.165 HD
ATOM     14  O   UNL A   1      29.006  26.491  23.900  1.00  0.00    -0.249 OA
BRANCH  12  15
ATOM     15  N   UNL A   1      31.039  25.544  24.381  1.00  0.00    -0.311 N 
ATOM     16  C   UNL A   1      30.940  24.735  25.602  1.00  0.00     0.186 C 
ATOM     17  C   UNL A   1      31.310  24.732  23.179  1.00  0.00     0.139 C 
ATOM     18  C   UNL A   1      32.232  23.930  25.823  1.00  0.00     0.203 C 
ATOM     19  C   UNL A   1      32.353  23.590  23.397  1.00  0.00     0.287 C 
ATOM     20  C   UNL A   1      31.835  25.590  22.015  1.00  0.00     0.037 C 
ATOM     21  C   UNL A   1      32.193  23.140  27.140  1.00  0.00     0.067 C 
ATOM     22  N   UNL A   1      32.462  22.968  24.726  1.00  0.00    -0.329 N 
ATOM     23  C   UNL A   1      33.525  22.425  27.365  1.00  0.00     0.012 C 
ATOM     24  C   UNL A   1      33.792  22.340  24.870  1.00  0.00     0.262 C 
ATOM     25  H   UNL A   1      31.731  22.262  24.794  1.00  0.00     0.348 HD
ATOM     26  C   UNL A   1      33.899  21.556  26.175  1.00  0.00     0.062 C 
ENDBRANCH  12  15
ENDBRANCH  10  11
ENDBRANCH   8  10
ENDBRANCH   6   8
ENDBRANCH   5   6
ENDBRANCH   4   5
ENDBRANCH   3   4
ENDBRANCH   2   3
ENDBRANCH   1   2
BRANCH   1  27
ATOM     27  C   UNL A   1      34.407  33.203  29.962  1.00  0.00     0.188 C 
BRANCH  27  28
ATOM     28  O   UNL A   1      34.880  33.592  31.229  1.00  0.00    -0.376 OA
BRANCH  28  29
ATOM     29  C   UNL A   1      35.264  32.568  32.134  1.00  0.00     0.202 C 
BRANCH  29  30
ATOM     30  C   UNL A   1      36.710  32.028  32.119  1.00  0.00     0.261 C 
BRANCH  30  31
ATOM     31  O   UNL A   1      36.897  30.619  32.341  1.00  0.00    -0.460 OA
BRANCH  31  32
ATOM     32  C   UNL A   1      36.951  29.821  31.252  1.00  0.00     0.338 C 
ATOM     33  O   UNL A   1      35.995  29.352  30.642  1.00  0.00    -0.246 OA
BRANCH  32  34
ATOM     34  C   UNL A   1      38.342  29.833  30.748  1.00  0.00     0.060 A 
ATOM     35  C   UNL A   1      38.559  30.077  29.387  1.00  0.00     0.016 A 
ATOM     36  C   UNL A   1      39.428  29.623  31.599  1.00  0.00     0.016 A 
ATOM     37  C   UNL A   1      39.854  30.098  28.876  1.00  0.00     0.010 A 
ATOM     38  C   UNL A   1      40.726  29.594  31.068  1.00  0.00     0.010 A 
ATOM     39  C   UNL A   1      40.944  29.792  29.693  1.00  0.00    -0.014 A 
BRANCH  39  40
ATOM     40  C   UNL A   1      42.254  29.470  29.061  1.00  0.00     0.031 A 
ATOM     41  C   UNL A   1      42.462  28.077  28.522  1.00  0.00     0.074 A 
ATOM     42  C   UNL A   1      43.214  30.398  28.888  1.00  0.00     0.049 A 
ATOM     43  N   UNL A   1      43.542  27.525  28.034  1.00  0.00    -0.248 NA
ATOM     44  C   UNL A   1      41.287  27.189  28.534  1.00  0.00     0.031 C 
ATOM     45  C   UNL A   1      43.108  31.808  29.258  1.00  0.00     0.029 A 
ATOM     46  N   UNL A   1      44.476  30.286  28.354  1.00  0.00    -0.354 N 
ATOM     47  C   UNL A   1      43.190  26.216  27.719  1.00  0.00     0.074 A 
ATOM     48  C   UNL A   1      41.799  26.055  28.082  1.00  0.00     0.031 C 
ATOM     49  C   UNL A   1      44.264  32.426  28.958  1.00  0.00     0.029 A 
ATOM     50  C   UNL A   1      45.210  31.448  28.425  1.00  0.00     0.049 A 
ATOM     51  H   UNL A   1      44.821  29.454  27.958  1.00  0.00     0.167 HD
ATOM     52  C   UNL A   1      43.954  25.239  27.178  1.00  0.00     0.037 A 
ATOM     53  C   UNL A   1      46.507  31.683  28.134  1.00  0.00     0.037 A 
ATOM     54  C   UNL A   1      45.332  25.411  26.796  1.00  0.00     0.049 A 
ATOM     55  C   UNL A   1      47.367  30.556  27.616  1.00  0.00     0.074 A 
ATOM     56  C   UNL A   1      46.190  24.480  26.237  1.00  0.00     0.029 A 
ATOM     57  N   UNL A   1      46.052  26.589  26.928  1.00  0.00    -0.354 N 
ATOM     58  N   UNL A   1      47.035  29.314  27.357  1.00  0.00    -0.248 NA
ATOM     59  C   UNL A   1      48.781  30.864  27.352  1.00  0.00     0.031 C 
ATOM     60  C   UNL A   1      47.446  25.078  26.086  1.00  0.00     0.029 A 
ATOM     61  C   UNL A   1      47.352  26.401  26.487  1.00  0.00     0.049 A 
ATOM     62  H   UNL A   1      45.692  27.433  27.285  1.00  0.00     0.167 HD
ATOM     63  C   UNL A   1      48.189  28.702  26.873  1.00  0.00     0.074 A 
ATOM     64  C   UNL A   1      49.224  29.714  26.863  1.00  0.00     0.031 C 
ATOM     65  C   UNL A   1      48.373  27.419  26.471  1.00  0.00     0.037 A 
BRANCH  52  66
ATOM     66  C   UNL A   1      43.334  23.877  27.012  1.00  0.00     0.058 A 
ATOM     67  C   UNL A   1      43.160  22.997  28.092  1.00  0.00     0.135 A 
ATOM     68  C   UNL A   1      42.878  23.462  25.750  1.00  0.00     0.135 A 
ATOM     69  F   UNL A   1      43.597  23.333  29.316  1.00  0.00    -0.206 F 
ATOM     70  C   UNL A   1      42.579  21.744  27.920  1.00  0.00     0.059 A 
ATOM     71  C   UNL A   1      42.265  22.227  25.562  1.00  0.00     0.059 A 
ATOM     72  F   UNL A   1      43.024  24.261  24.681  1.00  0.00    -0.206 F 
ATOM     73  C   UNL A   1      42.133  21.368  26.652  1.00  0.00     0.060 A 
BRANCH  73  74
ATOM     74  S   UNL A   1      41.375  19.743  26.448  1.00  0.00     0.124 S 
ATOM     75  O   UNL A   1      40.008  20.104  26.086  1.00  0.00    -0.237 OA
ATOM     76  O   UNL A   1      42.179  19.157  25.382  1.00  0.00    -0.237 OA
ATOM     77  O   UNL A   1      41.534  19.127  27.761  1.00  0.00    -0.744 OA
ENDBRANCH  73  74
ENDBRANCH  52  66
BRANCH  53  78
ATOM     78  C   UNL A   1      47.091  33.034  28.365  1.00  0.00     0.058 A 
ATOM     79  C   UNL A   1      47.127  33.997  27.345  1.00  0.00     0.135 A 
ATOM     80  C   UNL A   1      47.639  33.385  29.609  1.00  0.00     0.135 A 
ATOM     81  F   UNL A   1      46.634  33.705  26.131  1.00  0.00    -0.206 F 
ATOM     82  C   UNL A   1      47.695  35.252  27.545  1.00  0.00     0.059 A 
ATOM     83  C   UNL A   1      48.183  34.643  29.844  1.00  0.00     0.059 A 
ATOM     84  F   UNL A   1      47.629  32.503  30.621  1.00  0.00    -0.206 F 
ATOM     85  C   UNL A   1      48.216  35.567  28.801  1.00  0.00     0.060 A 
BRANCH  85  86
ATOM     86  S   UNL A   1      48.901  37.217  29.064  1.00  0.00     0.124 S 
ATOM     87  O   UNL A   1      49.658  37.029  30.296  1.00  0.00    -0.237 OA
ATOM     88  O   UNL A   1      49.690  37.415  27.852  1.00  0.00    -0.237 OA
ATOM     89  O   UNL A   1      47.713  38.059  29.174  1.00  0.00    -0.744 OA
ENDBRANCH  85  86
ENDBRANCH  53  78
BRANCH  65  90
ATOM     90  C   UNL A   1      49.730  27.040  25.935  1.00  0.00     0.058 A 
ATOM     91  C   UNL A   1      50.075  27.216  24.586  1.00  0.00     0.135 A 
ATOM     92  C   UNL A   1      50.718  26.539  26.801  1.00  0.00     0.135 A 
ATOM     93  F   UNL A   1      49.170  27.687  23.714  1.00  0.00    -0.206 F 
ATOM     94  C   UNL A   1      51.339  26.882  24.109  1.00  0.00     0.059 A 
ATOM     95  C   UNL A   1      51.998  26.228  26.352  1.00  0.00     0.059 A 
ATOM     96  F   UNL A   1      50.448  26.363  28.105  1.00  0.00    -0.206 F 
ATOM     97  C   UNL A   1      52.295  26.390  25.000  1.00  0.00     0.060 A 
BRANCH  97  98
ATOM     98  S   UNL A   1      53.937  25.982  24.371  1.00  0.00     0.124 S 
ATOM     99  O   UNL A   1      54.021  24.557  24.670  1.00  0.00    -0.237 OA
ATOM    100  O   UNL A   1      53.824  26.329  22.958  1.00  0.00    -0.237 OA
ATOM    101  O   UNL A   1      54.824  26.841  25.152  1.00  0.00    -0.744 OA
ENDBRANCH  97  98
ENDBRANCH  65  90
ENDBRANCH  39  40
ENDBRANCH  32  34
ENDBRANCH  31  32
ENDBRANCH  30  31
ENDBRANCH  29  30
ENDBRANCH  28  29
ENDBRANCH  27  28
ENDBRANCH   1  27
TORSDOF 23
ENDMDL
MODEL 3
REMARK VINA RESULT:      -9.8      1.419      8.296
REMARK SMILES C[C@H](CNC(=O)N1C[C@H]2CCCC[N@@H+]2C[C@@H]1C)C(=O)OCCOCCOCCOC(=O)c1ccc(-c2c3nc(c(-c4c(F)cc(S(=O)(=O)[O-])cc4F)c4ccc([nH]4)c(-c4c(F)cc(S(=O)(=O)[O-])cc4F)c4nc(c(-c5c(F)cc(S(=O)(=O)[O-])cc5F)c5ccc2[nH]5)C=C4)C=C3)cc1
REMARK SMILES IDX 24 1 23 2 22 3 21 4 20 5 18 6 19 7 2 8 1 9 3 10 4 11 5 12
REMARK SMILES IDX 6 14 7 15 8 16 16 17 9 18 15 19 17 20 10 21 14 22 11 23
REMARK SMILES IDX 13 24 12 26 25 27 26 28 27 29 28 30 29 31 30 32 31 33 32 34
REMARK SMILES IDX 33 35 97 36 34 37 96 38 35 39 36 40 37 41 90 42 38 43 95 44
REMARK SMILES IDX 89 45 91 46 39 47 94 48 88 49 87 50 40 52 74 53 53 54 73 55
REMARK SMILES IDX 54 56 57 57 72 58 92 59 55 60 56 61 71 63 93 64 58 65 41 66
REMARK SMILES IDX 42 67 51 68 43 69 44 70 50 71 52 72 45 73 46 74 47 75 48 76
REMARK SMILES IDX 49 77 75 78 76 79 85 80 77 81 78 82 84 83 86 84 79 85 80 86
REMARK SMILES IDX 81 87 82 88 83 89 59 90 60 91 69 92 61 93 62 94 68 95 70 96
REMARK SMILES IDX 63 97 64 98 65 99 66 100 67 101
REMARK H PARENT 4 13 14 25 91 51 57 62
REMARK Flexibility Score: inf
ROOT
ATOM      1  C   UNL A   1      33.665  36.917  31.691  1.00  0.00     0.188 C 
ENDROOT
BRANCH   1   2
ATOM      2  O   UNL A   1      32.703  36.317  30.836  1.00  0.00    -0.376 OA
BRANCH   2   3
ATOM      3  C   UNL A   1      33.137  35.821  29.572  1.00  0.00     0.202 C 
BRANCH   3   4
ATOM      4  C   UNL A   1      33.422  34.314  29.417  1.00  0.00     0.261 C 
BRANCH   4   5
ATOM      5  O   UNL A   1      33.273  33.791  28.075  1.00  0.00    -0.463 OA
BRANCH   5   6
ATOM      6  C   UNL A   1      33.664  32.505  27.879  1.00  0.00     0.310 C 
ATOM      7  O   UNL A   1      34.573  31.975  28.513  1.00  0.00    -0.252 OA
BRANCH   6   8
ATOM      8  C   UNL A   1      32.842  31.718  26.845  1.00  0.00     0.115 C 
ATOM      9  C   UNL A   1      31.420  32.269  26.846  1.00  0.00     0.022 C 
BRANCH   8  10
ATOM     10  C   UNL A   1      32.920  30.179  26.893  1.00  0.00     0.132 C 
BRANCH  10  11
ATOM     11  N   UNL A   1      33.769  29.501  25.929  1.00  0.00    -0.337 N 
ATOM     12  C   UNL A   1      33.491  28.732  24.848  1.00  0.00     0.318 C 
ATOM     13  H   UNL A   1      34.732  29.625  26.092  1.00  0.00     0.165 HD
ATOM     14  O   UNL A   1      34.437  28.194  24.272  1.00  0.00    -0.249 OA
BRANCH  12  15
ATOM     15  N   UNL A   1      32.176  28.505  24.513  1.00  0.00    -0.311 N 
ATOM     16  C   UNL A   1      31.494  29.483  23.657  1.00  0.00     0.186 C 
ATOM     17  C   UNL A   1      31.797  27.113  24.203  1.00  0.00     0.139 C 
ATOM     18  C   UNL A   1      29.968  29.340  23.784  1.00  0.00     0.203 C 
ATOM     19  C   UNL A   1      30.276  26.910  23.915  1.00  0.00     0.287 C 
ATOM     20  C   UNL A   1      32.159  26.152  25.349  1.00  0.00     0.037 C 
ATOM     21  C   UNL A   1      29.226  30.408  22.967  1.00  0.00     0.067 C 
ATOM     22  N   UNL A   1      29.510  28.016  23.318  1.00  0.00    -0.329 N 
ATOM     23  C   UNL A   1      27.718  30.288  23.187  1.00  0.00     0.012 C 
ATOM     24  C   UNL A   1      28.073  27.840  23.617  1.00  0.00     0.262 C 
ATOM     25  H   UNL A   1      29.666  27.986  22.311  1.00  0.00     0.348 HD
ATOM     26  C   UNL A   1      27.222  28.881  22.894  1.00  0.00     0.062 C 
ENDBRANCH  12  15
ENDBRANCH  10  11
ENDBRANCH   8  10
ENDBRANCH   6   8
ENDBRANCH   5   6
ENDBRANCH   4   5
ENDBRANCH   3   4
ENDBRANCH   2   3
ENDBRANCH   1   2
BRANCH   1  27
ATOM     27  C   UNL A   1      34.166  36.110  32.897  1.00  0.00     0.188 C 
BRANCH  27  28
ATOM     28  O   UNL A   1      35.475  35.606  32.778  1.00  0.00    -0.376 OA
BRANCH  28  29
ATOM     29  C   UNL A   1      35.628  34.258  32.362  1.00  0.00     0.202 C 
BRANCH  29  30
ATOM     30  C   UNL A   1      36.852  33.845  31.516  1.00  0.00     0.261 C 
BRANCH  30  31
ATOM     31  O   UNL A   1      36.961  32.463  31.134  1.00  0.00    -0.460 OA
BRANCH  31  32
ATOM     32  C   UNL A   1      37.628  31.638  31.971  1.00  0.00     0.338 C 
ATOM     33  O   UNL A   1      37.262  31.276  33.084  1.00  0.00    -0.246 OA
BRANCH  32  34
ATOM     34  C   UNL A   1      38.739  31.021  31.213  1.00  0.00     0.060 A 
ATOM     35  C   UNL A   1      39.807  30.461  31.926  1.00  0.00     0.016 A 
ATOM     36  C   UNL A   1      38.733  30.975  29.819  1.00  0.00     0.016 A 
ATOM     37  C   UNL A   1      40.869  29.871  31.248  1.00  0.00     0.010 A 
ATOM     38  C   UNL A   1      39.833  30.425  29.142  1.00  0.00     0.010 A 
ATOM     39  C   UNL A   1      40.928  29.904  29.854  1.00  0.00    -0.014 A 
BRANCH  39  40
ATOM     40  C   UNL A   1      42.218  29.597  29.176  1.00  0.00     0.031 A 
ATOM     41  C   UNL A   1      42.421  28.208  28.625  1.00  0.00     0.074 A 
ATOM     42  C   UNL A   1      43.162  30.535  28.973  1.00  0.00     0.049 A 
ATOM     43  N   UNL A   1      43.490  27.668  28.099  1.00  0.00    -0.248 NA
ATOM     44  C   UNL A   1      41.256  27.308  28.675  1.00  0.00     0.031 C 
ATOM     45  C   UNL A   1      43.055  31.943  29.352  1.00  0.00     0.029 A 
ATOM     46  N   UNL A   1      44.406  30.437  28.396  1.00  0.00    -0.354 N 
ATOM     47  C   UNL A   1      43.140  26.357  27.792  1.00  0.00     0.074 A 
ATOM     48  C   UNL A   1      41.764  26.180  28.202  1.00  0.00     0.031 C 
ATOM     49  C   UNL A   1      44.193  32.574  29.014  1.00  0.00     0.029 A 
ATOM     50  C   UNL A   1      45.130  31.606  28.445  1.00  0.00     0.049 A 
ATOM     51  H   UNL A   1      44.746  29.610  27.986  1.00  0.00     0.167 HD
ATOM     52  C   UNL A   1      43.895  25.389  27.222  1.00  0.00     0.037 A 
ATOM     53  C   UNL A   1      46.414  31.856  28.111  1.00  0.00     0.037 A 
ATOM     54  C   UNL A   1      45.257  25.576  26.793  1.00  0.00     0.049 A 
ATOM     55  C   UNL A   1      47.267  30.740  27.559  1.00  0.00     0.074 A 
ATOM     56  C   UNL A   1      46.105  24.656  26.202  1.00  0.00     0.029 A 
ATOM     57  N   UNL A   1      45.969  26.761  26.904  1.00  0.00    -0.354 N 
ATOM     58  N   UNL A   1      46.939  29.494  27.308  1.00  0.00    -0.248 NA
ATOM     59  C   UNL A   1      48.668  31.063  27.248  1.00  0.00     0.031 C 
ATOM     60  C   UNL A   1      47.348  25.267  26.010  1.00  0.00     0.029 A 
ATOM     61  C   UNL A   1      47.255  26.588  26.418  1.00  0.00     0.049 A 
ATOM     62  H   UNL A   1      45.613  27.601  27.276  1.00  0.00     0.167 HD
ATOM     63  C   UNL A   1      48.081  28.896  26.782  1.00  0.00     0.074 A 
ATOM     64  C   UNL A   1      49.105  29.919  26.740  1.00  0.00     0.031 C 
ATOM     65  C   UNL A   1      48.265  27.616  26.370  1.00  0.00     0.037 A 
BRANCH  52  66
ATOM     66  C   UNL A   1      43.283  24.021  27.073  1.00  0.00     0.058 A 
ATOM     67  C   UNL A   1      42.786  23.554  25.846  1.00  0.00     0.135 A 
ATOM     68  C   UNL A   1      43.225  23.154  28.175  1.00  0.00     0.135 A 
ATOM     69  F   UNL A   1      42.796  24.348  24.763  1.00  0.00    -0.206 F 
ATOM     70  C   UNL A   1      42.229  22.283  25.725  1.00  0.00     0.059 A 
ATOM     71  C   UNL A   1      42.701  21.868  28.070  1.00  0.00     0.059 A 
ATOM     72  F   UNL A   1      43.681  23.551  29.374  1.00  0.00    -0.206 F 
ATOM     73  C   UNL A   1      42.193  21.448  26.843  1.00  0.00     0.060 A 
BRANCH  73  74
ATOM     74  S   UNL A   1      41.474  19.802  26.667  1.00  0.00     0.124 S 
ATOM     75  O   UNL A   1      41.963  19.411  25.348  1.00  0.00    -0.237 OA
ATOM     76  O   UNL A   1      42.058  19.085  27.796  1.00  0.00    -0.237 OA
ATOM     77  O   UNL A   1      40.038  20.045  26.757  1.00  0.00    -0.744 OA
ENDBRANCH  73  74
ENDBRANCH  52  66
BRANCH  53  78
ATOM     78  C   UNL A   1      46.992  33.212  28.326  1.00  0.00     0.058 A 
ATOM     79  C   UNL A   1      47.568  33.573  29.553  1.00  0.00     0.135 A 
ATOM     80  C   UNL A   1      46.965  34.181  27.310  1.00  0.00     0.135 A 
ATOM     81  F   UNL A   1      47.602  32.690  30.563  1.00  0.00    -0.206 F 
ATOM     82  C   UNL A   1      48.086  34.846  29.770  1.00  0.00     0.059 A 
ATOM     83  C   UNL A   1      47.504  35.450  27.491  1.00  0.00     0.059 A 
ATOM     84  F   UNL A   1      46.427  33.889  26.115  1.00  0.00    -0.206 F 
ATOM     85  C   UNL A   1      48.054  35.777  28.729  1.00  0.00     0.060 A 
BRANCH  85  86
ATOM     86  S   UNL A   1      48.778  37.409  29.006  1.00  0.00     0.124 S 
ATOM     87  O   UNL A   1      47.621  38.277  28.829  1.00  0.00    -0.237 OA
ATOM     88  O   UNL A   1      49.286  37.289  30.369  1.00  0.00    -0.237 OA
ATOM     89  O   UNL A   1      49.802  37.501  27.968  1.00  0.00    -0.744 OA
ENDBRANCH  85  86
ENDBRANCH  53  78
BRANCH  65  90
ATOM     90  C   UNL A   1      49.606  27.253  25.787  1.00  0.00     0.058 A 
ATOM     91  C   UNL A   1      49.857  27.303  24.407  1.00  0.00     0.135 A 
ATOM     92  C   UNL A   1      50.672  26.898  26.631  1.00  0.00     0.135 A 
ATOM     93  F   UNL A   1      48.876  27.632  23.553  1.00  0.00    -0.206 F 
ATOM     94  C   UNL A   1      51.107  26.985  23.883  1.00  0.00     0.059 A 
ATOM     95  C   UNL A   1      51.938  26.607  26.133  1.00  0.00     0.059 A 
ATOM     96  F   UNL A   1      50.493  26.847  27.961  1.00  0.00    -0.206 F 
ATOM     97  C   UNL A   1      52.142  26.640  24.754  1.00  0.00     0.060 A 
BRANCH  97  98
ATOM     98  S   UNL A   1      53.765  26.253  24.062  1.00  0.00     0.124 S 
ATOM     99  O   UNL A   1      54.516  27.462  24.380  1.00  0.00    -0.237 OA
ATOM    100  O   UNL A   1      54.143  25.056  24.806  1.00  0.00    -0.237 OA
ATOM    101  O   UNL A   1      53.487  26.040  22.644  1.00  0.00    -0.744 OA
ENDBRANCH  97  98
ENDBRANCH  65  90
ENDBRANCH  39  40
ENDBRANCH  32  34
ENDBRANCH  31  32
ENDBRANCH  30  31
ENDBRANCH  29  30
ENDBRANCH  28  29
ENDBRANCH  27  28
ENDBRANCH   1  27
TORSDOF 23
ENDMDL
