MODEL 1
REMARK VINA RESULT:      -9.5      0.000      0.000
REMARK SMILES C=Cc1cc(Cl)cc2c1O[C@H](C(F)(F)F)C(C(=O)OCCOCCOCCOC(=O)c1ccc(-c3c4nc(c(-c5c(F)cc(S(=O)(=O)[O-])cc5F)c5ccc([nH]5)c(-c5c(F)cc(S(=O)(=O)[O-])cc5F)c5nc(c(-c6c(F)cc(S(=O)(=O)[O-])cc6F)c6ccc3[nH]6)C=C5)C=C4)cc1)=C2
REMARK SMILES IDX 24 1 23 2 22 3 21 4 20 5 19 6 17 7 18 8 16 9 3 10 4 11 9 12
REMARK SMILES IDX 5 13 8 14 10 15 6 16 7 17 97 18 11 19 2 20 1 21 12 22 13 23
REMARK SMILES IDX 14 24 15 25 25 26 26 27 27 28 28 29 29 30 30 31 31 32 32 33
REMARK SMILES IDX 96 34 33 35 95 36 34 37 35 38 36 39 89 40 37 41 94 42 88 43
REMARK SMILES IDX 90 44 38 45 93 46 87 47 86 48 39 50 73 51 52 52 72 53 53 54
REMARK SMILES IDX 56 55 71 56 91 57 54 58 55 59 70 61 92 62 57 63 40 64 41 65
REMARK SMILES IDX 50 66 42 67 43 68 49 69 51 70 44 71 45 72 46 73 47 74 48 75
REMARK SMILES IDX 74 76 75 77 84 78 76 79 77 80 83 81 85 82 78 83 79 84 80 85
REMARK SMILES IDX 81 86 82 87 58 88 59 89 68 90 60 91 61 92 67 93 69 94 62 95
REMARK SMILES IDX 63 96 64 97 65 98 66 99
REMARK H PARENT 90 49 56 60
REMARK Flexibility Score: inf
ROOT
ATOM      1  C   UNL A   1      33.174  35.386  29.672  1.00  0.00     0.188 C 
ENDROOT
BRANCH   1   2
ATOM      2  C   UNL A   1      33.007  36.146  31.006  1.00  0.00     0.188 C 
BRANCH   2   3
ATOM      3  O   UNL A   1      32.775  35.278  32.096  1.00  0.00    -0.376 OA
BRANCH   3   4
ATOM      4  C   UNL A   1      33.881  34.826  32.853  1.00  0.00     0.202 C 
BRANCH   4   5
ATOM      5  C   UNL A   1      33.979  33.355  33.289  1.00  0.00     0.261 C 
BRANCH   5   6
ATOM      6  O   UNL A   1      35.299  32.824  33.468  1.00  0.00    -0.460 OA
BRANCH   6   7
ATOM      7  C   UNL A   1      36.085  33.427  34.387  1.00  0.00     0.338 C 
ATOM      8  O   UNL A   1      35.749  33.794  35.500  1.00  0.00    -0.246 OA
BRANCH   7   9
ATOM      9  C   UNL A   1      37.469  33.474  33.867  1.00  0.00     0.087 C 
ATOM     10  C   UNL A   1      41.372  33.496  32.307  1.00  0.00     0.018 A 
ATOM     11  C   UNL A   1      41.575  34.028  31.026  1.00  0.00     0.032 A 
ATOM     12  C   UNL A   1      40.070  33.529  32.857  1.00  0.00     0.135 A 
ATOM     13  C   UNL A   1      40.518  34.604  30.324  1.00  0.00     0.042 A 
ATOM     14  C   UNL A   1      39.004  34.076  32.129  1.00  0.00     0.019 A 
ATOM     15  O   UNL A   1      39.912  33.012  34.115  1.00  0.00    -0.475 OA
ATOM     16  Cl  UNL A   1      40.795  35.258  28.757  1.00  0.00    -0.084 Cl
ATOM     17  C   UNL A   1      39.237  34.632  30.867  1.00  0.00     0.032 A 
ATOM     18  C   UNL A   1      37.650  34.026  32.661  1.00  0.00     0.027 C 
ATOM     19  C   UNL A   1      38.592  32.944  34.717  1.00  0.00     0.316 C 
BRANCH  10  20
ATOM     20  C   UNL A   1      42.475  32.827  33.027  1.00  0.00     0.004 C 
ATOM     21  C   UNL A   1      43.193  31.796  32.562  1.00  0.00     0.009 C 
ENDBRANCH  10  20
BRANCH  19  22
ATOM     22  C   UNL A   1      38.358  31.495  35.167  1.00  0.00     0.430 C 
ATOM     23  F   UNL A   1      39.533  30.845  35.357  1.00  0.00    -0.167 F 
ATOM     24  F   UNL A   1      37.691  31.430  36.344  1.00  0.00    -0.167 F 
ATOM     25  F   UNL A   1      37.650  30.788  34.259  1.00  0.00    -0.167 F 
ENDBRANCH  19  22
ENDBRANCH   7   9
ENDBRANCH   6   7
ENDBRANCH   5   6
ENDBRANCH   4   5
ENDBRANCH   3   4
ENDBRANCH   2   3
ENDBRANCH   1   2
BRANCH   1  26
ATOM     26  O   UNL A   1      33.449  33.987  29.688  1.00  0.00    -0.376 OA
BRANCH  26  27
ATOM     27  C   UNL A   1      34.800  33.546  29.593  1.00  0.00     0.202 C 
BRANCH  27  28
ATOM     28  C   UNL A   1      35.146  32.105  29.994  1.00  0.00     0.261 C 
BRANCH  28  29
ATOM     29  O   UNL A   1      36.499  31.916  30.441  1.00  0.00    -0.460 OA
BRANCH  29  30
ATOM     30  C   UNL A   1      36.874  30.627  30.642  1.00  0.00     0.338 C 
ATOM     31  O   UNL A   1      36.173  29.707  31.028  1.00  0.00    -0.246 OA
BRANCH  30  32
ATOM     32  C   UNL A   1      38.242  30.434  30.118  1.00  0.00     0.060 A 
ATOM     33  C   UNL A   1      39.361  30.627  30.928  1.00  0.00     0.016 A 
ATOM     34  C   UNL A   1      38.394  30.038  28.780  1.00  0.00     0.016 A 
ATOM     35  C   UNL A   1      40.636  30.395  30.402  1.00  0.00     0.010 A 
ATOM     36  C   UNL A   1      39.668  29.825  28.252  1.00  0.00     0.010 A 
ATOM     37  C   UNL A   1      40.797  29.979  29.066  1.00  0.00    -0.014 A 
BRANCH  37  38
ATOM     38  C   UNL A   1      42.129  29.537  28.585  1.00  0.00     0.031 A 
ATOM     39  C   UNL A   1      43.296  30.473  28.508  1.00  0.00     0.074 A 
ATOM     40  C   UNL A   1      42.265  28.253  28.208  1.00  0.00     0.049 A 
ATOM     41  N   UNL A   1      44.541  30.204  28.208  1.00  0.00    -0.248 NA
ATOM     42  C   UNL A   1      43.038  31.890  28.798  1.00  0.00     0.031 C 
ATOM     43  C   UNL A   1      41.184  27.264  28.203  1.00  0.00     0.029 A 
ATOM     44  N   UNL A   1      43.359  27.555  27.768  1.00  0.00    -0.354 N 
ATOM     45  C   UNL A   1      45.227  31.407  28.300  1.00  0.00     0.074 A 
ATOM     46  C   UNL A   1      44.245  32.421  28.634  1.00  0.00     0.031 C 
ATOM     47  C   UNL A   1      41.675  26.080  27.807  1.00  0.00     0.029 A 
ATOM     48  C   UNL A   1      43.098  26.228  27.517  1.00  0.00     0.049 A 
ATOM     49  H   UNL A   1      44.246  27.963  27.643  1.00  0.00     0.167 HD
ATOM     50  C   UNL A   1      46.554  31.636  28.141  1.00  0.00     0.037 A 
ATOM     51  C   UNL A   1      43.915  25.238  27.111  1.00  0.00     0.037 A 
ATOM     52  C   UNL A   1      47.517  30.621  27.787  1.00  0.00     0.049 A 
ATOM     53  C   UNL A   1      45.375  25.526  26.904  1.00  0.00     0.074 A 
ATOM     54  C   UNL A   1      48.888  30.748  27.647  1.00  0.00     0.029 A 
ATOM     55  N   UNL A   1      47.213  29.297  27.501  1.00  0.00    -0.354 N 
ATOM     56  N   UNL A   1      46.023  26.652  27.080  1.00  0.00    -0.248 NA
ATOM     57  C   UNL A   1      46.215  24.409  26.453  1.00  0.00     0.031 C 
ATOM     58  C   UNL A   1      49.407  29.518  27.230  1.00  0.00     0.029 A 
ATOM     59  C   UNL A   1      48.365  28.607  27.156  1.00  0.00     0.049 A 
ATOM     60  H   UNL A   1      46.310  28.905  27.537  1.00  0.00     0.167 HD
ATOM     61  C   UNL A   1      47.352  26.376  26.776  1.00  0.00     0.074 A 
ATOM     62  C   UNL A   1      47.415  24.972  26.422  1.00  0.00     0.031 C 
ATOM     63  C   UNL A   1      48.419  27.212  26.793  1.00  0.00     0.037 A 
BRANCH  50  64
ATOM     64  C   UNL A   1      47.059  33.035  28.363  1.00  0.00     0.058 A 
ATOM     65  C   UNL A   1      47.093  33.971  27.316  1.00  0.00     0.135 A 
ATOM     66  C   UNL A   1      47.431  33.474  29.643  1.00  0.00     0.135 A 
ATOM     67  F   UNL A   1      46.755  33.604  26.070  1.00  0.00    -0.206 F 
ATOM     68  C   UNL A   1      47.493  35.287  27.528  1.00  0.00     0.059 A 
ATOM     69  C   UNL A   1      47.813  34.792  29.883  1.00  0.00     0.059 A 
ATOM     70  F   UNL A   1      47.413  32.622  30.681  1.00  0.00    -0.206 F 
ATOM     71  C   UNL A   1      47.848  35.689  28.816  1.00  0.00     0.060 A 
BRANCH  71  72
ATOM     72  S   UNL A   1      48.347  37.405  29.072  1.00  0.00     0.124 S 
ATOM     73  O   UNL A   1      49.138  37.660  27.872  1.00  0.00    -0.237 OA
ATOM     74  O   UNL A   1      47.062  38.095  29.143  1.00  0.00    -0.237 OA
ATOM     75  O   UNL A   1      49.100  37.359  30.321  1.00  0.00    -0.744 OA
ENDBRANCH  71  72
ENDBRANCH  50  64
BRANCH  51  76
ATOM     76  C   UNL A   1      43.367  23.871  26.925  1.00  0.00     0.058 A 
ATOM     77  C   UNL A   1      43.115  23.042  28.026  1.00  0.00     0.135 A 
ATOM     78  C   UNL A   1      43.041  23.386  25.648  1.00  0.00     0.135 A 
ATOM     79  F   UNL A   1      43.413  23.464  29.265  1.00  0.00    -0.206 F 
ATOM     80  C   UNL A   1      42.561  21.776  27.871  1.00  0.00     0.059 A 
ATOM     81  C   UNL A   1      42.465  22.132  25.470  1.00  0.00     0.059 A 
ATOM     82  F   UNL A   1      43.248  24.150  24.566  1.00  0.00    -0.206 F 
ATOM     83  C   UNL A   1      42.234  21.333  26.589  1.00  0.00     0.060 A 
BRANCH  83  84
ATOM     84  S   UNL A   1      41.458  19.713  26.409  1.00  0.00     0.124 S 
ATOM     85  O   UNL A   1      42.229  19.137  25.313  1.00  0.00    -0.237 OA
ATOM     86  O   UNL A   1      41.677  19.122  27.725  1.00  0.00    -0.237 OA
ATOM     87  O   UNL A   1      40.068  20.038  26.100  1.00  0.00    -0.744 OA
ENDBRANCH  83  84
ENDBRANCH  51  76
BRANCH  63  88
ATOM     88  C   UNL A   1      49.757  26.634  26.417  1.00  0.00     0.058 A 
ATOM     89  C   UNL A   1      50.224  26.669  25.093  1.00  0.00     0.135 A 
ATOM     90  C   UNL A   1      50.605  26.094  27.397  1.00  0.00     0.135 A 
ATOM     91  F   UNL A   1      49.449  27.165  24.116  1.00  0.00    -0.206 F 
ATOM     92  C   UNL A   1      51.480  26.176  24.753  1.00  0.00     0.059 A 
ATOM     93  C   UNL A   1      51.875  25.618  27.082  1.00  0.00     0.059 A 
ATOM     94  F   UNL A   1      50.210  26.043  28.679  1.00  0.00    -0.206 F 
ATOM     95  C   UNL A   1      52.301  25.656  25.756  1.00  0.00     0.060 A 
BRANCH  95  96
ATOM     96  S   UNL A   1      53.945  25.063  25.303  1.00  0.00     0.124 S 
ATOM     97  O   UNL A   1      53.663  23.683  24.918  1.00  0.00    -0.237 OA
ATOM     98  O   UNL A   1      54.312  25.963  24.215  1.00  0.00    -0.237 OA
ATOM     99  O   UNL A   1      54.716  25.225  26.532  1.00  0.00    -0.744 OA
ENDBRANCH  95  96
ENDBRANCH  63  88
ENDBRANCH  37  38
ENDBRANCH  30  32
ENDBRANCH  29  30
ENDBRANCH  28  29
ENDBRANCH  27  28
ENDBRANCH  26  27
ENDBRANCH   1  26
TORSDOF 22
ENDMDL
MODEL 2
REMARK VINA RESULT:      -9.5      4.392      7.025
REMARK SMILES C=Cc1cc(Cl)cc2c1O[C@H](C(F)(F)F)C(C(=O)OCCOCCOCCOC(=O)c1ccc(-c3c4nc(c(-c5c(F)cc(S(=O)(=O)[O-])cc5F)c5ccc([nH]5)c(-c5c(F)cc(S(=O)(=O)[O-])cc5F)c5nc(c(-c6c(F)cc(S(=O)(=O)[O-])cc6F)c6ccc3[nH]6)C=C5)C=C4)cc1)=C2
REMARK SMILES IDX 24 1 23 2 22 3 21 4 20 5 19 6 17 7 18 8 16 9 3 10 4 11 9 12
REMARK SMILES IDX 5 13 8 14 10 15 6 16 7 17 97 18 11 19 2 20 1 21 12 22 13 23
REMARK SMILES IDX 14 24 15 25 25 26 26 27 27 28 28 29 29 30 30 31 31 32 32 33
REMARK SMILES IDX 96 34 33 35 95 36 34 37 35 38 36 39 89 40 37 41 94 42 88 43
REMARK SMILES IDX 90 44 38 45 93 46 87 47 86 48 39 50 73 51 52 52 72 53 53 54
REMARK SMILES IDX 56 55 71 56 91 57 54 58 55 59 70 61 92 62 57 63 40 64 41 65
REMARK SMILES IDX 50 66 42 67 43 68 49 69 51 70 44 71 45 72 46 73 47 74 48 75
REMARK SMILES IDX 74 76 75 77 84 78 76 79 77 80 83 81 85 82 78 83 79 84 80 85
REMARK SMILES IDX 81 86 82 87 58 88 59 89 68 90 60 91 61 92 67 93 69 94 62 95
REMARK SMILES IDX 63 96 64 97 65 98 66 99
REMARK H PARENT 90 49 56 60
REMARK Flexibility Score: inf
ROOT
ATOM      1  C   UNL A   1      35.099  30.330  28.036  1.00  0.00     0.188 C 
ENDROOT
BRANCH   1   2
ATOM      2  C   UNL A   1      34.201  29.501  27.093  1.00  0.00     0.188 C 
BRANCH   2   3
ATOM      3  O   UNL A   1      32.976  30.144  26.810  1.00  0.00    -0.376 OA
BRANCH   3   4
ATOM      4  C   UNL A   1      31.790  29.375  26.799  1.00  0.00     0.202 C 
BRANCH   4   5
ATOM      5  C   UNL A   1      31.418  28.535  25.566  1.00  0.00     0.261 C 
BRANCH   5   6
ATOM      6  O   UNL A   1      31.917  27.190  25.530  1.00  0.00    -0.460 OA
BRANCH   6   7
ATOM      7  C   UNL A   1      32.558  26.802  24.406  1.00  0.00     0.338 C 
ATOM      8  O   UNL A   1      32.787  27.491  23.427  1.00  0.00    -0.246 OA
BRANCH   7   9
ATOM      9  C   UNL A   1      33.046  25.418  24.594  1.00  0.00     0.087 C 
ATOM     10  C   UNL A   1      34.491  21.493  24.999  1.00  0.00     0.018 A 
ATOM     11  C   UNL A   1      35.852  21.308  25.281  1.00  0.00     0.032 A 
ATOM     12  C   UNL A   1      33.989  22.811  24.909  1.00  0.00     0.135 A 
ATOM     13  C   UNL A   1      36.683  22.405  25.498  1.00  0.00     0.042 A 
ATOM     14  C   UNL A   1      34.840  23.909  25.090  1.00  0.00     0.019 A 
ATOM     15  O   UNL A   1      32.652  22.952  24.644  1.00  0.00    -0.475 OA
ATOM     16  Cl  UNL A   1      38.348  22.153  25.852  1.00  0.00    -0.084 Cl
ATOM     17  C   UNL A   1      36.187  23.702  25.405  1.00  0.00     0.032 A 
ATOM     18  C   UNL A   1      34.339  25.264  24.907  1.00  0.00     0.027 C 
ATOM     19  C   UNL A   1      32.079  24.273  24.464  1.00  0.00     0.316 C 
BRANCH  10  20
ATOM     20  C   UNL A   1      33.621  20.335  24.705  1.00  0.00     0.004 C 
ATOM     21  C   UNL A   1      33.012  19.568  25.619  1.00  0.00     0.009 C 
ENDBRANCH  10  20
BRANCH  19  22
ATOM     22  C   UNL A   1      31.333  24.280  23.123  1.00  0.00     0.430 C 
ATOM     23  F   UNL A   1      30.726  23.088  22.893  1.00  0.00    -0.167 F 
ATOM     24  F   UNL A   1      30.357  25.218  23.087  1.00  0.00    -0.167 F 
ATOM     25  F   UNL A   1      32.161  24.516  22.081  1.00  0.00    -0.167 F 
ENDBRANCH  19  22
ENDBRANCH   7   9
ENDBRANCH   6   7
ENDBRANCH   5   6
ENDBRANCH   4   5
ENDBRANCH   3   4
ENDBRANCH   2   3
ENDBRANCH   1   2
BRANCH   1  26
ATOM     26  O   UNL A   1      35.149  31.748  27.894  1.00  0.00    -0.376 OA
BRANCH  26  27
ATOM     27  C   UNL A   1      34.571  32.565  28.908  1.00  0.00     0.202 C 
BRANCH  27  28
ATOM     28  C   UNL A   1      35.059  32.420  30.356  1.00  0.00     0.261 C 
BRANCH  28  29
ATOM     29  O   UNL A   1      36.480  32.252  30.495  1.00  0.00    -0.460 OA
BRANCH  29  30
ATOM     30  C   UNL A   1      36.873  31.183  31.234  1.00  0.00     0.338 C 
ATOM     31  O   UNL A   1      36.257  30.647  32.140  1.00  0.00    -0.246 OA
BRANCH  30  32
ATOM     32  C   UNL A   1      38.099  30.609  30.641  1.00  0.00     0.060 A 
ATOM     33  C   UNL A   1      38.283  30.567  29.259  1.00  0.00     0.016 A 
ATOM     34  C   UNL A   1      39.087  30.113  31.505  1.00  0.00     0.016 A 
ATOM     35  C   UNL A   1      39.476  30.049  28.743  1.00  0.00     0.010 A 
ATOM     36  C   UNL A   1      40.268  29.580  30.987  1.00  0.00     0.010 A 
ATOM     37  C   UNL A   1      40.481  29.567  29.602  1.00  0.00    -0.014 A 
BRANCH  37  38
ATOM     38  C   UNL A   1      41.815  29.217  29.056  1.00  0.00     0.031 A 
ATOM     39  C   UNL A   1      42.935  30.210  29.000  1.00  0.00     0.074 A 
ATOM     40  C   UNL A   1      41.998  27.964  28.600  1.00  0.00     0.049 A 
ATOM     41  N   UNL A   1      44.181  30.018  28.647  1.00  0.00    -0.248 NA
ATOM     42  C   UNL A   1      42.622  31.594  29.380  1.00  0.00     0.031 C 
ATOM     43  C   UNL A   1      40.963  26.928  28.569  1.00  0.00     0.029 A 
ATOM     44  N   UNL A   1      43.108  27.346  28.087  1.00  0.00    -0.354 N 
ATOM     45  C   UNL A   1      44.814  31.246  28.790  1.00  0.00     0.074 A 
ATOM     46  C   UNL A   1      43.797  32.191  29.213  1.00  0.00     0.031 C 
ATOM     47  C   UNL A   1      41.496  25.793  28.090  1.00  0.00     0.029 A 
ATOM     48  C   UNL A   1      42.900  26.025  27.767  1.00  0.00     0.049 A 
ATOM     49  H   UNL A   1      43.971  27.803  27.961  1.00  0.00     0.167 HD
ATOM     50  C   UNL A   1      46.123  31.546  28.605  1.00  0.00     0.037 A 
ATOM     51  C   UNL A   1      43.748  25.099  27.279  1.00  0.00     0.037 A 
ATOM     52  C   UNL A   1      47.119  30.600  28.164  1.00  0.00     0.049 A 
ATOM     53  C   UNL A   1      45.186  25.468  27.046  1.00  0.00     0.074 A 
ATOM     54  C   UNL A   1      48.478  30.800  27.991  1.00  0.00     0.029 A 
ATOM     55  N   UNL A   1      46.867  29.282  27.810  1.00  0.00    -0.354 N 
ATOM     56  N   UNL A   1      45.787  26.612  27.269  1.00  0.00    -0.248 NA
ATOM     57  C   UNL A   1      46.061  24.420  26.506  1.00  0.00     0.031 C 
ATOM     58  C   UNL A   1      49.039  29.622  27.487  1.00  0.00     0.029 A 
ATOM     59  C   UNL A   1      48.038  28.669  27.391  1.00  0.00     0.049 A 
ATOM     60  H   UNL A   1      45.985  28.846  27.850  1.00  0.00     0.167 HD
ATOM     61  C   UNL A   1      47.116  26.417  26.910  1.00  0.00     0.074 A 
ATOM     62  C   UNL A   1      47.233  25.041  26.473  1.00  0.00     0.031 C 
ATOM     63  C   UNL A   1      48.144  27.300  26.945  1.00  0.00     0.037 A 
BRANCH  50  64
ATOM     64  C   UNL A   1      46.570  32.953  28.894  1.00  0.00     0.058 A 
ATOM     65  C   UNL A   1      46.554  33.941  27.896  1.00  0.00     0.135 A 
ATOM     66  C   UNL A   1      46.936  33.342  30.192  1.00  0.00     0.135 A 
ATOM     67  F   UNL A   1      46.219  33.623  26.636  1.00  0.00    -0.206 F 
ATOM     68  C   UNL A   1      46.900  35.260  28.171  1.00  0.00     0.059 A 
ATOM     69  C   UNL A   1      47.264  34.661  30.496  1.00  0.00     0.059 A 
ATOM     70  F   UNL A   1      46.965  32.439  31.186  1.00  0.00    -0.206 F 
ATOM     71  C   UNL A   1      47.251  35.612  29.476  1.00  0.00     0.060 A 
BRANCH  71  72
ATOM     72  S   UNL A   1      47.678  37.333  29.815  1.00  0.00     0.124 S 
ATOM     73  O   UNL A   1      48.464  37.675  28.634  1.00  0.00    -0.237 OA
ATOM     74  O   UNL A   1      46.367  37.966  29.909  1.00  0.00    -0.237 OA
ATOM     75  O   UNL A   1      48.427  37.258  31.066  1.00  0.00    -0.744 OA
ENDBRANCH  71  72
ENDBRANCH  50  64
BRANCH  51  76
ATOM     76  C   UNL A   1      43.257  23.721  27.030  1.00  0.00     0.058 A 
ATOM     77  C   UNL A   1      43.002  23.274  25.726  1.00  0.00     0.135 A 
ATOM     78  C   UNL A   1      43.079  22.810  28.084  1.00  0.00     0.135 A 
ATOM     79  F   UNL A   1      43.157  24.111  24.688  1.00  0.00    -0.206 F 
ATOM     80  C   UNL A   1      42.584  21.972  25.473  1.00  0.00     0.059 A 
ATOM     81  C   UNL A   1      42.684  21.497  27.853  1.00  0.00     0.059 A 
ATOM     82  F   UNL A   1      43.328  23.187  29.347  1.00  0.00    -0.206 F 
ATOM     83  C   UNL A   1      42.434  21.089  26.544  1.00  0.00     0.060 A 
BRANCH  83  84
ATOM     84  S   UNL A   1      41.952  19.385  26.194  1.00  0.00     0.124 S 
ATOM     85  O   UNL A   1      42.777  19.078  25.031  1.00  0.00    -0.237 OA
ATOM     86  O   UNL A   1      42.315  18.705  27.433  1.00  0.00    -0.237 OA
ATOM     87  O   UNL A   1      40.517  19.487  25.941  1.00  0.00    -0.744 OA
ENDBRANCH  83  84
ENDBRANCH  51  76
BRANCH  63  88
ATOM     88  C   UNL A   1      49.494  26.809  26.496  1.00  0.00     0.058 A 
ATOM     89  C   UNL A   1      50.315  26.048  27.343  1.00  0.00     0.135 A 
ATOM     90  C   UNL A   1      49.945  27.050  25.189  1.00  0.00     0.135 A 
ATOM     91  F   UNL A   1      49.936  25.798  28.607  1.00  0.00    -0.206 F 
ATOM     92  C   UNL A   1      51.544  25.555  26.914  1.00  0.00     0.059 A 
ATOM     93  C   UNL A   1      51.159  26.545  24.730  1.00  0.00     0.059 A 
ATOM     94  F   UNL A   1      49.196  27.766  24.335  1.00  0.00    -0.206 F 
ATOM     95  C   UNL A   1      51.955  25.805  25.603  1.00  0.00     0.060 A 
BRANCH  95  96
ATOM     96  S   UNL A   1      53.531  25.120  25.048  1.00  0.00     0.124 S 
ATOM     97  O   UNL A   1      54.477  25.825  25.907  1.00  0.00    -0.237 OA
ATOM     98  O   UNL A   1      53.365  23.696  25.322  1.00  0.00    -0.237 OA
ATOM     99  O   UNL A   1      53.580  25.479  23.634  1.00  0.00    -0.744 OA
ENDBRANCH  95  96
ENDBRANCH  63  88
ENDBRANCH  37  38
ENDBRANCH  30  32
ENDBRANCH  29  30
ENDBRANCH  28  29
ENDBRANCH  27  28
ENDBRANCH  26  27
ENDBRANCH   1  26
TORSDOF 22
ENDMDL
MODEL 3
REMARK VINA RESULT:      -9.4      6.261     13.534
REMARK SMILES C=Cc1cc(Cl)cc2c1O[C@H](C(F)(F)F)C(C(=O)OCCOCCOCCOC(=O)c1ccc(-c3c4nc(c(-c5c(F)cc(S(=O)(=O)[O-])cc5F)c5ccc([nH]5)c(-c5c(F)cc(S(=O)(=O)[O-])cc5F)c5nc(c(-c6c(F)cc(S(=O)(=O)[O-])cc6F)c6ccc3[nH]6)C=C5)C=C4)cc1)=C2
REMARK SMILES IDX 24 1 23 2 22 3 21 4 20 5 19 6 17 7 18 8 16 9 3 10 4 11 9 12
REMARK SMILES IDX 5 13 8 14 10 15 6 16 7 17 97 18 11 19 2 20 1 21 12 22 13 23
REMARK SMILES IDX 14 24 15 25 25 26 26 27 27 28 28 29 29 30 30 31 31 32 32 33
REMARK SMILES IDX 96 34 33 35 95 36 34 37 35 38 36 39 89 40 37 41 94 42 88 43
REMARK SMILES IDX 90 44 38 45 93 46 87 47 86 48 39 50 73 51 52 52 72 53 53 54
REMARK SMILES IDX 56 55 71 56 91 57 54 58 55 59 70 61 92 62 57 63 40 64 41 65
REMARK SMILES IDX 50 66 42 67 43 68 49 69 51 70 44 71 45 72 46 73 47 74 48 75
REMARK SMILES IDX 74 76 75 77 84 78 76 79 77 80 83 81 85 82 78 83 79 84 80 85
REMARK SMILES IDX 81 86 82 87 58 88 59 89 68 90 60 91 61 92 67 93 69 94 62 95
REMARK SMILES IDX 63 96 64 97 65 98 66 99
REMARK H PARENT 90 49 56 60
REMARK Flexibility Score: inf
ROOT
ATOM      1  C   UNL A   1      40.191  20.732  26.118  1.00  0.00     0.188 C 
ENDROOT
BRANCH   1   2
ATOM      2  C   UNL A   1      39.081  21.805  26.139  1.00  0.00     0.188 C 
BRANCH   2   3
ATOM      3  O   UNL A   1      38.185  21.676  25.055  1.00  0.00    -0.376 OA
BRANCH   3   4
ATOM      4  C   UNL A   1      36.991  22.434  25.065  1.00  0.00     0.202 C 
BRANCH   4   5
ATOM      5  C   UNL A   1      35.665  21.805  24.609  1.00  0.00     0.261 C 
BRANCH   5   6
ATOM      6  O   UNL A   1      34.577  22.707  24.362  1.00  0.00    -0.460 OA
BRANCH   6   7
ATOM      7  C   UNL A   1      33.843  23.092  25.429  1.00  0.00     0.338 C 
ATOM      8  O   UNL A   1      33.799  22.541  26.516  1.00  0.00    -0.246 OA
BRANCH   7   9
ATOM      9  C   UNL A   1      33.173  24.371  25.106  1.00  0.00     0.087 C 
ATOM     10  C   UNL A   1      31.180  27.980  24.292  1.00  0.00     0.018 A 
ATOM     11  C   UNL A   1      31.400  29.071  25.145  1.00  0.00     0.032 A 
ATOM     12  C   UNL A   1      31.884  26.778  24.532  1.00  0.00     0.135 A 
ATOM     13  C   UNL A   1      32.319  28.977  26.189  1.00  0.00     0.042 A 
ATOM     14  C   UNL A   1      32.777  26.680  25.608  1.00  0.00     0.019 A 
ATOM     15  O   UNL A   1      31.652  25.738  23.672  1.00  0.00    -0.475 OA
ATOM     16  Cl  UNL A   1      32.579  30.333  27.216  1.00  0.00    -0.084 Cl
ATOM     17  C   UNL A   1      33.008  27.792  26.424  1.00  0.00     0.032 A 
ATOM     18  C   UNL A   1      33.431  25.414  25.905  1.00  0.00     0.027 C 
ATOM     19  C   UNL A   1      32.282  24.449  23.897  1.00  0.00     0.316 C 
BRANCH  10  20
ATOM     20  C   UNL A   1      30.160  28.054  23.226  1.00  0.00     0.004 C 
ATOM     21  C   UNL A   1      29.800  29.166  22.571  1.00  0.00     0.009 C 
ENDBRANCH  10  20
BRANCH  19  22
ATOM     22  C   UNL A   1      31.176  23.384  23.909  1.00  0.00     0.430 C 
ATOM     23  F   UNL A   1      30.132  23.753  23.126  1.00  0.00    -0.167 F 
ATOM     24  F   UNL A   1      31.610  22.195  23.431  1.00  0.00    -0.167 F 
ATOM     25  F   UNL A   1      30.690  23.170  25.151  1.00  0.00    -0.167 F 
ENDBRANCH  19  22
ENDBRANCH   7   9
ENDBRANCH   6   7
ENDBRANCH   5   6
ENDBRANCH   4   5
ENDBRANCH   3   4
ENDBRANCH   2   3
ENDBRANCH   1   2
BRANCH   1  26
ATOM     26  O   UNL A   1      41.545  21.123  25.908  1.00  0.00    -0.376 OA
BRANCH  26  27
ATOM     27  C   UNL A   1      42.011  22.342  26.479  1.00  0.00     0.202 C 
BRANCH  27  28
ATOM     28  C   UNL A   1      43.166  23.093  25.801  1.00  0.00     0.261 C 
BRANCH  28  29
ATOM     29  O   UNL A   1      43.486  24.362  26.394  1.00  0.00    -0.460 OA
BRANCH  29  30
ATOM     30  C   UNL A   1      42.825  25.431  25.882  1.00  0.00     0.338 C 
ATOM     31  O   UNL A   1      42.518  25.618  24.717  1.00  0.00    -0.246 OA
BRANCH  30  32
ATOM     32  C   UNL A   1      42.329  26.271  26.992  1.00  0.00     0.060 A 
ATOM     33  C   UNL A   1      41.319  25.824  27.844  1.00  0.00     0.016 A 
ATOM     34  C   UNL A   1      42.908  27.535  27.181  1.00  0.00     0.016 A 
ATOM     35  C   UNL A   1      40.907  26.636  28.905  1.00  0.00     0.010 A 
ATOM     36  C   UNL A   1      42.483  28.352  28.229  1.00  0.00     0.010 A 
ATOM     37  C   UNL A   1      41.496  27.898  29.113  1.00  0.00    -0.014 A 
BRANCH  37  38
ATOM     38  C   UNL A   1      41.202  28.655  30.354  1.00  0.00     0.031 A 
ATOM     39  C   UNL A   1      42.015  28.485  31.601  1.00  0.00     0.074 A 
ATOM     40  C   UNL A   1      40.165  29.513  30.335  1.00  0.00     0.049 A 
ATOM     41  N   UNL A   1      41.940  29.153  32.724  1.00  0.00    -0.248 NA
ATOM     42  C   UNL A   1      43.037  27.430  31.594  1.00  0.00     0.031 C 
ATOM     43  C   UNL A   1      39.280  29.728  29.187  1.00  0.00     0.029 A 
ATOM     44  N   UNL A   1      39.683  30.366  31.293  1.00  0.00    -0.354 N 
ATOM     45  C   UNL A   1      42.922  28.625  33.550  1.00  0.00     0.074 A 
ATOM     46  C   UNL A   1      43.547  27.542  32.815  1.00  0.00     0.031 C 
ATOM     47  C   UNL A   1      38.381  30.674  29.499  1.00  0.00     0.029 A 
ATOM     48  C   UNL A   1      38.614  31.119  30.870  1.00  0.00     0.049 A 
ATOM     49  H   UNL A   1      40.066  30.432  32.198  1.00  0.00     0.167 HD
ATOM     50  C   UNL A   1      43.279  29.024  34.797  1.00  0.00     0.037 A 
ATOM     51  C   UNL A   1      37.909  32.073  31.507  1.00  0.00     0.037 A 
ATOM     52  C   UNL A   1      42.634  30.089  35.525  1.00  0.00     0.049 A 
ATOM     53  C   UNL A   1      38.301  32.470  32.902  1.00  0.00     0.074 A 
ATOM     54  C   UNL A   1      42.955  30.594  36.774  1.00  0.00     0.029 A 
ATOM     55  N   UNL A   1      41.530  30.805  35.082  1.00  0.00    -0.354 N 
ATOM     56  N   UNL A   1      39.289  32.019  33.638  1.00  0.00    -0.248 NA
ATOM     57  C   UNL A   1      37.490  33.509  33.550  1.00  0.00     0.031 C 
ATOM     58  C   UNL A   1      42.018  31.578  37.107  1.00  0.00     0.029 A 
ATOM     59  C   UNL A   1      41.140  31.722  36.045  1.00  0.00     0.049 A 
ATOM     60  H   UNL A   1      41.088  30.677  34.211  1.00  0.00     0.167 HD
ATOM     61  C   UNL A   1      39.228  32.731  34.830  1.00  0.00     0.074 A 
ATOM     62  C   UNL A   1      38.117  33.654  34.709  1.00  0.00     0.031 C 
ATOM     63  C   UNL A   1      40.024  32.630  35.923  1.00  0.00     0.037 A 
BRANCH  50  64
ATOM     64  C   UNL A   1      44.433  28.320  35.457  1.00  0.00     0.058 A 
ATOM     65  C   UNL A   1      45.748  28.797  35.325  1.00  0.00     0.135 A 
ATOM     66  C   UNL A   1      44.221  27.214  36.295  1.00  0.00     0.135 A 
ATOM     67  F   UNL A   1      46.009  29.847  34.530  1.00  0.00    -0.206 F 
ATOM     68  C   UNL A   1      46.811  28.193  35.988  1.00  0.00     0.059 A 
ATOM     69  C   UNL A   1      45.267  26.607  36.986  1.00  0.00     0.059 A 
ATOM     70  F   UNL A   1      42.983  26.719  36.460  1.00  0.00    -0.206 F 
ATOM     71  C   UNL A   1      46.561  27.100  36.819  1.00  0.00     0.060 A 
BRANCH  71  72
ATOM     72  S   UNL A   1      47.953  26.343  37.684  1.00  0.00     0.124 S 
ATOM     73  O   UNL A   1      47.271  25.585  38.727  1.00  0.00    -0.237 OA
ATOM     74  O   UNL A   1      48.579  25.549  36.630  1.00  0.00    -0.237 OA
ATOM     75  O   UNL A   1      48.730  27.488  38.147  1.00  0.00    -0.744 OA
ENDBRANCH  71  72
ENDBRANCH  50  64
BRANCH  51  76
ATOM     76  C   UNL A   1      36.791  32.748  30.800  1.00  0.00     0.058 A 
ATOM     77  C   UNL A   1      35.459  32.472  31.136  1.00  0.00     0.135 A 
ATOM     78  C   UNL A   1      37.034  33.714  29.811  1.00  0.00     0.135 A 
ATOM     79  F   UNL A   1      35.180  31.553  32.074  1.00  0.00    -0.206 F 
ATOM     80  C   UNL A   1      34.402  33.127  30.513  1.00  0.00     0.059 A 
ATOM     81  C   UNL A   1      35.994  34.399  29.191  1.00  0.00     0.059 A 
ATOM     82  F   UNL A   1      38.294  34.024  29.469  1.00  0.00    -0.206 F 
ATOM     83  C   UNL A   1      34.682  34.095  29.547  1.00  0.00     0.060 A 
BRANCH  83  84
ATOM     84  S   UNL A   1      33.302  34.982  28.793  1.00  0.00     0.124 S 
ATOM     85  O   UNL A   1      32.460  35.257  29.951  1.00  0.00    -0.237 OA
ATOM     86  O   UNL A   1      33.970  36.137  28.201  1.00  0.00    -0.237 OA
ATOM     87  O   UNL A   1      32.765  34.019  27.835  1.00  0.00    -0.744 OA
ENDBRANCH  83  84
ENDBRANCH  51  76
BRANCH  63  88
ATOM     88  C   UNL A   1      39.726  33.539  37.084  1.00  0.00     0.058 A 
ATOM     89  C   UNL A   1      38.899  33.130  38.142  1.00  0.00     0.135 A 
ATOM     90  C   UNL A   1      40.319  34.809  37.169  1.00  0.00     0.135 A 
ATOM     91  F   UNL A   1      38.299  31.929  38.105  1.00  0.00    -0.206 F 
ATOM     92  C   UNL A   1      38.660  33.953  39.238  1.00  0.00     0.059 A 
ATOM     93  C   UNL A   1      40.114  35.639  38.268  1.00  0.00     0.059 A 
ATOM     94  F   UNL A   1      41.125  35.247  36.188  1.00  0.00    -0.206 F 
ATOM     95  C   UNL A   1      39.276  35.205  39.294  1.00  0.00     0.060 A 
BRANCH  95  96
ATOM     96  S   UNL A   1      38.991  36.242  40.745  1.00  0.00     0.124 S 
ATOM     97  O   UNL A   1      40.199  35.995  41.525  1.00  0.00    -0.237 OA
ATOM     98  O   UNL A   1      38.876  37.573  40.158  1.00  0.00    -0.237 OA
ATOM     99  O   UNL A   1      37.757  35.704  41.311  1.00  0.00    -0.744 OA
ENDBRANCH  95  96
ENDBRANCH  63  88
ENDBRANCH  37  38
ENDBRANCH  30  32
ENDBRANCH  29  30
ENDBRANCH  28  29
ENDBRANCH  27  28
ENDBRANCH  26  27
ENDBRANCH   1  26
TORSDOF 22
ENDMDL
