MODEL 1
REMARK VINA RESULT:     -10.3      0.000      0.000
REMARK SMILES O=C(OCCOCCOCCOC(=O)[C@@H]1[C@H](C(=O)Nc2ccccc2OC(F)F)[C@@H]2C=C[C@H]1C2)c1ccc(-c2c3nc(c(-c4c(F)cc(S(=O)(=O)[O-])cc4F)c4ccc([nH]4)c(-c4c(F)cc(S(=O)(=O)[O-])cc4F)c4nc(c(-c5c(F)cc(S(=O)(=O)[O-])cc5F)c5ccc2[nH]5)C=C4)C=C3)cc1
REMARK SMILES IDX 8 1 7 2 6 3 5 4 4 5 3 6 2 7 1 8 35 9 36 10 100 11 37 12
REMARK SMILES IDX 99 13 38 14 39 15 40 16 93 17 41 18 98 19 92 20 94 21 42 22
REMARK SMILES IDX 97 23 91 24 90 25 43 27 77 28 56 29 76 30 57 31 60 32 75 33
REMARK SMILES IDX 95 34 58 35 59 36 74 38 96 39 61 40 44 41 45 42 54 43 46 44
REMARK SMILES IDX 47 45 53 46 55 47 48 48 49 49 50 50 51 51 52 52 78 53 79 54
REMARK SMILES IDX 88 55 80 56 81 57 87 58 89 59 82 60 83 61 84 62 85 63 86 64
REMARK SMILES IDX 62 65 63 66 72 67 64 68 65 69 71 70 73 71 66 72 67 73 68 74
REMARK SMILES IDX 69 75 70 76 9 77 10 78 11 79 12 80 13 81 14 82 15 83 16 84
REMARK SMILES IDX 33 85 30 86 32 87 34 88 31 89 17 90 18 91 19 92 20 94 21 95
REMARK SMILES IDX 25 96 22 97 24 98 23 99 26 100 27 101 28 102 29 103
REMARK H PARENT 94 26 60 37 19 93
REMARK Flexibility Score: inf
ROOT
ATOM      1  C   UNL A   1      38.722  20.923  25.557  1.00  0.00     0.188 C 
ENDROOT
BRANCH   1   2
ATOM      2  C   UNL A   1      40.132  21.008  26.170  1.00  0.00     0.188 C 
BRANCH   2   3
ATOM      3  O   UNL A   1      40.211  21.644  27.447  1.00  0.00    -0.376 OA
BRANCH   3   4
ATOM      4  C   UNL A   1      41.373  22.495  27.567  1.00  0.00     0.202 C 
BRANCH   4   5
ATOM      5  C   UNL A   1      41.928  23.045  26.235  1.00  0.00     0.261 C 
BRANCH   5   6
ATOM      6  O   UNL A   1      42.629  24.273  26.504  1.00  0.00    -0.460 OA
BRANCH   6   7
ATOM      7  C   UNL A   1      41.996  25.420  26.150  1.00  0.00     0.338 C 
ATOM      8  O   UNL A   1      41.817  25.792  25.010  1.00  0.00    -0.246 OA
BRANCH   7   9
ATOM      9  C   UNL A   1      41.824  26.260  27.362  1.00  0.00     0.060 A 
ATOM     10  C   UNL A   1      40.737  26.050  28.227  1.00  0.00     0.016 A 
ATOM     11  C   UNL A   1      42.795  27.214  27.676  1.00  0.00     0.016 A 
ATOM     12  C   UNL A   1      40.658  26.720  29.442  1.00  0.00     0.010 A 
ATOM     13  C   UNL A   1      42.710  27.899  28.892  1.00  0.00     0.010 A 
ATOM     14  C   UNL A   1      41.638  27.657  29.776  1.00  0.00    -0.014 A 
BRANCH  14  15
ATOM     15  C   UNL A   1      41.331  28.633  30.844  1.00  0.00     0.031 A 
ATOM     16  C   UNL A   1      42.171  28.505  32.080  1.00  0.00     0.074 A 
ATOM     17  C   UNL A   1      40.415  29.610  30.714  1.00  0.00     0.049 A 
ATOM     18  N   UNL A   1      42.153  29.207  33.177  1.00  0.00    -0.248 NA
ATOM     19  C   UNL A   1      43.191  27.438  32.063  1.00  0.00     0.031 C 
ATOM     20  C   UNL A   1      39.617  29.876  29.521  1.00  0.00     0.029 A 
ATOM     21  N   UNL A   1      39.984  30.556  31.610  1.00  0.00    -0.354 N 
ATOM     22  C   UNL A   1      43.168  28.677  33.964  1.00  0.00     0.074 A 
ATOM     23  C   UNL A   1      43.733  27.555  33.258  1.00  0.00     0.031 C 
ATOM     24  C   UNL A   1      38.737  30.860  29.780  1.00  0.00     0.029 A 
ATOM     25  C   UNL A   1      38.925  31.310  31.154  1.00  0.00     0.049 A 
ATOM     26  H   UNL A   1      40.395  30.684  32.496  1.00  0.00     0.167 HD
ATOM     27  C   UNL A   1      43.610  29.109  35.164  1.00  0.00     0.037 A 
ATOM     28  C   UNL A   1      38.193  32.246  31.790  1.00  0.00     0.037 A 
ATOM     29  C   UNL A   1      42.993  30.189  35.871  1.00  0.00     0.049 A 
ATOM     30  C   UNL A   1      38.613  32.636  33.186  1.00  0.00     0.074 A 
ATOM     31  C   UNL A   1      43.292  30.690  37.122  1.00  0.00     0.029 A 
ATOM     32  N   UNL A   1      41.917  30.921  35.382  1.00  0.00    -0.354 N 
ATOM     33  N   UNL A   1      39.595  32.152  33.913  1.00  0.00    -0.248 NA
ATOM     34  C   UNL A   1      37.859  33.714  33.838  1.00  0.00     0.031 C 
ATOM     35  C   UNL A   1      42.363  31.696  37.409  1.00  0.00     0.029 A 
ATOM     36  C   UNL A   1      41.525  31.861  36.314  1.00  0.00     0.049 A 
ATOM     37  H   UNL A   1      41.497  30.789  34.502  1.00  0.00     0.167 HD
ATOM     38  C   UNL A   1      39.612  32.899  35.083  1.00  0.00     0.074 A 
ATOM     39  C   UNL A   1      38.529  33.858  34.976  1.00  0.00     0.031 C 
ATOM     40  C   UNL A   1      40.455  32.815  36.143  1.00  0.00     0.037 A 
BRANCH  27  41
ATOM     41  C   UNL A   1      44.759  28.345  35.753  1.00  0.00     0.058 A 
ATOM     42  C   UNL A   1      46.092  28.684  35.455  1.00  0.00     0.135 A 
ATOM     43  C   UNL A   1      44.528  27.174  36.487  1.00  0.00     0.135 A 
ATOM     44  F   UNL A   1      46.365  29.771  34.716  1.00  0.00    -0.206 F 
ATOM     45  C   UNL A   1      47.147  27.848  35.804  1.00  0.00     0.059 A 
ATOM     46  C   UNL A   1      45.572  26.339  36.873  1.00  0.00     0.059 A 
ATOM     47  F   UNL A   1      43.273  26.797  36.782  1.00  0.00    -0.206 F 
ATOM     48  C   UNL A   1      46.873  26.668  36.495  1.00  0.00     0.060 A 
BRANCH  48  49
ATOM     49  S   UNL A   1      48.239  25.544  36.858  1.00  0.00     0.124 S 
ATOM     50  O   UNL A   1      47.551  24.255  36.893  1.00  0.00    -0.237 OA
ATOM     51  O   UNL A   1      49.130  25.754  35.721  1.00  0.00    -0.237 OA
ATOM     52  O   UNL A   1      48.740  26.023  38.142  1.00  0.00    -0.744 OA
ENDBRANCH  48  49
ENDBRANCH  27  41
BRANCH  28  53
ATOM     53  C   UNL A   1      37.032  32.890  31.111  1.00  0.00     0.058 A 
ATOM     54  C   UNL A   1      37.199  33.997  30.266  1.00  0.00     0.135 A 
ATOM     55  C   UNL A   1      35.727  32.396  31.277  1.00  0.00     0.135 A 
ATOM     56  F   UNL A   1      38.421  34.518  30.079  1.00  0.00    -0.206 F 
ATOM     57  C   UNL A   1      36.121  34.592  29.612  1.00  0.00     0.059 A 
ATOM     58  C   UNL A   1      34.634  32.964  30.620  1.00  0.00     0.059 A 
ATOM     59  F   UNL A   1      35.505  31.337  32.069  1.00  0.00    -0.206 F 
ATOM     60  C   UNL A   1      34.841  34.064  29.791  1.00  0.00     0.060 A 
BRANCH  60  61
ATOM     61  S   UNL A   1      33.464  34.806  28.884  1.00  0.00     0.124 S 
ATOM     62  O   UNL A   1      33.095  33.729  27.972  1.00  0.00    -0.237 OA
ATOM     63  O   UNL A   1      32.513  35.091  29.954  1.00  0.00    -0.237 OA
ATOM     64  O   UNL A   1      34.065  35.982  28.260  1.00  0.00    -0.744 OA
ENDBRANCH  60  61
ENDBRANCH  28  53
BRANCH  40  65
ATOM     65  C   UNL A   1      40.290  33.818  37.245  1.00  0.00     0.058 A 
ATOM     66  C   UNL A   1      40.923  35.067  37.204  1.00  0.00     0.135 A 
ATOM     67  C   UNL A   1      39.363  33.574  38.272  1.00  0.00     0.135 A 
ATOM     68  F   UNL A   1      41.819  35.342  36.244  1.00  0.00    -0.206 F 
ATOM     69  C   UNL A   1      40.632  36.050  38.142  1.00  0.00     0.059 A 
ATOM     70  C   UNL A   1      39.039  34.550  39.204  1.00  0.00     0.059 A 
ATOM     71  F   UNL A   1      38.725  32.394  38.341  1.00  0.00    -0.206 F 
ATOM     72  C   UNL A   1      39.678  35.787  39.129  1.00  0.00     0.060 A 
BRANCH  72  73
ATOM     73  S   UNL A   1      39.230  37.109  40.272  1.00  0.00     0.124 S 
ATOM     74  O   UNL A   1      38.396  36.396  41.233  1.00  0.00    -0.237 OA
ATOM     75  O   UNL A   1      40.531  37.551  40.764  1.00  0.00    -0.237 OA
ATOM     76  O   UNL A   1      38.530  38.070  39.422  1.00  0.00    -0.744 OA
ENDBRANCH  72  73
ENDBRANCH  40  65
ENDBRANCH  14  15
ENDBRANCH   7   9
ENDBRANCH   6   7
ENDBRANCH   5   6
ENDBRANCH   4   5
ENDBRANCH   3   4
ENDBRANCH   2   3
ENDBRANCH   1   2
BRANCH   1  77
ATOM     77  O   UNL A   1      37.729  21.892  25.891  1.00  0.00    -0.376 OA
BRANCH  77  78
ATOM     78  C   UNL A   1      36.349  21.680  25.561  1.00  0.00     0.202 C 
BRANCH  78  79
ATOM     79  C   UNL A   1      35.469  22.906  25.129  1.00  0.00     0.261 C 
BRANCH  79  80
ATOM     80  O   UNL A   1      34.800  23.644  26.223  1.00  0.00    -0.463 OA
BRANCH  80  81
ATOM     81  C   UNL A   1      33.536  24.144  25.965  1.00  0.00     0.310 C 
ATOM     82  O   UNL A   1      32.811  24.528  26.882  1.00  0.00    -0.252 OA
BRANCH  81  83
ATOM     83  C   UNL A   1      33.026  24.059  24.482  1.00  0.00     0.119 C 
ATOM     84  C   UNL A   1      33.017  24.967  23.149  1.00  0.00     0.100 C 
ATOM     85  C   UNL A   1      31.505  23.655  24.533  1.00  0.00     0.027 C 
ATOM     86  C   UNL A   1      31.556  24.773  22.614  1.00  0.00     0.025 C 
ATOM     87  C   UNL A   1      30.638  24.888  24.701  1.00  0.00    -0.027 C 
ATOM     88  C   UNL A   1      31.218  23.363  23.058  1.00  0.00     0.017 C 
ATOM     89  C   UNL A   1      30.638  25.540  23.532  1.00  0.00    -0.027 C 
BRANCH  84  90
ATOM     90  C   UNL A   1      33.328  26.391  22.604  1.00  0.00     0.229 C 
ATOM     91  O   UNL A   1      33.576  26.482  21.389  1.00  0.00    -0.274 OA
ATOM     92  N   UNL A   1      33.128  27.593  23.195  1.00  0.00    -0.323 N 
ATOM     93  H   UNL A   1      33.150  28.362  22.581  1.00  0.00     0.170 HD
BRANCH  92  94
ATOM     94  C   UNL A   1      32.900  27.916  24.518  1.00  0.00     0.084 A 
ATOM     95  C   UNL A   1      33.847  27.560  25.480  1.00  0.00     0.030 A 
ATOM     96  C   UNL A   1      31.812  28.658  24.885  1.00  0.00     0.149 A 
ATOM     97  C   UNL A   1      33.856  28.215  26.713  1.00  0.00     0.002 A 
ATOM     98  C   UNL A   1      31.923  29.447  26.033  1.00  0.00     0.049 A 
ATOM     99  C   UNL A   1      32.947  29.235  26.949  1.00  0.00     0.004 A 
BRANCH  96 100
ATOM    100  O   UNL A   1      30.610  28.654  24.262  1.00  0.00    -0.433 OA
BRANCH 100 101
ATOM    101  C   UNL A   1      30.161  29.551  23.242  1.00  0.00     0.542 C 
ATOM    102  F   UNL A   1      30.257  28.972  22.029  1.00  0.00    -0.167 F 
ATOM    103  F   UNL A   1      28.906  29.945  23.469  1.00  0.00    -0.167 F 
ENDBRANCH 100 101
ENDBRANCH  96 100
ENDBRANCH  92  94
ENDBRANCH  84  90
ENDBRANCH  81  83
ENDBRANCH  80  81
ENDBRANCH  79  80
ENDBRANCH  78  79
ENDBRANCH  77  78
ENDBRANCH   1  77
TORSDOF 24
ENDMDL
MODEL 2
REMARK VINA RESULT:     -10.2      5.948     11.647
REMARK SMILES O=C(OCCOCCOCCOC(=O)[C@@H]1[C@H](C(=O)Nc2ccccc2OC(F)F)[C@@H]2C=C[C@H]1C2)c1ccc(-c2c3nc(c(-c4c(F)cc(S(=O)(=O)[O-])cc4F)c4ccc([nH]4)c(-c4c(F)cc(S(=O)(=O)[O-])cc4F)c4nc(c(-c5c(F)cc(S(=O)(=O)[O-])cc5F)c5ccc2[nH]5)C=C4)C=C3)cc1
REMARK SMILES IDX 8 1 7 2 6 3 5 4 4 5 3 6 2 7 1 8 35 9 36 10 100 11 37 12
REMARK SMILES IDX 99 13 38 14 39 15 40 16 93 17 41 18 98 19 92 20 94 21 42 22
REMARK SMILES IDX 97 23 91 24 90 25 43 27 77 28 56 29 76 30 57 31 60 32 75 33
REMARK SMILES IDX 95 34 58 35 59 36 74 38 96 39 61 40 44 41 45 42 54 43 46 44
REMARK SMILES IDX 47 45 53 46 55 47 48 48 49 49 50 50 51 51 52 52 78 53 79 54
REMARK SMILES IDX 88 55 80 56 81 57 87 58 89 59 82 60 83 61 84 62 85 63 86 64
REMARK SMILES IDX 62 65 63 66 72 67 64 68 65 69 71 70 73 71 66 72 67 73 68 74
REMARK SMILES IDX 69 75 70 76 9 77 10 78 11 79 12 80 13 81 14 82 15 83 16 84
REMARK SMILES IDX 33 85 30 86 32 87 34 88 31 89 17 90 18 91 19 92 20 94 21 95
REMARK SMILES IDX 25 96 22 97 24 98 23 99 26 100 27 101 28 102 29 103
REMARK H PARENT 94 26 60 37 19 93
REMARK Flexibility Score: inf
ROOT
ATOM      1  C   UNL A   1      34.575  31.317  27.634  1.00  0.00     0.188 C 
ENDROOT
BRANCH   1   2
ATOM      2  C   UNL A   1      35.408  32.564  27.984  1.00  0.00     0.188 C 
BRANCH   2   3
ATOM      3  O   UNL A   1      34.797  33.476  28.899  1.00  0.00    -0.376 OA
BRANCH   3   4
ATOM      4  C   UNL A   1      34.774  32.966  30.251  1.00  0.00     0.202 C 
BRANCH   4   5
ATOM      5  C   UNL A   1      35.699  33.699  31.247  1.00  0.00     0.261 C 
BRANCH   5   6
ATOM      6  O   UNL A   1      37.012  33.117  31.167  1.00  0.00    -0.460 OA
BRANCH   6   7
ATOM      7  C   UNL A   1      37.167  31.895  31.736  1.00  0.00     0.338 C 
ATOM      8  O   UNL A   1      36.609  31.523  32.747  1.00  0.00    -0.246 OA
BRANCH   7   9
ATOM      9  C   UNL A   1      38.321  31.215  31.096  1.00  0.00     0.060 A 
ATOM     10  C   UNL A   1      39.306  30.592  31.879  1.00  0.00     0.016 A 
ATOM     11  C   UNL A   1      38.381  31.137  29.702  1.00  0.00     0.016 A 
ATOM     12  C   UNL A   1      40.298  29.819  31.288  1.00  0.00     0.010 A 
ATOM     13  C   UNL A   1      39.386  30.371  29.105  1.00  0.00     0.010 A 
ATOM     14  C   UNL A   1      40.350  29.714  29.897  1.00  0.00    -0.014 A 
BRANCH  14  15
ATOM     15  C   UNL A   1      41.613  29.247  29.282  1.00  0.00     0.031 A 
ATOM     16  C   UNL A   1      42.665  30.303  29.117  1.00  0.00     0.074 A 
ATOM     17  C   UNL A   1      41.844  27.964  28.948  1.00  0.00     0.049 A 
ATOM     18  N   UNL A   1      43.868  30.212  28.625  1.00  0.00    -0.248 NA
ATOM     19  C   UNL A   1      42.310  31.653  29.595  1.00  0.00     0.031 C 
ATOM     20  C   UNL A   1      40.923  26.851  29.156  1.00  0.00     0.029 A 
ATOM     21  N   UNL A   1      42.926  27.381  28.338  1.00  0.00    -0.354 N 
ATOM     22  C   UNL A   1      44.411  31.484  28.755  1.00  0.00     0.074 A 
ATOM     23  C   UNL A   1      43.391  32.344  29.300  1.00  0.00     0.031 C 
ATOM     24  C   UNL A   1      41.440  25.734  28.612  1.00  0.00     0.029 A 
ATOM     25  C   UNL A   1      42.742  26.050  28.035  1.00  0.00     0.049 A 
ATOM     26  H   UNL A   1      43.758  27.869  28.137  1.00  0.00     0.167 HD
ATOM     27  C   UNL A   1      45.665  31.893  28.469  1.00  0.00     0.037 A 
ATOM     28  C   UNL A   1      43.538  25.199  27.358  1.00  0.00     0.037 A 
ATOM     29  C   UNL A   1      46.641  31.033  27.873  1.00  0.00     0.049 A 
ATOM     30  C   UNL A   1      44.893  25.701  26.924  1.00  0.00     0.074 A 
ATOM     31  C   UNL A   1      47.926  31.330  27.468  1.00  0.00     0.029 A 
ATOM     32  N   UNL A   1      46.413  29.695  27.571  1.00  0.00    -0.354 N 
ATOM     33  N   UNL A   1      45.413  26.898  27.078  1.00  0.00    -0.248 NA
ATOM     34  C   UNL A   1      45.784  24.742  26.260  1.00  0.00     0.031 C 
ATOM     35  C   UNL A   1      48.460  30.180  26.877  1.00  0.00     0.029 A 
ATOM     36  C   UNL A   1      47.530  29.153  26.968  1.00  0.00     0.049 A 
ATOM     37  H   UNL A   1      45.579  29.207  27.760  1.00  0.00     0.167 HD
ATOM     38  C   UNL A   1      46.706  26.824  26.580  1.00  0.00     0.074 A 
ATOM     39  C   UNL A   1      46.886  25.466  26.102  1.00  0.00     0.031 C 
ATOM     40  C   UNL A   1      47.666  27.782  26.536  1.00  0.00     0.037 A 
BRANCH  27  41
ATOM     41  C   UNL A   1      45.965  33.335  28.754  1.00  0.00     0.058 A 
ATOM     42  C   UNL A   1      45.758  34.331  27.782  1.00  0.00     0.135 A 
ATOM     43  C   UNL A   1      46.612  33.702  29.942  1.00  0.00     0.135 A 
ATOM     44  F   UNL A   1      45.183  34.022  26.608  1.00  0.00    -0.206 F 
ATOM     45  C   UNL A   1      46.246  35.622  27.951  1.00  0.00     0.059 A 
ATOM     46  C   UNL A   1      47.082  34.995  30.145  1.00  0.00     0.059 A 
ATOM     47  F   UNL A   1      46.850  32.785  30.893  1.00  0.00    -0.206 F 
ATOM     48  C   UNL A   1      46.925  35.938  29.129  1.00  0.00     0.060 A 
BRANCH  48  49
ATOM     49  S   UNL A   1      47.639  37.587  29.298  1.00  0.00     0.124 S 
ATOM     50  O   UNL A   1      47.197  38.222  28.058  1.00  0.00    -0.237 OA
ATOM     51  O   UNL A   1      47.008  38.080  30.518  1.00  0.00    -0.237 OA
ATOM     52  O   UNL A   1      49.071  37.328  29.395  1.00  0.00    -0.744 OA
ENDBRANCH  48  49
ENDBRANCH  27  41
BRANCH  28  53
ATOM     53  C   UNL A   1      43.095  23.802  27.085  1.00  0.00     0.058 A 
ATOM     54  C   UNL A   1      42.725  23.389  25.797  1.00  0.00     0.135 A 
ATOM     55  C   UNL A   1      43.051  22.840  28.108  1.00  0.00     0.135 A 
ATOM     56  F   UNL A   1      42.737  24.267  24.783  1.00  0.00    -0.206 F 
ATOM     57  C   UNL A   1      42.329  22.079  25.530  1.00  0.00     0.059 A 
ATOM     58  C   UNL A   1      42.674  21.519  27.864  1.00  0.00     0.059 A 
ATOM     59  F   UNL A   1      43.396  23.174  29.361  1.00  0.00    -0.206 F 
ATOM     60  C   UNL A   1      42.311  21.148  26.571  1.00  0.00     0.060 A 
BRANCH  60  61
ATOM     61  S   UNL A   1      41.859  19.438  26.196  1.00  0.00     0.124 S 
ATOM     62  O   UNL A   1      42.653  19.176  25.001  1.00  0.00    -0.237 OA
ATOM     63  O   UNL A   1      42.278  18.739  27.406  1.00  0.00    -0.237 OA
ATOM     64  O   UNL A   1      40.414  19.508  25.990  1.00  0.00    -0.744 OA
ENDBRANCH  60  61
ENDBRANCH  28  53
BRANCH  40  65
ATOM     65  C   UNL A   1      49.017  27.391  26.015  1.00  0.00     0.058 A 
ATOM     66  C   UNL A   1      49.326  27.453  24.650  1.00  0.00     0.135 A 
ATOM     67  C   UNL A   1      50.051  27.100  26.920  1.00  0.00     0.135 A 
ATOM     68  F   UNL A   1      48.367  27.722  23.750  1.00  0.00    -0.206 F 
ATOM     69  C   UNL A   1      50.624  27.251  24.198  1.00  0.00     0.059 A 
ATOM     70  C   UNL A   1      51.359  26.921  26.493  1.00  0.00     0.059 A 
ATOM     71  F   UNL A   1      49.801  27.044  28.239  1.00  0.00    -0.206 F 
ATOM     72  C   UNL A   1      51.636  27.001  25.129  1.00  0.00     0.060 A 
BRANCH  72  73
ATOM     73  S   UNL A   1      53.335  26.850  24.538  1.00  0.00     0.124 S 
ATOM     74  O   UNL A   1      53.286  25.578  23.826  1.00  0.00    -0.237 OA
ATOM     75  O   UNL A   1      53.482  28.040  23.705  1.00  0.00    -0.237 OA
ATOM     76  O   UNL A   1      54.123  26.854  25.768  1.00  0.00    -0.744 OA
ENDBRANCH  72  73
ENDBRANCH  40  65
ENDBRANCH  14  15
ENDBRANCH   7   9
ENDBRANCH   6   7
ENDBRANCH   5   6
ENDBRANCH   4   5
ENDBRANCH   3   4
ENDBRANCH   2   3
ENDBRANCH   1   2
BRANCH   1  77
ATOM     77  O   UNL A   1      33.152  31.398  27.551  1.00  0.00    -0.376 OA
BRANCH  77  78
ATOM     78  C   UNL A   1      32.392  30.386  26.874  1.00  0.00     0.202 C 
BRANCH  78  79
ATOM     79  C   UNL A   1      33.150  29.219  26.147  1.00  0.00     0.261 C 
BRANCH  79  80
ATOM     80  O   UNL A   1      33.280  29.343  24.679  1.00  0.00    -0.463 OA
BRANCH  80  81
ATOM     81  C   UNL A   1      32.676  28.365  23.908  1.00  0.00     0.310 C 
ATOM     82  O   UNL A   1      32.072  28.659  22.877  1.00  0.00    -0.252 OA
BRANCH  81  83
ATOM     83  C   UNL A   1      32.673  26.904  24.486  1.00  0.00     0.119 C 
ATOM     84  C   UNL A   1      33.012  25.405  23.996  1.00  0.00     0.100 C 
ATOM     85  C   UNL A   1      31.255  26.656  25.123  1.00  0.00     0.027 C 
ATOM     86  C   UNL A   1      31.819  24.576  24.585  1.00  0.00     0.025 C 
ATOM     87  C   UNL A   1      30.278  26.179  24.065  1.00  0.00    -0.027 C 
ATOM     88  C   UNL A   1      31.478  25.330  25.855  1.00  0.00     0.017 C 
ATOM     89  C   UNL A   1      30.596  24.912  23.770  1.00  0.00    -0.027 C 
BRANCH  84  90
ATOM     90  C   UNL A   1      33.359  24.548  22.745  1.00  0.00     0.229 C 
ATOM     91  O   UNL A   1      33.548  25.162  21.681  1.00  0.00    -0.274 OA
ATOM     92  N   UNL A   1      33.736  23.248  22.679  1.00  0.00    -0.323 N 
ATOM     93  H   UNL A   1      34.155  22.983  21.829  1.00  0.00     0.170 HD
BRANCH  92  94
ATOM     94  C   UNL A   1      33.628  22.234  23.610  1.00  0.00     0.084 A 
ATOM     95  C   UNL A   1      32.516  21.391  23.575  1.00  0.00     0.030 A 
ATOM     96  C   UNL A   1      34.635  21.985  24.502  1.00  0.00     0.149 A 
ATOM     97  C   UNL A   1      32.575  20.145  24.201  1.00  0.00     0.002 A 
ATOM     98  C   UNL A   1      34.776  20.676  24.970  1.00  0.00     0.049 A 
ATOM     99  C   UNL A   1      33.752  19.749  24.818  1.00  0.00     0.004 A 
BRANCH  96 100
ATOM    100  O   UNL A   1      35.477  22.911  25.016  1.00  0.00    -0.433 OA
BRANCH 100 101
ATOM    101  C   UNL A   1      36.863  23.088  24.705  1.00  0.00     0.542 C 
ATOM    102  F   UNL A   1      37.023  23.331  23.389  1.00  0.00    -0.167 F 
ATOM    103  F   UNL A   1      37.394  24.077  25.427  1.00  0.00    -0.167 F 
ENDBRANCH 100 101
ENDBRANCH  96 100
ENDBRANCH  92  94
ENDBRANCH  84  90
ENDBRANCH  81  83
ENDBRANCH  80  81
ENDBRANCH  79  80
ENDBRANCH  78  79
ENDBRANCH  77  78
ENDBRANCH   1  77
TORSDOF 24
ENDMDL
MODEL 3
REMARK VINA RESULT:     -10.1      1.599      8.229
REMARK SMILES O=C(OCCOCCOCCOC(=O)[C@@H]1[C@H](C(=O)Nc2ccccc2OC(F)F)[C@@H]2C=C[C@H]1C2)c1ccc(-c2c3nc(c(-c4c(F)cc(S(=O)(=O)[O-])cc4F)c4ccc([nH]4)c(-c4c(F)cc(S(=O)(=O)[O-])cc4F)c4nc(c(-c5c(F)cc(S(=O)(=O)[O-])cc5F)c5ccc2[nH]5)C=C4)C=C3)cc1
REMARK SMILES IDX 8 1 7 2 6 3 5 4 4 5 3 6 2 7 1 8 35 9 36 10 100 11 37 12
REMARK SMILES IDX 99 13 38 14 39 15 40 16 93 17 41 18 98 19 92 20 94 21 42 22
REMARK SMILES IDX 97 23 91 24 90 25 43 27 77 28 56 29 76 30 57 31 60 32 75 33
REMARK SMILES IDX 95 34 58 35 59 36 74 38 96 39 61 40 44 41 45 42 54 43 46 44
REMARK SMILES IDX 47 45 53 46 55 47 48 48 49 49 50 50 51 51 52 52 78 53 79 54
REMARK SMILES IDX 88 55 80 56 81 57 87 58 89 59 82 60 83 61 84 62 85 63 86 64
REMARK SMILES IDX 62 65 63 66 72 67 64 68 65 69 71 70 73 71 66 72 67 73 68 74
REMARK SMILES IDX 69 75 70 76 9 77 10 78 11 79 12 80 13 81 14 82 15 83 16 84
REMARK SMILES IDX 33 85 30 86 32 87 34 88 31 89 17 90 18 91 19 92 20 94 21 95
REMARK SMILES IDX 25 96 22 97 24 98 23 99 26 100 27 101 28 102 29 103
REMARK H PARENT 94 26 60 37 19 93
REMARK Flexibility Score: inf
ROOT
ATOM      1  C   UNL A   1      40.116  21.680  26.108  1.00  0.00     0.188 C 
ENDROOT
BRANCH   1   2
ATOM      2  C   UNL A   1      41.605  22.030  26.286  1.00  0.00     0.188 C 
BRANCH   2   3
ATOM      3  O   UNL A   1      42.011  22.336  27.621  1.00  0.00    -0.376 OA
BRANCH   3   4
ATOM      4  C   UNL A   1      43.322  22.941  27.674  1.00  0.00     0.202 C 
BRANCH   4   5
ATOM      5  C   UNL A   1      43.791  23.614  26.365  1.00  0.00     0.261 C 
BRANCH   5   6
ATOM      6  O   UNL A   1      43.736  25.040  26.539  1.00  0.00    -0.460 OA
BRANCH   6   7
ATOM      7  C   UNL A   1      42.530  25.628  26.335  1.00  0.00     0.338 C 
ATOM      8  O   UNL A   1      41.925  25.628  25.284  1.00  0.00    -0.246 OA
BRANCH   7   9
ATOM      9  C   UNL A   1      42.222  26.495  27.501  1.00  0.00     0.060 A 
ATOM     10  C   UNL A   1      42.859  27.737  27.654  1.00  0.00     0.016 A 
ATOM     11  C   UNL A   1      41.235  26.097  28.407  1.00  0.00     0.016 A 
ATOM     12  C   UNL A   1      42.460  28.622  28.649  1.00  0.00     0.010 A 
ATOM     13  C   UNL A   1      40.841  26.979  29.417  1.00  0.00     0.010 A 
ATOM     14  C   UNL A   1      41.456  28.242  29.544  1.00  0.00    -0.014 A 
BRANCH  14  15
ATOM     15  C   UNL A   1      41.334  28.996  30.811  1.00  0.00     0.031 A 
ATOM     16  C   UNL A   1      40.230  30.011  30.839  1.00  0.00     0.074 A 
ATOM     17  C   UNL A   1      42.103  28.761  31.890  1.00  0.00     0.049 A 
ATOM     18  N   UNL A   1      39.863  30.817  31.795  1.00  0.00    -0.248 NA
ATOM     19  C   UNL A   1      39.413  30.115  29.615  1.00  0.00     0.031 C 
ATOM     20  C   UNL A   1      43.135  27.734  31.993  1.00  0.00     0.029 A 
ATOM     21  N   UNL A   1      42.147  29.390  33.109  1.00  0.00    -0.354 N 
ATOM     22  C   UNL A   1      38.766  31.503  31.290  1.00  0.00     0.074 A 
ATOM     23  C   UNL A   1      38.570  31.078  29.927  1.00  0.00     0.031 C 
ATOM     24  C   UNL A   1      43.767  27.852  33.174  1.00  0.00     0.029 A 
ATOM     25  C   UNL A   1      43.168  28.951  33.922  1.00  0.00     0.049 A 
ATOM     26  H   UNL A   1      41.507  30.089  33.377  1.00  0.00     0.167 HD
ATOM     27  C   UNL A   1      37.971  32.394  31.920  1.00  0.00     0.037 A 
ATOM     28  C   UNL A   1      43.569  29.403  35.127  1.00  0.00     0.037 A 
ATOM     29  C   UNL A   1      38.223  32.844  33.255  1.00  0.00     0.049 A 
ATOM     30  C   UNL A   1      42.751  30.493  35.775  1.00  0.00     0.074 A 
ATOM     31  C   UNL A   1      37.542  33.789  33.994  1.00  0.00     0.029 A 
ATOM     32  N   UNL A   1      39.273  32.384  34.042  1.00  0.00    -0.354 N 
ATOM     33  N   UNL A   1      41.694  31.116  35.304  1.00  0.00    -0.248 NA
ATOM     34  C   UNL A   1      43.148  30.920  37.123  1.00  0.00     0.031 C 
ATOM     35  C   UNL A   1      38.211  33.936  35.214  1.00  0.00     0.029 A 
ATOM     36  C   UNL A   1      39.271  33.040  35.257  1.00  0.00     0.049 A 
ATOM     37  H   UNL A   1      39.921  31.694  33.773  1.00  0.00     0.167 HD
ATOM     38  C   UNL A   1      41.269  31.969  36.313  1.00  0.00     0.074 A 
ATOM     39  C   UNL A   1      42.193  31.795  37.417  1.00  0.00     0.031 C 
ATOM     40  C   UNL A   1      40.201  32.807  36.336  1.00  0.00     0.037 A 
BRANCH  27  41
ATOM     41  C   UNL A   1      36.831  32.942  31.113  1.00  0.00     0.058 A 
ATOM     42  C   UNL A   1      35.547  32.369  31.180  1.00  0.00     0.135 A 
ATOM     43  C   UNL A   1      37.057  33.935  30.151  1.00  0.00     0.135 A 
ATOM     44  F   UNL A   1      35.291  31.381  32.053  1.00  0.00    -0.206 F 
ATOM     45  C   UNL A   1      34.551  32.715  30.273  1.00  0.00     0.059 A 
ATOM     46  C   UNL A   1      36.066  34.318  29.254  1.00  0.00     0.059 A 
ATOM     47  F   UNL A   1      38.270  34.500  30.035  1.00  0.00    -0.206 F 
ATOM     48  C   UNL A   1      34.829  33.677  29.301  1.00  0.00     0.060 A 
BRANCH  48  49
ATOM     49  S   UNL A   1      33.562  34.048  28.069  1.00  0.00     0.124 S 
ATOM     50  O   UNL A   1      32.609  34.825  28.858  1.00  0.00    -0.237 OA
ATOM     51  O   UNL A   1      34.310  34.799  27.065  1.00  0.00    -0.237 OA
ATOM     52  O   UNL A   1      33.102  32.729  27.648  1.00  0.00    -0.744 OA
ENDBRANCH  48  49
ENDBRANCH  27  41
BRANCH  28  53
ATOM     53  C   UNL A   1      44.761  28.811  35.800  1.00  0.00     0.058 A 
ATOM     54  C   UNL A   1      44.637  27.757  36.717  1.00  0.00     0.135 A 
ATOM     55  C   UNL A   1      46.057  29.276  35.523  1.00  0.00     0.135 A 
ATOM     56  F   UNL A   1      43.423  27.279  37.028  1.00  0.00    -0.206 F 
ATOM     57  C   UNL A   1      45.749  27.186  37.334  1.00  0.00     0.059 A 
ATOM     58  C   UNL A   1      47.187  28.710  36.115  1.00  0.00     0.059 A 
ATOM     59  F   UNL A   1      46.240  30.280  34.652  1.00  0.00    -0.206 F 
ATOM     60  C   UNL A   1      47.022  27.666  37.023  1.00  0.00     0.060 A 
BRANCH  60  61
ATOM     61  S   UNL A   1      48.458  26.870  37.781  1.00  0.00     0.124 S 
ATOM     62  O   UNL A   1      48.870  25.941  36.735  1.00  0.00    -0.237 OA
ATOM     63  O   UNL A   1      49.346  28.004  38.015  1.00  0.00    -0.237 OA
ATOM     64  O   UNL A   1      47.906  26.257  38.987  1.00  0.00    -0.744 OA
ENDBRANCH  60  61
ENDBRANCH  28  53
BRANCH  40  65
ATOM     65  C   UNL A   1      39.930  33.554  37.607  1.00  0.00     0.058 A 
ATOM     66  C   UNL A   1      39.045  33.063  38.576  1.00  0.00     0.135 A 
ATOM     67  C   UNL A   1      40.687  34.697  37.914  1.00  0.00     0.135 A 
ATOM     68  F   UNL A   1      38.298  31.977  38.323  1.00  0.00    -0.206 F 
ATOM     69  C   UNL A   1      38.929  33.675  39.818  1.00  0.00     0.059 A 
ATOM     70  C   UNL A   1      40.605  35.308  39.157  1.00  0.00     0.059 A 
ATOM     71  F   UNL A   1      41.556  35.193  37.019  1.00  0.00    -0.206 F 
ATOM     72  C   UNL A   1      39.724  34.788  40.104  1.00  0.00     0.060 A 
BRANCH  72  73
ATOM     73  S   UNL A   1      39.643  35.505  41.758  1.00  0.00     0.124 S 
ATOM     74  O   UNL A   1      40.526  34.617  42.507  1.00  0.00    -0.237 OA
ATOM     75  O   UNL A   1      40.142  36.859  41.536  1.00  0.00    -0.237 OA
ATOM     76  O   UNL A   1      38.225  35.415  42.097  1.00  0.00    -0.744 OA
ENDBRANCH  72  73
ENDBRANCH  40  65
ENDBRANCH  14  15
ENDBRANCH   7   9
ENDBRANCH   6   7
ENDBRANCH   5   6
ENDBRANCH   4   5
ENDBRANCH   3   4
ENDBRANCH   2   3
ENDBRANCH   1   2
BRANCH   1  77
ATOM     77  O   UNL A   1      39.115  22.388  26.838  1.00  0.00    -0.376 OA
BRANCH  77  78
ATOM     78  C   UNL A   1      38.495  23.563  26.294  1.00  0.00     0.202 C 
BRANCH  78  79
ATOM     79  C   UNL A   1      37.198  23.409  25.423  1.00  0.00     0.261 C 
BRANCH  79  80
ATOM     80  O   UNL A   1      36.252  22.354  25.848  1.00  0.00    -0.463 OA
BRANCH  80  81
ATOM     81  C   UNL A   1      35.014  22.766  26.309  1.00  0.00     0.310 C 
ATOM     82  O   UNL A   1      34.570  22.350  27.379  1.00  0.00    -0.252 OA
BRANCH  81  83
ATOM     83  C   UNL A   1      34.155  23.658  25.343  1.00  0.00     0.119 C 
ATOM     84  C   UNL A   1      32.880  24.643  25.415  1.00  0.00     0.100 C 
ATOM     85  C   UNL A   1      33.715  22.750  24.134  1.00  0.00     0.027 C 
ATOM     86  C   UNL A   1      32.052  24.221  24.152  1.00  0.00     0.025 C 
ATOM     87  C   UNL A   1      32.445  21.996  24.476  1.00  0.00    -0.027 C 
ATOM     88  C   UNL A   1      33.125  23.786  23.174  1.00  0.00     0.017 C 
ATOM     89  C   UNL A   1      31.437  22.877  24.449  1.00  0.00    -0.027 C 
BRANCH  84  90
ATOM     90  C   UNL A   1      31.738  25.143  26.345  1.00  0.00     0.229 C 
ATOM     91  O   UNL A   1      31.413  24.394  27.283  1.00  0.00    -0.274 OA
ATOM     92  N   UNL A   1      31.202  26.383  26.448  1.00  0.00    -0.323 N 
ATOM     93  H   UNL A   1      30.682  26.540  27.269  1.00  0.00     0.170 HD
BRANCH  92  94
ATOM     94  C   UNL A   1      31.265  27.462  25.590  1.00  0.00     0.084 A 
ATOM     95  C   UNL A   1      30.674  27.368  24.329  1.00  0.00     0.030 A 
ATOM     96  C   UNL A   1      31.815  28.649  25.989  1.00  0.00     0.149 A 
ATOM     97  C   UNL A   1      30.360  28.531  23.625  1.00  0.00     0.002 A 
ATOM     98  C   UNL A   1      31.340  29.818  25.387  1.00  0.00     0.049 A 
ATOM     99  C   UNL A   1      30.607  29.766  24.207  1.00  0.00     0.004 A 
BRANCH  96 100
ATOM    100  O   UNL A   1      32.822  28.789  26.883  1.00  0.00    -0.433 OA
BRANCH 100 101
ATOM    101  C   UNL A   1      34.222  28.619  26.643  1.00  0.00     0.542 C 
ATOM    102  F   UNL A   1      34.932  28.941  27.742  1.00  0.00    -0.167 F 
ATOM    103  F   UNL A   1      34.495  27.368  26.266  1.00  0.00    -0.167 F 
ENDBRANCH 100 101
ENDBRANCH  96 100
ENDBRANCH  92  94
ENDBRANCH  84  90
ENDBRANCH  81  83
ENDBRANCH  80  81
ENDBRANCH  79  80
ENDBRANCH  78  79
ENDBRANCH  77  78
ENDBRANCH   1  77
TORSDOF 24
ENDMDL
