MODEL 1
REMARK VINA RESULT:     -11.8      0.000      0.000
REMARK SMILES CN1C(=O)C[C@H](C(=O)OCCOCCOCCOC(=O)c2ccc(-c3c4nc(c(-c5c(F)cc(S(=O)(=O)[O-])cc5F)c5ccc([nH]5)c(-c5c(F)cc(S(=O)(=O)[O-])cc5F)c5nc(c(-c6c(F)cc(S(=O)(=O)[O-])cc6F)c6ccc3[nH]6)C=C5)C=C4)cc2)C12CC[NH+](Cc1ccc(Cl)c(F)c1)CC2
REMARK SMILES IDX 14 1 13 2 12 3 11 4 10 5 9 6 7 7 8 8 6 9 1 10 2 11 3 12
REMARK SMILES IDX 87 13 4 14 5 15 88 16 101 17 89 18 100 19 90 20 91 22 92 23
REMARK SMILES IDX 93 24 99 25 94 26 97 27 95 28 98 29 96 30 15 31 16 32 17 33
REMARK SMILES IDX 18 34 19 35 20 36 21 37 22 38 86 39 23 40 85 41 24 42 25 43
REMARK SMILES IDX 26 44 79 45 27 46 84 47 78 48 80 49 28 50 83 51 77 52 76 53
REMARK SMILES IDX 29 55 63 56 42 57 62 58 43 59 46 60 61 61 81 62 44 63 45 64
REMARK SMILES IDX 60 66 82 67 47 68 30 69 31 70 40 71 32 72 33 73 39 74 41 75
REMARK SMILES IDX 34 76 35 77 36 78 37 79 38 80 64 81 65 82 74 83 66 84 67 85
REMARK SMILES IDX 73 86 75 87 68 88 69 89 70 90 71 91 72 92 48 93 49 94 58 95
REMARK SMILES IDX 50 96 51 97 57 98 59 99 52 100 53 101 54 102 55 103 56 104
REMARK H PARENT 90 21 80 54 46 65
REMARK Flexibility Score: inf
ROOT
ATOM      1  C   UNL A   1      34.442  33.614  30.081  1.00  0.00     0.188 C 
ENDROOT
BRANCH   1   2
ATOM      2  C   UNL A   1      34.241  32.920  28.716  1.00  0.00     0.188 C 
BRANCH   2   3
ATOM      3  O   UNL A   1      34.510  31.538  28.573  1.00  0.00    -0.376 OA
BRANCH   3   4
ATOM      4  C   UNL A   1      34.208  30.931  27.336  1.00  0.00     0.202 C 
BRANCH   4   5
ATOM      5  C   UNL A   1      32.975  30.017  27.276  1.00  0.00     0.261 C 
BRANCH   5   6
ATOM      6  O   UNL A   1      33.139  28.689  26.710  1.00  0.00    -0.463 OA
BRANCH   6   7
ATOM      7  C   UNL A   1      32.538  28.482  25.501  1.00  0.00     0.311 C 
ATOM      8  O   UNL A   1      32.624  29.272  24.569  1.00  0.00    -0.252 OA
BRANCH   7   9
ATOM      9  C   UNL A   1      31.635  27.242  25.485  1.00  0.00     0.134 C 
ATOM     10  C   UNL A   1      30.593  24.199  23.481  1.00  0.00     0.147 C 
ATOM     11  N   UNL A   1      30.761  25.427  24.248  1.00  0.00    -0.339 N 
ATOM     12  C   UNL A   1      29.794  26.411  24.171  1.00  0.00     0.223 C 
ATOM     13  C   UNL A   1      32.071  25.893  24.795  1.00  0.00     0.067 C 
ATOM     14  O   UNL A   1      28.683  26.304  23.692  1.00  0.00    -0.275 OA
ATOM     15  C   UNL A   1      30.379  27.675  24.702  1.00  0.00     0.118 C 
ATOM     16  C   UNL A   1      32.527  24.806  25.836  1.00  0.00     0.091 C 
ATOM     17  C   UNL A   1      33.007  26.090  23.586  1.00  0.00     0.091 C 
ATOM     18  C   UNL A   1      33.981  24.328  25.812  1.00  0.00     0.265 C 
ATOM     19  C   UNL A   1      34.409  25.567  23.773  1.00  0.00     0.265 C 
ATOM     20  N   UNL A   1      34.480  24.324  24.469  1.00  0.00    -0.331 N 
ATOM     21  H   UNL A   1      33.988  23.479  24.182  1.00  0.00     0.348 HD
BRANCH  20  22
ATOM     22  C   UNL A   1      35.133  23.177  23.860  1.00  0.00     0.299 C 
BRANCH  22  23
ATOM     23  C   UNL A   1      34.326  21.902  24.047  1.00  0.00     0.009 A 
ATOM     24  C   UNL A   1      33.003  21.808  23.599  1.00  0.00     0.011 A 
ATOM     25  C   UNL A   1      34.892  20.759  24.633  1.00  0.00     0.050 A 
ATOM     26  C   UNL A   1      32.319  20.584  23.651  1.00  0.00     0.024 A 
ATOM     27  C   UNL A   1      34.241  19.534  24.625  1.00  0.00     0.142 A 
ATOM     28  C   UNL A   1      32.957  19.435  24.124  1.00  0.00     0.076 A 
ATOM     29  F   UNL A   1      34.907  18.461  25.073  1.00  0.00    -0.205 F 
ATOM     30  Cl  UNL A   1      32.159  17.916  24.056  1.00  0.00    -0.081 Cl
ENDBRANCH  22  23
ENDBRANCH  20  22
ENDBRANCH   7   9
ENDBRANCH   6   7
ENDBRANCH   5   6
ENDBRANCH   4   5
ENDBRANCH   3   4
ENDBRANCH   2   3
ENDBRANCH   1   2
BRANCH   1  31
ATOM     31  O   UNL A   1      34.574  32.798  31.225  1.00  0.00    -0.376 OA
BRANCH  31  32
ATOM     32  C   UNL A   1      35.913  32.560  31.648  1.00  0.00     0.202 C 
BRANCH  32  33
ATOM     33  C   UNL A   1      36.155  31.351  32.573  1.00  0.00     0.261 C 
BRANCH  33  34
ATOM     34  O   UNL A   1      36.275  30.078  31.884  1.00  0.00    -0.460 OA
BRANCH  34  35
ATOM     35  C   UNL A   1      37.386  29.380  32.256  1.00  0.00     0.338 C 
ATOM     36  O   UNL A   1      37.402  28.574  33.177  1.00  0.00    -0.246 OA
BRANCH  35  37
ATOM     37  C   UNL A   1      38.600  29.602  31.407  1.00  0.00     0.060 A 
ATOM     38  C   UNL A   1      38.577  30.170  30.140  1.00  0.00     0.016 A 
ATOM     39  C   UNL A   1      39.810  29.056  31.844  1.00  0.00     0.016 A 
ATOM     40  C   UNL A   1      39.678  30.005  29.266  1.00  0.00     0.010 A 
ATOM     41  C   UNL A   1      40.946  29.027  31.011  1.00  0.00     0.010 A 
ATOM     42  C   UNL A   1      40.896  29.438  29.669  1.00  0.00    -0.014 A 
BRANCH  42  43
ATOM     43  C   UNL A   1      42.105  29.243  28.768  1.00  0.00     0.031 A 
ATOM     44  C   UNL A   1      42.356  27.887  28.114  1.00  0.00     0.074 A 
ATOM     45  C   UNL A   1      43.029  30.205  28.524  1.00  0.00     0.049 A 
ATOM     46  N   UNL A   1      43.486  27.316  27.774  1.00  0.00    -0.248 NA
ATOM     47  C   UNL A   1      41.171  27.059  27.826  1.00  0.00     0.031 C 
ATOM     48  C   UNL A   1      42.939  31.619  28.888  1.00  0.00     0.029 A 
ATOM     49  N   UNL A   1      44.274  30.116  27.922  1.00  0.00    -0.354 N 
ATOM     50  C   UNL A   1      43.159  26.031  27.336  1.00  0.00     0.074 A 
ATOM     51  C   UNL A   1      41.718  25.920  27.417  1.00  0.00     0.031 C 
ATOM     52  C   UNL A   1      44.047  32.260  28.494  1.00  0.00     0.029 A 
ATOM     53  C   UNL A   1      45.009  31.281  28.019  1.00  0.00     0.049 A 
ATOM     54  H   UNL A   1      44.601  29.305  27.472  1.00  0.00     0.167 HD
ATOM     55  C   UNL A   1      43.991  25.035  26.934  1.00  0.00     0.037 A 
ATOM     56  C   UNL A   1      46.327  31.538  27.880  1.00  0.00     0.037 A 
ATOM     57  C   UNL A   1      45.415  25.201  26.766  1.00  0.00     0.049 A 
ATOM     58  C   UNL A   1      47.266  30.414  27.548  1.00  0.00     0.074 A 
ATOM     59  C   UNL A   1      46.356  24.258  26.384  1.00  0.00     0.029 A 
ATOM     60  N   UNL A   1      46.098  26.396  26.934  1.00  0.00    -0.354 N 
ATOM     61  N   UNL A   1      46.987  29.153  27.322  1.00  0.00    -0.248 NA
ATOM     62  C   UNL A   1      48.698  30.734  27.483  1.00  0.00     0.031 C 
ATOM     63  C   UNL A   1      47.613  24.870  26.377  1.00  0.00     0.029 A 
ATOM     64  C   UNL A   1      47.447  26.211  26.684  1.00  0.00     0.049 A 
ATOM     65  H   UNL A   1      45.684  27.251  27.194  1.00  0.00     0.167 HD
ATOM     66  C   UNL A   1      48.204  28.540  27.053  1.00  0.00     0.074 A 
ATOM     67  C   UNL A   1      49.223  29.563  27.150  1.00  0.00     0.031 C 
ATOM     68  C   UNL A   1      48.450  27.244  26.746  1.00  0.00     0.037 A 
BRANCH  55  69
ATOM     69  C   UNL A   1      43.423  23.650  26.718  1.00  0.00     0.058 A 
ATOM     70  C   UNL A   1      43.320  23.050  25.454  1.00  0.00     0.135 A 
ATOM     71  C   UNL A   1      43.046  22.876  27.832  1.00  0.00     0.135 A 
ATOM     72  F   UNL A   1      43.655  23.735  24.351  1.00  0.00    -0.206 F 
ATOM     73  C   UNL A   1      42.843  21.747  25.301  1.00  0.00     0.059 A 
ATOM     74  C   UNL A   1      42.597  21.563  27.706  1.00  0.00     0.059 A 
ATOM     75  F   UNL A   1      43.129  23.390  29.070  1.00  0.00    -0.206 F 
ATOM     76  C   UNL A   1      42.485  21.011  26.434  1.00  0.00     0.060 A 
BRANCH  76  77
ATOM     77  S   UNL A   1      41.867  19.326  26.220  1.00  0.00     0.124 S 
ATOM     78  O   UNL A   1      42.661  18.867  25.084  1.00  0.00    -0.237 OA
ATOM     79  O   UNL A   1      42.186  18.711  27.505  1.00  0.00    -0.237 OA
ATOM     80  O   UNL A   1      40.445  19.513  25.952  1.00  0.00    -0.744 OA
ENDBRANCH  76  77
ENDBRANCH  55  69
BRANCH  56  81
ATOM     81  C   UNL A   1      46.853  32.903  28.188  1.00  0.00     0.058 A 
ATOM     82  C   UNL A   1      47.242  33.263  29.486  1.00  0.00     0.135 A 
ATOM     83  C   UNL A   1      46.993  33.872  27.177  1.00  0.00     0.135 A 
ATOM     84  F   UNL A   1      47.107  32.388  30.494  1.00  0.00    -0.206 F 
ATOM     85  C   UNL A   1      47.748  34.530  29.771  1.00  0.00     0.059 A 
ATOM     86  C   UNL A   1      47.533  35.128  27.430  1.00  0.00     0.059 A 
ATOM     87  F   UNL A   1      46.639  33.584  25.914  1.00  0.00    -0.206 F 
ATOM     88  C   UNL A   1      47.898  35.453  28.734  1.00  0.00     0.060 A 
BRANCH  88  89
ATOM     89  S   UNL A   1      48.601  37.075  29.103  1.00  0.00     0.124 S 
ATOM     90  O   UNL A   1      49.027  36.901  30.487  1.00  0.00    -0.237 OA
ATOM     91  O   UNL A   1      49.668  37.179  28.114  1.00  0.00    -0.237 OA
ATOM     92  O   UNL A   1      47.476  37.982  28.899  1.00  0.00    -0.744 OA
ENDBRANCH  88  89
ENDBRANCH  56  81
BRANCH  68  93
ATOM     93  C   UNL A   1      49.859  26.858  26.400  1.00  0.00     0.058 A 
ATOM     94  C   UNL A   1      50.711  26.236  27.324  1.00  0.00     0.135 A 
ATOM     95  C   UNL A   1      50.327  27.033  25.087  1.00  0.00     0.135 A 
ATOM     96  F   UNL A   1      50.318  26.060  28.596  1.00  0.00    -0.206 F 
ATOM     97  C   UNL A   1      51.977  25.791  26.955  1.00  0.00     0.059 A 
ATOM     98  C   UNL A   1      51.577  26.573  24.689  1.00  0.00     0.059 A 
ATOM     99  F   UNL A   1      49.549  27.624  24.165  1.00  0.00    -0.206 F 
ATOM    100  C   UNL A   1      52.396  25.952  25.631  1.00  0.00     0.060 A 
BRANCH 100 101
ATOM    101  S   UNL A   1      54.001  25.286  25.145  1.00  0.00     0.124 S 
ATOM    102  O   UNL A   1      53.726  23.854  25.099  1.00  0.00    -0.237 OA
ATOM    103  O   UNL A   1      54.225  25.930  23.853  1.00  0.00    -0.237 OA
ATOM    104  O   UNL A   1      54.890  25.721  26.218  1.00  0.00    -0.744 OA
ENDBRANCH 100 101
ENDBRANCH  68  93
ENDBRANCH  42  43
ENDBRANCH  35  37
ENDBRANCH  34  35
ENDBRANCH  33  34
ENDBRANCH  32  33
ENDBRANCH  31  32
ENDBRANCH   1  31
TORSDOF 22
ENDMDL
MODEL 2
REMARK VINA RESULT:     -11.8      6.212     11.996
REMARK SMILES CN1C(=O)C[C@H](C(=O)OCCOCCOCCOC(=O)c2ccc(-c3c4nc(c(-c5c(F)cc(S(=O)(=O)[O-])cc5F)c5ccc([nH]5)c(-c5c(F)cc(S(=O)(=O)[O-])cc5F)c5nc(c(-c6c(F)cc(S(=O)(=O)[O-])cc6F)c6ccc3[nH]6)C=C5)C=C4)cc2)C12CC[NH+](Cc1ccc(Cl)c(F)c1)CC2
REMARK SMILES IDX 14 1 13 2 12 3 11 4 10 5 9 6 7 7 8 8 6 9 1 10 2 11 3 12
REMARK SMILES IDX 87 13 4 14 5 15 88 16 101 17 89 18 100 19 90 20 91 22 92 23
REMARK SMILES IDX 93 24 99 25 94 26 97 27 95 28 98 29 96 30 15 31 16 32 17 33
REMARK SMILES IDX 18 34 19 35 20 36 21 37 22 38 86 39 23 40 85 41 24 42 25 43
REMARK SMILES IDX 26 44 79 45 27 46 84 47 78 48 80 49 28 50 83 51 77 52 76 53
REMARK SMILES IDX 29 55 63 56 42 57 62 58 43 59 46 60 61 61 81 62 44 63 45 64
REMARK SMILES IDX 60 66 82 67 47 68 30 69 31 70 40 71 32 72 33 73 39 74 41 75
REMARK SMILES IDX 34 76 35 77 36 78 37 79 38 80 64 81 65 82 74 83 66 84 67 85
REMARK SMILES IDX 73 86 75 87 68 88 69 89 70 90 71 91 72 92 48 93 49 94 58 95
REMARK SMILES IDX 50 96 51 97 57 98 59 99 52 100 53 101 54 102 55 103 56 104
REMARK H PARENT 90 21 80 54 46 65
REMARK Flexibility Score: inf
ROOT
ATOM      1  C   UNL A   1      41.920  20.942  26.026  1.00  0.00     0.188 C 
ENDROOT
BRANCH   1   2
ATOM      2  C   UNL A   1      40.732  21.625  26.741  1.00  0.00     0.188 C 
BRANCH   2   3
ATOM      3  O   UNL A   1      39.520  21.854  26.048  1.00  0.00    -0.376 OA
BRANCH   3   4
ATOM      4  C   UNL A   1      38.597  20.791  25.963  1.00  0.00     0.202 C 
BRANCH   4   5
ATOM      5  C   UNL A   1      37.602  20.805  24.793  1.00  0.00     0.261 C 
BRANCH   5   6
ATOM      6  O   UNL A   1      36.338  21.494  24.982  1.00  0.00    -0.463 OA
BRANCH   6   7
ATOM      7  C   UNL A   1      35.995  22.383  24.005  1.00  0.00     0.311 C 
ATOM      8  O   UNL A   1      36.793  23.169  23.508  1.00  0.00    -0.252 OA
BRANCH   7   9
ATOM      9  C   UNL A   1      34.492  22.394  23.704  1.00  0.00     0.134 C 
ATOM     10  C   UNL A   1      31.099  23.554  24.931  1.00  0.00     0.147 C 
ATOM     11  N   UNL A   1      32.308  22.888  24.466  1.00  0.00    -0.339 N 
ATOM     12  C   UNL A   1      32.478  21.540  24.716  1.00  0.00     0.223 C 
ATOM     13  C   UNL A   1      33.564  23.608  24.095  1.00  0.00     0.067 C 
ATOM     14  O   UNL A   1      31.633  20.760  25.110  1.00  0.00    -0.275 OA
ATOM     15  C   UNL A   1      33.917  21.209  24.507  1.00  0.00     0.118 C 
ATOM     16  C   UNL A   1      33.207  24.513  22.859  1.00  0.00     0.091 C 
ATOM     17  C   UNL A   1      34.028  24.360  25.359  1.00  0.00     0.091 C 
ATOM     18  C   UNL A   1      33.699  25.962  22.841  1.00  0.00     0.265 C 
ATOM     19  C   UNL A   1      34.498  25.774  25.122  1.00  0.00     0.265 C 
ATOM     20  N   UNL A   1      33.720  26.496  24.171  1.00  0.00    -0.331 N 
ATOM     21  H   UNL A   1      32.711  26.629  24.241  1.00  0.00     0.348 HD
BRANCH  20  22
ATOM     22  C   UNL A   1      33.095  27.756  24.538  1.00  0.00     0.299 C 
BRANCH  22  23
ATOM     23  C   UNL A   1      31.696  27.884  23.957  1.00  0.00     0.009 A 
ATOM     24  C   UNL A   1      30.627  27.139  24.467  1.00  0.00     0.011 A 
ATOM     25  C   UNL A   1      31.415  28.788  22.919  1.00  0.00     0.050 A 
ATOM     26  C   UNL A   1      29.318  27.370  24.017  1.00  0.00     0.024 A 
ATOM     27  C   UNL A   1      30.116  29.063  22.521  1.00  0.00     0.142 A 
ATOM     28  C   UNL A   1      29.059  28.366  23.074  1.00  0.00     0.076 A 
ATOM     29  F   UNL A   1      29.923  30.043  21.627  1.00  0.00    -0.205 F 
ATOM     30  Cl  UNL A   1      27.441  28.734  22.632  1.00  0.00    -0.081 Cl
ENDBRANCH  22  23
ENDBRANCH  20  22
ENDBRANCH   7   9
ENDBRANCH   6   7
ENDBRANCH   5   6
ENDBRANCH   4   5
ENDBRANCH   3   4
ENDBRANCH   2   3
ENDBRANCH   1   2
BRANCH   1  31
ATOM     31  O   UNL A   1      42.841  21.763  25.342  1.00  0.00    -0.376 OA
BRANCH  31  32
ATOM     32  C   UNL A   1      43.064  23.042  25.928  1.00  0.00     0.202 C 
BRANCH  32  33
ATOM     33  C   UNL A   1      43.001  24.266  24.993  1.00  0.00     0.261 C 
BRANCH  33  34
ATOM     34  O   UNL A   1      43.829  25.386  25.407  1.00  0.00    -0.460 OA
BRANCH  34  35
ATOM     35  C   UNL A   1      43.106  26.518  25.640  1.00  0.00     0.338 C 
ATOM     36  O   UNL A   1      42.563  27.168  24.756  1.00  0.00    -0.246 OA
BRANCH  35  37
ATOM     37  C   UNL A   1      42.944  26.894  27.081  1.00  0.00     0.060 A 
ATOM     38  C   UNL A   1      42.542  26.016  28.079  1.00  0.00     0.016 A 
ATOM     39  C   UNL A   1      43.041  28.247  27.416  1.00  0.00     0.016 A 
ATOM     40  C   UNL A   1      42.056  26.514  29.311  1.00  0.00     0.010 A 
ATOM     41  C   UNL A   1      42.689  28.713  28.698  1.00  0.00     0.010 A 
ATOM     42  C   UNL A   1      42.118  27.870  29.666  1.00  0.00    -0.014 A 
BRANCH  42  43
ATOM     43  C   UNL A   1      41.612  28.450  30.978  1.00  0.00     0.031 A 
ATOM     44  C   UNL A   1      40.356  29.316  30.992  1.00  0.00     0.074 A 
ATOM     45  C   UNL A   1      42.237  28.282  32.169  1.00  0.00     0.049 A 
ATOM     46  N   UNL A   1      40.025  30.303  31.788  1.00  0.00    -0.248 NA
ATOM     47  C   UNL A   1      39.347  29.039  29.954  1.00  0.00     0.031 C 
ATOM     48  C   UNL A   1      43.349  27.376  32.456  1.00  0.00     0.029 A 
ATOM     49  N   UNL A   1      42.031  28.917  33.384  1.00  0.00    -0.354 N 
ATOM     50  C   UNL A   1      38.834  30.831  31.286  1.00  0.00     0.074 A 
ATOM     51  C   UNL A   1      38.479  30.027  30.136  1.00  0.00     0.031 C 
ATOM     52  C   UNL A   1      43.710  27.493  33.740  1.00  0.00     0.029 A 
ATOM     53  C   UNL A   1      42.990  28.610  34.327  1.00  0.00     0.049 A 
ATOM     54  H   UNL A   1      41.277  29.526  33.555  1.00  0.00     0.167 HD
ATOM     55  C   UNL A   1      38.128  31.902  31.731  1.00  0.00     0.037 A 
ATOM     56  C   UNL A   1      43.361  29.214  35.476  1.00  0.00     0.037 A 
ATOM     57  C   UNL A   1      38.448  32.626  32.938  1.00  0.00     0.049 A 
ATOM     58  C   UNL A   1      42.655  30.467  35.910  1.00  0.00     0.074 A 
ATOM     59  C   UNL A   1      37.815  33.738  33.473  1.00  0.00     0.029 A 
ATOM     60  N   UNL A   1      39.466  32.291  33.816  1.00  0.00    -0.354 N 
ATOM     61  N   UNL A   1      41.651  31.083  35.336  1.00  0.00    -0.248 NA
ATOM     62  C   UNL A   1      43.150  31.126  37.127  1.00  0.00     0.031 C 
ATOM     63  C   UNL A   1      38.487  34.105  34.642  1.00  0.00     0.029 A 
ATOM     64  C   UNL A   1      39.493  33.182  34.876  1.00  0.00     0.049 A 
ATOM     65  H   UNL A   1      40.082  31.531  33.702  1.00  0.00     0.167 HD
ATOM     66  C   UNL A   1      41.371  32.180  36.141  1.00  0.00     0.074 A 
ATOM     67  C   UNL A   1      42.314  32.150  37.239  1.00  0.00     0.031 C 
ATOM     68  C   UNL A   1      40.411  33.123  35.984  1.00  0.00     0.037 A 
BRANCH  55  69
ATOM     69  C   UNL A   1      36.985  32.425  30.889  1.00  0.00     0.058 A 
ATOM     70  C   UNL A   1      35.641  32.114  31.140  1.00  0.00     0.135 A 
ATOM     71  C   UNL A   1      37.254  33.333  29.846  1.00  0.00     0.135 A 
ATOM     72  F   UNL A   1      35.317  31.250  32.114  1.00  0.00    -0.206 F 
ATOM     73  C   UNL A   1      34.609  32.663  30.376  1.00  0.00     0.059 A 
ATOM     74  C   UNL A   1      36.239  33.916  29.091  1.00  0.00     0.059 A 
ATOM     75  F   UNL A   1      38.519  33.678  29.561  1.00  0.00    -0.206 F 
ATOM     76  C   UNL A   1      34.919  33.564  29.354  1.00  0.00     0.060 A 
BRANCH  76  77
ATOM     77  S   UNL A   1      33.573  34.264  28.371  1.00  0.00     0.124 S 
ATOM     78  O   UNL A   1      34.284  35.253  27.567  1.00  0.00    -0.237 OA
ATOM     79  O   UNL A   1      33.076  33.098  27.647  1.00  0.00    -0.237 OA
ATOM     80  O   UNL A   1      32.664  34.811  29.373  1.00  0.00    -0.744 OA
ENDBRANCH  76  77
ENDBRANCH  55  69
BRANCH  56  81
ATOM     81  C   UNL A   1      44.551  28.712  36.228  1.00  0.00     0.058 A 
ATOM     82  C   UNL A   1      44.440  27.685  37.175  1.00  0.00     0.135 A 
ATOM     83  C   UNL A   1      45.833  29.244  35.997  1.00  0.00     0.135 A 
ATOM     84  F   UNL A   1      43.239  27.157  37.456  1.00  0.00    -0.206 F 
ATOM     85  C   UNL A   1      45.552  27.205  37.866  1.00  0.00     0.059 A 
ATOM     86  C   UNL A   1      46.963  28.754  36.643  1.00  0.00     0.059 A 
ATOM     87  F   UNL A   1      46.003  30.228  35.099  1.00  0.00    -0.206 F 
ATOM     88  C   UNL A   1      46.810  27.740  37.585  1.00  0.00     0.060 A 
BRANCH  88  89
ATOM     89  S   UNL A   1      48.253  27.078  38.448  1.00  0.00     0.124 S 
ATOM     90  O   UNL A   1      49.259  27.096  37.392  1.00  0.00    -0.237 OA
ATOM     91  O   UNL A   1      48.438  28.045  39.524  1.00  0.00    -0.237 OA
ATOM     92  O   UNL A   1      47.811  25.754  38.874  1.00  0.00    -0.744 OA
ENDBRANCH  88  89
ENDBRANCH  56  81
BRANCH  68  93
ATOM     93  C   UNL A   1      40.258  34.156  37.063  1.00  0.00     0.058 A 
ATOM     94  C   UNL A   1      40.952  35.374  37.033  1.00  0.00     0.135 A 
ATOM     95  C   UNL A   1      39.324  33.956  38.093  1.00  0.00     0.135 A 
ATOM     96  F   UNL A   1      41.868  35.609  36.079  1.00  0.00    -0.206 F 
ATOM     97  C   UNL A   1      40.720  36.363  37.984  1.00  0.00     0.059 A 
ATOM     98  C   UNL A   1      39.056  34.939  39.037  1.00  0.00     0.059 A 
ATOM     99  F   UNL A   1      38.634  32.806  38.164  1.00  0.00    -0.206 F 
ATOM    100  C   UNL A   1      39.759  36.141  38.974  1.00  0.00     0.060 A 
BRANCH 100 101
ATOM    101  S   UNL A   1      39.400  37.469  40.144  1.00  0.00     0.124 S 
ATOM    102  O   UNL A   1      39.086  36.719  41.355  1.00  0.00    -0.237 OA
ATOM    103  O   UNL A   1      40.657  38.210  40.165  1.00  0.00    -0.237 OA
ATOM    104  O   UNL A   1      38.276  38.169  39.530  1.00  0.00    -0.744 OA
ENDBRANCH 100 101
ENDBRANCH  68  93
ENDBRANCH  42  43
ENDBRANCH  35  37
ENDBRANCH  34  35
ENDBRANCH  33  34
ENDBRANCH  32  33
ENDBRANCH  31  32
ENDBRANCH   1  31
TORSDOF 22
ENDMDL
MODEL 3
REMARK VINA RESULT:     -11.3      6.448     11.894
REMARK SMILES CN1C(=O)C[C@H](C(=O)OCCOCCOCCOC(=O)c2ccc(-c3c4nc(c(-c5c(F)cc(S(=O)(=O)[O-])cc5F)c5ccc([nH]5)c(-c5c(F)cc(S(=O)(=O)[O-])cc5F)c5nc(c(-c6c(F)cc(S(=O)(=O)[O-])cc6F)c6ccc3[nH]6)C=C5)C=C4)cc2)C12CC[NH+](Cc1ccc(Cl)c(F)c1)CC2
REMARK SMILES IDX 14 1 13 2 12 3 11 4 10 5 9 6 7 7 8 8 6 9 1 10 2 11 3 12
REMARK SMILES IDX 87 13 4 14 5 15 88 16 101 17 89 18 100 19 90 20 91 22 92 23
REMARK SMILES IDX 93 24 99 25 94 26 97 27 95 28 98 29 96 30 15 31 16 32 17 33
REMARK SMILES IDX 18 34 19 35 20 36 21 37 22 38 86 39 23 40 85 41 24 42 25 43
REMARK SMILES IDX 26 44 79 45 27 46 84 47 78 48 80 49 28 50 83 51 77 52 76 53
REMARK SMILES IDX 29 55 63 56 42 57 62 58 43 59 46 60 61 61 81 62 44 63 45 64
REMARK SMILES IDX 60 66 82 67 47 68 30 69 31 70 40 71 32 72 33 73 39 74 41 75
REMARK SMILES IDX 34 76 35 77 36 78 37 79 38 80 64 81 65 82 74 83 66 84 67 85
REMARK SMILES IDX 73 86 75 87 68 88 69 89 70 90 71 91 72 92 48 93 49 94 58 95
REMARK SMILES IDX 50 96 51 97 57 98 59 99 52 100 53 101 54 102 55 103 56 104
REMARK H PARENT 90 21 80 54 46 65
REMARK Flexibility Score: inf
ROOT
ATOM      1  C   UNL A   1      39.270  23.097  26.589  1.00  0.00     0.188 C 
ENDROOT
BRANCH   1   2
ATOM      2  C   UNL A   1      38.075  24.072  26.492  1.00  0.00     0.188 C 
BRANCH   2   3
ATOM      3  O   UNL A   1      36.824  23.619  26.010  1.00  0.00    -0.376 OA
BRANCH   3   4
ATOM      4  C   UNL A   1      36.767  23.118  24.693  1.00  0.00     0.202 C 
BRANCH   4   5
ATOM      5  C   UNL A   1      35.853  21.912  24.431  1.00  0.00     0.261 C 
BRANCH   5   6
ATOM      6  O   UNL A   1      34.440  22.164  24.212  1.00  0.00    -0.463 OA
BRANCH   6   7
ATOM      7  C   UNL A   1      33.637  22.040  25.310  1.00  0.00     0.311 C 
ATOM      8  O   UNL A   1      33.941  21.365  26.285  1.00  0.00    -0.252 OA
BRANCH   7   9
ATOM      9  C   UNL A   1      32.269  22.708  25.131  1.00  0.00     0.134 C 
ATOM     10  C   UNL A   1      30.272  25.876  25.718  1.00  0.00     0.147 C 
ATOM     11  N   UNL A   1      30.869  24.550  25.621  1.00  0.00    -0.339 N 
ATOM     12  C   UNL A   1      30.528  23.585  26.549  1.00  0.00     0.223 C 
ATOM     13  C   UNL A   1      32.117  24.254  24.855  1.00  0.00     0.067 C 
ATOM     14  O   UNL A   1      29.611  23.631  27.345  1.00  0.00    -0.275 OA
ATOM     15  C   UNL A   1      31.543  22.495  26.475  1.00  0.00     0.118 C 
ATOM     16  C   UNL A   1      31.795  24.566  23.347  1.00  0.00     0.091 C 
ATOM     17  C   UNL A   1      33.234  25.108  25.487  1.00  0.00     0.091 C 
ATOM     18  C   UNL A   1      32.815  25.357  22.525  1.00  0.00     0.265 C 
ATOM     19  C   UNL A   1      34.150  25.791  24.502  1.00  0.00     0.265 C 
ATOM     20  N   UNL A   1      33.485  26.315  23.354  1.00  0.00    -0.331 N 
ATOM     21  H   UNL A   1      32.708  26.973  23.395  1.00  0.00     0.348 HD
BRANCH  20  22
ATOM     22  C   UNL A   1      33.602  27.723  23.017  1.00  0.00     0.299 C 
BRANCH  22  23
ATOM     23  C   UNL A   1      32.316  28.482  23.303  1.00  0.00     0.009 A 
ATOM     24  C   UNL A   1      32.068  29.043  24.560  1.00  0.00     0.011 A 
ATOM     25  C   UNL A   1      31.351  28.687  22.303  1.00  0.00     0.050 A 
ATOM     26  C   UNL A   1      30.945  29.859  24.768  1.00  0.00     0.024 A 
ATOM     27  C   UNL A   1      30.277  29.544  22.487  1.00  0.00     0.142 A 
ATOM     28  C   UNL A   1      30.073  30.144  23.715  1.00  0.00     0.076 A 
ATOM     29  F   UNL A   1      29.483  29.799  21.438  1.00  0.00    -0.205 F 
ATOM     30  Cl  UNL A   1      28.780  31.251  23.944  1.00  0.00    -0.081 Cl
ENDBRANCH  22  23
ENDBRANCH  20  22
ENDBRANCH   7   9
ENDBRANCH   6   7
ENDBRANCH   5   6
ENDBRANCH   4   5
ENDBRANCH   3   4
ENDBRANCH   2   3
ENDBRANCH   1   2
BRANCH   1  31
ATOM     31  O   UNL A   1      40.529  23.627  26.945  1.00  0.00    -0.376 OA
BRANCH  31  32
ATOM     32  C   UNL A   1      41.188  24.365  25.921  1.00  0.00     0.202 C 
BRANCH  32  33
ATOM     33  C   UNL A   1      41.162  25.902  26.032  1.00  0.00     0.261 C 
BRANCH  33  34
ATOM     34  O   UNL A   1      42.168  26.583  25.236  1.00  0.00    -0.460 OA
BRANCH  34  35
ATOM     35  C   UNL A   1      43.331  26.787  25.919  1.00  0.00     0.338 C 
ATOM     36  O   UNL A   1      44.440  26.703  25.406  1.00  0.00    -0.246 OA
BRANCH  35  37
ATOM     37  C   UNL A   1      43.174  27.205  27.348  1.00  0.00     0.060 A 
ATOM     38  C   UNL A   1      42.916  26.331  28.396  1.00  0.00     0.016 A 
ATOM     39  C   UNL A   1      43.119  28.573  27.625  1.00  0.00     0.016 A 
ATOM     40  C   UNL A   1      42.416  26.822  29.626  1.00  0.00     0.010 A 
ATOM     41  C   UNL A   1      42.757  29.051  28.901  1.00  0.00     0.010 A 
ATOM     42  C   UNL A   1      42.326  28.190  29.924  1.00  0.00    -0.014 A 
BRANCH  42  43
ATOM     43  C   UNL A   1      41.799  28.764  31.229  1.00  0.00     0.031 A 
ATOM     44  C   UNL A   1      40.542  29.628  31.228  1.00  0.00     0.074 A 
ATOM     45  C   UNL A   1      42.405  28.590  32.430  1.00  0.00     0.049 A 
ATOM     46  N   UNL A   1      40.198  30.611  32.024  1.00  0.00    -0.248 NA
ATOM     47  C   UNL A   1      39.549  29.355  30.173  1.00  0.00     0.031 C 
ATOM     48  C   UNL A   1      43.513  27.684  32.730  1.00  0.00     0.029 A 
ATOM     49  N   UNL A   1      42.179  29.220  33.644  1.00  0.00    -0.354 N 
ATOM     50  C   UNL A   1      39.014  31.141  31.505  1.00  0.00     0.074 A 
ATOM     51  C   UNL A   1      38.678  30.342  30.346  1.00  0.00     0.031 C 
ATOM     52  C   UNL A   1      43.854  27.796  34.020  1.00  0.00     0.029 A 
ATOM     53  C   UNL A   1      43.124  28.909  34.601  1.00  0.00     0.049 A 
ATOM     54  H   UNL A   1      41.422  29.827  33.806  1.00  0.00     0.167 HD
ATOM     55  C   UNL A   1      38.300  32.209  31.944  1.00  0.00     0.037 A 
ATOM     56  C   UNL A   1      43.476  29.508  35.758  1.00  0.00     0.037 A 
ATOM     57  C   UNL A   1      38.600  32.928  33.159  1.00  0.00     0.049 A 
ATOM     58  C   UNL A   1      42.763  30.758  36.187  1.00  0.00     0.074 A 
ATOM     59  C   UNL A   1      37.958  34.037  33.689  1.00  0.00     0.029 A 
ATOM     60  N   UNL A   1      39.606  32.589  34.051  1.00  0.00    -0.354 N 
ATOM     61  N   UNL A   1      41.767  31.376  35.600  1.00  0.00    -0.248 NA
ATOM     62  C   UNL A   1      43.237  31.412  37.415  1.00  0.00     0.031 C 
ATOM     63  C   UNL A   1      38.612  34.399  34.871  1.00  0.00     0.029 A 
ATOM     64  C   UNL A   1      39.615  33.476  35.115  1.00  0.00     0.049 A 
ATOM     65  H   UNL A   1      40.223  31.830  33.943  1.00  0.00     0.167 HD
ATOM     66  C   UNL A   1      41.473  32.469  36.406  1.00  0.00     0.074 A 
ATOM     67  C   UNL A   1      42.399  32.434  37.518  1.00  0.00     0.031 C 
ATOM     68  C   UNL A   1      40.516  33.412  36.238  1.00  0.00     0.037 A 
BRANCH  55  69
ATOM     69  C   UNL A   1      37.170  32.736  31.086  1.00  0.00     0.058 A 
ATOM     70  C   UNL A   1      37.369  33.595  29.996  1.00  0.00     0.135 A 
ATOM     71  C   UNL A   1      35.855  32.292  31.327  1.00  0.00     0.135 A 
ATOM     72  F   UNL A   1      38.596  34.060  29.716  1.00  0.00    -0.206 F 
ATOM     73  C   UNL A   1      36.307  34.013  29.193  1.00  0.00     0.059 A 
ATOM     74  C   UNL A   1      34.785  32.672  30.521  1.00  0.00     0.059 A 
ATOM     75  F   UNL A   1      35.600  31.462  32.351  1.00  0.00    -0.206 F 
ATOM     76  C   UNL A   1      35.018  33.546  29.463  1.00  0.00     0.060 A 
BRANCH  76  77
ATOM     77  S   UNL A   1      33.653  34.099  28.417  1.00  0.00     0.124 S 
ATOM     78  O   UNL A   1      33.241  32.846  27.789  1.00  0.00    -0.237 OA
ATOM     79  O   UNL A   1      32.718  34.655  29.390  1.00  0.00    -0.237 OA
ATOM     80  O   UNL A   1      34.276  35.069  27.523  1.00  0.00    -0.744 OA
ENDBRANCH  76  77
ENDBRANCH  55  69
BRANCH  56  81
ATOM     81  C   UNL A   1      44.655  29.003  36.526  1.00  0.00     0.058 A 
ATOM     82  C   UNL A   1      45.914  29.608  36.419  1.00  0.00     0.135 A 
ATOM     83  C   UNL A   1      44.535  27.907  37.401  1.00  0.00     0.135 A 
ATOM     84  F   UNL A   1      46.094  30.641  35.581  1.00  0.00    -0.206 F 
ATOM     85  C   UNL A   1      47.010  29.148  37.147  1.00  0.00     0.059 A 
ATOM     86  C   UNL A   1      45.603  27.456  38.168  1.00  0.00     0.059 A 
ATOM     87  F   UNL A   1      43.352  27.287  37.548  1.00  0.00    -0.206 F 
ATOM     88  C   UNL A   1      46.841  28.076  38.026  1.00  0.00     0.060 A 
BRANCH  88  89
ATOM     89  S   UNL A   1      48.254  27.518  39.004  1.00  0.00     0.124 S 
ATOM     90  O   UNL A   1      47.630  27.253  40.295  1.00  0.00    -0.237 OA
ATOM     91  O   UNL A   1      48.700  26.347  38.257  1.00  0.00    -0.237 OA
ATOM     92  O   UNL A   1      49.162  28.660  38.965  1.00  0.00    -0.744 OA
ENDBRANCH  88  89
ENDBRANCH  56  81
BRANCH  68  93
ATOM     93  C   UNL A   1      40.344  34.440  37.319  1.00  0.00     0.058 A 
ATOM     94  C   UNL A   1      41.101  35.620  37.352  1.00  0.00     0.135 A 
ATOM     95  C   UNL A   1      39.335  34.278  38.282  1.00  0.00     0.135 A 
ATOM     96  F   UNL A   1      42.089  35.817  36.464  1.00  0.00    -0.206 F 
ATOM     97  C   UNL A   1      40.857  36.609  38.300  1.00  0.00     0.059 A 
ATOM     98  C   UNL A   1      39.056  35.264  39.221  1.00  0.00     0.059 A 
ATOM     99  F   UNL A   1      38.583  33.165  38.292  1.00  0.00    -0.206 F 
ATOM    100  C   UNL A   1      39.822  36.428  39.222  1.00  0.00     0.060 A 
BRANCH 100 101
ATOM    101  S   UNL A   1      39.455  37.759  40.384  1.00  0.00     0.124 S 
ATOM    102  O   UNL A   1      38.175  38.245  39.882  1.00  0.00    -0.237 OA
ATOM    103  O   UNL A   1      39.408  37.052  41.660  1.00  0.00    -0.237 OA
ATOM    104  O   UNL A   1      40.581  38.673  40.221  1.00  0.00    -0.744 OA
ENDBRANCH 100 101
ENDBRANCH  68  93
ENDBRANCH  42  43
ENDBRANCH  35  37
ENDBRANCH  34  35
ENDBRANCH  33  34
ENDBRANCH  32  33
ENDBRANCH  31  32
ENDBRANCH   1  31
TORSDOF 22
ENDMDL
