MODEL 1
REMARK VINA RESULT:      -7.0      0.000      0.000
REMARK SMILES COc1ccc(C(=O)/C=C(\Nc2cccc(C(F)(F)F)c2)C(=O)OCCOCCOCCOC(=O)c2ccc(-c3c4nc(c(-c5c(F)cc(S(=O)(=O)[O-])cc5F)c5ccc([nH]5)c(-c5c(F)cc(S(=O)(=O)[O-])cc5F)c5nc(c(-c6c(F)cc(S(=O)(=O)[O-])cc6F)c6ccc3[nH]6)C=C5)C=C4)cc2)cc1
REMARK SMILES IDX 28 1 27 2 26 3 25 4 24 5 22 6 23 7 10 8 9 9 7 10 8 11 6 12
REMARK SMILES IDX 3 13 4 14 103 15 5 16 102 17 2 18 1 19 11 20 12 22 13 23
REMARK SMILES IDX 21 24 14 25 16 26 15 27 17 28 18 29 19 30 20 31 29 32 30 33
REMARK SMILES IDX 31 34 32 35 33 36 34 37 35 38 36 39 37 40 101 41 38 42
REMARK SMILES IDX 100 43 39 44 40 45 41 46 94 47 42 48 99 49 93 50 95 51 43 52
REMARK SMILES IDX 98 53 92 54 91 55 44 57 78 58 57 59 77 60 58 61 61 62 76 63
REMARK SMILES IDX 96 64 59 65 60 66 75 68 97 69 62 70 45 71 46 72 55 73 47 74
REMARK SMILES IDX 48 75 54 76 56 77 49 78 50 79 51 80 52 81 53 82 79 83 80 84
REMARK SMILES IDX 89 85 81 86 82 87 88 88 90 89 83 90 84 91 85 92 86 93 87 94
REMARK SMILES IDX 63 95 64 96 73 97 65 98 66 99 72 100 74 101 67 102 68 103
REMARK SMILES IDX 69 104 70 105 71 106
REMARK H PARENT 11 21 95 56 61 67
REMARK Flexibility Score: inf
ROOT
ATOM      1  C   UNL A   1      38.437  30.752  35.929  1.00  0.00     0.188 C 
ENDROOT
BRANCH   1   2
ATOM      2  O   UNL A   1      39.836  30.529  35.866  1.00  0.00    -0.376 OA
BRANCH   2   3
ATOM      3  C   UNL A   1      40.358  29.791  34.766  1.00  0.00     0.202 C 
BRANCH   3   4
ATOM      4  C   UNL A   1      41.517  28.841  35.050  1.00  0.00     0.261 C 
BRANCH   4   5
ATOM      5  O   UNL A   1      42.756  29.457  34.663  1.00  0.00    -0.459 OA
BRANCH   5   6
ATOM      6  C   UNL A   1      43.861  29.042  35.326  1.00  0.00     0.354 C 
ATOM      7  O   UNL A   1      44.097  29.219  36.512  1.00  0.00    -0.244 OA
BRANCH   6   8
ATOM      8  C   UNL A   1      44.744  28.231  34.413  1.00  0.00     0.129 C 
ATOM      9  C   UNL A   1      44.427  28.469  33.121  1.00  0.00     0.086 C 
BRANCH   9  10
ATOM     10  C   UNL A   1      44.997  27.984  31.828  1.00  0.00     0.188 C 
ATOM     11  O   UNL A   1      44.283  27.381  31.035  1.00  0.00    -0.289 OA
BRANCH  10  12
ATOM     12  C   UNL A   1      46.417  28.166  31.500  1.00  0.00     0.022 A 
ATOM     13  C   UNL A   1      49.163  28.351  31.204  1.00  0.00     0.118 A 
ATOM     14  C   UNL A   1      48.518  27.163  30.863  1.00  0.00     0.047 A 
ATOM     15  C   UNL A   1      48.432  29.485  31.555  1.00  0.00     0.047 A 
ATOM     16  C   UNL A   1      47.135  27.067  31.020  1.00  0.00     0.016 A 
ATOM     17  C   UNL A   1      47.046  29.401  31.682  1.00  0.00     0.016 A 
BRANCH  13  18
ATOM     18  O   UNL A   1      50.531  28.391  31.156  1.00  0.00    -0.497 OA
ATOM     19  C   UNL A   1      51.052  28.722  32.448  1.00  0.00     0.278 C 
ENDBRANCH  13  18
ENDBRANCH  10  12
ENDBRANCH   9  10
BRANCH   8  20
ATOM     20  N   UNL A   1      45.725  27.397  34.927  1.00  0.00    -0.349 N 
ATOM     21  H   UNL A   1      46.450  27.845  35.420  1.00  0.00     0.167 HD
BRANCH  20  22
ATOM     22  C   UNL A   1      45.823  25.997  34.838  1.00  0.00     0.039 A 
ATOM     23  C   UNL A   1      47.018  25.379  35.235  1.00  0.00     0.026 A 
ATOM     24  C   UNL A   1      44.764  25.185  34.429  1.00  0.00     0.039 A 
ATOM     25  C   UNL A   1      47.161  23.992  35.221  1.00  0.00     0.003 A 
ATOM     26  C   UNL A   1      44.881  23.783  34.430  1.00  0.00     0.058 A 
ATOM     27  C   UNL A   1      46.095  23.195  34.815  1.00  0.00     0.013 A 
BRANCH  26  28
ATOM     28  C   UNL A   1      43.725  22.916  34.008  1.00  0.00     0.416 C 
ATOM     29  F   UNL A   1      42.541  23.345  34.524  1.00  0.00    -0.166 F 
ATOM     30  F   UNL A   1      43.551  22.889  32.655  1.00  0.00    -0.166 F 
ATOM     31  F   UNL A   1      43.853  21.614  34.387  1.00  0.00    -0.166 F 
ENDBRANCH  26  28
ENDBRANCH  20  22
ENDBRANCH   8  20
ENDBRANCH   6   8
ENDBRANCH   5   6
ENDBRANCH   4   5
ENDBRANCH   3   4
ENDBRANCH   2   3
ENDBRANCH   1   2
BRANCH   1  32
ATOM     32  C   UNL A   1      37.789  31.802  35.000  1.00  0.00     0.188 C 
BRANCH  32  33
ATOM     33  O   UNL A   1      37.116  31.434  33.810  1.00  0.00    -0.376 OA
BRANCH  33  34
ATOM     34  C   UNL A   1      36.070  32.243  33.295  1.00  0.00     0.202 C 
BRANCH  34  35
ATOM     35  C   UNL A   1      36.345  33.288  32.211  1.00  0.00     0.261 C 
BRANCH  35  36
ATOM     36  O   UNL A   1      37.322  32.898  31.241  1.00  0.00    -0.460 OA
BRANCH  36  37
ATOM     37  C   UNL A   1      36.965  31.845  30.462  1.00  0.00     0.338 C 
ATOM     38  O   UNL A   1      35.865  31.617  29.991  1.00  0.00    -0.246 OA
BRANCH  37  39
ATOM     39  C   UNL A   1      38.172  31.083  30.101  1.00  0.00     0.060 A 
ATOM     40  C   UNL A   1      39.103  30.804  31.110  1.00  0.00     0.016 A 
ATOM     41  C   UNL A   1      38.400  30.672  28.785  1.00  0.00     0.016 A 
ATOM     42  C   UNL A   1      40.284  30.131  30.800  1.00  0.00     0.010 A 
ATOM     43  C   UNL A   1      39.593  30.018  28.474  1.00  0.00     0.010 A 
ATOM     44  C   UNL A   1      40.550  29.769  29.473  1.00  0.00    -0.014 A 
BRANCH  44  45
ATOM     45  C   UNL A   1      41.898  29.283  29.100  1.00  0.00     0.031 A 
ATOM     46  C   UNL A   1      43.043  30.256  29.116  1.00  0.00     0.074 A 
ATOM     47  C   UNL A   1      42.100  28.001  28.753  1.00  0.00     0.049 A 
ATOM     48  N   UNL A   1      44.296  30.071  28.791  1.00  0.00    -0.248 NA
ATOM     49  C   UNL A   1      42.729  31.626  29.558  1.00  0.00     0.031 C 
ATOM     50  C   UNL A   1      41.077  26.958  28.734  1.00  0.00     0.029 A 
ATOM     51  N   UNL A   1      43.242  27.362  28.340  1.00  0.00    -0.354 N 
ATOM     52  C   UNL A   1      44.920  31.297  28.984  1.00  0.00     0.074 A 
ATOM     53  C   UNL A   1      43.904  32.226  29.427  1.00  0.00     0.031 C 
ATOM     54  C   UNL A   1      41.636  25.808  28.319  1.00  0.00     0.029 A 
ATOM     55  C   UNL A   1      43.048  26.041  28.017  1.00  0.00     0.049 A 
ATOM     56  H   UNL A   1      44.118  27.808  28.280  1.00  0.00     0.167 HD
ATOM     57  C   UNL A   1      46.224  31.617  28.815  1.00  0.00     0.037 A 
ATOM     58  C   UNL A   1      43.908  25.132  27.516  1.00  0.00     0.037 A 
ATOM     59  C   UNL A   1      47.229  30.692  28.362  1.00  0.00     0.049 A 
ATOM     60  C   UNL A   1      45.340  25.530  27.262  1.00  0.00     0.074 A 
ATOM     61  C   UNL A   1      48.583  30.913  28.177  1.00  0.00     0.029 A 
ATOM     62  N   UNL A   1      46.987  29.372  28.008  1.00  0.00    -0.354 N 
ATOM     63  N   UNL A   1      45.927  26.684  27.477  1.00  0.00    -0.248 NA
ATOM     64  C   UNL A   1      46.225  24.503  26.696  1.00  0.00     0.031 C 
ATOM     65  C   UNL A   1      49.150  29.741  27.664  1.00  0.00     0.029 A 
ATOM     66  C   UNL A   1      48.159  28.775  27.576  1.00  0.00     0.049 A 
ATOM     67  H   UNL A   1      46.111  28.927  28.056  1.00  0.00     0.167 HD
ATOM     68  C   UNL A   1      47.255  26.514  27.096  1.00  0.00     0.074 A 
ATOM     69  C   UNL A   1      47.386  25.144  26.643  1.00  0.00     0.031 C 
ATOM     70  C   UNL A   1      48.274  27.409  27.124  1.00  0.00     0.037 A 
BRANCH  57  71
ATOM     71  C   UNL A   1      46.622  33.040  29.090  1.00  0.00     0.058 A 
ATOM     72  C   UNL A   1      46.617  34.018  28.082  1.00  0.00     0.135 A 
ATOM     73  C   UNL A   1      47.023  33.428  30.378  1.00  0.00     0.135 A 
ATOM     74  F   UNL A   1      46.260  33.695  26.830  1.00  0.00    -0.206 F 
ATOM     75  C   UNL A   1      47.033  35.320  28.332  1.00  0.00     0.059 A 
ATOM     76  C   UNL A   1      47.420  34.733  30.657  1.00  0.00     0.059 A 
ATOM     77  F   UNL A   1      47.049  32.533  31.378  1.00  0.00    -0.206 F 
ATOM     78  C   UNL A   1      47.441  35.667  29.622  1.00  0.00     0.060 A 
BRANCH  78  79
ATOM     79  S   UNL A   1      48.007  37.353  29.927  1.00  0.00     0.124 S 
ATOM     80  O   UNL A   1      47.144  37.755  31.033  1.00  0.00    -0.237 OA
ATOM     81  O   UNL A   1      49.415  37.157  30.261  1.00  0.00    -0.237 OA
ATOM     82  O   UNL A   1      47.756  38.030  28.657  1.00  0.00    -0.744 OA
ENDBRANCH  78  79
ENDBRANCH  57  71
BRANCH  58  83
ATOM     83  C   UNL A   1      43.437  23.754  27.222  1.00  0.00     0.058 A 
ATOM     84  C   UNL A   1      43.300  22.803  28.244  1.00  0.00     0.135 A 
ATOM     85  C   UNL A   1      43.096  23.366  25.917  1.00  0.00     0.135 A 
ATOM     86  F   UNL A   1      43.628  23.123  29.505  1.00  0.00    -0.206 F 
ATOM     87  C   UNL A   1      42.845  21.515  27.983  1.00  0.00     0.059 A 
ATOM     88  C   UNL A   1      42.618  22.090  25.635  1.00  0.00     0.059 A 
ATOM     89  F   UNL A   1      43.205  24.241  24.905  1.00  0.00    -0.206 F 
ATOM     90  C   UNL A   1      42.501  21.169  26.675  1.00  0.00     0.060 A 
BRANCH  90  91
ATOM     91  S   UNL A   1      41.851  19.514  26.359  1.00  0.00     0.124 S 
ATOM     92  O   UNL A   1      42.297  18.791  27.544  1.00  0.00    -0.237 OA
ATOM     93  O   UNL A   1      40.414  19.761  26.266  1.00  0.00    -0.237 OA
ATOM     94  O   UNL A   1      42.495  19.133  25.106  1.00  0.00    -0.744 OA
ENDBRANCH  90  91
ENDBRANCH  58  83
BRANCH  70  95
ATOM     95  C   UNL A   1      49.629  26.934  26.676  1.00  0.00     0.058 A 
ATOM     96  C   UNL A   1      50.520  26.305  27.558  1.00  0.00     0.135 A 
ATOM     97  C   UNL A   1      50.017  27.056  25.330  1.00  0.00     0.135 A 
ATOM     98  F   UNL A   1      50.201  26.167  28.855  1.00  0.00    -0.206 F 
ATOM     99  C   UNL A   1      51.756  25.830  27.128  1.00  0.00     0.059 A 
ATOM    100  C   UNL A   1      51.237  26.567  24.874  1.00  0.00     0.059 A 
ATOM    101  F   UNL A   1      49.198  27.640  24.442  1.00  0.00    -0.206 F 
ATOM    102  C   UNL A   1      52.104  25.964  25.783  1.00  0.00     0.060 A 
BRANCH 102 103
ATOM    103  S   UNL A   1      53.694  25.310  25.229  1.00  0.00     0.124 S 
ATOM    104  O   UNL A   1      54.223  26.433  24.462  1.00  0.00    -0.237 OA
ATOM    105  O   UNL A   1      54.373  25.027  26.489  1.00  0.00    -0.237 OA
ATOM    106  O   UNL A   1      53.323  24.135  24.447  1.00  0.00    -0.744 OA
ENDBRANCH 102 103
ENDBRANCH  70  95
ENDBRANCH  44  45
ENDBRANCH  37  39
ENDBRANCH  36  37
ENDBRANCH  35  36
ENDBRANCH  34  35
ENDBRANCH  33  34
ENDBRANCH  32  33
ENDBRANCH   1  32
TORSDOF 26
ENDMDL
MODEL 2
REMARK VINA RESULT:      -6.9      8.298     15.089
REMARK SMILES COc1ccc(C(=O)/C=C(\Nc2cccc(C(F)(F)F)c2)C(=O)OCCOCCOCCOC(=O)c2ccc(-c3c4nc(c(-c5c(F)cc(S(=O)(=O)[O-])cc5F)c5ccc([nH]5)c(-c5c(F)cc(S(=O)(=O)[O-])cc5F)c5nc(c(-c6c(F)cc(S(=O)(=O)[O-])cc6F)c6ccc3[nH]6)C=C5)C=C4)cc2)cc1
REMARK SMILES IDX 28 1 27 2 26 3 25 4 24 5 22 6 23 7 10 8 9 9 7 10 8 11 6 12
REMARK SMILES IDX 3 13 4 14 103 15 5 16 102 17 2 18 1 19 11 20 12 22 13 23
REMARK SMILES IDX 21 24 14 25 16 26 15 27 17 28 18 29 19 30 20 31 29 32 30 33
REMARK SMILES IDX 31 34 32 35 33 36 34 37 35 38 36 39 37 40 101 41 38 42
REMARK SMILES IDX 100 43 39 44 40 45 41 46 94 47 42 48 99 49 93 50 95 51 43 52
REMARK SMILES IDX 98 53 92 54 91 55 44 57 78 58 57 59 77 60 58 61 61 62 76 63
REMARK SMILES IDX 96 64 59 65 60 66 75 68 97 69 62 70 45 71 46 72 55 73 47 74
REMARK SMILES IDX 48 75 54 76 56 77 49 78 50 79 51 80 52 81 53 82 79 83 80 84
REMARK SMILES IDX 89 85 81 86 82 87 88 88 90 89 83 90 84 91 85 92 86 93 87 94
REMARK SMILES IDX 63 95 64 96 73 97 65 98 66 99 72 100 74 101 67 102 68 103
REMARK SMILES IDX 69 104 70 105 71 106
REMARK H PARENT 11 21 95 56 61 67
REMARK Flexibility Score: inf
ROOT
ATOM      1  C   UNL A   1      43.287  41.493  25.285  1.00  0.00     0.188 C 
ENDROOT
BRANCH   1   2
ATOM      2  O   UNL A   1      43.207  42.148  24.030  1.00  0.00    -0.376 OA
BRANCH   2   3
ATOM      3  C   UNL A   1      43.499  43.540  23.968  1.00  0.00     0.202 C 
BRANCH   3   4
ATOM      4  C   UNL A   1      43.878  44.114  22.608  1.00  0.00     0.261 C 
BRANCH   4   5
ATOM      5  O   UNL A   1      45.246  43.794  22.309  1.00  0.00    -0.459 OA
BRANCH   5   6
ATOM      6  C   UNL A   1      45.446  42.858  21.351  1.00  0.00     0.354 C 
ATOM      7  O   UNL A   1      45.431  41.647  21.516  1.00  0.00    -0.244 OA
BRANCH   6   8
ATOM      8  C   UNL A   1      45.601  43.514  20.004  1.00  0.00     0.129 C 
ATOM      9  C   UNL A   1      46.678  44.331  20.001  1.00  0.00     0.086 C 
BRANCH   9  10
ATOM     10  C   UNL A   1      47.312  45.173  18.943  1.00  0.00     0.188 C 
ATOM     11  O   UNL A   1      48.319  44.774  18.369  1.00  0.00    -0.289 OA
BRANCH  10  12
ATOM     12  C   UNL A   1      46.788  46.502  18.603  1.00  0.00     0.022 A 
ATOM     13  C   UNL A   1      45.468  48.867  18.028  1.00  0.00     0.118 A 
ATOM     14  C   UNL A   1      45.763  48.554  19.354  1.00  0.00     0.047 A 
ATOM     15  C   UNL A   1      45.950  48.078  16.984  1.00  0.00     0.047 A 
ATOM     16  C   UNL A   1      46.421  47.359  19.645  1.00  0.00     0.016 A 
ATOM     17  C   UNL A   1      46.636  46.898  17.271  1.00  0.00     0.016 A 
BRANCH  13  18
ATOM     18  O   UNL A   1      44.720  49.984  17.768  1.00  0.00    -0.497 OA
ATOM     19  C   UNL A   1      43.599  50.035  18.657  1.00  0.00     0.278 C 
ENDBRANCH  13  18
ENDBRANCH  10  12
ENDBRANCH   9  10
BRANCH   8  20
ATOM     20  N   UNL A   1      44.716  43.240  18.973  1.00  0.00    -0.349 N 
ATOM     21  H   UNL A   1      45.002  42.542  18.340  1.00  0.00     0.167 HD
BRANCH  20  22
ATOM     22  C   UNL A   1      43.465  43.825  18.709  1.00  0.00     0.039 A 
ATOM     23  C   UNL A   1      42.335  43.331  19.378  1.00  0.00     0.026 A 
ATOM     24  C   UNL A   1      43.302  44.919  17.857  1.00  0.00     0.039 A 
ATOM     25  C   UNL A   1      41.075  43.902  19.200  1.00  0.00     0.003 A 
ATOM     26  C   UNL A   1      42.044  45.524  17.683  1.00  0.00     0.058 A 
ATOM     27  C   UNL A   1      40.929  44.995  18.351  1.00  0.00     0.013 A 
BRANCH  26  28
ATOM     28  C   UNL A   1      41.883  46.716  16.779  1.00  0.00     0.416 C 
ATOM     29  F   UNL A   1      41.188  47.726  17.373  1.00  0.00    -0.166 F 
ATOM     30  F   UNL A   1      43.077  47.260  16.405  1.00  0.00    -0.166 F 
ATOM     31  F   UNL A   1      41.227  46.437  15.619  1.00  0.00    -0.166 F 
ENDBRANCH  26  28
ENDBRANCH  20  22
ENDBRANCH   8  20
ENDBRANCH   6   8
ENDBRANCH   5   6
ENDBRANCH   4   5
ENDBRANCH   3   4
ENDBRANCH   2   3
ENDBRANCH   1   2
BRANCH   1  32
ATOM     32  C   UNL A   1      44.269  42.016  26.358  1.00  0.00     0.188 C 
BRANCH  32  33
ATOM     33  O   UNL A   1      45.004  41.138  27.190  1.00  0.00    -0.376 OA
BRANCH  33  34
ATOM     34  C   UNL A   1      45.292  39.815  26.762  1.00  0.00     0.202 C 
BRANCH  34  35
ATOM     35  C   UNL A   1      45.502  38.689  27.777  1.00  0.00     0.261 C 
BRANCH  35  36
ATOM     36  O   UNL A   1      44.297  38.163  28.342  1.00  0.00    -0.460 OA
BRANCH  36  37
ATOM     37  C   UNL A   1      43.675  37.222  27.588  1.00  0.00     0.338 C 
ATOM     38  O   UNL A   1      43.009  37.403  26.584  1.00  0.00    -0.246 OA
BRANCH  37  39
ATOM     39  C   UNL A   1      44.077  35.885  28.060  1.00  0.00     0.060 A 
ATOM     40  C   UNL A   1      43.464  34.768  27.479  1.00  0.00     0.016 A 
ATOM     41  C   UNL A   1      45.021  35.734  29.078  1.00  0.00     0.016 A 
ATOM     42  C   UNL A   1      43.777  33.488  27.933  1.00  0.00     0.010 A 
ATOM     43  C   UNL A   1      45.316  34.452  29.547  1.00  0.00     0.010 A 
ATOM     44  C   UNL A   1      44.676  33.328  28.995  1.00  0.00    -0.014 A 
BRANCH  44  45
ATOM     45  C   UNL A   1      44.823  32.004  29.642  1.00  0.00     0.031 A 
ATOM     46  C   UNL A   1      43.926  31.668  30.800  1.00  0.00     0.074 A 
ATOM     47  C   UNL A   1      45.735  31.118  29.209  1.00  0.00     0.049 A 
ATOM     48  N   UNL A   1      43.899  30.594  31.545  1.00  0.00    -0.248 NA
ATOM     49  C   UNL A   1      42.926  32.684  31.169  1.00  0.00     0.031 C 
ATOM     50  C   UNL A   1      46.635  31.317  28.074  1.00  0.00     0.029 A 
ATOM     51  N   UNL A   1      46.059  29.872  29.684  1.00  0.00    -0.354 N 
ATOM     52  C   UNL A   1      42.884  30.804  32.471  1.00  0.00     0.074 A 
ATOM     53  C   UNL A   1      42.339  32.119  32.214  1.00  0.00     0.031 C 
ATOM     54  C   UNL A   1      47.419  30.232  27.947  1.00  0.00     0.029 A 
ATOM     55  C   UNL A   1      47.095  29.278  29.006  1.00  0.00     0.049 A 
ATOM     56  H   UNL A   1      45.593  29.446  30.439  1.00  0.00     0.167 HD
ATOM     57  C   UNL A   1      42.442  29.972  33.443  1.00  0.00     0.037 A 
ATOM     58  C   UNL A   1      47.721  28.105  29.230  1.00  0.00     0.037 A 
ATOM     59  C   UNL A   1      42.996  28.669  33.704  1.00  0.00     0.049 A 
ATOM     60  C   UNL A   1      47.263  27.227  30.367  1.00  0.00     0.074 A 
ATOM     61  C   UNL A   1      42.605  27.741  34.652  1.00  0.00     0.029 A 
ATOM     62  N   UNL A   1      44.070  28.116  33.021  1.00  0.00    -0.354 N 
ATOM     63  N   UNL A   1      46.282  27.421  31.218  1.00  0.00    -0.248 NA
ATOM     64  C   UNL A   1      47.998  25.971  30.574  1.00  0.00     0.031 C 
ATOM     65  C   UNL A   1      43.475  26.647  34.577  1.00  0.00     0.029 A 
ATOM     66  C   UNL A   1      44.377  26.873  33.548  1.00  0.00     0.049 A 
ATOM     67  H   UNL A   1      44.544  28.545  32.273  1.00  0.00     0.167 HD
ATOM     68  C   UNL A   1      46.268  26.302  32.045  1.00  0.00     0.074 A 
ATOM     69  C   UNL A   1      47.333  25.432  31.588  1.00  0.00     0.031 C 
ATOM     70  C   UNL A   1      45.443  26.018  33.084  1.00  0.00     0.037 A 
BRANCH  57  71
ATOM     71  C   UNL A   1      41.325  30.471  34.316  1.00  0.00     0.058 A 
ATOM     72  C   UNL A   1      39.977  30.323  33.950  1.00  0.00     0.135 A 
ATOM     73  C   UNL A   1      41.608  31.117  35.530  1.00  0.00     0.135 A 
ATOM     74  F   UNL A   1      39.653  29.730  32.791  1.00  0.00    -0.206 F 
ATOM     75  C   UNL A   1      38.951  30.832  34.738  1.00  0.00     0.059 A 
ATOM     76  C   UNL A   1      40.595  31.611  36.347  1.00  0.00     0.059 A 
ATOM     77  F   UNL A   1      42.879  31.288  35.927  1.00  0.00    -0.206 F 
ATOM     78  C   UNL A   1      39.271  31.482  35.932  1.00  0.00     0.060 A 
BRANCH  78  79
ATOM     79  S   UNL A   1      37.931  32.164  36.931  1.00  0.00     0.124 S 
ATOM     80  O   UNL A   1      37.526  30.998  37.709  1.00  0.00    -0.237 OA
ATOM     81  O   UNL A   1      38.603  33.222  37.679  1.00  0.00    -0.237 OA
ATOM     82  O   UNL A   1      36.965  32.621  35.936  1.00  0.00    -0.744 OA
ENDBRANCH  78  79
ENDBRANCH  57  71
BRANCH  58  83
ATOM     83  C   UNL A   1      48.851  27.693  28.357  1.00  0.00     0.058 A 
ATOM     84  C   UNL A   1      48.645  26.840  27.263  1.00  0.00     0.135 A 
ATOM     85  C   UNL A   1      50.154  28.159  28.587  1.00  0.00     0.135 A 
ATOM     86  F   UNL A   1      47.419  26.357  27.012  1.00  0.00    -0.206 F 
ATOM     87  C   UNL A   1      49.692  26.461  26.429  1.00  0.00     0.059 A 
ATOM     88  C   UNL A   1      51.213  27.811  27.755  1.00  0.00     0.059 A 
ATOM     89  F   UNL A   1      50.402  28.982  29.619  1.00  0.00    -0.206 F 
ATOM     90  C   UNL A   1      50.972  26.956  26.680  1.00  0.00     0.060 A 
BRANCH  90  91
ATOM     91  S   UNL A   1      52.311  26.508  25.553  1.00  0.00     0.124 S 
ATOM     92  O   UNL A   1      53.462  27.121  26.206  1.00  0.00    -0.237 OA
ATOM     93  O   UNL A   1      52.262  25.049  25.584  1.00  0.00    -0.237 OA
ATOM     94  O   UNL A   1      51.904  27.114  24.289  1.00  0.00    -0.744 OA
ENDBRANCH  90  91
ENDBRANCH  58  83
BRANCH  70  95
ATOM     95  C   UNL A   1      45.639  24.704  33.788  1.00  0.00     0.058 A 
ATOM     96  C   UNL A   1      46.454  24.590  34.925  1.00  0.00     0.135 A 
ATOM     97  C   UNL A   1      44.955  23.555  33.356  1.00  0.00     0.135 A 
ATOM     98  F   UNL A   1      47.135  25.655  35.378  1.00  0.00    -0.206 F 
ATOM     99  C   UNL A   1      46.600  23.380  35.598  1.00  0.00     0.059 A 
ATOM    100  C   UNL A   1      45.066  22.341  34.027  1.00  0.00     0.059 A 
ATOM    101  F   UNL A   1      44.154  23.611  32.281  1.00  0.00    -0.206 F 
ATOM    102  C   UNL A   1      45.899  22.261  35.142  1.00  0.00     0.060 A 
BRANCH 102 103
ATOM    103  S   UNL A   1      46.065  20.706  36.046  1.00  0.00     0.124 S 
ATOM    104  O   UNL A   1      45.074  19.870  35.377  1.00  0.00    -0.237 OA
ATOM    105  O   UNL A   1      47.460  20.350  35.805  1.00  0.00    -0.237 OA
ATOM    106  O   UNL A   1      45.749  21.078  37.421  1.00  0.00    -0.744 OA
ENDBRANCH 102 103
ENDBRANCH  70  95
ENDBRANCH  44  45
ENDBRANCH  37  39
ENDBRANCH  36  37
ENDBRANCH  35  36
ENDBRANCH  34  35
ENDBRANCH  33  34
ENDBRANCH  32  33
ENDBRANCH   1  32
TORSDOF 26
ENDMDL
MODEL 3
REMARK VINA RESULT:      -6.8      4.509     11.754
REMARK SMILES COc1ccc(C(=O)/C=C(\Nc2cccc(C(F)(F)F)c2)C(=O)OCCOCCOCCOC(=O)c2ccc(-c3c4nc(c(-c5c(F)cc(S(=O)(=O)[O-])cc5F)c5ccc([nH]5)c(-c5c(F)cc(S(=O)(=O)[O-])cc5F)c5nc(c(-c6c(F)cc(S(=O)(=O)[O-])cc6F)c6ccc3[nH]6)C=C5)C=C4)cc2)cc1
REMARK SMILES IDX 28 1 27 2 26 3 25 4 24 5 22 6 23 7 10 8 9 9 7 10 8 11 6 12
REMARK SMILES IDX 3 13 4 14 103 15 5 16 102 17 2 18 1 19 11 20 12 22 13 23
REMARK SMILES IDX 21 24 14 25 16 26 15 27 17 28 18 29 19 30 20 31 29 32 30 33
REMARK SMILES IDX 31 34 32 35 33 36 34 37 35 38 36 39 37 40 101 41 38 42
REMARK SMILES IDX 100 43 39 44 40 45 41 46 94 47 42 48 99 49 93 50 95 51 43 52
REMARK SMILES IDX 98 53 92 54 91 55 44 57 78 58 57 59 77 60 58 61 61 62 76 63
REMARK SMILES IDX 96 64 59 65 60 66 75 68 97 69 62 70 45 71 46 72 55 73 47 74
REMARK SMILES IDX 48 75 54 76 56 77 49 78 50 79 51 80 52 81 53 82 79 83 80 84
REMARK SMILES IDX 89 85 81 86 82 87 88 88 90 89 83 90 84 91 85 92 86 93 87 94
REMARK SMILES IDX 63 95 64 96 73 97 65 98 66 99 72 100 74 101 67 102 68 103
REMARK SMILES IDX 69 104 70 105 71 106
REMARK H PARENT 11 21 95 56 61 67
REMARK Flexibility Score: inf
ROOT
ATOM      1  C   UNL A   1      47.998  41.116  31.609  1.00  0.00     0.188 C 
ENDROOT
BRANCH   1   2
ATOM      2  O   UNL A   1      47.633  42.460  31.876  1.00  0.00    -0.376 OA
BRANCH   2   3
ATOM      3  C   UNL A   1      46.552  42.709  32.769  1.00  0.00     0.202 C 
BRANCH   3   4
ATOM      4  C   UNL A   1      45.177  42.940  32.152  1.00  0.00     0.261 C 
BRANCH   4   5
ATOM      5  O   UNL A   1      45.311  43.173  30.741  1.00  0.00    -0.459 OA
BRANCH   5   6
ATOM      6  C   UNL A   1      44.356  42.624  29.952  1.00  0.00     0.354 C 
ATOM      7  O   UNL A   1      43.226  42.316  30.302  1.00  0.00    -0.244 OA
BRANCH   6   8
ATOM      8  C   UNL A   1      44.844  42.526  28.531  1.00  0.00     0.129 C 
ATOM      9  C   UNL A   1      45.215  43.743  28.076  1.00  0.00     0.086 C 
BRANCH   9  10
ATOM     10  C   UNL A   1      45.804  44.211  26.786  1.00  0.00     0.188 C 
ATOM     11  O   UNL A   1      46.592  45.151  26.781  1.00  0.00    -0.289 OA
BRANCH  10  12
ATOM     12  C   UNL A   1      45.422  43.605  25.504  1.00  0.00     0.022 A 
ATOM     13  C   UNL A   1      44.934  42.700  22.933  1.00  0.00     0.118 A 
ATOM     14  C   UNL A   1      46.038  42.213  23.631  1.00  0.00     0.047 A 
ATOM     15  C   UNL A   1      44.000  43.524  23.561  1.00  0.00     0.047 A 
ATOM     16  C   UNL A   1      46.289  42.675  24.923  1.00  0.00     0.016 A 
ATOM     17  C   UNL A   1      44.231  43.962  24.864  1.00  0.00     0.016 A 
BRANCH  13  18
ATOM     18  O   UNL A   1      44.767  42.328  21.627  1.00  0.00    -0.497 OA
ATOM     19  C   UNL A   1      45.976  42.562  20.897  1.00  0.00     0.278 C 
ENDBRANCH  13  18
ENDBRANCH  10  12
ENDBRANCH   9  10
BRANCH   8  20
ATOM     20  N   UNL A   1      44.881  41.306  27.874  1.00  0.00    -0.349 N 
ATOM     21  H   UNL A   1      45.780  40.951  27.683  1.00  0.00     0.167 HD
BRANCH  20  22
ATOM     22  C   UNL A   1      43.808  40.507  27.442  1.00  0.00     0.039 A 
ATOM     23  C   UNL A   1      42.838  41.077  26.603  1.00  0.00     0.026 A 
ATOM     24  C   UNL A   1      43.692  39.152  27.758  1.00  0.00     0.039 A 
ATOM     25  C   UNL A   1      41.778  40.324  26.098  1.00  0.00     0.003 A 
ATOM     26  C   UNL A   1      42.643  38.371  27.240  1.00  0.00     0.058 A 
ATOM     27  C   UNL A   1      41.678  38.975  26.419  1.00  0.00     0.013 A 
BRANCH  26  28
ATOM     28  C   UNL A   1      42.541  36.907  27.570  1.00  0.00     0.416 C 
ATOM     29  F   UNL A   1      43.726  36.387  27.993  1.00  0.00    -0.166 F 
ATOM     30  F   UNL A   1      41.648  36.652  28.570  1.00  0.00    -0.166 F 
ATOM     31  F   UNL A   1      42.144  36.137  26.519  1.00  0.00    -0.166 F 
ENDBRANCH  26  28
ENDBRANCH  20  22
ENDBRANCH   8  20
ENDBRANCH   6   8
ENDBRANCH   5   6
ENDBRANCH   4   5
ENDBRANCH   3   4
ENDBRANCH   2   3
ENDBRANCH   1   2
BRANCH   1  32
ATOM     32  C   UNL A   1      49.109  40.446  32.447  1.00  0.00     0.188 C 
BRANCH  32  33
ATOM     33  O   UNL A   1      48.814  39.516  33.473  1.00  0.00    -0.376 OA
BRANCH  33  34
ATOM     34  C   UNL A   1      47.961  38.411  33.218  1.00  0.00     0.202 C 
BRANCH  34  35
ATOM     35  C   UNL A   1      48.291  37.400  32.118  1.00  0.00     0.261 C 
BRANCH  35  36
ATOM     36  O   UNL A   1      47.152  36.756  31.538  1.00  0.00    -0.460 OA
BRANCH  36  37
ATOM     37  C   UNL A   1      47.163  36.685  30.183  1.00  0.00     0.338 C 
ATOM     38  O   UNL A   1      47.405  37.586  29.400  1.00  0.00    -0.246 OA
BRANCH  37  39
ATOM     39  C   UNL A   1      47.016  35.277  29.775  1.00  0.00     0.060 A 
ATOM     40  C   UNL A   1      46.627  35.009  28.456  1.00  0.00     0.016 A 
ATOM     41  C   UNL A   1      47.230  34.237  30.682  1.00  0.00     0.016 A 
ATOM     42  C   UNL A   1      46.425  33.693  28.044  1.00  0.00     0.010 A 
ATOM     43  C   UNL A   1      47.005  32.921  30.273  1.00  0.00     0.010 A 
ATOM     44  C   UNL A   1      46.577  32.646  28.962  1.00  0.00    -0.014 A 
BRANCH  44  45
ATOM     45  C   UNL A   1      46.127  31.282  28.603  1.00  0.00     0.031 A 
ATOM     46  C   UNL A   1      44.675  30.935  28.781  1.00  0.00     0.074 A 
ATOM     47  C   UNL A   1      46.991  30.370  28.129  1.00  0.00     0.049 A 
ATOM     48  N   UNL A   1      44.062  29.799  28.574  1.00  0.00    -0.248 NA
ATOM     49  C   UNL A   1      43.799  32.017  29.260  1.00  0.00     0.031 C 
ATOM     50  C   UNL A   1      48.412  30.600  27.880  1.00  0.00     0.029 A 
ATOM     51  N   UNL A   1      46.794  29.057  27.779  1.00  0.00    -0.354 N 
ATOM     52  C   UNL A   1      42.730  30.027  28.899  1.00  0.00     0.074 A 
ATOM     53  C   UNL A   1      42.630  31.399  29.345  1.00  0.00     0.031 C 
ATOM     54  C   UNL A   1      48.964  29.461  27.427  1.00  0.00     0.029 A 
ATOM     55  C   UNL A   1      47.942  28.417  27.380  1.00  0.00     0.049 A 
ATOM     56  H   UNL A   1      45.915  28.617  27.811  1.00  0.00     0.167 HD
ATOM     57  C   UNL A   1      41.684  29.170  28.826  1.00  0.00     0.037 A 
ATOM     58  C   UNL A   1      48.144  27.129  27.036  1.00  0.00     0.037 A 
ATOM     59  C   UNL A   1      41.791  27.802  28.394  1.00  0.00     0.049 A 
ATOM     60  C   UNL A   1      46.980  26.172  27.035  1.00  0.00     0.074 A 
ATOM     61  C   UNL A   1      40.788  26.858  28.265  1.00  0.00     0.029 A 
ATOM     62  N   UNL A   1      42.977  27.177  28.034  1.00  0.00    -0.354 N 
ATOM     63  N   UNL A   1      45.719  26.405  27.314  1.00  0.00    -0.248 NA
ATOM     64  C   UNL A   1      47.266  24.777  26.671  1.00  0.00     0.031 C 
ATOM     65  C   UNL A   1      41.374  25.648  27.874  1.00  0.00     0.029 A 
ATOM     66  C   UNL A   1      42.736  25.851  27.712  1.00  0.00     0.049 A 
ATOM     67  H   UNL A   1      43.859  27.612  28.010  1.00  0.00     0.167 HD
ATOM     68  C   UNL A   1      45.058  25.192  27.138  1.00  0.00     0.074 A 
ATOM     69  C   UNL A   1      46.058  24.230  26.721  1.00  0.00     0.031 C 
ATOM     70  C   UNL A   1      43.743  24.903  27.301  1.00  0.00     0.037 A 
BRANCH  57  71
ATOM     71  C   UNL A   1      40.342  29.689  29.258  1.00  0.00     0.058 A 
ATOM     72  C   UNL A   1      39.330  29.989  28.332  1.00  0.00     0.135 A 
ATOM     73  C   UNL A   1      40.068  29.901  30.619  1.00  0.00     0.135 A 
ATOM     74  F   UNL A   1      39.547  29.822  27.018  1.00  0.00    -0.206 F 
ATOM     75  C   UNL A   1      38.109  30.516  28.735  1.00  0.00     0.059 A 
ATOM     76  C   UNL A   1      38.843  30.404  31.048  1.00  0.00     0.059 A 
ATOM     77  F   UNL A   1      41.000  29.634  31.547  1.00  0.00    -0.206 F 
ATOM     78  C   UNL A   1      37.877  30.728  30.096  1.00  0.00     0.060 A 
BRANCH  78  79
ATOM     79  S   UNL A   1      36.299  31.441  30.604  1.00  0.00     0.124 S 
ATOM     80  O   UNL A   1      35.449  31.105  29.467  1.00  0.00    -0.237 OA
ATOM     81  O   UNL A   1      36.013  30.722  31.842  1.00  0.00    -0.237 OA
ATOM     82  O   UNL A   1      36.603  32.860  30.763  1.00  0.00    -0.744 OA
ENDBRANCH  78  79
ENDBRANCH  57  71
BRANCH  58  83
ATOM     83  C   UNL A   1      49.508  26.670  26.664  1.00  0.00     0.058 A 
ATOM     84  C   UNL A   1      50.370  26.115  27.620  1.00  0.00     0.135 A 
ATOM     85  C   UNL A   1      49.968  26.762  25.341  1.00  0.00     0.135 A 
ATOM     86  F   UNL A   1      49.980  26.021  28.900  1.00  0.00    -0.206 F 
ATOM     87  C   UNL A   1      51.642  25.667  27.279  1.00  0.00     0.059 A 
ATOM     88  C   UNL A   1      51.229  26.301  24.972  1.00  0.00     0.059 A 
ATOM     89  F   UNL A   1      49.179  27.282  24.388  1.00  0.00    -0.206 F 
ATOM     90  C   UNL A   1      52.061  25.760  25.951  1.00  0.00     0.060 A 
BRANCH  90  91
ATOM     91  S   UNL A   1      53.690  25.117  25.509  1.00  0.00     0.124 S 
ATOM     92  O   UNL A   1      53.345  23.845  24.886  1.00  0.00    -0.237 OA
ATOM     93  O   UNL A   1      54.195  26.152  24.610  1.00  0.00    -0.237 OA
ATOM     94  O   UNL A   1      54.376  25.026  26.794  1.00  0.00    -0.744 OA
ENDBRANCH  90  91
ENDBRANCH  58  83
BRANCH  70  95
ATOM     95  C   UNL A   1      43.298  23.497  27.006  1.00  0.00     0.058 A 
ATOM     96  C   UNL A   1      43.161  23.027  25.691  1.00  0.00     0.135 A 
ATOM     97  C   UNL A   1      43.063  22.590  28.053  1.00  0.00     0.135 A 
ATOM     98  F   UNL A   1      43.369  23.853  24.653  1.00  0.00    -0.206 F 
ATOM     99  C   UNL A   1      42.789  21.713  25.423  1.00  0.00     0.059 A 
ATOM    100  C   UNL A   1      42.714  21.265  27.809  1.00  0.00     0.059 A 
ATOM    101  F   UNL A   1      43.190  22.985  29.330  1.00  0.00    -0.206 F 
ATOM    102  C   UNL A   1      42.570  20.839  26.490  1.00  0.00     0.060 A 
BRANCH 102 103
ATOM    103  S   UNL A   1      42.125  19.125  26.130  1.00  0.00     0.124 S 
ATOM    104  O   UNL A   1      42.557  18.448  27.348  1.00  0.00    -0.237 OA
ATOM    105  O   UNL A   1      40.682  19.211  25.930  1.00  0.00    -0.237 OA
ATOM    106  O   UNL A   1      42.900  18.818  24.932  1.00  0.00    -0.744 OA
ENDBRANCH 102 103
ENDBRANCH  70  95
ENDBRANCH  44  45
ENDBRANCH  37  39
ENDBRANCH  36  37
ENDBRANCH  35  36
ENDBRANCH  34  35
ENDBRANCH  33  34
ENDBRANCH  32  33
ENDBRANCH   1  32
TORSDOF 26
ENDMDL
