MODEL 1
REMARK VINA RESULT:     -10.5      0.000      0.000
REMARK SMILES O=C(OCCOCCOCCOC(=O)[C@H]1C[C@](O)(c2ccccc2Cl)[C@@H](c2ccccc2Cl)O1)c1ccc(-c2c3nc(c(-c4c(F)cc(S(=O)(=O)[O-])cc4F)c4ccc([nH]4)c(-c4c(F)cc(S(=O)(=O)[O-])cc4F)c4nc(c(-c5c(F)cc(S(=O)(=O)[O-])cc5F)c5ccc2[nH]5)C=C4)C=C3)cc1
REMARK SMILES IDX 7 1 6 2 5 3 4 4 3 5 2 6 1 7 35 8 36 9 100 10 37 11 99 12
REMARK SMILES IDX 38 13 39 14 40 15 93 16 41 17 98 18 92 19 94 20 42 21 97 22
REMARK SMILES IDX 91 23 90 24 43 26 77 27 56 28 76 29 57 30 60 31 75 32 95 33
REMARK SMILES IDX 58 34 59 35 74 37 96 38 61 39 44 40 45 41 54 42 46 43 47 44
REMARK SMILES IDX 53 45 55 46 48 47 49 48 50 49 51 50 52 51 78 52 79 53 88 54
REMARK SMILES IDX 80 55 81 56 87 57 89 58 82 59 83 60 84 61 85 62 86 63 62 64
REMARK SMILES IDX 63 65 72 66 64 67 65 68 71 69 73 70 66 71 67 72 68 73 69 74
REMARK SMILES IDX 70 75 8 76 9 77 10 78 11 79 12 80 13 81 14 82 15 83 16 84
REMARK SMILES IDX 34 85 17 86 26 87 19 88 20 89 24 90 21 91 23 92 25 93 22 94
REMARK SMILES IDX 18 95 27 97 28 98 32 99 29 100 31 101 33 102 30 103
REMARK H PARENT 94 25 60 36 18 96
REMARK Flexibility Score: inf
ROOT
ATOM      1  C   UNL A   1      31.571  29.828  25.040  1.00  0.00     0.188 C 
ENDROOT
BRANCH   1   2
ATOM      2  O   UNL A   1      30.951  30.780  25.919  1.00  0.00    -0.376 OA
BRANCH   2   3
ATOM      3  C   UNL A   1      31.884  31.701  26.506  1.00  0.00     0.202 C 
BRANCH   3   4
ATOM      4  C   UNL A   1      32.811  31.145  27.606  1.00  0.00     0.261 C 
BRANCH   4   5
ATOM      5  O   UNL A   1      34.164  30.929  27.183  1.00  0.00    -0.460 OA
BRANCH   5   6
ATOM      6  C   UNL A   1      34.892  29.787  27.218  1.00  0.00     0.338 C 
ATOM      7  O   UNL A   1      34.401  28.781  26.706  1.00  0.00    -0.246 OA
BRANCH   6   8
ATOM      8  C   UNL A   1      36.242  29.669  27.857  1.00  0.00     0.060 A 
ATOM      9  C   UNL A   1      37.480  29.913  27.252  1.00  0.00     0.016 A 
ATOM     10  C   UNL A   1      36.250  29.336  29.215  1.00  0.00     0.016 A 
ATOM     11  C   UNL A   1      38.698  29.802  27.933  1.00  0.00     0.010 A 
ATOM     12  C   UNL A   1      37.458  29.251  29.909  1.00  0.00     0.010 A 
ATOM     13  C   UNL A   1      38.706  29.492  29.277  1.00  0.00    -0.014 A 
BRANCH  13  14
ATOM     14  C   UNL A   1      39.956  29.303  30.068  1.00  0.00     0.031 A 
ATOM     15  C   UNL A   1      40.755  28.104  29.671  1.00  0.00     0.074 A 
ATOM     16  C   UNL A   1      40.348  30.082  31.108  1.00  0.00     0.049 A 
ATOM     17  N   UNL A   1      41.693  27.494  30.323  1.00  0.00    -0.248 NA
ATOM     18  C   UNL A   1      40.485  27.542  28.327  1.00  0.00     0.031 C 
ATOM     19  C   UNL A   1      39.916  31.445  31.400  1.00  0.00     0.029 A 
ATOM     20  N   UNL A   1      41.133  29.793  32.207  1.00  0.00    -0.354 N 
ATOM     21  C   UNL A   1      42.187  26.552  29.438  1.00  0.00     0.074 A 
ATOM     22  C   UNL A   1      41.342  26.537  28.273  1.00  0.00     0.031 C 
ATOM     23  C   UNL A   1      40.203  31.771  32.674  1.00  0.00     0.029 A 
ATOM     24  C   UNL A   1      40.914  30.665  33.276  1.00  0.00     0.049 A 
ATOM     25  H   UNL A   1      41.779  29.051  32.234  1.00  0.00     0.167 HD
ATOM     26  C   UNL A   1      43.333  25.856  29.567  1.00  0.00     0.037 A 
ATOM     27  C   UNL A   1      41.236  30.533  34.582  1.00  0.00     0.037 A 
ATOM     28  C   UNL A   1      44.143  25.955  30.745  1.00  0.00     0.049 A 
ATOM     29  C   UNL A   1      42.223  29.442  34.861  1.00  0.00     0.074 A 
ATOM     30  C   UNL A   1      45.365  25.377  31.007  1.00  0.00     0.029 A 
ATOM     31  N   UNL A   1      43.783  26.689  31.872  1.00  0.00    -0.354 N 
ATOM     32  N   UNL A   1      42.691  28.544  34.027  1.00  0.00    -0.248 NA
ATOM     33  C   UNL A   1      42.837  29.427  36.192  1.00  0.00     0.031 C 
ATOM     34  C   UNL A   1      45.705  25.695  32.326  1.00  0.00     0.029 A 
ATOM     35  C   UNL A   1      44.722  26.514  32.866  1.00  0.00     0.049 A 
ATOM     36  H   UNL A   1      42.978  27.250  31.949  1.00  0.00     0.167 HD
ATOM     37  C   UNL A   1      43.743  27.941  34.683  1.00  0.00     0.074 A 
ATOM     38  C   UNL A   1      43.776  28.506  36.022  1.00  0.00     0.031 C 
ATOM     39  C   UNL A   1      44.658  27.072  34.195  1.00  0.00     0.037 A 
BRANCH  26  40
ATOM     40  C   UNL A   1      43.753  25.000  28.416  1.00  0.00     0.058 A 
ATOM     41  C   UNL A   1      44.606  25.485  27.408  1.00  0.00     0.135 A 
ATOM     42  C   UNL A   1      43.288  23.683  28.307  1.00  0.00     0.135 A 
ATOM     43  F   UNL A   1      45.038  26.755  27.438  1.00  0.00    -0.206 F 
ATOM     44  C   UNL A   1      44.987  24.688  26.335  1.00  0.00     0.059 A 
ATOM     45  C   UNL A   1      43.673  22.863  27.253  1.00  0.00     0.059 A 
ATOM     46  F   UNL A   1      42.440  23.190  29.222  1.00  0.00    -0.206 F 
ATOM     47  C   UNL A   1      44.523  23.373  26.272  1.00  0.00     0.060 A 
BRANCH  47  48
ATOM     48  S   UNL A   1      45.070  22.335  24.901  1.00  0.00     0.124 S 
ATOM     49  O   UNL A   1      46.284  21.737  25.451  1.00  0.00    -0.237 OA
ATOM     50  O   UNL A   1      43.939  21.427  24.732  1.00  0.00    -0.237 OA
ATOM     51  O   UNL A   1      45.276  23.286  23.815  1.00  0.00    -0.744 OA
ENDBRANCH  47  48
ENDBRANCH  26  40
BRANCH  27  52
ATOM     52  C   UNL A   1      40.730  31.383  35.713  1.00  0.00     0.058 A 
ATOM     53  C   UNL A   1      39.437  31.299  36.246  1.00  0.00     0.135 A 
ATOM     54  C   UNL A   1      41.531  32.438  36.196  1.00  0.00     0.135 A 
ATOM     55  F   UNL A   1      38.576  30.389  35.764  1.00  0.00    -0.206 F 
ATOM     56  C   UNL A   1      38.977  32.188  37.231  1.00  0.00     0.059 A 
ATOM     57  C   UNL A   1      41.120  33.304  37.212  1.00  0.00     0.059 A 
ATOM     58  F   UNL A   1      42.707  32.696  35.606  1.00  0.00    -0.206 F 
ATOM     59  C   UNL A   1      39.831  33.181  37.719  1.00  0.00     0.060 A 
BRANCH  59  60
ATOM     60  S   UNL A   1      39.274  34.338  38.999  1.00  0.00     0.124 S 
ATOM     61  O   UNL A   1      37.955  33.805  39.323  1.00  0.00    -0.237 OA
ATOM     62  O   UNL A   1      40.284  34.194  40.042  1.00  0.00    -0.237 OA
ATOM     63  O   UNL A   1      39.278  35.622  38.302  1.00  0.00    -0.744 OA
ENDBRANCH  59  60
ENDBRANCH  27  52
BRANCH  39  64
ATOM     64  C   UNL A   1      45.762  26.710  35.124  1.00  0.00     0.058 A 
ATOM     65  C   UNL A   1      46.911  27.502  35.225  1.00  0.00     0.135 A 
ATOM     66  C   UNL A   1      45.627  25.594  35.964  1.00  0.00     0.135 A 
ATOM     67  F   UNL A   1      47.080  28.557  34.412  1.00  0.00    -0.206 F 
ATOM     68  C   UNL A   1      47.901  27.199  36.142  1.00  0.00     0.059 A 
ATOM     69  C   UNL A   1      46.588  25.296  36.915  1.00  0.00     0.059 A 
ATOM     70  F   UNL A   1      44.539  24.812  35.886  1.00  0.00    -0.206 F 
ATOM     71  C   UNL A   1      47.722  26.105  36.993  1.00  0.00     0.060 A 
BRANCH  71  72
ATOM     72  S   UNL A   1      48.974  25.787  38.246  1.00  0.00     0.124 S 
ATOM     73  O   UNL A   1      48.403  26.463  39.406  1.00  0.00    -0.237 OA
ATOM     74  O   UNL A   1      48.987  24.328  38.302  1.00  0.00    -0.237 OA
ATOM     75  O   UNL A   1      50.175  26.398  37.687  1.00  0.00    -0.744 OA
ENDBRANCH  71  72
ENDBRANCH  39  64
ENDBRANCH  13  14
ENDBRANCH   6   8
ENDBRANCH   5   6
ENDBRANCH   4   5
ENDBRANCH   3   4
ENDBRANCH   2   3
ENDBRANCH   1   2
BRANCH   1  76
ATOM     76  C   UNL A   1      31.189  28.368  25.296  1.00  0.00     0.188 C 
BRANCH  76  77
ATOM     77  O   UNL A   1      30.716  27.612  24.187  1.00  0.00    -0.376 OA
BRANCH  77  78
ATOM     78  C   UNL A   1      29.882  26.499  24.467  1.00  0.00     0.202 C 
BRANCH  78  79
ATOM     79  C   UNL A   1      30.348  25.101  24.041  1.00  0.00     0.261 C 
BRANCH  79  80
ATOM     80  O   UNL A   1      30.328  24.086  25.059  1.00  0.00    -0.461 OA
BRANCH  80  81
ATOM     81  C   UNL A   1      31.323  24.183  25.995  1.00  0.00     0.335 C 
ATOM     82  O   UNL A   1      31.517  25.172  26.682  1.00  0.00    -0.249 OA
BRANCH  81  83
ATOM     83  C   UNL A   1      32.211  22.922  26.074  1.00  0.00     0.232 C 
ATOM     84  C   UNL A   1      31.723  21.675  25.363  1.00  0.00     0.087 C 
ATOM     85  O   UNL A   1      33.531  23.199  25.608  1.00  0.00    -0.355 OA
ATOM     86  C   UNL A   1      32.667  21.501  24.178  1.00  0.00     0.124 C 
ATOM     87  C   UNL A   1      33.676  22.701  24.256  1.00  0.00     0.187 C 
BRANCH  86  88
ATOM     88  C   UNL A   1      33.274  20.071  24.213  1.00  0.00     0.005 A 
ATOM     89  C   UNL A   1      32.445  19.010  23.799  1.00  0.00     0.008 A 
ATOM     90  C   UNL A   1      34.555  19.680  24.633  1.00  0.00     0.047 A 
ATOM     91  C   UNL A   1      32.902  17.707  23.569  1.00  0.00     0.001 A 
ATOM     92  C   UNL A   1      35.007  18.356  24.452  1.00  0.00     0.021 A 
ATOM     93  Cl  UNL A   1      35.640  20.707  25.493  1.00  0.00    -0.084 Cl
ATOM     94  C   UNL A   1      34.210  17.387  23.854  1.00  0.00     0.002 A 
ENDBRANCH  86  88
BRANCH  86  95
ATOM     95  O   UNL A   1      31.873  21.605  22.990  1.00  0.00    -0.382 OA
ATOM     96  H   UNL A   1      32.358  22.110  22.319  1.00  0.00     0.212 HD
ENDBRANCH  86  95
BRANCH  87  97
ATOM     97  C   UNL A   1      33.653  23.960  23.377  1.00  0.00     0.003 A 
ATOM     98  C   UNL A   1      33.133  23.984  22.075  1.00  0.00     0.008 A 
ATOM     99  C   UNL A   1      34.030  25.212  23.918  1.00  0.00     0.046 A 
ATOM    100  C   UNL A   1      32.899  25.181  21.382  1.00  0.00     0.000 A 
ATOM    101  C   UNL A   1      33.814  26.410  23.218  1.00  0.00     0.021 A 
ATOM    102  Cl  UNL A   1      34.778  25.372  25.470  1.00  0.00    -0.084 Cl
ATOM    103  C   UNL A   1      33.219  26.397  21.962  1.00  0.00     0.002 A 
ENDBRANCH  87  97
ENDBRANCH  81  83
ENDBRANCH  80  81
ENDBRANCH  79  80
ENDBRANCH  78  79
ENDBRANCH  77  78
ENDBRANCH  76  77
ENDBRANCH   1  76
TORSDOF 23
ENDMDL
MODEL 2
REMARK VINA RESULT:     -10.3      3.028      8.977
REMARK SMILES O=C(OCCOCCOCCOC(=O)[C@H]1C[C@](O)(c2ccccc2Cl)[C@@H](c2ccccc2Cl)O1)c1ccc(-c2c3nc(c(-c4c(F)cc(S(=O)(=O)[O-])cc4F)c4ccc([nH]4)c(-c4c(F)cc(S(=O)(=O)[O-])cc4F)c4nc(c(-c5c(F)cc(S(=O)(=O)[O-])cc5F)c5ccc2[nH]5)C=C4)C=C3)cc1
REMARK SMILES IDX 7 1 6 2 5 3 4 4 3 5 2 6 1 7 35 8 36 9 100 10 37 11 99 12
REMARK SMILES IDX 38 13 39 14 40 15 93 16 41 17 98 18 92 19 94 20 42 21 97 22
REMARK SMILES IDX 91 23 90 24 43 26 77 27 56 28 76 29 57 30 60 31 75 32 95 33
REMARK SMILES IDX 58 34 59 35 74 37 96 38 61 39 44 40 45 41 54 42 46 43 47 44
REMARK SMILES IDX 53 45 55 46 48 47 49 48 50 49 51 50 52 51 78 52 79 53 88 54
REMARK SMILES IDX 80 55 81 56 87 57 89 58 82 59 83 60 84 61 85 62 86 63 62 64
REMARK SMILES IDX 63 65 72 66 64 67 65 68 71 69 73 70 66 71 67 72 68 73 69 74
REMARK SMILES IDX 70 75 8 76 9 77 10 78 11 79 12 80 13 81 14 82 15 83 16 84
REMARK SMILES IDX 34 85 17 86 26 87 19 88 20 89 24 90 21 91 23 92 25 93 22 94
REMARK SMILES IDX 18 95 27 97 28 98 32 99 29 100 31 101 33 102 30 103
REMARK H PARENT 94 25 60 36 18 96
REMARK Flexibility Score: inf
ROOT
ATOM      1  C   UNL A   1      34.573  32.273  27.738  1.00  0.00     0.188 C 
ENDROOT
BRANCH   1   2
ATOM      2  O   UNL A   1      34.640  33.630  28.203  1.00  0.00    -0.376 OA
BRANCH   2   3
ATOM      3  C   UNL A   1      33.354  34.185  28.520  1.00  0.00     0.202 C 
BRANCH   3   4
ATOM      4  C   UNL A   1      33.287  35.711  28.734  1.00  0.00     0.261 C 
BRANCH   4   5
ATOM      5  O   UNL A   1      32.728  36.104  29.995  1.00  0.00    -0.460 OA
BRANCH   5   6
ATOM      6  C   UNL A   1      32.815  35.480  31.193  1.00  0.00     0.338 C 
ATOM      7  O   UNL A   1      31.851  35.566  31.953  1.00  0.00    -0.246 OA
BRANCH   6   8
ATOM      8  C   UNL A   1      34.016  34.713  31.658  1.00  0.00     0.060 A 
ATOM      9  C   UNL A   1      35.343  34.909  31.258  1.00  0.00     0.016 A 
ATOM     10  C   UNL A   1      33.782  33.743  32.637  1.00  0.00     0.016 A 
ATOM     11  C   UNL A   1      36.411  34.161  31.764  1.00  0.00     0.010 A 
ATOM     12  C   UNL A   1      34.846  33.012  33.168  1.00  0.00     0.010 A 
ATOM     13  C   UNL A   1      36.185  33.216  32.743  1.00  0.00    -0.014 A 
BRANCH  13  14
ATOM     14  C   UNL A   1      37.253  32.339  33.301  1.00  0.00     0.031 A 
ATOM     15  C   UNL A   1      38.019  32.951  34.428  1.00  0.00     0.074 A 
ATOM     16  C   UNL A   1      37.586  31.112  32.824  1.00  0.00     0.049 A 
ATOM     17  N   UNL A   1      39.167  32.605  34.920  1.00  0.00    -0.248 NA
ATOM     18  C   UNL A   1      37.376  34.087  35.128  1.00  0.00     0.031 C 
ATOM     19  C   UNL A   1      36.758  30.230  32.007  1.00  0.00     0.029 A 
ATOM     20  N   UNL A   1      38.781  30.422  32.862  1.00  0.00    -0.354 N 
ATOM     21  C   UNL A   1      39.333  33.408  36.035  1.00  0.00     0.074 A 
ATOM     22  C   UNL A   1      38.269  34.379  36.057  1.00  0.00     0.031 C 
ATOM     23  C   UNL A   1      37.513  29.286  31.415  1.00  0.00     0.029 A 
ATOM     24  C   UNL A   1      38.876  29.443  31.871  1.00  0.00     0.049 A 
ATOM     25  H   UNL A   1      39.492  30.601  33.520  1.00  0.00     0.167 HD
ATOM     26  C   UNL A   1      40.244  33.242  37.012  1.00  0.00     0.037 A 
ATOM     27  C   UNL A   1      39.963  28.797  31.392  1.00  0.00     0.037 A 
ATOM     28  C   UNL A   1      41.249  32.223  36.936  1.00  0.00     0.049 A 
ATOM     29  C   UNL A   1      41.183  28.936  32.248  1.00  0.00     0.074 A 
ATOM     30  C   UNL A   1      42.199  31.873  37.869  1.00  0.00     0.029 A 
ATOM     31  N   UNL A   1      41.428  31.393  35.832  1.00  0.00    -0.354 N 
ATOM     32  N   UNL A   1      41.347  29.698  33.303  1.00  0.00    -0.248 NA
ATOM     33  C   UNL A   1      42.304  28.039  31.956  1.00  0.00     0.031 C 
ATOM     34  C   UNL A   1      43.007  30.886  37.294  1.00  0.00     0.029 A 
ATOM     35  C   UNL A   1      42.527  30.584  36.026  1.00  0.00     0.049 A 
ATOM     36  H   UNL A   1      40.856  31.386  35.032  1.00  0.00     0.167 HD
ATOM     37  C   UNL A   1      42.529  29.285  33.880  1.00  0.00     0.074 A 
ATOM     38  C   UNL A   1      43.091  28.276  32.996  1.00  0.00     0.031 C 
ATOM     39  C   UNL A   1      43.056  29.637  35.076  1.00  0.00     0.037 A 
BRANCH  26  40
ATOM     40  C   UNL A   1      40.147  34.137  38.205  1.00  0.00     0.058 A 
ATOM     41  C   UNL A   1      39.291  33.843  39.281  1.00  0.00     0.135 A 
ATOM     42  C   UNL A   1      40.906  35.312  38.271  1.00  0.00     0.135 A 
ATOM     43  F   UNL A   1      38.503  32.756  39.245  1.00  0.00    -0.206 F 
ATOM     44  C   UNL A   1      39.197  34.683  40.385  1.00  0.00     0.059 A 
ATOM     45  C   UNL A   1      40.844  36.156  39.375  1.00  0.00     0.059 A 
ATOM     46  F   UNL A   1      41.707  35.656  37.251  1.00  0.00    -0.206 F 
ATOM     47  C   UNL A   1      39.986  35.833  40.427  1.00  0.00     0.060 A 
BRANCH  47  48
ATOM     48  S   UNL A   1      39.894  36.885  41.889  1.00  0.00     0.124 S 
ATOM     49  O   UNL A   1      41.294  36.942  42.300  1.00  0.00    -0.237 OA
ATOM     50  O   UNL A   1      39.344  38.123  41.344  1.00  0.00    -0.237 OA
ATOM     51  O   UNL A   1      39.008  36.148  42.784  1.00  0.00    -0.744 OA
ENDBRANCH  47  48
ENDBRANCH  26  40
BRANCH  27  52
ATOM     52  C   UNL A   1      40.022  27.960  30.145  1.00  0.00     0.058 A 
ATOM     53  C   UNL A   1      39.384  26.721  29.996  1.00  0.00     0.135 A 
ATOM     54  C   UNL A   1      40.876  28.347  29.093  1.00  0.00     0.135 A 
ATOM     55  F   UNL A   1      38.636  26.233  30.997  1.00  0.00    -0.206 F 
ATOM     56  C   UNL A   1      39.556  25.928  28.850  1.00  0.00     0.059 A 
ATOM     57  C   UNL A   1      41.027  27.604  27.920  1.00  0.00     0.059 A 
ATOM     58  F   UNL A   1      41.660  29.425  29.243  1.00  0.00    -0.206 F 
ATOM     59  C   UNL A   1      40.370  26.384  27.809  1.00  0.00     0.060 A 
BRANCH  59  60
ATOM     60  S   UNL A   1      40.604  25.390  26.311  1.00  0.00     0.124 S 
ATOM     61  O   UNL A   1      41.559  24.387  26.770  1.00  0.00    -0.237 OA
ATOM     62  O   UNL A   1      39.261  24.896  26.023  1.00  0.00    -0.237 OA
ATOM     63  O   UNL A   1      41.127  26.362  25.354  1.00  0.00    -0.744 OA
ENDBRANCH  59  60
ENDBRANCH  27  52
BRANCH  39  64
ATOM     64  C   UNL A   1      44.285  28.903  35.478  1.00  0.00     0.058 A 
ATOM     65  C   UNL A   1      44.208  27.690  36.172  1.00  0.00     0.135 A 
ATOM     66  C   UNL A   1      45.544  29.394  35.102  1.00  0.00     0.135 A 
ATOM     67  F   UNL A   1      43.019  27.213  36.572  1.00  0.00    -0.206 F 
ATOM     68  C   UNL A   1      45.353  26.978  36.481  1.00  0.00     0.059 A 
ATOM     69  C   UNL A   1      46.698  28.678  35.367  1.00  0.00     0.059 A 
ATOM     70  F   UNL A   1      45.650  30.558  34.440  1.00  0.00    -0.206 F 
ATOM     71  C   UNL A   1      46.590  27.472  36.059  1.00  0.00     0.060 A 
BRANCH  71  72
ATOM     72  S   UNL A   1      48.058  26.481  36.382  1.00  0.00     0.124 S 
ATOM     73  O   UNL A   1      48.032  25.548  35.260  1.00  0.00    -0.237 OA
ATOM     74  O   UNL A   1      49.118  27.484  36.352  1.00  0.00    -0.237 OA
ATOM     75  O   UNL A   1      47.791  25.898  37.693  1.00  0.00    -0.744 OA
ENDBRANCH  71  72
ENDBRANCH  39  64
ENDBRANCH  13  14
ENDBRANCH   6   8
ENDBRANCH   5   6
ENDBRANCH   4   5
ENDBRANCH   3   4
ENDBRANCH   2   3
ENDBRANCH   1   2
BRANCH   1  76
ATOM     76  C   UNL A   1      33.238  31.569  27.990  1.00  0.00     0.188 C 
BRANCH  76  77
ATOM     77  O   UNL A   1      32.418  31.297  26.859  1.00  0.00    -0.376 OA
BRANCH  77  78
ATOM     78  C   UNL A   1      32.441  29.977  26.341  1.00  0.00     0.202 C 
BRANCH  78  79
ATOM     79  C   UNL A   1      32.986  28.847  27.225  1.00  0.00     0.261 C 
BRANCH  79  80
ATOM     80  O   UNL A   1      33.436  27.665  26.542  1.00  0.00    -0.461 OA
BRANCH  80  81
ATOM     81  C   UNL A   1      32.567  26.607  26.579  1.00  0.00     0.335 C 
ATOM     82  O   UNL A   1      31.447  26.664  27.057  1.00  0.00    -0.249 OA
BRANCH  81  83
ATOM     83  C   UNL A   1      33.160  25.310  25.987  1.00  0.00     0.232 C 
ATOM     84  C   UNL A   1      32.488  24.001  26.353  1.00  0.00     0.087 C 
ATOM     85  O   UNL A   1      33.223  25.383  24.563  1.00  0.00    -0.355 OA
ATOM     86  C   UNL A   1      31.809  23.534  25.069  1.00  0.00     0.124 C 
ATOM     87  C   UNL A   1      32.119  24.636  23.997  1.00  0.00     0.187 C 
BRANCH  86  88
ATOM     88  C   UNL A   1      32.273  22.087  24.743  1.00  0.00     0.005 A 
ATOM     89  C   UNL A   1      32.596  21.254  25.832  1.00  0.00     0.008 A 
ATOM     90  C   UNL A   1      32.441  21.491  23.484  1.00  0.00     0.047 A 
ATOM     91  C   UNL A   1      32.820  19.877  25.722  1.00  0.00     0.001 A 
ATOM     92  C   UNL A   1      32.717  20.113  23.363  1.00  0.00     0.021 A 
ATOM     93  Cl  UNL A   1      32.446  22.367  21.999  1.00  0.00    -0.084 Cl
ATOM     94  C   UNL A   1      32.834  19.291  24.477  1.00  0.00     0.002 A 
ENDBRANCH  86  88
BRANCH  86  95
ATOM     95  O   UNL A   1      30.401  23.488  25.332  1.00  0.00    -0.382 OA
ATOM     96  H   UNL A   1      30.079  22.581  25.210  1.00  0.00     0.212 HD
ENDBRANCH  86  95
BRANCH  87  97
ATOM     97  C   UNL A   1      31.143  25.711  23.497  1.00  0.00     0.003 A 
ATOM     98  C   UNL A   1      29.845  25.872  24.003  1.00  0.00     0.008 A 
ATOM     99  C   UNL A   1      31.582  26.702  22.586  1.00  0.00     0.046 A 
ATOM    100  C   UNL A   1      29.061  26.998  23.713  1.00  0.00     0.000 A 
ATOM    101  C   UNL A   1      30.790  27.820  22.280  1.00  0.00     0.021 A 
ATOM    102  Cl  UNL A   1      33.113  26.623  21.786  1.00  0.00    -0.084 Cl
ATOM    103  C   UNL A   1      29.541  27.984  22.867  1.00  0.00     0.002 A 
ENDBRANCH  87  97
ENDBRANCH  81  83
ENDBRANCH  80  81
ENDBRANCH  79  80
ENDBRANCH  78  79
ENDBRANCH  77  78
ENDBRANCH  76  77
ENDBRANCH   1  76
TORSDOF 23
ENDMDL
MODEL 3
REMARK VINA RESULT:     -10.0      5.075      9.672
REMARK SMILES O=C(OCCOCCOCCOC(=O)[C@H]1C[C@](O)(c2ccccc2Cl)[C@@H](c2ccccc2Cl)O1)c1ccc(-c2c3nc(c(-c4c(F)cc(S(=O)(=O)[O-])cc4F)c4ccc([nH]4)c(-c4c(F)cc(S(=O)(=O)[O-])cc4F)c4nc(c(-c5c(F)cc(S(=O)(=O)[O-])cc5F)c5ccc2[nH]5)C=C4)C=C3)cc1
REMARK SMILES IDX 7 1 6 2 5 3 4 4 3 5 2 6 1 7 35 8 36 9 100 10 37 11 99 12
REMARK SMILES IDX 38 13 39 14 40 15 93 16 41 17 98 18 92 19 94 20 42 21 97 22
REMARK SMILES IDX 91 23 90 24 43 26 77 27 56 28 76 29 57 30 60 31 75 32 95 33
REMARK SMILES IDX 58 34 59 35 74 37 96 38 61 39 44 40 45 41 54 42 46 43 47 44
REMARK SMILES IDX 53 45 55 46 48 47 49 48 50 49 51 50 52 51 78 52 79 53 88 54
REMARK SMILES IDX 80 55 81 56 87 57 89 58 82 59 83 60 84 61 85 62 86 63 62 64
REMARK SMILES IDX 63 65 72 66 64 67 65 68 71 69 73 70 66 71 67 72 68 73 69 74
REMARK SMILES IDX 70 75 8 76 9 77 10 78 11 79 12 80 13 81 14 82 15 83 16 84
REMARK SMILES IDX 34 85 17 86 26 87 19 88 20 89 24 90 21 91 23 92 25 93 22 94
REMARK SMILES IDX 18 95 27 97 28 98 32 99 29 100 31 101 33 102 30 103
REMARK H PARENT 94 25 60 36 18 96
REMARK Flexibility Score: inf
ROOT
ATOM      1  C   UNL A   1      35.243  31.946  27.660  1.00  0.00     0.188 C 
ENDROOT
BRANCH   1   2
ATOM      2  O   UNL A   1      36.305  32.897  27.837  1.00  0.00    -0.376 OA
BRANCH   2   3
ATOM      3  C   UNL A   1      36.088  33.789  28.941  1.00  0.00     0.202 C 
BRANCH   3   4
ATOM      4  C   UNL A   1      36.939  33.551  30.206  1.00  0.00     0.261 C 
BRANCH   4   5
ATOM      5  O   UNL A   1      36.616  32.348  30.915  1.00  0.00    -0.460 OA
BRANCH   5   6
ATOM      6  C   UNL A   1      36.997  31.077  30.646  1.00  0.00     0.338 C 
ATOM      7  O   UNL A   1      36.118  30.218  30.586  1.00  0.00    -0.246 OA
BRANCH   6   8
ATOM      8  C   UNL A   1      38.418  30.648  30.441  1.00  0.00     0.060 A 
ATOM      9  C   UNL A   1      39.402  30.508  31.428  1.00  0.00     0.016 A 
ATOM     10  C   UNL A   1      38.771  30.299  29.135  1.00  0.00     0.016 A 
ATOM     11  C   UNL A   1      40.704  30.077  31.150  1.00  0.00     0.010 A 
ATOM     12  C   UNL A   1      40.059  29.840  28.855  1.00  0.00     0.010 A 
ATOM     13  C   UNL A   1      41.048  29.714  29.865  1.00  0.00    -0.014 A 
BRANCH  13  14
ATOM     14  C   UNL A   1      42.423  29.293  29.470  1.00  0.00     0.031 A 
ATOM     15  C   UNL A   1      43.348  30.429  29.174  1.00  0.00     0.074 A 
ATOM     16  C   UNL A   1      42.833  28.009  29.317  1.00  0.00     0.049 A 
ATOM     17  N   UNL A   1      44.474  30.420  28.533  1.00  0.00    -0.248 NA
ATOM     18  C   UNL A   1      42.968  31.753  29.717  1.00  0.00     0.031 C 
ATOM     19  C   UNL A   1      42.217  26.813  29.884  1.00  0.00     0.029 A 
ATOM     20  N   UNL A   1      43.824  27.466  28.523  1.00  0.00    -0.354 N 
ATOM     21  C   UNL A   1      44.978  31.700  28.682  1.00  0.00     0.074 A 
ATOM     22  C   UNL A   1      43.970  32.514  29.312  1.00  0.00     0.031 C 
ATOM     23  C   UNL A   1      42.645  25.710  29.242  1.00  0.00     0.029 A 
ATOM     24  C   UNL A   1      43.630  26.108  28.262  1.00  0.00     0.049 A 
ATOM     25  H   UNL A   1      44.588  27.982  28.179  1.00  0.00     0.167 HD
ATOM     26  C   UNL A   1      46.235  32.102  28.413  1.00  0.00     0.037 A 
ATOM     27  C   UNL A   1      44.178  25.321  27.309  1.00  0.00     0.037 A 
ATOM     28  C   UNL A   1      47.194  31.218  27.820  1.00  0.00     0.049 A 
ATOM     29  C   UNL A   1      45.376  25.919  26.638  1.00  0.00     0.074 A 
ATOM     30  C   UNL A   1      48.526  31.441  27.550  1.00  0.00     0.029 A 
ATOM     31  N   UNL A   1      46.897  29.926  27.393  1.00  0.00    -0.354 N 
ATOM     32  N   UNL A   1      45.855  27.132  26.773  1.00  0.00    -0.248 NA
ATOM     33  C   UNL A   1      46.190  25.022  25.813  1.00  0.00     0.031 C 
ATOM     34  C   UNL A   1      49.013  30.312  26.883  1.00  0.00     0.029 A 
ATOM     35  C   UNL A   1      48.001  29.366  26.787  1.00  0.00     0.049 A 
ATOM     36  H   UNL A   1      46.028  29.479  27.508  1.00  0.00     0.167 HD
ATOM     37  C   UNL A   1      47.091  27.114  26.161  1.00  0.00     0.074 A 
ATOM     38  C   UNL A   1      47.239  25.795  25.565  1.00  0.00     0.031 C 
ATOM     39  C   UNL A   1      48.055  28.063  26.171  1.00  0.00     0.037 A 
BRANCH  26  40
ATOM     40  C   UNL A   1      46.608  33.499  28.793  1.00  0.00     0.058 A 
ATOM     41  C   UNL A   1      46.440  34.575  27.905  1.00  0.00     0.135 A 
ATOM     42  C   UNL A   1      47.154  33.766  30.054  1.00  0.00     0.135 A 
ATOM     43  F   UNL A   1      45.968  34.366  26.665  1.00  0.00    -0.206 F 
ATOM     44  C   UNL A   1      46.797  35.871  28.259  1.00  0.00     0.059 A 
ATOM     45  C   UNL A   1      47.499  35.057  30.437  1.00  0.00     0.059 A 
ATOM     46  F   UNL A   1      47.372  32.765  30.921  1.00  0.00    -0.206 F 
ATOM     47  C   UNL A   1      47.317  36.104  29.533  1.00  0.00     0.060 A 
BRANCH  47  48
ATOM     48  S   UNL A   1      47.725  37.798  29.998  1.00  0.00     0.124 S 
ATOM     49  O   UNL A   1      47.022  38.563  28.971  1.00  0.00    -0.237 OA
ATOM     50  O   UNL A   1      47.171  37.890  31.346  1.00  0.00    -0.237 OA
ATOM     51  O   UNL A   1      49.181  37.832  29.917  1.00  0.00    -0.744 OA
ENDBRANCH  47  48
ENDBRANCH  26  40
BRANCH  27  52
ATOM     52  C   UNL A   1      43.719  23.945  26.920  1.00  0.00     0.058 A 
ATOM     53  C   UNL A   1      42.959  23.660  25.777  1.00  0.00     0.135 A 
ATOM     54  C   UNL A   1      43.924  22.871  27.809  1.00  0.00     0.135 A 
ATOM     55  F   UNL A   1      42.630  24.650  24.933  1.00  0.00    -0.206 F 
ATOM     56  C   UNL A   1      42.464  22.372  25.512  1.00  0.00     0.059 A 
ATOM     57  C   UNL A   1      43.489  21.569  27.548  1.00  0.00     0.059 A 
ATOM     58  F   UNL A   1      44.479  23.104  29.007  1.00  0.00    -0.206 F 
ATOM     59  C   UNL A   1      42.745  21.329  26.397  1.00  0.00     0.060 A 
BRANCH  59  60
ATOM     60  S   UNL A   1      42.132  19.652  26.081  1.00  0.00     0.124 S 
ATOM     61  O   UNL A   1      42.485  18.971  27.321  1.00  0.00    -0.237 OA
ATOM     62  O   UNL A   1      40.703  19.855  25.859  1.00  0.00    -0.237 OA
ATOM     63  O   UNL A   1      42.891  19.244  24.902  1.00  0.00    -0.744 OA
ENDBRANCH  59  60
ENDBRANCH  27  52
BRANCH  39  64
ATOM     64  C   UNL A   1      49.342  27.681  25.530  1.00  0.00     0.058 A 
ATOM     65  C   UNL A   1      50.444  27.293  26.298  1.00  0.00     0.135 A 
ATOM     66  C   UNL A   1      49.438  27.643  24.131  1.00  0.00     0.135 A 
ATOM     67  F   UNL A   1      50.391  27.350  27.638  1.00  0.00    -0.206 F 
ATOM     68  C   UNL A   1      51.615  26.871  25.693  1.00  0.00     0.059 A 
ATOM     69  C   UNL A   1      50.586  27.187  23.506  1.00  0.00     0.059 A 
ATOM     70  F   UNL A   1      48.398  28.014  23.367  1.00  0.00    -0.206 F 
ATOM     71  C   UNL A   1      51.669  26.805  24.298  1.00  0.00     0.060 A 
BRANCH  71  72
ATOM     72  S   UNL A   1      53.164  26.159  23.533  1.00  0.00     0.124 S 
ATOM     73  O   UNL A   1      54.099  27.259  23.746  1.00  0.00    -0.237 OA
ATOM     74  O   UNL A   1      53.412  24.952  24.316  1.00  0.00    -0.237 OA
ATOM     75  O   UNL A   1      52.764  25.930  22.148  1.00  0.00    -0.744 OA
ENDBRANCH  71  72
ENDBRANCH  39  64
ENDBRANCH  13  14
ENDBRANCH   6   8
ENDBRANCH   5   6
ENDBRANCH   4   5
ENDBRANCH   3   4
ENDBRANCH   2   3
ENDBRANCH   1   2
BRANCH   1  76
ATOM     76  C   UNL A   1      33.862  32.428  28.109  1.00  0.00     0.188 C 
BRANCH  76  77
ATOM     77  O   UNL A   1      32.727  31.814  27.507  1.00  0.00    -0.376 OA
BRANCH  77  78
ATOM     78  C   UNL A   1      32.955  30.651  26.727  1.00  0.00     0.202 C 
BRANCH  78  79
ATOM     79  C   UNL A   1      32.111  29.400  27.005  1.00  0.00     0.261 C 
BRANCH  79  80
ATOM     80  O   UNL A   1      32.813  28.146  27.006  1.00  0.00    -0.461 OA
BRANCH  80  81
ATOM     81  C   UNL A   1      32.020  27.035  26.896  1.00  0.00     0.335 C 
ATOM     82  O   UNL A   1      30.837  27.013  27.193  1.00  0.00    -0.249 OA
BRANCH  81  83
ATOM     83  C   UNL A   1      32.780  25.789  26.391  1.00  0.00     0.232 C 
ATOM     84  C   UNL A   1      32.147  24.434  26.640  1.00  0.00     0.087 C 
ATOM     85  O   UNL A   1      33.053  25.892  24.995  1.00  0.00    -0.355 OA
ATOM     86  C   UNL A   1      31.703  23.947  25.265  1.00  0.00     0.124 C 
ATOM     87  C   UNL A   1      32.099  25.086  24.261  1.00  0.00     0.187 C 
BRANCH  86  88
ATOM     88  C   UNL A   1      32.306  22.538  25.003  1.00  0.00     0.005 A 
ATOM     89  C   UNL A   1      32.847  21.854  26.108  1.00  0.00     0.008 A 
ATOM     90  C   UNL A   1      32.409  21.851  23.783  1.00  0.00     0.047 A 
ATOM     91  C   UNL A   1      33.227  20.507  26.082  1.00  0.00     0.001 A 
ATOM     92  C   UNL A   1      32.840  20.508  23.741  1.00  0.00     0.021 A 
ATOM     93  Cl  UNL A   1      32.143  22.578  22.244  1.00  0.00    -0.084 Cl
ATOM     94  C   UNL A   1      33.179  19.813  24.895  1.00  0.00     0.002 A 
ENDBRANCH  86  88
BRANCH  86  95
ATOM     95  O   UNL A   1      30.278  23.806  25.310  1.00  0.00    -0.382 OA
ATOM     96  H   UNL A   1      30.042  22.870  25.221  1.00  0.00     0.212 HD
ENDBRANCH  86  95
BRANCH  87  97
ATOM     97  C   UNL A   1      31.142  26.105  23.626  1.00  0.00     0.003 A 
ATOM     98  C   UNL A   1      29.786  26.211  23.972  1.00  0.00     0.008 A 
ATOM     99  C   UNL A   1      31.640  27.101  22.753  1.00  0.00     0.046 A 
ATOM    100  C   UNL A   1      28.991  27.293  23.567  1.00  0.00     0.000 A 
ATOM    101  C   UNL A   1      30.839  28.175  22.332  1.00  0.00     0.021 A 
ATOM    102  Cl  UNL A   1      33.257  27.083  22.141  1.00  0.00    -0.084 Cl
ATOM    103  C   UNL A   1      29.524  28.288  22.764  1.00  0.00     0.002 A 
ENDBRANCH  87  97
ENDBRANCH  81  83
ENDBRANCH  80  81
ENDBRANCH  79  80
ENDBRANCH  78  79
ENDBRANCH  77  78
ENDBRANCH  76  77
ENDBRANCH   1  76
TORSDOF 23
ENDMDL
