MODEL 1
REMARK VINA RESULT:      -9.3      0.000      0.000
REMARK SMILES CCc1nn2c(C)c(CCC(=O)OCCOCCOCCOC(=O)c3ccc(-c4c5nc(c(-c6c(F)cc(S(=O)(=O)[O-])cc6F)c6ccc([nH]6)c(-c6c(F)cc(S(=O)(=O)[O-])cc6F)c6nc(c(-c7c(F)cc(S(=O)(=O)[O-])cc7F)c7ccc4[nH]7)C=C6)C=C5)cc3)c(C)nc2c1-c1ccccc1
REMARK SMILES IDX 17 1 16 2 15 3 14 4 13 5 11 6 12 7 10 8 9 9 8 10 3 11 4 12
REMARK SMILES IDX 95 13 5 14 94 15 6 16 93 17 7 18 91 19 92 20 2 21 1 22 96 23
REMARK SMILES IDX 97 24 101 25 98 26 100 27 99 28 18 29 19 30 20 31 21 32
REMARK SMILES IDX 22 33 23 34 24 35 25 36 26 37 90 38 27 39 89 40 28 41 29 42
REMARK SMILES IDX 30 43 83 44 31 45 88 46 82 47 84 48 32 49 87 50 81 51 80 52
REMARK SMILES IDX 33 54 67 55 46 56 66 57 47 58 50 59 65 60 85 61 48 62 49 63
REMARK SMILES IDX 64 65 86 66 51 67 34 68 35 69 44 70 36 71 37 72 43 73 45 74
REMARK SMILES IDX 38 75 39 76 40 77 41 78 42 79 68 80 69 81 78 82 70 83 71 84
REMARK SMILES IDX 77 85 79 86 72 87 73 88 74 89 75 90 76 91 52 92 53 93 62 94
REMARK SMILES IDX 54 95 55 96 61 97 63 98 56 99 57 100 58 101 59 102 60 103
REMARK H PARENT 84 53 50 64
REMARK Flexibility Score: inf
ROOT
ATOM      1  C   UNL A   1      35.071  32.083  29.317  1.00  0.00     0.188 C 
ENDROOT
BRANCH   1   2
ATOM      2  O   UNL A   1      34.955  31.596  27.984  1.00  0.00    -0.376 OA
BRANCH   2   3
ATOM      3  C   UNL A   1      33.685  31.070  27.621  1.00  0.00     0.202 C 
BRANCH   3   4
ATOM      4  C   UNL A   1      33.737  30.051  26.465  1.00  0.00     0.261 C 
BRANCH   4   5
ATOM      5  O   UNL A   1      32.716  30.269  25.459  1.00  0.00    -0.463 OA
BRANCH   5   6
ATOM      6  C   UNL A   1      31.526  29.640  25.556  1.00  0.00     0.306 C 
ATOM      7  O   UNL A   1      31.112  29.098  26.572  1.00  0.00    -0.252 OA
BRANCH   6   8
ATOM      8  C   UNL A   1      30.759  29.647  24.236  1.00  0.00     0.127 C 
BRANCH   8   9
ATOM      9  C   UNL A   1      30.933  28.439  23.289  1.00  0.00     0.051 C 
BRANCH   9  10
ATOM     10  C   UNL A   1      31.754  27.257  23.787  1.00  0.00    -0.005 A 
ATOM     11  C   UNL A   1      32.726  23.350  25.806  1.00  0.00     0.073 A 
ATOM     12  N   UNL A   1      31.648  24.119  25.684  1.00  0.00    -0.171 NA
ATOM     13  C   UNL A   1      33.847  23.937  25.174  1.00  0.00     0.050 A 
ATOM     14  N   UNL A   1      32.061  25.192  24.963  1.00  0.00    -0.219 N 
ATOM     15  C   UNL A   1      33.405  25.141  24.660  1.00  0.00     0.163 A 
ATOM     16  C   UNL A   1      31.255  26.233  24.522  1.00  0.00     0.046 A 
ATOM     17  N   UNL A   1      34.013  26.158  23.981  1.00  0.00    -0.233 NA
ATOM     18  C   UNL A   1      29.849  26.075  24.959  1.00  0.00     0.067 C 
ATOM     19  C   UNL A   1      33.269  27.166  23.609  1.00  0.00     0.045 A 
ATOM     20  C   UNL A   1      34.038  28.304  22.962  1.00  0.00     0.067 C 
BRANCH  11  21
ATOM     21  C   UNL A   1      32.586  22.062  26.541  1.00  0.00     0.055 C 
ATOM     22  C   UNL A   1      33.319  22.086  27.875  1.00  0.00     0.011 C 
ENDBRANCH  11  21
BRANCH  13  23
ATOM     23  C   UNL A   1      35.187  23.446  24.991  1.00  0.00    -0.013 A 
ATOM     24  C   UNL A   1      36.140  23.664  25.990  1.00  0.00     0.009 A 
ATOM     25  C   UNL A   1      35.522  22.716  23.847  1.00  0.00     0.009 A 
ATOM     26  C   UNL A   1      37.422  23.138  25.854  1.00  0.00     0.001 A 
ATOM     27  C   UNL A   1      36.807  22.195  23.711  1.00  0.00     0.001 A 
ATOM     28  C   UNL A   1      37.752  22.401  24.716  1.00  0.00     0.000 A 
ENDBRANCH  13  23
ENDBRANCH   9  10
ENDBRANCH   8   9
ENDBRANCH   6   8
ENDBRANCH   5   6
ENDBRANCH   4   5
ENDBRANCH   3   4
ENDBRANCH   2   3
ENDBRANCH   1   2
BRANCH   1  29
ATOM     29  C   UNL A   1      35.355  33.583  29.410  1.00  0.00     0.188 C 
BRANCH  29  30
ATOM     30  O   UNL A   1      36.305  33.942  30.424  1.00  0.00    -0.376 OA
BRANCH  30  31
ATOM     31  C   UNL A   1      37.684  33.662  30.147  1.00  0.00     0.202 C 
BRANCH  31  32
ATOM     32  C   UNL A   1      38.302  32.376  30.688  1.00  0.00     0.261 C 
BRANCH  32  33
ATOM     33  O   UNL A   1      38.327  32.375  32.090  1.00  0.00    -0.460 OA
BRANCH  33  34
ATOM     34  C   UNL A   1      37.470  31.492  32.657  1.00  0.00     0.338 C 
ATOM     35  O   UNL A   1      36.260  31.542  32.708  1.00  0.00    -0.246 OA
BRANCH  34  36
ATOM     36  C   UNL A   1      38.319  30.433  33.212  1.00  0.00     0.060 A 
ATOM     37  C   UNL A   1      39.408  30.833  33.977  1.00  0.00     0.016 A 
ATOM     38  C   UNL A   1      38.133  29.104  32.784  1.00  0.00     0.016 A 
ATOM     39  C   UNL A   1      40.476  29.975  34.030  1.00  0.00     0.010 A 
ATOM     40  C   UNL A   1      39.201  28.263  32.809  1.00  0.00     0.010 A 
ATOM     41  C   UNL A   1      40.384  28.773  33.323  1.00  0.00    -0.014 A 
BRANCH  41  42
ATOM     42  C   UNL A   1      41.599  28.060  33.054  1.00  0.00     0.031 A 
ATOM     43  C   UNL A   1      42.086  27.318  34.221  1.00  0.00     0.074 A 
ATOM     44  C   UNL A   1      42.131  28.055  31.820  1.00  0.00     0.049 A 
ATOM     45  N   UNL A   1      43.042  27.654  35.016  1.00  0.00    -0.248 NA
ATOM     46  C   UNL A   1      41.262  26.197  34.698  1.00  0.00     0.031 C 
ATOM     47  C   UNL A   1      41.526  28.505  30.562  1.00  0.00     0.029 A 
ATOM     48  N   UNL A   1      43.321  27.547  31.424  1.00  0.00    -0.354 N 
ATOM     49  C   UNL A   1      43.107  26.622  35.938  1.00  0.00     0.074 A 
ATOM     50  C   UNL A   1      41.851  25.927  35.861  1.00  0.00     0.031 C 
ATOM     51  C   UNL A   1      42.270  28.049  29.527  1.00  0.00     0.029 A 
ATOM     52  C   UNL A   1      43.456  27.394  30.052  1.00  0.00     0.049 A 
ATOM     53  H   UNL A   1      44.034  27.307  32.059  1.00  0.00     0.167 HD
ATOM     54  C   UNL A   1      44.304  26.221  36.441  1.00  0.00     0.037 A 
ATOM     55  C   UNL A   1      44.438  26.686  29.441  1.00  0.00     0.037 A 
ATOM     56  C   UNL A   1      45.322  27.223  36.236  1.00  0.00     0.049 A 
ATOM     57  C   UNL A   1      45.550  26.560  30.430  1.00  0.00     0.074 A 
ATOM     58  C   UNL A   1      45.454  28.550  36.598  1.00  0.00     0.029 A 
ATOM     59  N   UNL A   1      46.221  27.015  35.215  1.00  0.00    -0.354 N 
ATOM     60  N   UNL A   1      46.257  27.567  30.870  1.00  0.00    -0.248 NA
ATOM     61  C   UNL A   1      45.573  25.374  31.277  1.00  0.00     0.031 C 
ATOM     62  C   UNL A   1      46.100  29.179  35.496  1.00  0.00     0.029 A 
ATOM     63  C   UNL A   1      46.379  28.199  34.540  1.00  0.00     0.049 A 
ATOM     64  H   UNL A   1      46.673  26.166  35.007  1.00  0.00     0.167 HD
ATOM     65  C   UNL A   1      46.479  27.297  32.214  1.00  0.00     0.074 A 
ATOM     66  C   UNL A   1      46.115  25.893  32.383  1.00  0.00     0.031 C 
ATOM     67  C   UNL A   1      46.661  28.303  33.120  1.00  0.00     0.037 A 
BRANCH  54  68
ATOM     68  C   UNL A   1      44.622  24.780  36.745  1.00  0.00     0.058 A 
ATOM     69  C   UNL A   1      45.110  24.443  38.019  1.00  0.00     0.135 A 
ATOM     70  C   UNL A   1      44.713  23.762  35.766  1.00  0.00     0.135 A 
ATOM     71  F   UNL A   1      45.092  25.343  39.016  1.00  0.00    -0.206 F 
ATOM     72  C   UNL A   1      45.699  23.208  38.286  1.00  0.00     0.059 A 
ATOM     73  C   UNL A   1      45.233  22.504  36.027  1.00  0.00     0.059 A 
ATOM     74  F   UNL A   1      44.403  23.962  34.479  1.00  0.00    -0.206 F 
ATOM     75  C   UNL A   1      45.763  22.250  37.277  1.00  0.00     0.060 A 
BRANCH  75  76
ATOM     76  S   UNL A   1      46.615  20.696  37.581  1.00  0.00     0.124 S 
ATOM     77  O   UNL A   1      48.010  21.113  37.503  1.00  0.00    -0.237 OA
ATOM     78  O   UNL A   1      46.124  20.339  38.908  1.00  0.00    -0.237 OA
ATOM     79  O   UNL A   1      46.149  19.840  36.495  1.00  0.00    -0.744 OA
ENDBRANCH  75  76
ENDBRANCH  54  68
BRANCH  55  80
ATOM     80  C   UNL A   1      44.314  25.800  28.250  1.00  0.00     0.058 A 
ATOM     81  C   UNL A   1      45.072  26.048  27.091  1.00  0.00     0.135 A 
ATOM     82  C   UNL A   1      43.677  24.542  28.312  1.00  0.00     0.135 A 
ATOM     83  F   UNL A   1      45.724  27.213  26.950  1.00  0.00    -0.206 F 
ATOM     84  C   UNL A   1      45.245  25.088  26.090  1.00  0.00     0.059 A 
ATOM     85  C   UNL A   1      43.821  23.575  27.319  1.00  0.00     0.059 A 
ATOM     86  F   UNL A   1      42.965  24.172  29.386  1.00  0.00    -0.206 F 
ATOM     87  C   UNL A   1      44.633  23.842  26.225  1.00  0.00     0.060 A 
BRANCH  87  88
ATOM     88  S   UNL A   1      45.004  22.535  25.030  1.00  0.00     0.124 S 
ATOM     89  O   UNL A   1      45.461  23.303  23.877  1.00  0.00    -0.237 OA
ATOM     90  O   UNL A   1      46.024  21.763  25.729  1.00  0.00    -0.237 OA
ATOM     91  O   UNL A   1      43.721  21.858  24.860  1.00  0.00    -0.744 OA
ENDBRANCH  87  88
ENDBRANCH  55  80
BRANCH  67  92
ATOM     92  C   UNL A   1      46.945  29.692  32.605  1.00  0.00     0.058 A 
ATOM     93  C   UNL A   1      45.954  30.641  32.295  1.00  0.00     0.135 A 
ATOM     94  C   UNL A   1      48.275  30.139  32.630  1.00  0.00     0.135 A 
ATOM     95  F   UNL A   1      44.654  30.316  32.336  1.00  0.00    -0.206 F 
ATOM     96  C   UNL A   1      46.274  31.971  32.017  1.00  0.00     0.059 A 
ATOM     97  C   UNL A   1      48.614  31.467  32.385  1.00  0.00     0.059 A 
ATOM     98  F   UNL A   1      49.261  29.293  32.971  1.00  0.00    -0.206 F 
ATOM     99  C   UNL A   1      47.606  32.379  32.079  1.00  0.00     0.060 A 
BRANCH  99 100
ATOM    100  S   UNL A   1      48.004  34.129  31.858  1.00  0.00     0.124 S 
ATOM    101  O   UNL A   1      46.855  34.613  31.101  1.00  0.00    -0.237 OA
ATOM    102  O   UNL A   1      48.103  34.607  33.235  1.00  0.00    -0.237 OA
ATOM    103  O   UNL A   1      49.268  34.103  31.126  1.00  0.00    -0.744 OA
ENDBRANCH  99 100
ENDBRANCH  67  92
ENDBRANCH  41  42
ENDBRANCH  34  36
ENDBRANCH  33  34
ENDBRANCH  32  33
ENDBRANCH  31  32
ENDBRANCH  30  31
ENDBRANCH  29  30
ENDBRANCH   1  29
TORSDOF 24
ENDMDL
MODEL 2
REMARK VINA RESULT:      -9.0      1.748      2.578
REMARK SMILES CCc1nn2c(C)c(CCC(=O)OCCOCCOCCOC(=O)c3ccc(-c4c5nc(c(-c6c(F)cc(S(=O)(=O)[O-])cc6F)c6ccc([nH]6)c(-c6c(F)cc(S(=O)(=O)[O-])cc6F)c6nc(c(-c7c(F)cc(S(=O)(=O)[O-])cc7F)c7ccc4[nH]7)C=C6)C=C5)cc3)c(C)nc2c1-c1ccccc1
REMARK SMILES IDX 17 1 16 2 15 3 14 4 13 5 11 6 12 7 10 8 9 9 8 10 3 11 4 12
REMARK SMILES IDX 95 13 5 14 94 15 6 16 93 17 7 18 91 19 92 20 2 21 1 22 96 23
REMARK SMILES IDX 97 24 101 25 98 26 100 27 99 28 18 29 19 30 20 31 21 32
REMARK SMILES IDX 22 33 23 34 24 35 25 36 26 37 90 38 27 39 89 40 28 41 29 42
REMARK SMILES IDX 30 43 83 44 31 45 88 46 82 47 84 48 32 49 87 50 81 51 80 52
REMARK SMILES IDX 33 54 67 55 46 56 66 57 47 58 50 59 65 60 85 61 48 62 49 63
REMARK SMILES IDX 64 65 86 66 51 67 34 68 35 69 44 70 36 71 37 72 43 73 45 74
REMARK SMILES IDX 38 75 39 76 40 77 41 78 42 79 68 80 69 81 78 82 70 83 71 84
REMARK SMILES IDX 77 85 79 86 72 87 73 88 74 89 75 90 76 91 52 92 53 93 62 94
REMARK SMILES IDX 54 95 55 96 61 97 63 98 56 99 57 100 58 101 59 102 60 103
REMARK H PARENT 84 53 50 64
REMARK Flexibility Score: inf
ROOT
ATOM      1  C   UNL A   1      36.434  32.455  28.432  1.00  0.00     0.188 C 
ENDROOT
BRANCH   1   2
ATOM      2  O   UNL A   1      35.402  33.159  27.748  1.00  0.00    -0.376 OA
BRANCH   2   3
ATOM      3  C   UNL A   1      34.112  32.562  27.783  1.00  0.00     0.202 C 
BRANCH   3   4
ATOM      4  C   UNL A   1      34.115  31.046  27.501  1.00  0.00     0.261 C 
BRANCH   4   5
ATOM      5  O   UNL A   1      32.794  30.452  27.530  1.00  0.00    -0.463 OA
BRANCH   5   6
ATOM      6  C   UNL A   1      31.929  30.676  26.518  1.00  0.00     0.306 C 
ATOM      7  O   UNL A   1      31.168  31.631  26.459  1.00  0.00    -0.252 OA
BRANCH   6   8
ATOM      8  C   UNL A   1      31.980  29.576  25.461  1.00  0.00     0.127 C 
BRANCH   8   9
ATOM      9  C   UNL A   1      31.178  28.280  25.721  1.00  0.00     0.051 C 
BRANCH   9  10
ATOM     10  C   UNL A   1      31.796  26.962  25.274  1.00  0.00    -0.005 A 
ATOM     11  C   UNL A   1      34.931  23.820  24.505  1.00  0.00     0.073 A 
ATOM     12  N   UNL A   1      34.924  25.073  24.951  1.00  0.00    -0.171 NA
ATOM     13  C   UNL A   1      33.628  23.396  24.153  1.00  0.00     0.050 A 
ATOM     14  N   UNL A   1      33.623  25.457  24.903  1.00  0.00    -0.219 N 
ATOM     15  C   UNL A   1      32.800  24.478  24.389  1.00  0.00     0.163 A 
ATOM     16  C   UNL A   1      33.118  26.673  25.344  1.00  0.00     0.046 A 
ATOM     17  N   UNL A   1      31.464  24.699  24.217  1.00  0.00    -0.233 NA
ATOM     18  C   UNL A   1      34.182  27.564  25.862  1.00  0.00     0.067 C 
ATOM     19  C   UNL A   1      30.992  25.862  24.582  1.00  0.00     0.045 A 
ATOM     20  C   UNL A   1      29.524  26.070  24.256  1.00  0.00     0.067 C 
BRANCH  11  21
ATOM     21  C   UNL A   1      36.234  23.101  24.460  1.00  0.00     0.055 C 
ATOM     22  C   UNL A   1      36.545  22.402  25.776  1.00  0.00     0.011 C 
ENDBRANCH  11  21
BRANCH  13  23
ATOM     23  C   UNL A   1      33.146  22.119  23.697  1.00  0.00    -0.013 A 
ATOM     24  C   UNL A   1      33.300  20.996  24.516  1.00  0.00     0.009 A 
ATOM     25  C   UNL A   1      32.487  22.009  22.470  1.00  0.00     0.009 A 
ATOM     26  C   UNL A   1      32.779  19.769  24.116  1.00  0.00     0.001 A 
ATOM     27  C   UNL A   1      31.971  20.778  22.070  1.00  0.00     0.001 A 
ATOM     28  C   UNL A   1      32.113  19.662  22.895  1.00  0.00     0.000 A 
ENDBRANCH  13  23
ENDBRANCH   9  10
ENDBRANCH   8   9
ENDBRANCH   6   8
ENDBRANCH   5   6
ENDBRANCH   4   5
ENDBRANCH   3   4
ENDBRANCH   2   3
ENDBRANCH   1   2
BRANCH   1  29
ATOM     29  C   UNL A   1      36.842  33.087  29.763  1.00  0.00     0.188 C 
BRANCH  29  30
ATOM     30  O   UNL A   1      35.739  33.473  30.595  1.00  0.00    -0.376 OA
BRANCH  30  31
ATOM     31  C   UNL A   1      36.060  34.005  31.889  1.00  0.00     0.202 C 
BRANCH  31  32
ATOM     32  C   UNL A   1      35.653  33.221  33.133  1.00  0.00     0.261 C 
BRANCH  32  33
ATOM     33  O   UNL A   1      36.034  31.875  33.032  1.00  0.00    -0.460 OA
BRANCH  33  34
ATOM     34  C   UNL A   1      37.144  31.560  33.742  1.00  0.00     0.338 C 
ATOM     35  O   UNL A   1      37.317  31.630  34.940  1.00  0.00    -0.246 OA
BRANCH  34  36
ATOM     36  C   UNL A   1      38.122  31.104  32.750  1.00  0.00     0.060 A 
ATOM     37  C   UNL A   1      37.920  29.843  32.199  1.00  0.00     0.016 A 
ATOM     38  C   UNL A   1      39.306  31.841  32.557  1.00  0.00     0.016 A 
ATOM     39  C   UNL A   1      39.030  29.185  31.738  1.00  0.00     0.010 A 
ATOM     40  C   UNL A   1      40.414  31.179  32.128  1.00  0.00     0.010 A 
ATOM     41  C   UNL A   1      40.266  29.830  31.848  1.00  0.00    -0.014 A 
BRANCH  41  42
ATOM     42  C   UNL A   1      41.450  29.030  31.733  1.00  0.00     0.031 A 
ATOM     43  C   UNL A   1      41.897  28.495  33.023  1.00  0.00     0.074 A 
ATOM     44  C   UNL A   1      41.990  28.776  30.529  1.00  0.00     0.049 A 
ATOM     45  N   UNL A   1      42.861  28.933  33.756  1.00  0.00    -0.248 NA
ATOM     46  C   UNL A   1      41.022  27.516  33.686  1.00  0.00     0.031 C 
ATOM     47  C   UNL A   1      41.413  29.011  29.201  1.00  0.00     0.029 A 
ATOM     48  N   UNL A   1      43.159  28.154  30.249  1.00  0.00    -0.354 N 
ATOM     49  C   UNL A   1      42.876  28.086  34.853  1.00  0.00     0.074 A 
ATOM     50  C   UNL A   1      41.592  27.441  34.888  1.00  0.00     0.031 C 
ATOM     51  C   UNL A   1      42.143  28.342  28.278  1.00  0.00     0.029 A 
ATOM     52  C   UNL A   1      43.296  27.746  28.931  1.00  0.00     0.049 A 
ATOM     53  H   UNL A   1      43.857  28.006  30.928  1.00  0.00     0.167 HD
ATOM     54  C   UNL A   1      44.051  27.736  35.439  1.00  0.00     0.037 A 
ATOM     55  C   UNL A   1      44.250  26.897  28.474  1.00  0.00     0.037 A 
ATOM     56  C   UNL A   1      45.112  28.639  35.067  1.00  0.00     0.049 A 
ATOM     57  C   UNL A   1      45.349  26.910  29.486  1.00  0.00     0.074 A 
ATOM     58  C   UNL A   1      45.299  30.004  35.182  1.00  0.00     0.029 A 
ATOM     59  N   UNL A   1      46.008  28.210  34.116  1.00  0.00    -0.354 N 
ATOM     60  N   UNL A   1      46.097  27.950  29.743  1.00  0.00    -0.248 NA
ATOM     61  C   UNL A   1      45.316  25.900  30.537  1.00  0.00     0.031 C 
ATOM     62  C   UNL A   1      45.980  30.392  33.992  1.00  0.00     0.029 A 
ATOM     63  C   UNL A   1      46.222  29.242  33.236  1.00  0.00     0.049 A 
ATOM     64  H   UNL A   1      46.424  27.319  34.073  1.00  0.00     0.167 HD
ATOM     65  C   UNL A   1      46.298  27.923  31.118  1.00  0.00     0.074 A 
ATOM     66  C   UNL A   1      45.873  26.591  31.536  1.00  0.00     0.031 C 
ATOM     67  C   UNL A   1      46.517  29.071  31.826  1.00  0.00     0.037 A 
BRANCH  54  68
ATOM     68  C   UNL A   1      44.304  26.363  36.006  1.00  0.00     0.058 A 
ATOM     69  C   UNL A   1      44.759  26.246  37.331  1.00  0.00     0.135 A 
ATOM     70  C   UNL A   1      44.366  25.180  35.231  1.00  0.00     0.135 A 
ATOM     71  F   UNL A   1      44.765  27.313  38.147  1.00  0.00    -0.206 F 
ATOM     72  C   UNL A   1      45.292  25.059  37.831  1.00  0.00     0.059 A 
ATOM     73  C   UNL A   1      44.830  23.973  35.728  1.00  0.00     0.059 A 
ATOM     74  F   UNL A   1      44.083  25.154  33.923  1.00  0.00    -0.206 F 
ATOM     75  C   UNL A   1      45.331  23.931  37.015  1.00  0.00     0.060 A 
BRANCH  75  76
ATOM     76  S   UNL A   1      46.113  22.427  37.615  1.00  0.00     0.124 S 
ATOM     77  O   UNL A   1      47.524  22.783  37.527  1.00  0.00    -0.237 OA
ATOM     78  O   UNL A   1      45.560  22.318  38.961  1.00  0.00    -0.237 OA
ATOM     79  O   UNL A   1      45.656  21.412  36.671  1.00  0.00    -0.744 OA
ENDBRANCH  75  76
ENDBRANCH  54  68
BRANCH  55  80
ATOM     80  C   UNL A   1      44.096  25.814  27.465  1.00  0.00     0.058 A 
ATOM     81  C   UNL A   1      44.865  25.818  26.287  1.00  0.00     0.135 A 
ATOM     82  C   UNL A   1      43.412  24.612  27.751  1.00  0.00     0.135 A 
ATOM     83  F   UNL A   1      45.560  26.912  25.940  1.00  0.00    -0.206 F 
ATOM     84  C   UNL A   1      45.004  24.684  25.480  1.00  0.00     0.059 A 
ATOM     85  C   UNL A   1      43.523  23.475  26.953  1.00  0.00     0.059 A 
ATOM     86  F   UNL A   1      42.686  24.471  28.869  1.00  0.00    -0.206 F 
ATOM     87  C   UNL A   1      44.346  23.507  25.836  1.00  0.00     0.060 A 
BRANCH  87  88
ATOM     88  S   UNL A   1      44.670  21.991  24.904  1.00  0.00     0.124 S 
ATOM     89  O   UNL A   1      46.108  21.826  25.087  1.00  0.00    -0.237 OA
ATOM     90  O   UNL A   1      43.824  21.023  25.591  1.00  0.00    -0.237 OA
ATOM     91  O   UNL A   1      44.249  22.331  23.547  1.00  0.00    -0.744 OA
ENDBRANCH  87  88
ENDBRANCH  55  80
BRANCH  67  92
ATOM     92  C   UNL A   1      46.865  30.328  31.069  1.00  0.00     0.058 A 
ATOM     93  C   UNL A   1      48.162  30.664  30.642  1.00  0.00     0.135 A 
ATOM     94  C   UNL A   1      45.807  31.110  30.580  1.00  0.00     0.135 A 
ATOM     95  F   UNL A   1      49.217  29.915  30.993  1.00  0.00    -0.206 F 
ATOM     96  C   UNL A   1      48.395  31.734  29.775  1.00  0.00     0.059 A 
ATOM     97  C   UNL A   1      46.013  32.162  29.692  1.00  0.00     0.059 A 
ATOM     98  F   UNL A   1      44.540  30.807  30.908  1.00  0.00    -0.206 F 
ATOM     99  C   UNL A   1      47.312  32.468  29.292  1.00  0.00     0.060 A 
BRANCH  99 100
ATOM    100  S   UNL A   1      47.602  33.760  28.061  1.00  0.00     0.124 S 
ATOM    101  O   UNL A   1      47.069  34.944  28.726  1.00  0.00    -0.237 OA
ATOM    102  O   UNL A   1      49.053  33.722  27.899  1.00  0.00    -0.237 OA
ATOM    103  O   UNL A   1      46.844  33.302  26.899  1.00  0.00    -0.744 OA
ENDBRANCH  99 100
ENDBRANCH  67  92
ENDBRANCH  41  42
ENDBRANCH  34  36
ENDBRANCH  33  34
ENDBRANCH  32  33
ENDBRANCH  31  32
ENDBRANCH  30  31
ENDBRANCH  29  30
ENDBRANCH   1  29
TORSDOF 24
ENDMDL
MODEL 3
REMARK VINA RESULT:      -8.6      1.457      2.262
REMARK SMILES CCc1nn2c(C)c(CCC(=O)OCCOCCOCCOC(=O)c3ccc(-c4c5nc(c(-c6c(F)cc(S(=O)(=O)[O-])cc6F)c6ccc([nH]6)c(-c6c(F)cc(S(=O)(=O)[O-])cc6F)c6nc(c(-c7c(F)cc(S(=O)(=O)[O-])cc7F)c7ccc4[nH]7)C=C6)C=C5)cc3)c(C)nc2c1-c1ccccc1
REMARK SMILES IDX 17 1 16 2 15 3 14 4 13 5 11 6 12 7 10 8 9 9 8 10 3 11 4 12
REMARK SMILES IDX 95 13 5 14 94 15 6 16 93 17 7 18 91 19 92 20 2 21 1 22 96 23
REMARK SMILES IDX 97 24 101 25 98 26 100 27 99 28 18 29 19 30 20 31 21 32
REMARK SMILES IDX 22 33 23 34 24 35 25 36 26 37 90 38 27 39 89 40 28 41 29 42
REMARK SMILES IDX 30 43 83 44 31 45 88 46 82 47 84 48 32 49 87 50 81 51 80 52
REMARK SMILES IDX 33 54 67 55 46 56 66 57 47 58 50 59 65 60 85 61 48 62 49 63
REMARK SMILES IDX 64 65 86 66 51 67 34 68 35 69 44 70 36 71 37 72 43 73 45 74
REMARK SMILES IDX 38 75 39 76 40 77 41 78 42 79 68 80 69 81 78 82 70 83 71 84
REMARK SMILES IDX 77 85 79 86 72 87 73 88 74 89 75 90 76 91 52 92 53 93 62 94
REMARK SMILES IDX 54 95 55 96 61 97 63 98 56 99 57 100 58 101 59 102 60 103
REMARK H PARENT 84 53 50 64
REMARK Flexibility Score: inf
ROOT
ATOM      1  C   UNL A   1      36.285  31.276  28.925  1.00  0.00     0.188 C 
ENDROOT
BRANCH   1   2
ATOM      2  O   UNL A   1      35.882  32.310  28.034  1.00  0.00    -0.376 OA
BRANCH   2   3
ATOM      3  C   UNL A   1      34.520  32.286  27.626  1.00  0.00     0.202 C 
BRANCH   3   4
ATOM      4  C   UNL A   1      33.960  30.868  27.396  1.00  0.00     0.261 C 
BRANCH   4   5
ATOM      5  O   UNL A   1      32.516  30.797  27.488  1.00  0.00    -0.463 OA
BRANCH   5   6
ATOM      6  C   UNL A   1      31.750  31.256  26.476  1.00  0.00     0.306 C 
ATOM      7  O   UNL A   1      30.982  32.204  26.566  1.00  0.00    -0.252 OA
BRANCH   6   8
ATOM      8  C   UNL A   1      31.922  30.432  25.202  1.00  0.00     0.127 C 
BRANCH   8   9
ATOM      9  C   UNL A   1      30.896  29.314  24.915  1.00  0.00     0.051 C 
BRANCH   9  10
ATOM     10  C   UNL A   1      31.408  27.881  24.844  1.00  0.00    -0.005 A 
ATOM     11  C   UNL A   1      32.539  23.889  23.090  1.00  0.00     0.073 A 
ATOM     12  N   UNL A   1      31.964  25.001  22.641  1.00  0.00    -0.171 NA
ATOM     13  C   UNL A   1      32.824  23.984  24.472  1.00  0.00     0.050 A 
ATOM     14  N   UNL A   1      31.890  25.821  23.720  1.00  0.00    -0.219 N 
ATOM     15  C   UNL A   1      32.371  25.229  24.868  1.00  0.00     0.163 A 
ATOM     16  C   UNL A   1      31.426  27.129  23.716  1.00  0.00     0.046 A 
ATOM     17  N   UNL A   1      32.333  25.882  26.067  1.00  0.00    -0.233 NA
ATOM     18  C   UNL A   1      30.968  27.555  22.374  1.00  0.00     0.067 C 
ATOM     19  C   UNL A   1      31.849  27.096  26.079  1.00  0.00     0.045 A 
ATOM     20  C   UNL A   1      31.737  27.710  27.462  1.00  0.00     0.067 C 
BRANCH  11  21
ATOM     21  C   UNL A   1      32.784  22.787  22.119  1.00  0.00     0.055 C 
ATOM     22  C   UNL A   1      32.109  21.491  22.547  1.00  0.00     0.011 C 
ENDBRANCH  11  21
BRANCH  13  23
ATOM     23  C   UNL A   1      33.495  23.071  25.358  1.00  0.00    -0.013 A 
ATOM     24  C   UNL A   1      32.815  22.576  26.476  1.00  0.00     0.009 A 
ATOM     25  C   UNL A   1      34.797  22.644  25.081  1.00  0.00     0.009 A 
ATOM     26  C   UNL A   1      33.431  21.641  27.304  1.00  0.00     0.001 A 
ATOM     27  C   UNL A   1      35.411  21.712  25.915  1.00  0.00     0.001 A 
ATOM     28  C   UNL A   1      34.726  21.208  27.021  1.00  0.00     0.000 A 
ENDBRANCH  13  23
ENDBRANCH   9  10
ENDBRANCH   8   9
ENDBRANCH   6   8
ENDBRANCH   5   6
ENDBRANCH   4   5
ENDBRANCH   3   4
ENDBRANCH   2   3
ENDBRANCH   1   2
BRANCH   1  29
ATOM     29  C   UNL A   1      36.876  31.782  30.241  1.00  0.00     0.188 C 
BRANCH  29  30
ATOM     30  O   UNL A   1      36.068  32.760  30.912  1.00  0.00    -0.376 OA
BRANCH  30  31
ATOM     31  C   UNL A   1      36.634  33.378  32.077  1.00  0.00     0.202 C 
BRANCH  31  32
ATOM     32  C   UNL A   1      36.289  32.818  33.453  1.00  0.00     0.261 C 
BRANCH  32  33
ATOM     33  O   UNL A   1      36.660  31.471  33.561  1.00  0.00    -0.460 OA
BRANCH  33  34
ATOM     34  C   UNL A   1      37.778  31.263  34.298  1.00  0.00     0.338 C 
ATOM     35  O   UNL A   1      37.968  31.520  35.467  1.00  0.00    -0.246 OA
BRANCH  34  36
ATOM     36  C   UNL A   1      38.739  30.648  33.378  1.00  0.00     0.060 A 
ATOM     37  C   UNL A   1      38.489  29.337  32.987  1.00  0.00     0.016 A 
ATOM     38  C   UNL A   1      39.952  31.309  33.103  1.00  0.00     0.016 A 
ATOM     39  C   UNL A   1      39.574  28.584  32.620  1.00  0.00     0.010 A 
ATOM     40  C   UNL A   1      41.034  30.556  32.768  1.00  0.00     0.010 A 
ATOM     41  C   UNL A   1      40.833  29.189  32.659  1.00  0.00    -0.014 A 
BRANCH  41  42
ATOM     42  C   UNL A   1      41.986  28.336  32.653  1.00  0.00     0.031 A 
ATOM     43  C   UNL A   1      42.373  27.902  33.999  1.00  0.00     0.074 A 
ATOM     44  C   UNL A   1      42.548  27.953  31.494  1.00  0.00     0.049 A 
ATOM     45  N   UNL A   1      43.333  28.365  34.721  1.00  0.00    -0.248 NA
ATOM     46  C   UNL A   1      41.438  27.022  34.717  1.00  0.00     0.031 C 
ATOM     47  C   UNL A   1      42.020  28.090  30.133  1.00  0.00     0.029 A 
ATOM     48  N   UNL A   1      43.697  27.263  31.309  1.00  0.00    -0.354 N 
ATOM     49  C   UNL A   1      43.281  27.621  35.889  1.00  0.00     0.074 A 
ATOM     50  C   UNL A   1      41.970  27.033  35.939  1.00  0.00     0.031 C 
ATOM     51  C   UNL A   1      42.747  27.313  29.297  1.00  0.00     0.029 A 
ATOM     52  C   UNL A   1      43.855  26.732  30.037  1.00  0.00     0.049 A 
ATOM     53  H   UNL A   1      44.369  27.149  32.020  1.00  0.00     0.167 HD
ATOM     54  C   UNL A   1      44.422  27.278  36.541  1.00  0.00     0.037 A 
ATOM     55  C   UNL A   1      44.785  25.809  29.688  1.00  0.00     0.037 A 
ATOM     56  C   UNL A   1      45.531  28.102  36.125  1.00  0.00     0.049 A 
ATOM     57  C   UNL A   1      45.854  25.869  30.730  1.00  0.00     0.074 A 
ATOM     58  C   UNL A   1      45.773  29.463  36.124  1.00  0.00     0.029 A 
ATOM     59  N   UNL A   1      46.435  27.554  35.245  1.00  0.00    -0.354 N 
ATOM     60  N   UNL A   1      46.637  26.898  30.918  1.00  0.00    -0.248 NA
ATOM     61  C   UNL A   1      45.748  24.960  31.865  1.00  0.00     0.031 C 
ATOM     62  C   UNL A   1      46.503  29.715  34.927  1.00  0.00     0.029 A 
ATOM     63  C   UNL A   1      46.718  28.493  34.285  1.00  0.00     0.049 A 
ATOM     64  H   UNL A   1      46.814  26.647  35.295  1.00  0.00     0.167 HD
ATOM     65  C   UNL A   1      46.798  26.987  32.295  1.00  0.00     0.074 A 
ATOM     66  C   UNL A   1      46.305  25.716  32.816  1.00  0.00     0.031 C 
ATOM     67  C   UNL A   1      47.045  28.184  32.905  1.00  0.00     0.037 A 
BRANCH  54  68
ATOM     68  C   UNL A   1      44.601  25.953  37.236  1.00  0.00     0.058 A 
ATOM     69  C   UNL A   1      44.883  25.938  38.613  1.00  0.00     0.135 A 
ATOM     70  C   UNL A   1      44.762  24.718  36.564  1.00  0.00     0.135 A 
ATOM     71  F   UNL A   1      44.784  27.062  39.342  1.00  0.00    -0.206 F 
ATOM     72  C   UNL A   1      45.347  24.796  39.263  1.00  0.00     0.059 A 
ATOM     73  C   UNL A   1      45.158  23.554  37.204  1.00  0.00     0.059 A 
ATOM     74  F   UNL A   1      44.649  24.593  35.236  1.00  0.00    -0.206 F 
ATOM     75  C   UNL A   1      45.490  23.612  38.544  1.00  0.00     0.060 A 
BRANCH  75  76
ATOM     76  S   UNL A   1      46.189  22.163  39.348  1.00  0.00     0.124 S 
ATOM     77  O   UNL A   1      45.156  21.853  40.329  1.00  0.00    -0.237 OA
ATOM     78  O   UNL A   1      46.317  21.232  38.232  1.00  0.00    -0.237 OA
ATOM     79  O   UNL A   1      47.450  22.657  39.893  1.00  0.00    -0.744 OA
ENDBRANCH  75  76
ENDBRANCH  54  68
BRANCH  55  80
ATOM     80  C   UNL A   1      44.614  24.646  28.775  1.00  0.00     0.058 A 
ATOM     81  C   UNL A   1      43.690  23.628  29.078  1.00  0.00     0.135 A 
ATOM     82  C   UNL A   1      45.130  24.638  27.462  1.00  0.00     0.135 A 
ATOM     83  F   UNL A   1      43.137  23.563  30.299  1.00  0.00    -0.206 F 
ATOM     84  C   UNL A   1      43.254  22.705  28.122  1.00  0.00     0.059 A 
ATOM     85  C   UNL A   1      44.723  23.719  26.497  1.00  0.00     0.059 A 
ATOM     86  F   UNL A   1      45.981  25.586  27.041  1.00  0.00    -0.206 F 
ATOM     87  C   UNL A   1      43.760  22.774  26.824  1.00  0.00     0.060 A 
BRANCH  87  88
ATOM     88  S   UNL A   1      43.064  21.706  25.541  1.00  0.00     0.124 S 
ATOM     89  O   UNL A   1      43.684  22.241  24.334  1.00  0.00    -0.237 OA
ATOM     90  O   UNL A   1      43.519  20.387  25.962  1.00  0.00    -0.237 OA
ATOM     91  O   UNL A   1      41.625  21.933  25.656  1.00  0.00    -0.744 OA
ENDBRANCH  87  88
ENDBRANCH  55  80
BRANCH  67  92
ATOM     92  C   UNL A   1      47.467  29.353  32.051  1.00  0.00     0.058 A 
ATOM     93  C   UNL A   1      46.576  30.273  31.470  1.00  0.00     0.135 A 
ATOM     94  C   UNL A   1      48.835  29.666  32.000  1.00  0.00     0.135 A 
ATOM     95  F   UNL A   1      45.250  30.093  31.553  1.00  0.00    -0.206 F 
ATOM     96  C   UNL A   1      47.026  31.446  30.860  1.00  0.00     0.059 A 
ATOM     97  C   UNL A   1      49.303  30.843  31.423  1.00  0.00     0.059 A 
ATOM     98  F   UNL A   1      49.731  28.854  32.583  1.00  0.00    -0.206 F 
ATOM     99  C   UNL A   1      48.391  31.731  30.855  1.00  0.00     0.060 A 
BRANCH  99 100
ATOM    100  S   UNL A   1      48.960  33.314  30.193  1.00  0.00     0.124 S 
ATOM    101  O   UNL A   1      49.780  32.898  29.061  1.00  0.00    -0.237 OA
ATOM    102  O   UNL A   1      47.706  33.984  29.856  1.00  0.00    -0.237 OA
ATOM    103  O   UNL A   1      49.692  33.909  31.309  1.00  0.00    -0.744 OA
ENDBRANCH  99 100
ENDBRANCH  67  92
ENDBRANCH  41  42
ENDBRANCH  34  36
ENDBRANCH  33  34
ENDBRANCH  32  33
ENDBRANCH  31  32
ENDBRANCH  30  31
ENDBRANCH  29  30
ENDBRANCH   1  29
TORSDOF 24
ENDMDL
