MODEL 1
REMARK VINA RESULT:      -9.2      0.000      0.000
REMARK SMILES CCCC[C@@H](C(=O)OCCOCCOCCOC(=O)c1ccc(-c2c3nc(c(-c4c(F)cc(S(=O)(=O)[O-])cc4F)c4ccc([nH]4)c(-c4c(F)cc(S(=O)(=O)[O-])cc4F)c4nc(c(-c5c(F)cc(S(=O)(=O)[O-])cc5F)c5ccc2[nH]5)C=C4)C=C3)cc1)[C@](C)(O)c1cccc(Br)c1
REMARK SMILES IDX 12 1 11 2 10 3 9 4 8 5 6 6 7 7 5 8 4 9 3 10 2 11 1 12 86 13
REMARK SMILES IDX 87 14 88 15 89 17 90 18 95 19 91 20 93 21 92 22 94 23 13 24
REMARK SMILES IDX 14 25 15 26 16 27 17 28 18 29 19 30 20 31 21 32 85 33 22 34
REMARK SMILES IDX 84 35 23 36 24 37 25 38 78 39 26 40 83 41 77 42 79 43 27 44
REMARK SMILES IDX 82 45 76 46 75 47 28 49 62 50 41 51 61 52 42 53 45 54 60 55
REMARK SMILES IDX 80 56 43 57 44 58 59 60 81 61 46 62 29 63 30 64 39 65 31 66
REMARK SMILES IDX 32 67 38 68 40 69 33 70 34 71 35 72 36 73 37 74 63 75 64 76
REMARK SMILES IDX 73 77 65 78 66 79 72 80 74 81 67 82 68 83 69 84 70 85 71 86
REMARK SMILES IDX 47 87 48 88 57 89 49 90 50 91 56 92 58 93 51 94 52 95 53 96
REMARK SMILES IDX 54 97 55 98
REMARK H PARENT 88 16 79 48 45 59
REMARK Flexibility Score: inf
ROOT
ATOM      1  C   UNL A   1      41.332  22.105  26.426  1.00  0.00     0.188 C 
ENDROOT
BRANCH   1   2
ATOM      2  O   UNL A   1      40.055  21.613  26.060  1.00  0.00    -0.376 OA
BRANCH   2   3
ATOM      3  C   UNL A   1      38.946  22.501  26.166  1.00  0.00     0.202 C 
BRANCH   3   4
ATOM      4  C   UNL A   1      37.677  22.174  25.370  1.00  0.00     0.261 C 
BRANCH   4   5
ATOM      5  O   UNL A   1      36.943  23.369  25.029  1.00  0.00    -0.463 OA
BRANCH   5   6
ATOM      6  C   UNL A   1      36.022  23.233  24.046  1.00  0.00     0.312 C 
ATOM      7  O   UNL A   1      36.304  22.876  22.907  1.00  0.00    -0.252 OA
BRANCH   6   8
ATOM      8  C   UNL A   1      34.588  23.584  24.474  1.00  0.00     0.135 C 
BRANCH   8   9
ATOM      9  C   UNL A   1      34.451  24.980  25.110  1.00  0.00     0.019 C 
BRANCH   9  10
ATOM     10  C   UNL A   1      33.776  26.097  24.308  1.00  0.00     0.001 C 
BRANCH  10  11
ATOM     11  C   UNL A   1      33.609  25.827  22.817  1.00  0.00    -0.003 C 
ATOM     12  C   UNL A   1      32.274  25.187  22.466  1.00  0.00     0.004 C 
ENDBRANCH  10  11
ENDBRANCH   9  10
ENDBRANCH   8   9
BRANCH   8  13
ATOM     13  C   UNL A   1      33.737  22.373  25.117  1.00  0.00     0.100 C 
ATOM     14  C   UNL A   1      32.382  22.905  25.671  1.00  0.00     0.048 C 
BRANCH  13  15
ATOM     15  O   UNL A   1      34.510  21.986  26.286  1.00  0.00    -0.385 OA
ATOM     16  H   UNL A   1      35.435  21.844  26.030  1.00  0.00     0.211 HD
ENDBRANCH  13  15
BRANCH  13  17
ATOM     17  C   UNL A   1      33.520  20.979  24.448  1.00  0.00    -0.015 A 
ATOM     18  C   UNL A   1      32.492  20.809  23.482  1.00  0.00     0.007 A 
ATOM     19  C   UNL A   1      34.147  19.781  24.828  1.00  0.00     0.022 A 
ATOM     20  C   UNL A   1      32.159  19.564  22.915  1.00  0.00     0.002 A 
ATOM     21  C   UNL A   1      33.844  18.539  24.237  1.00  0.00     0.018 A 
ATOM     22  C   UNL A   1      32.859  18.425  23.272  1.00  0.00     0.016 A 
ATOM     23  Br  UNL A   1      34.792  16.993  24.783  1.00  0.00    -0.051 Br
ENDBRANCH  13  17
ENDBRANCH   8  13
ENDBRANCH   6   8
ENDBRANCH   5   6
ENDBRANCH   4   5
ENDBRANCH   3   4
ENDBRANCH   2   3
ENDBRANCH   1   2
BRANCH   1  24
ATOM     24  C   UNL A   1      41.754  22.043  27.902  1.00  0.00     0.188 C 
BRANCH  24  25
ATOM     25  O   UNL A   1      42.910  22.697  28.375  1.00  0.00    -0.376 OA
BRANCH  25  26
ATOM     26  C   UNL A   1      43.916  23.069  27.443  1.00  0.00     0.202 C 
BRANCH  26  27
ATOM     27  C   UNL A   1      44.638  24.435  27.469  1.00  0.00     0.261 C 
BRANCH  27  28
ATOM     28  O   UNL A   1      44.347  25.340  26.396  1.00  0.00    -0.460 OA
BRANCH  28  29
ATOM     29  C   UNL A   1      43.034  25.602  26.182  1.00  0.00     0.338 C 
ATOM     30  O   UNL A   1      42.327  25.172  25.273  1.00  0.00    -0.246 OA
BRANCH  29  31
ATOM     31  C   UNL A   1      42.511  26.398  27.303  1.00  0.00     0.060 A 
ATOM     32  C   UNL A   1      43.129  27.610  27.613  1.00  0.00     0.016 A 
ATOM     33  C   UNL A   1      41.448  25.941  28.083  1.00  0.00     0.016 A 
ATOM     34  C   UNL A   1      42.640  28.398  28.642  1.00  0.00     0.010 A 
ATOM     35  C   UNL A   1      41.003  26.714  29.167  1.00  0.00     0.010 A 
ATOM     36  C   UNL A   1      41.603  27.953  29.457  1.00  0.00    -0.014 A 
BRANCH  36  37
ATOM     37  C   UNL A   1      41.317  28.718  30.698  1.00  0.00     0.031 A 
ATOM     38  C   UNL A   1      40.132  29.642  30.720  1.00  0.00     0.074 A 
ATOM     39  C   UNL A   1      41.985  28.484  31.845  1.00  0.00     0.049 A 
ATOM     40  N   UNL A   1      39.784  30.521  31.623  1.00  0.00    -0.248 NA
ATOM     41  C   UNL A   1      39.205  29.548  29.581  1.00  0.00     0.031 C 
ATOM     42  C   UNL A   1      43.030  27.477  32.031  1.00  0.00     0.029 A 
ATOM     43  N   UNL A   1      41.865  29.071  33.082  1.00  0.00    -0.354 N 
ATOM     44  C   UNL A   1      38.634  31.128  31.133  1.00  0.00     0.074 A 
ATOM     45  C   UNL A   1      38.327  30.498  29.868  1.00  0.00     0.031 C 
ATOM     46  C   UNL A   1      43.449  27.513  33.307  1.00  0.00     0.029 A 
ATOM     47  C   UNL A   1      42.773  28.604  34.004  1.00  0.00     0.049 A 
ATOM     48  H   UNL A   1      41.192  29.759  33.289  1.00  0.00     0.167 HD
ATOM     49  C   UNL A   1      37.915  32.133  31.684  1.00  0.00     0.037 A 
ATOM     50  C   UNL A   1      43.071  29.048  35.242  1.00  0.00     0.037 A 
ATOM     51  C   UNL A   1      38.201  32.724  32.965  1.00  0.00     0.049 A 
ATOM     52  C   UNL A   1      42.346  30.253  35.787  1.00  0.00     0.074 A 
ATOM     53  C   UNL A   1      37.555  33.774  33.593  1.00  0.00     0.029 A 
ATOM     54  N   UNL A   1      39.210  32.307  33.821  1.00  0.00    -0.354 N 
ATOM     55  N   UNL A   1      41.347  30.922  35.262  1.00  0.00    -0.248 NA
ATOM     56  C   UNL A   1      42.815  30.787  37.074  1.00  0.00     0.031 C 
ATOM     57  C   UNL A   1      38.204  34.022  34.809  1.00  0.00     0.029 A 
ATOM     58  C   UNL A   1      39.223  33.095  34.959  1.00  0.00     0.049 A 
ATOM     59  H   UNL A   1      39.827  31.560  33.644  1.00  0.00     0.167 HD
ATOM     60  C   UNL A   1      41.071  31.955  36.153  1.00  0.00     0.074 A 
ATOM     61  C   UNL A   1      41.987  31.806  37.264  1.00  0.00     0.031 C 
ATOM     62  C   UNL A   1      40.147  32.943  36.055  1.00  0.00     0.037 A 
BRANCH  49  63
ATOM     63  C   UNL A   1      36.799  32.716  30.867  1.00  0.00     0.058 A 
ATOM     64  C   UNL A   1      35.464  32.315  31.020  1.00  0.00     0.135 A 
ATOM     65  C   UNL A   1      37.081  33.720  29.927  1.00  0.00     0.135 A 
ATOM     66  F   UNL A   1      35.145  31.339  31.884  1.00  0.00    -0.206 F 
ATOM     67  C   UNL A   1      34.448  32.881  30.255  1.00  0.00     0.059 A 
ATOM     68  C   UNL A   1      36.078  34.316  29.170  1.00  0.00     0.059 A 
ATOM     69  F   UNL A   1      38.345  34.132  29.736  1.00  0.00    -0.206 F 
ATOM     70  C   UNL A   1      34.765  33.881  29.333  1.00  0.00     0.060 A 
BRANCH  70  71
ATOM     71  S   UNL A   1      33.438  34.614  28.355  1.00  0.00     0.124 S 
ATOM     72  O   UNL A   1      34.189  35.459  27.432  1.00  0.00    -0.237 OA
ATOM     73  O   UNL A   1      32.801  33.442  27.764  1.00  0.00    -0.237 OA
ATOM     74  O   UNL A   1      32.637  35.326  29.345  1.00  0.00    -0.744 OA
ENDBRANCH  70  71
ENDBRANCH  49  63
BRANCH  50  75
ATOM     75  C   UNL A   1      44.180  28.421  36.013  1.00  0.00     0.058 A 
ATOM     76  C   UNL A   1      45.506  28.856  35.877  1.00  0.00     0.135 A 
ATOM     77  C   UNL A   1      43.931  27.354  36.895  1.00  0.00     0.135 A 
ATOM     78  F   UNL A   1      45.800  29.854  35.030  1.00  0.00    -0.206 F 
ATOM     79  C   UNL A   1      46.545  28.260  36.587  1.00  0.00     0.059 A 
ATOM     80  C   UNL A   1      44.948  26.765  37.637  1.00  0.00     0.059 A 
ATOM     81  F   UNL A   1      42.681  26.894  37.059  1.00  0.00    -0.206 F 
ATOM     82  C   UNL A   1      46.253  27.219  37.470  1.00  0.00     0.060 A 
BRANCH  82  83
ATOM     83  S   UNL A   1      47.594  26.494  38.439  1.00  0.00     0.124 S 
ATOM     84  O   UNL A   1      48.683  27.428  38.178  1.00  0.00    -0.237 OA
ATOM     85  O   UNL A   1      47.043  26.514  39.790  1.00  0.00    -0.237 OA
ATOM     86  O   UNL A   1      47.746  25.164  37.854  1.00  0.00    -0.744 OA
ENDBRANCH  82  83
ENDBRANCH  50  75
BRANCH  62  87
ATOM     87  C   UNL A   1      40.075  33.942  37.177  1.00  0.00     0.058 A 
ATOM     88  C   UNL A   1      40.758  35.167  37.111  1.00  0.00     0.135 A 
ATOM     89  C   UNL A   1      39.275  33.696  38.304  1.00  0.00     0.135 A 
ATOM     90  F   UNL A   1      41.541  35.448  36.058  1.00  0.00    -0.206 F 
ATOM     91  C   UNL A   1      40.666  36.105  38.134  1.00  0.00     0.059 A 
ATOM     92  C   UNL A   1      39.149  34.631  39.327  1.00  0.00     0.059 A 
ATOM     93  F   UNL A   1      38.593  32.545  38.412  1.00  0.00    -0.206 F 
ATOM     94  C   UNL A   1      39.858  35.829  39.238  1.00  0.00     0.060 A 
BRANCH  94  95
ATOM     95  S   UNL A   1      39.723  37.069  40.544  1.00  0.00     0.124 S 
ATOM     96  O   UNL A   1      40.864  36.730  41.389  1.00  0.00    -0.237 OA
ATOM     97  O   UNL A   1      39.835  38.320  39.801  1.00  0.00    -0.237 OA
ATOM     98  O   UNL A   1      38.411  36.808  41.127  1.00  0.00    -0.744 OA
ENDBRANCH  94  95
ENDBRANCH  62  87
ENDBRANCH  36  37
ENDBRANCH  29  31
ENDBRANCH  28  29
ENDBRANCH  27  28
ENDBRANCH  26  27
ENDBRANCH  25  26
ENDBRANCH  24  25
ENDBRANCH   1  24
TORSDOF 26
ENDMDL
MODEL 2
REMARK VINA RESULT:      -9.1      1.428      2.822
REMARK SMILES CCCC[C@@H](C(=O)OCCOCCOCCOC(=O)c1ccc(-c2c3nc(c(-c4c(F)cc(S(=O)(=O)[O-])cc4F)c4ccc([nH]4)c(-c4c(F)cc(S(=O)(=O)[O-])cc4F)c4nc(c(-c5c(F)cc(S(=O)(=O)[O-])cc5F)c5ccc2[nH]5)C=C4)C=C3)cc1)[C@](C)(O)c1cccc(Br)c1
REMARK SMILES IDX 12 1 11 2 10 3 9 4 8 5 6 6 7 7 5 8 4 9 3 10 2 11 1 12 86 13
REMARK SMILES IDX 87 14 88 15 89 17 90 18 95 19 91 20 93 21 92 22 94 23 13 24
REMARK SMILES IDX 14 25 15 26 16 27 17 28 18 29 19 30 20 31 21 32 85 33 22 34
REMARK SMILES IDX 84 35 23 36 24 37 25 38 78 39 26 40 83 41 77 42 79 43 27 44
REMARK SMILES IDX 82 45 76 46 75 47 28 49 62 50 41 51 61 52 42 53 45 54 60 55
REMARK SMILES IDX 80 56 43 57 44 58 59 60 81 61 46 62 29 63 30 64 39 65 31 66
REMARK SMILES IDX 32 67 38 68 40 69 33 70 34 71 35 72 36 73 37 74 63 75 64 76
REMARK SMILES IDX 73 77 65 78 66 79 72 80 74 81 67 82 68 83 69 84 70 85 71 86
REMARK SMILES IDX 47 87 48 88 57 89 49 90 50 91 56 92 58 93 51 94 52 95 53 96
REMARK SMILES IDX 54 97 55 98
REMARK H PARENT 88 16 79 48 45 59
REMARK Flexibility Score: inf
ROOT
ATOM      1  C   UNL A   1      40.075  21.478  26.102  1.00  0.00     0.188 C 
ENDROOT
BRANCH   1   2
ATOM      2  O   UNL A   1      38.821  22.017  26.486  1.00  0.00    -0.376 OA
BRANCH   2   3
ATOM      3  C   UNL A   1      38.519  23.348  26.079  1.00  0.00     0.202 C 
BRANCH   3   4
ATOM      4  C   UNL A   1      37.053  23.704  25.802  1.00  0.00     0.261 C 
BRANCH   4   5
ATOM      5  O   UNL A   1      36.178  22.586  26.060  1.00  0.00    -0.463 OA
BRANCH   5   6
ATOM      6  C   UNL A   1      35.455  22.147  25.003  1.00  0.00     0.312 C 
ATOM      7  O   UNL A   1      35.904  22.086  23.864  1.00  0.00    -0.252 OA
BRANCH   6   8
ATOM      8  C   UNL A   1      34.013  21.746  25.349  1.00  0.00     0.135 C 
BRANCH   8   9
ATOM      9  C   UNL A   1      33.482  20.556  24.529  1.00  0.00     0.019 C 
BRANCH   9  10
ATOM     10  C   UNL A   1      34.224  19.218  24.598  1.00  0.00     0.001 C 
BRANCH  10  11
ATOM     11  C   UNL A   1      33.426  17.999  24.151  1.00  0.00    -0.003 C 
ATOM     12  C   UNL A   1      32.547  18.265  22.938  1.00  0.00     0.004 C 
ENDBRANCH  10  11
ENDBRANCH   9  10
ENDBRANCH   8   9
BRANCH   8  13
ATOM     13  C   UNL A   1      33.002  22.968  25.648  1.00  0.00     0.100 C 
ATOM     14  C   UNL A   1      32.628  22.998  27.159  1.00  0.00     0.048 C 
BRANCH  13  15
ATOM     15  O   UNL A   1      31.783  22.592  24.952  1.00  0.00    -0.385 OA
ATOM     16  H   UNL A   1      31.909  21.733  24.519  1.00  0.00     0.211 HD
ENDBRANCH  13  15
BRANCH  13  17
ATOM     17  C   UNL A   1      33.186  24.428  25.124  1.00  0.00    -0.015 A 
ATOM     18  C   UNL A   1      33.273  24.674  23.727  1.00  0.00     0.007 A 
ATOM     19  C   UNL A   1      33.449  25.557  25.916  1.00  0.00     0.022 A 
ATOM     20  C   UNL A   1      33.550  25.939  23.177  1.00  0.00     0.002 A 
ATOM     21  C   UNL A   1      33.688  26.835  25.372  1.00  0.00     0.018 A 
ATOM     22  C   UNL A   1      33.728  27.035  24.004  1.00  0.00     0.016 A 
ATOM     23  Br  UNL A   1      33.974  28.302  26.535  1.00  0.00    -0.051 Br
ENDBRANCH  13  17
ENDBRANCH   8  13
ENDBRANCH   6   8
ENDBRANCH   5   6
ENDBRANCH   4   5
ENDBRANCH   3   4
ENDBRANCH   2   3
ENDBRANCH   1   2
BRANCH   1  24
ATOM     24  C   UNL A   1      41.133  21.220  27.186  1.00  0.00     0.188 C 
BRANCH  24  25
ATOM     25  O   UNL A   1      42.486  20.992  26.867  1.00  0.00    -0.376 OA
BRANCH  25  26
ATOM     26  C   UNL A   1      43.380  22.097  26.837  1.00  0.00     0.202 C 
BRANCH  26  27
ATOM     27  C   UNL A   1      43.272  23.254  25.819  1.00  0.00     0.261 C 
BRANCH  27  28
ATOM     28  O   UNL A   1      42.607  24.444  26.262  1.00  0.00    -0.460 OA
BRANCH  28  29
ATOM     29  C   UNL A   1      43.403  25.522  26.475  1.00  0.00     0.338 C 
ATOM     30  O   UNL A   1      44.388  25.862  25.823  1.00  0.00    -0.246 OA
BRANCH  29  31
ATOM     31  C   UNL A   1      42.831  26.338  27.558  1.00  0.00     0.060 A 
ATOM     32  C   UNL A   1      43.385  27.590  27.820  1.00  0.00     0.016 A 
ATOM     33  C   UNL A   1      41.783  25.862  28.347  1.00  0.00     0.016 A 
ATOM     34  C   UNL A   1      42.847  28.396  28.812  1.00  0.00     0.010 A 
ATOM     35  C   UNL A   1      41.290  26.657  29.394  1.00  0.00     0.010 A 
ATOM     36  C   UNL A   1      41.824  27.934  29.636  1.00  0.00    -0.014 A 
BRANCH  36  37
ATOM     37  C   UNL A   1      41.489  28.736  30.841  1.00  0.00     0.031 A 
ATOM     38  C   UNL A   1      40.291  29.643  30.795  1.00  0.00     0.074 A 
ATOM     39  C   UNL A   1      42.123  28.550  32.016  1.00  0.00     0.049 A 
ATOM     40  N   UNL A   1      39.902  30.546  31.656  1.00  0.00    -0.248 NA
ATOM     41  C   UNL A   1      39.402  29.497  29.631  1.00  0.00     0.031 C 
ATOM     42  C   UNL A   1      43.175  27.566  32.268  1.00  0.00     0.029 A 
ATOM     43  N   UNL A   1      41.955  29.176  33.228  1.00  0.00    -0.354 N 
ATOM     44  C   UNL A   1      38.760  31.119  31.110  1.00  0.00     0.074 A 
ATOM     45  C   UNL A   1      38.502  30.443  29.858  1.00  0.00     0.031 C 
ATOM     46  C   UNL A   1      43.553  27.650  33.555  1.00  0.00     0.029 A 
ATOM     47  C   UNL A   1      42.839  28.754  34.193  1.00  0.00     0.049 A 
ATOM     48  H   UNL A   1      41.266  29.861  33.390  1.00  0.00     0.167 HD
ATOM     49  C   UNL A   1      38.009  32.131  31.604  1.00  0.00     0.037 A 
ATOM     50  C   UNL A   1      43.092  29.243  35.425  1.00  0.00     0.037 A 
ATOM     51  C   UNL A   1      38.247  32.768  32.873  1.00  0.00     0.049 A 
ATOM     52  C   UNL A   1      42.333  30.454  35.905  1.00  0.00     0.074 A 
ATOM     53  C   UNL A   1      37.567  33.829  33.444  1.00  0.00     0.029 A 
ATOM     54  N   UNL A   1      39.233  32.395  33.773  1.00  0.00    -0.354 N 
ATOM     55  N   UNL A   1      41.342  31.090  35.327  1.00  0.00    -0.248 NA
ATOM     56  C   UNL A   1      42.753  31.038  37.188  1.00  0.00     0.031 C 
ATOM     57  C   UNL A   1      38.173  34.127  34.671  1.00  0.00     0.029 A 
ATOM     58  C   UNL A   1      39.198  33.221  34.884  1.00  0.00     0.049 A 
ATOM     59  H   UNL A   1      39.866  31.652  33.642  1.00  0.00     0.167 HD
ATOM     60  C   UNL A   1      41.023  32.149  36.173  1.00  0.00     0.074 A 
ATOM     61  C   UNL A   1      41.905  32.050  37.317  1.00  0.00     0.031 C 
ATOM     62  C   UNL A   1      40.089  33.119  36.013  1.00  0.00     0.037 A 
BRANCH  49  63
ATOM     63  C   UNL A   1      36.912  32.670  30.733  1.00  0.00     0.058 A 
ATOM     64  C   UNL A   1      37.142  33.627  29.735  1.00  0.00     0.135 A 
ATOM     65  C   UNL A   1      35.602  32.188  30.894  1.00  0.00     0.135 A 
ATOM     66  F   UNL A   1      38.370  34.140  29.560  1.00  0.00    -0.206 F 
ATOM     67  C   UNL A   1      36.106  34.101  28.936  1.00  0.00     0.059 A 
ATOM     68  C   UNL A   1      34.557  32.629  30.090  1.00  0.00     0.059 A 
ATOM     69  F   UNL A   1      35.328  31.278  31.842  1.00  0.00    -0.206 F 
ATOM     70  C   UNL A   1      34.817  33.595  29.120  1.00  0.00     0.060 A 
BRANCH  70  71
ATOM     71  S   UNL A   1      33.484  34.210  28.070  1.00  0.00     0.124 S 
ATOM     72  O   UNL A   1      32.721  35.020  29.014  1.00  0.00    -0.237 OA
ATOM     73  O   UNL A   1      34.211  34.949  27.043  1.00  0.00    -0.237 OA
ATOM     74  O   UNL A   1      32.823  32.993  27.612  1.00  0.00    -0.744 OA
ENDBRANCH  70  71
ENDBRANCH  49  63
BRANCH  50  75
ATOM     75  C   UNL A   1      44.183  28.659  36.251  1.00  0.00     0.058 A 
ATOM     76  C   UNL A   1      45.498  29.139  36.175  1.00  0.00     0.135 A 
ATOM     77  C   UNL A   1      43.930  27.588  37.126  1.00  0.00     0.135 A 
ATOM     78  F   UNL A   1      45.798  30.142  35.336  1.00  0.00    -0.206 F 
ATOM     79  C   UNL A   1      46.523  28.583  36.937  1.00  0.00     0.059 A 
ATOM     80  C   UNL A   1      44.930  27.037  37.920  1.00  0.00     0.059 A 
ATOM     81  F   UNL A   1      42.691  27.085  37.234  1.00  0.00    -0.206 F 
ATOM     82  C   UNL A   1      46.226  27.536  37.811  1.00  0.00     0.060 A 
BRANCH  82  83
ATOM     83  S   UNL A   1      47.544  26.862  38.846  1.00  0.00     0.124 S 
ATOM     84  O   UNL A   1      46.798  26.420  40.019  1.00  0.00    -0.237 OA
ATOM     85  O   UNL A   1      48.090  25.806  38.000  1.00  0.00    -0.237 OA
ATOM     86  O   UNL A   1      48.425  28.008  39.052  1.00  0.00    -0.744 OA
ENDBRANCH  82  83
ENDBRANCH  50  75
BRANCH  62  87
ATOM     87  C   UNL A   1      39.968  34.153  37.098  1.00  0.00     0.058 A 
ATOM     88  C   UNL A   1      40.614  35.396  37.000  1.00  0.00     0.135 A 
ATOM     89  C   UNL A   1      39.157  33.922  38.221  1.00  0.00     0.135 A 
ATOM     90  F   UNL A   1      41.405  35.665  35.950  1.00  0.00    -0.206 F 
ATOM     91  C   UNL A   1      40.476  36.366  37.988  1.00  0.00     0.059 A 
ATOM     92  C   UNL A   1      38.985  34.887  39.208  1.00  0.00     0.059 A 
ATOM     93  F   UNL A   1      38.509  32.754  38.358  1.00  0.00    -0.206 F 
ATOM     94  C   UNL A   1      39.658  36.103  39.088  1.00  0.00     0.060 A 
BRANCH  94  95
ATOM     95  S   UNL A   1      39.463  37.382  40.347  1.00  0.00     0.124 S 
ATOM     96  O   UNL A   1      38.672  38.379  39.633  1.00  0.00    -0.237 OA
ATOM     97  O   UNL A   1      38.769  36.668  41.414  1.00  0.00    -0.237 OA
ATOM     98  O   UNL A   1      40.836  37.772  40.653  1.00  0.00    -0.744 OA
ENDBRANCH  94  95
ENDBRANCH  62  87
ENDBRANCH  36  37
ENDBRANCH  29  31
ENDBRANCH  28  29
ENDBRANCH  27  28
ENDBRANCH  26  27
ENDBRANCH  25  26
ENDBRANCH  24  25
ENDBRANCH   1  24
TORSDOF 26
ENDMDL
MODEL 3
REMARK VINA RESULT:      -9.0      2.093      3.706
REMARK SMILES CCCC[C@@H](C(=O)OCCOCCOCCOC(=O)c1ccc(-c2c3nc(c(-c4c(F)cc(S(=O)(=O)[O-])cc4F)c4ccc([nH]4)c(-c4c(F)cc(S(=O)(=O)[O-])cc4F)c4nc(c(-c5c(F)cc(S(=O)(=O)[O-])cc5F)c5ccc2[nH]5)C=C4)C=C3)cc1)[C@](C)(O)c1cccc(Br)c1
REMARK SMILES IDX 12 1 11 2 10 3 9 4 8 5 6 6 7 7 5 8 4 9 3 10 2 11 1 12 86 13
REMARK SMILES IDX 87 14 88 15 89 17 90 18 95 19 91 20 93 21 92 22 94 23 13 24
REMARK SMILES IDX 14 25 15 26 16 27 17 28 18 29 19 30 20 31 21 32 85 33 22 34
REMARK SMILES IDX 84 35 23 36 24 37 25 38 78 39 26 40 83 41 77 42 79 43 27 44
REMARK SMILES IDX 82 45 76 46 75 47 28 49 62 50 41 51 61 52 42 53 45 54 60 55
REMARK SMILES IDX 80 56 43 57 44 58 59 60 81 61 46 62 29 63 30 64 39 65 31 66
REMARK SMILES IDX 32 67 38 68 40 69 33 70 34 71 35 72 36 73 37 74 63 75 64 76
REMARK SMILES IDX 73 77 65 78 66 79 72 80 74 81 67 82 68 83 69 84 70 85 71 86
REMARK SMILES IDX 47 87 48 88 57 89 49 90 50 91 56 92 58 93 51 94 52 95 53 96
REMARK SMILES IDX 54 97 55 98
REMARK H PARENT 88 16 79 48 45 59
REMARK Flexibility Score: inf
ROOT
ATOM      1  C   UNL A   1      37.274  20.808  24.803  1.00  0.00     0.188 C 
ENDROOT
BRANCH   1   2
ATOM      2  O   UNL A   1      36.001  20.557  25.374  1.00  0.00    -0.376 OA
BRANCH   2   3
ATOM      3  C   UNL A   1      34.885  21.265  24.842  1.00  0.00     0.202 C 
BRANCH   3   4
ATOM      4  C   UNL A   1      34.352  22.470  25.627  1.00  0.00     0.261 C 
BRANCH   4   5
ATOM      5  O   UNL A   1      32.976  22.753  25.294  1.00  0.00    -0.463 OA
BRANCH   5   6
ATOM      6  C   UNL A   1      32.313  23.555  26.159  1.00  0.00     0.312 C 
ATOM      7  O   UNL A   1      32.030  23.217  27.304  1.00  0.00    -0.252 OA
BRANCH   6   8
ATOM      8  C   UNL A   1      31.926  24.925  25.579  1.00  0.00     0.135 C 
BRANCH   8   9
ATOM      9  C   UNL A   1      31.019  24.843  24.339  1.00  0.00     0.019 C 
BRANCH   9  10
ATOM     10  C   UNL A   1      29.959  25.926  24.122  1.00  0.00     0.001 C 
BRANCH  10  11
ATOM     11  C   UNL A   1      30.291  26.968  23.060  1.00  0.00    -0.003 C 
ATOM     12  C   UNL A   1      29.567  28.290  23.265  1.00  0.00     0.004 C 
ENDBRANCH  10  11
ENDBRANCH   9  10
ENDBRANCH   8   9
BRANCH   8  13
ATOM     13  C   UNL A   1      33.093  26.040  25.591  1.00  0.00     0.100 C 
ATOM     14  C   UNL A   1      33.718  26.176  24.171  1.00  0.00     0.048 C 
BRANCH  13  15
ATOM     15  O   UNL A   1      34.132  25.450  26.419  1.00  0.00    -0.385 OA
ATOM     16  H   UNL A   1      34.960  25.940  26.297  1.00  0.00     0.211 HD
ENDBRANCH  13  15
BRANCH  13  17
ATOM     17  C   UNL A   1      32.974  27.451  26.251  1.00  0.00    -0.015 A 
ATOM     18  C   UNL A   1      31.702  28.071  26.371  1.00  0.00     0.007 A 
ATOM     19  C   UNL A   1      34.048  28.283  26.607  1.00  0.00     0.022 A 
ATOM     20  C   UNL A   1      31.520  29.382  26.850  1.00  0.00     0.002 A 
ATOM     21  C   UNL A   1      33.871  29.582  27.122  1.00  0.00     0.018 A 
ATOM     22  C   UNL A   1      32.610  30.133  27.257  1.00  0.00     0.016 A 
ATOM     23  Br  UNL A   1      35.388  30.597  27.626  1.00  0.00    -0.051 Br
ENDBRANCH  13  17
ENDBRANCH   8  13
ENDBRANCH   6   8
ENDBRANCH   5   6
ENDBRANCH   4   5
ENDBRANCH   3   4
ENDBRANCH   2   3
ENDBRANCH   1   2
BRANCH   1  24
ATOM     24  C   UNL A   1      38.334  21.534  25.646  1.00  0.00     0.188 C 
BRANCH  24  25
ATOM     25  O   UNL A   1      39.591  20.959  25.919  1.00  0.00    -0.376 OA
BRANCH  25  26
ATOM     26  C   UNL A   1      40.494  21.656  26.767  1.00  0.00     0.202 C 
BRANCH  26  27
ATOM     27  C   UNL A   1      40.428  23.181  27.012  1.00  0.00     0.261 C 
BRANCH  27  28
ATOM     28  O   UNL A   1      41.672  23.892  26.994  1.00  0.00    -0.460 OA
BRANCH  28  29
ATOM     29  C   UNL A   1      41.629  25.149  26.485  1.00  0.00     0.338 C 
ATOM     30  O   UNL A   1      41.718  25.478  25.304  1.00  0.00    -0.246 OA
BRANCH  29  31
ATOM     31  C   UNL A   1      41.316  26.097  27.566  1.00  0.00     0.060 A 
ATOM     32  C   UNL A   1      42.265  27.058  27.913  1.00  0.00     0.016 A 
ATOM     33  C   UNL A   1      40.115  26.019  28.272  1.00  0.00     0.016 A 
ATOM     34  C   UNL A   1      41.986  27.985  28.905  1.00  0.00     0.010 A 
ATOM     35  C   UNL A   1      39.870  26.919  29.321  1.00  0.00     0.010 A 
ATOM     36  C   UNL A   1      40.811  27.911  29.648  1.00  0.00    -0.014 A 
BRANCH  36  37
ATOM     37  C   UNL A   1      40.704  28.757  30.864  1.00  0.00     0.031 A 
ATOM     38  C   UNL A   1      39.627  29.803  30.925  1.00  0.00     0.074 A 
ATOM     39  C   UNL A   1      41.432  28.505  31.971  1.00  0.00     0.049 A 
ATOM     40  N   UNL A   1      39.444  30.754  31.802  1.00  0.00    -0.248 NA
ATOM     41  C   UNL A   1      38.609  29.758  29.862  1.00  0.00     0.031 C 
ATOM     42  C   UNL A   1      42.379  27.401  32.133  1.00  0.00     0.029 A 
ATOM     43  N   UNL A   1      41.471  29.156  33.180  1.00  0.00    -0.354 N 
ATOM     44  C   UNL A   1      38.328  31.459  31.367  1.00  0.00     0.074 A 
ATOM     45  C   UNL A   1      37.859  30.809  30.162  1.00  0.00     0.031 C 
ATOM     46  C   UNL A   1      42.898  27.448  33.371  1.00  0.00     0.029 A 
ATOM     47  C   UNL A   1      42.394  28.636  34.057  1.00  0.00     0.049 A 
ATOM     48  H   UNL A   1      40.891  29.921  33.399  1.00  0.00     0.167 HD
ATOM     49  C   UNL A   1      37.762  32.559  31.915  1.00  0.00     0.037 A 
ATOM     50  C   UNL A   1      42.833  29.101  35.245  1.00  0.00     0.037 A 
ATOM     51  C   UNL A   1      38.207  33.172  33.139  1.00  0.00     0.049 A 
ATOM     52  C   UNL A   1      42.282  30.400  35.777  1.00  0.00     0.074 A 
ATOM     53  C   UNL A   1      37.725  34.312  33.755  1.00  0.00     0.029 A 
ATOM     54  N   UNL A   1      39.231  32.688  33.939  1.00  0.00    -0.354 N 
ATOM     55  N   UNL A   1      41.319  31.147  35.292  1.00  0.00    -0.248 NA
ATOM     56  C   UNL A   1      42.903  30.937  36.996  1.00  0.00     0.031 C 
ATOM     57  C   UNL A   1      38.489  34.544  34.906  1.00  0.00     0.029 A 
ATOM     58  C   UNL A   1      39.414  33.521  35.030  1.00  0.00     0.049 A 
ATOM     59  H   UNL A   1      39.752  31.873  33.758  1.00  0.00     0.167 HD
ATOM     60  C   UNL A   1      41.222  32.243  36.144  1.00  0.00     0.074 A 
ATOM     61  C   UNL A   1      42.202  32.047  37.192  1.00  0.00     0.031 C 
ATOM     62  C   UNL A   1      40.401  33.319  36.062  1.00  0.00     0.037 A 
BRANCH  49  63
ATOM     63  C   UNL A   1      36.652  33.221  31.152  1.00  0.00     0.058 A 
ATOM     64  C   UNL A   1      36.851  33.826  29.903  1.00  0.00     0.135 A 
ATOM     65  C   UNL A   1      35.351  33.221  31.684  1.00  0.00     0.135 A 
ATOM     66  F   UNL A   1      38.079  33.877  29.364  1.00  0.00    -0.206 F 
ATOM     67  C   UNL A   1      35.799  34.423  29.214  1.00  0.00     0.059 A 
ATOM     68  C   UNL A   1      34.282  33.790  31.001  1.00  0.00     0.059 A 
ATOM     69  F   UNL A   1      35.111  32.663  32.881  1.00  0.00    -0.206 F 
ATOM     70  C   UNL A   1      34.519  34.400  29.771  1.00  0.00     0.060 A 
BRANCH  70  71
ATOM     71  S   UNL A   1      33.162  35.168  28.863  1.00  0.00     0.124 S 
ATOM     72  O   UNL A   1      32.164  35.331  29.915  1.00  0.00    -0.237 OA
ATOM     73  O   UNL A   1      33.772  36.400  28.373  1.00  0.00    -0.237 OA
ATOM     74  O   UNL A   1      32.837  34.183  27.837  1.00  0.00    -0.744 OA
ENDBRANCH  70  71
ENDBRANCH  49  63
BRANCH  50  75
ATOM     75  C   UNL A   1      43.928  28.394  35.965  1.00  0.00     0.058 A 
ATOM     76  C   UNL A   1      43.658  27.374  36.889  1.00  0.00     0.135 A 
ATOM     77  C   UNL A   1      45.273  28.741  35.751  1.00  0.00     0.135 A 
ATOM     78  F   UNL A   1      42.390  27.023  37.149  1.00  0.00    -0.206 F 
ATOM     79  C   UNL A   1      44.681  26.722  37.574  1.00  0.00     0.059 A 
ATOM     80  C   UNL A   1      46.312  28.083  36.399  1.00  0.00     0.059 A 
ATOM     81  F   UNL A   1      45.588  29.713  34.881  1.00  0.00    -0.206 F 
ATOM     82  C   UNL A   1      46.005  27.081  37.316  1.00  0.00     0.060 A 
BRANCH  82  83
ATOM     83  S   UNL A   1      47.331  26.187  38.156  1.00  0.00     0.124 S 
ATOM     84  O   UNL A   1      47.909  27.236  38.990  1.00  0.00    -0.237 OA
ATOM     85  O   UNL A   1      46.598  25.141  38.862  1.00  0.00    -0.237 OA
ATOM     86  O   UNL A   1      48.169  25.721  37.055  1.00  0.00    -0.744 OA
ENDBRANCH  82  83
ENDBRANCH  50  75
BRANCH  62  87
ATOM     87  C   UNL A   1      40.521  34.369  37.132  1.00  0.00     0.058 A 
ATOM     88  C   UNL A   1      41.332  35.502  36.957  1.00  0.00     0.135 A 
ATOM     89  C   UNL A   1      39.779  34.270  38.320  1.00  0.00     0.135 A 
ATOM     90  F   UNL A   1      42.066  35.643  35.843  1.00  0.00    -0.206 F 
ATOM     91  C   UNL A   1      41.418  36.491  37.933  1.00  0.00     0.059 A 
ATOM     92  C   UNL A   1      39.831  35.259  39.298  1.00  0.00     0.059 A 
ATOM     93  F   UNL A   1      38.980  33.212  38.532  1.00  0.00    -0.206 F 
ATOM     94  C   UNL A   1      40.663  36.360  39.100  1.00  0.00     0.060 A 
BRANCH  94  95
ATOM     95  S   UNL A   1      40.761  37.665  40.344  1.00  0.00     0.124 S 
ATOM     96  O   UNL A   1      41.943  38.400  39.907  1.00  0.00    -0.237 OA
ATOM     97  O   UNL A   1      39.487  38.356  40.175  1.00  0.00    -0.237 OA
ATOM     98  O   UNL A   1      40.906  36.930  41.598  1.00  0.00    -0.744 OA
ENDBRANCH  94  95
ENDBRANCH  62  87
ENDBRANCH  36  37
ENDBRANCH  29  31
ENDBRANCH  28  29
ENDBRANCH  27  28
ENDBRANCH  26  27
ENDBRANCH  25  26
ENDBRANCH  24  25
ENDBRANCH   1  24
TORSDOF 26
ENDMDL
