MODEL 1
REMARK VINA RESULT:     -11.2      0.000      0.000
REMARK SMILES Cc1ccc([C@H](C)NC(=O)[C@H]2[C@@H]3CC[C@@H](C3)[C@@H]2C(=O)OCCOCCOCCOC(=O)c2ccc(-c3c4nc(c(-c5c(F)cc(S(=O)(=O)[O-])cc5F)c5ccc([nH]5)c(-c5c(F)cc(S(=O)(=O)[O-])cc5F)c5nc(c(-c6c(F)cc(S(=O)(=O)[O-])cc6F)c6ccc3[nH]6)C=C5)C=C4)cc2)cc1
REMARK SMILES IDX 24 1 23 2 22 3 21 4 20 5 18 6 19 7 17 8 11 9 12 10 13 11
REMARK SMILES IDX 16 12 15 13 14 14 9 15 8 16 10 18 6 19 7 20 5 21 1 22 2 23
REMARK SMILES IDX 3 24 99 25 4 26 98 27 25 28 26 29 27 30 28 31 29 32 30 33
REMARK SMILES IDX 31 34 32 35 33 36 97 37 34 38 96 39 35 40 36 41 37 42 90 43
REMARK SMILES IDX 38 44 95 45 89 46 91 47 39 48 94 49 88 50 87 51 40 53 74 54
REMARK SMILES IDX 53 55 73 56 54 57 57 58 72 59 92 60 55 61 56 62 71 64 93 65
REMARK SMILES IDX 58 66 41 67 42 68 51 69 43 70 44 71 50 72 52 73 45 74 46 75
REMARK SMILES IDX 47 76 48 77 49 78 75 79 76 80 85 81 77 82 78 83 84 84 86 85
REMARK SMILES IDX 79 86 80 87 81 88 82 89 83 90 59 91 60 92 69 93 61 94 62 95
REMARK SMILES IDX 68 96 70 97 63 98 64 99 65 100 66 101 67 102
REMARK H PARENT 8 17 91 52 57 63
REMARK Flexibility Score: inf
ROOT
ATOM      1  C   UNL A   1      32.655  32.619  27.525  1.00  0.00     0.188 C 
ENDROOT
BRANCH   1   2
ATOM      2  O   UNL A   1      33.051  31.248  27.377  1.00  0.00    -0.376 OA
BRANCH   2   3
ATOM      3  C   UNL A   1      34.385  30.774  27.517  1.00  0.00     0.202 C 
BRANCH   3   4
ATOM      4  C   UNL A   1      34.721  29.198  27.350  1.00  0.00     0.261 C 
BRANCH   4   5
ATOM      5  O   UNL A   1      34.001  28.333  26.355  1.00  0.00    -0.463 OA
BRANCH   5   6
ATOM      6  C   UNL A   1      33.596  28.426  25.007  1.00  0.00     0.310 C 
ATOM      7  O   UNL A   1      34.382  28.644  24.127  1.00  0.00    -0.252 OA
BRANCH   6   8
ATOM      8  C   UNL A   1      31.837  28.090  24.712  1.00  0.00     0.115 C 
ATOM      9  C   UNL A   1      31.630  26.579  24.889  1.00  0.00     0.096 C 
ATOM     10  C   UNL A   1      30.532  26.205  23.863  1.00  0.00     0.002 C 
ATOM     11  C   UNL A   1      30.971  26.520  22.406  1.00  0.00     0.005 C 
ATOM     12  C   UNL A   1      29.541  27.321  24.067  1.00  0.00     0.009 C 
ATOM     13  C   UNL A   1      30.589  28.429  23.734  1.00  0.00     0.004 C 
ATOM     14  C   UNL A   1      30.675  28.010  22.275  1.00  0.00     0.005 C 
BRANCH   9  15
ATOM     15  C   UNL A   1      31.359  26.136  26.352  1.00  0.00     0.224 C 
ATOM     16  N   UNL A   1      31.421  24.876  26.877  1.00  0.00    -0.349 N 
ATOM     17  H   UNL A   1      30.928  24.813  27.727  1.00  0.00     0.164 HD
ATOM     18  O   UNL A   1      31.028  27.017  27.159  1.00  0.00    -0.275 OA
BRANCH  16  19
ATOM     19  C   UNL A   1      32.031  23.582  26.507  1.00  0.00     0.109 C 
ATOM     20  C   UNL A   1      30.956  22.672  25.890  1.00  0.00     0.036 C 
BRANCH  19  21
ATOM     21  C   UNL A   1      33.180  23.612  25.516  1.00  0.00    -0.026 A 
ATOM     22  C   UNL A   1      36.653  22.798  23.125  1.00  0.00     0.044 C 
ATOM     23  C   UNL A   1      35.456  23.162  23.942  1.00  0.00    -0.051 A 
ATOM     24  C   UNL A   1      35.604  23.659  25.235  1.00  0.00     0.004 A 
ATOM     25  C   UNL A   1      34.176  23.012  23.399  1.00  0.00     0.004 A 
ATOM     26  C   UNL A   1      34.475  23.876  26.018  1.00  0.00     0.006 A 
ATOM     27  C   UNL A   1      33.043  23.223  24.182  1.00  0.00     0.006 A 
ENDBRANCH  19  21
ENDBRANCH  16  19
ENDBRANCH   9  15
ENDBRANCH   6   8
ENDBRANCH   5   6
ENDBRANCH   4   5
ENDBRANCH   3   4
ENDBRANCH   2   3
ENDBRANCH   1   2
BRANCH   1  28
ATOM     28  C   UNL A   1      33.552  33.630  28.220  1.00  0.00     0.188 C 
BRANCH  28  29
ATOM     29  O   UNL A   1      32.742  34.407  29.079  1.00  0.00    -0.376 OA
BRANCH  29  30
ATOM     30  C   UNL A   1      33.035  35.783  29.144  1.00  0.00     0.202 C 
BRANCH  30  31
ATOM     31  C   UNL A   1      32.607  36.383  30.480  1.00  0.00     0.261 C 
BRANCH  31  32
ATOM     32  O   UNL A   1      32.674  35.433  31.571  1.00  0.00    -0.460 OA
BRANCH  32  33
ATOM     33  C   UNL A   1      33.743  35.524  32.436  1.00  0.00     0.338 C 
ATOM     34  O   UNL A   1      33.814  36.386  33.290  1.00  0.00    -0.246 OA
BRANCH  33  35
ATOM     35  C   UNL A   1      34.622  34.321  32.356  1.00  0.00     0.060 A 
ATOM     36  C   UNL A   1      34.640  33.172  33.143  1.00  0.00     0.016 A 
ATOM     37  C   UNL A   1      35.540  34.332  31.365  1.00  0.00     0.016 A 
ATOM     38  C   UNL A   1      35.697  32.149  33.039  1.00  0.00     0.010 A 
ATOM     39  C   UNL A   1      36.563  33.367  31.356  1.00  0.00     0.010 A 
ATOM     40  C   UNL A   1      36.829  32.240  32.191  1.00  0.00    -0.014 A 
BRANCH  40  41
ATOM     41  C   UNL A   1      38.264  31.301  32.362  1.00  0.00     0.031 A 
ATOM     42  C   UNL A   1      39.011  29.855  31.715  1.00  0.00     0.074 A 
ATOM     43  C   UNL A   1      39.268  32.055  32.884  1.00  0.00     0.049 A 
ATOM     44  N   UNL A   1      40.312  29.590  31.819  1.00  0.00    -0.248 NA
ATOM     45  C   UNL A   1      38.483  28.667  30.979  1.00  0.00     0.031 C 
ATOM     46  C   UNL A   1      40.689  32.040  32.515  1.00  0.00     0.029 A 
ATOM     47  N   UNL A   1      39.219  33.029  33.878  1.00  0.00    -0.354 N 
ATOM     48  C   UNL A   1      40.688  28.534  30.975  1.00  0.00     0.074 A 
ATOM     49  C   UNL A   1      39.498  27.911  30.598  1.00  0.00     0.031 C 
ATOM     50  C   UNL A   1      41.395  32.703  33.431  1.00  0.00     0.029 A 
ATOM     51  C   UNL A   1      40.477  33.047  34.484  1.00  0.00     0.049 A 
ATOM     52  H   UNL A   1      38.447  33.596  34.108  1.00  0.00     0.167 HD
ATOM     53  C   UNL A   1      41.949  28.238  30.559  1.00  0.00     0.037 A 
ATOM     54  C   UNL A   1      40.630  32.800  35.809  1.00  0.00     0.037 A 
ATOM     55  C   UNL A   1      42.907  28.854  31.440  1.00  0.00     0.049 A 
ATOM     56  C   UNL A   1      41.663  31.757  36.102  1.00  0.00     0.074 A 
ATOM     57  C   UNL A   1      43.787  29.908  31.328  1.00  0.00     0.029 A 
ATOM     58  N   UNL A   1      42.878  28.487  32.781  1.00  0.00    -0.354 N 
ATOM     59  N   UNL A   1      42.173  30.980  35.184  1.00  0.00    -0.248 NA
ATOM     60  C   UNL A   1      42.240  31.503  37.415  1.00  0.00     0.031 C 
ATOM     61  C   UNL A   1      44.208  30.244  32.646  1.00  0.00     0.029 A 
ATOM     62  C   UNL A   1      43.634  29.352  33.542  1.00  0.00     0.049 A 
ATOM     63  H   UNL A   1      42.384  27.713  33.138  1.00  0.00     0.167 HD
ATOM     64  C   UNL A   1      43.093  30.137  35.734  1.00  0.00     0.074 A 
ATOM     65  C   UNL A   1      43.121  30.526  37.132  1.00  0.00     0.031 C 
ATOM     66  C   UNL A   1      43.722  29.178  34.992  1.00  0.00     0.037 A 
BRANCH  53  67
ATOM     67  C   UNL A   1      42.305  27.395  29.307  1.00  0.00     0.058 A 
ATOM     68  C   UNL A   1      43.165  26.278  29.400  1.00  0.00     0.135 A 
ATOM     69  C   UNL A   1      41.935  27.704  27.968  1.00  0.00     0.135 A 
ATOM     70  F   UNL A   1      43.661  25.894  30.584  1.00  0.00    -0.206 F 
ATOM     71  C   UNL A   1      43.595  25.529  28.282  1.00  0.00     0.059 A 
ATOM     72  C   UNL A   1      42.292  26.933  26.848  1.00  0.00     0.059 A 
ATOM     73  F   UNL A   1      41.274  28.826  27.652  1.00  0.00    -0.206 F 
ATOM     74  C   UNL A   1      43.148  25.858  27.007  1.00  0.00     0.060 A 
BRANCH  74  75
ATOM     75  S   UNL A   1      43.738  24.934  25.565  1.00  0.00     0.124 S 
ATOM     76  O   UNL A   1      43.942  23.601  26.124  1.00  0.00    -0.237 OA
ATOM     77  O   UNL A   1      42.632  25.066  24.624  1.00  0.00    -0.237 OA
ATOM     78  O   UNL A   1      44.960  25.638  25.183  1.00  0.00    -0.744 OA
ENDBRANCH  74  75
ENDBRANCH  53  67
BRANCH  54  79
ATOM     79  C   UNL A   1      39.484  33.323  36.604  1.00  0.00     0.058 A 
ATOM     80  C   UNL A   1      38.562  32.338  37.023  1.00  0.00     0.135 A 
ATOM     81  C   UNL A   1      39.587  34.480  37.399  1.00  0.00     0.135 A 
ATOM     82  F   UNL A   1      38.456  31.190  36.334  1.00  0.00    -0.206 F 
ATOM     83  C   UNL A   1      37.894  32.420  38.240  1.00  0.00     0.059 A 
ATOM     84  C   UNL A   1      38.904  34.591  38.621  1.00  0.00     0.059 A 
ATOM     85  F   UNL A   1      40.480  35.433  37.088  1.00  0.00    -0.206 F 
ATOM     86  C   UNL A   1      38.100  33.530  39.053  1.00  0.00     0.060 A 
BRANCH  86  87
ATOM     87  S   UNL A   1      37.502  33.428  40.763  1.00  0.00     0.124 S 
ATOM     88  O   UNL A   1      38.359  32.392  41.324  1.00  0.00    -0.237 OA
ATOM     89  O   UNL A   1      37.754  34.784  41.248  1.00  0.00    -0.237 OA
ATOM     90  O   UNL A   1      36.095  33.079  40.604  1.00  0.00    -0.744 OA
ENDBRANCH  86  87
ENDBRANCH  54  79
BRANCH  66  91
ATOM     91  C   UNL A   1      44.450  27.970  35.551  1.00  0.00     0.058 A 
ATOM     92  C   UNL A   1      45.835  27.946  35.797  1.00  0.00     0.135 A 
ATOM     93  C   UNL A   1      43.721  26.886  36.105  1.00  0.00     0.135 A 
ATOM     94  F   UNL A   1      46.638  28.952  35.429  1.00  0.00    -0.206 F 
ATOM     95  C   UNL A   1      46.448  26.956  36.564  1.00  0.00     0.059 A 
ATOM     96  C   UNL A   1      44.303  25.928  36.939  1.00  0.00     0.059 A 
ATOM     97  F   UNL A   1      42.396  26.774  35.926  1.00  0.00    -0.206 F 
ATOM     98  C   UNL A   1      45.669  25.987  37.182  1.00  0.00     0.060 A 
BRANCH  98  99
ATOM     99  S   UNL A   1      46.415  24.977  38.478  1.00  0.00     0.124 S 
ATOM    100  O   UNL A   1      45.599  23.770  38.419  1.00  0.00    -0.237 OA
ATOM    101  O   UNL A   1      47.792  24.832  38.013  1.00  0.00    -0.237 OA
ATOM    102  O   UNL A   1      46.255  25.801  39.672  1.00  0.00    -0.744 OA
ENDBRANCH  98  99
ENDBRANCH  66  91
ENDBRANCH  40  41
ENDBRANCH  33  35
ENDBRANCH  32  33
ENDBRANCH  31  32
ENDBRANCH  30  31
ENDBRANCH  29  30
ENDBRANCH  28  29
ENDBRANCH   1  28
TORSDOF 23
ENDMDL
MODEL 2
REMARK VINA RESULT:     -11.0      4.099     10.437
REMARK SMILES Cc1ccc([C@H](C)NC(=O)[C@H]2[C@@H]3CC[C@@H](C3)[C@@H]2C(=O)OCCOCCOCCOC(=O)c2ccc(-c3c4nc(c(-c5c(F)cc(S(=O)(=O)[O-])cc5F)c5ccc([nH]5)c(-c5c(F)cc(S(=O)(=O)[O-])cc5F)c5nc(c(-c6c(F)cc(S(=O)(=O)[O-])cc6F)c6ccc3[nH]6)C=C5)C=C4)cc2)cc1
REMARK SMILES IDX 24 1 23 2 22 3 21 4 20 5 18 6 19 7 17 8 11 9 12 10 13 11
REMARK SMILES IDX 16 12 15 13 14 14 9 15 8 16 10 18 6 19 7 20 5 21 1 22 2 23
REMARK SMILES IDX 3 24 99 25 4 26 98 27 25 28 26 29 27 30 28 31 29 32 30 33
REMARK SMILES IDX 31 34 32 35 33 36 97 37 34 38 96 39 35 40 36 41 37 42 90 43
REMARK SMILES IDX 38 44 95 45 89 46 91 47 39 48 94 49 88 50 87 51 40 53 74 54
REMARK SMILES IDX 53 55 73 56 54 57 57 58 72 59 92 60 55 61 56 62 71 64 93 65
REMARK SMILES IDX 58 66 41 67 42 68 51 69 43 70 44 71 50 72 52 73 45 74 46 75
REMARK SMILES IDX 47 76 48 77 49 78 75 79 76 80 85 81 77 82 78 83 84 84 86 85
REMARK SMILES IDX 79 86 80 87 81 88 82 89 83 90 59 91 60 92 69 93 61 94 62 95
REMARK SMILES IDX 68 96 70 97 63 98 64 99 65 100 66 101 67 102
REMARK H PARENT 8 17 91 52 57 63
REMARK Flexibility Score: inf
ROOT
ATOM      1  C   UNL A   1      39.897  25.196  27.902  1.00  0.00     0.188 C 
ENDROOT
BRANCH   1   2
ATOM      2  O   UNL A   1      39.471  23.894  27.477  1.00  0.00    -0.376 OA
BRANCH   2   3
ATOM      3  C   UNL A   1      38.851  23.617  26.227  1.00  0.00     0.202 C 
BRANCH   3   4
ATOM      4  C   UNL A   1      38.275  22.138  25.902  1.00  0.00     0.261 C 
BRANCH   4   5
ATOM      5  O   UNL A   1      36.898  21.927  25.340  1.00  0.00    -0.463 OA
BRANCH   5   6
ATOM      6  C   UNL A   1      35.568  22.042  25.794  1.00  0.00     0.310 C 
ATOM      7  O   UNL A   1      35.312  22.409  26.908  1.00  0.00    -0.252 OA
BRANCH   6   8
ATOM      8  C   UNL A   1      34.300  21.693  24.544  1.00  0.00     0.115 C 
ATOM      9  C   UNL A   1      33.664  23.036  24.158  1.00  0.00     0.096 C 
ATOM     10  C   UNL A   1      32.179  22.705  23.870  1.00  0.00     0.002 C 
ATOM     11  C   UNL A   1      31.466  22.112  25.117  1.00  0.00     0.005 C 
ATOM     12  C   UNL A   1      32.308  21.453  23.043  1.00  0.00     0.009 C 
ATOM     13  C   UNL A   1      33.084  20.691  24.162  1.00  0.00     0.004 C 
ATOM     14  C   UNL A   1      31.868  20.642  25.072  1.00  0.00     0.005 C 
BRANCH   9  15
ATOM     15  C   UNL A   1      34.412  23.800  23.032  1.00  0.00     0.224 C 
ATOM     16  N   UNL A   1      34.028  24.943  22.388  1.00  0.00    -0.349 N 
ATOM     17  H   UNL A   1      34.506  25.055  21.535  1.00  0.00     0.164 HD
ATOM     18  O   UNL A   1      35.487  23.322  22.641  1.00  0.00    -0.275 OA
BRANCH  16  19
ATOM     19  C   UNL A   1      33.084  26.052  22.633  1.00  0.00     0.109 C 
ATOM     20  C   UNL A   1      31.760  25.762  21.907  1.00  0.00     0.036 C 
BRANCH  19  21
ATOM     21  C   UNL A   1      32.720  26.352  24.075  1.00  0.00    -0.026 A 
ATOM     22  C   UNL A   1      31.659  28.157  27.825  1.00  0.00     0.044 C 
ATOM     23  C   UNL A   1      32.059  27.465  26.563  1.00  0.00    -0.051 A 
ATOM     24  C   UNL A   1      33.385  27.482  26.134  1.00  0.00     0.004 A 
ATOM     25  C   UNL A   1      31.096  26.785  25.811  1.00  0.00     0.004 A 
ATOM     26  C   UNL A   1      33.711  26.935  24.897  1.00  0.00     0.006 A 
ATOM     27  C   UNL A   1      31.418  26.241  24.568  1.00  0.00     0.006 A 
ENDBRANCH  19  21
ENDBRANCH  16  19
ENDBRANCH   9  15
ENDBRANCH   6   8
ENDBRANCH   5   6
ENDBRANCH   4   5
ENDBRANCH   3   4
ENDBRANCH   2   3
ENDBRANCH   1   2
BRANCH   1  28
ATOM     28  C   UNL A   1      41.347  25.633  27.780  1.00  0.00     0.188 C 
BRANCH  28  29
ATOM     29  O   UNL A   1      41.714  25.534  26.418  1.00  0.00    -0.376 OA
BRANCH  29  30
ATOM     30  C   UNL A   1      42.947  26.111  26.057  1.00  0.00     0.202 C 
BRANCH  30  31
ATOM     31  C   UNL A   1      43.702  25.238  25.059  1.00  0.00     0.261 C 
BRANCH  31  32
ATOM     32  O   UNL A   1      44.925  24.688  25.605  1.00  0.00    -0.460 OA
BRANCH  32  33
ATOM     33  C   UNL A   1      44.854  23.458  26.224  1.00  0.00     0.338 C 
ATOM     34  O   UNL A   1      45.036  22.418  25.620  1.00  0.00    -0.246 OA
BRANCH  33  35
ATOM     35  C   UNL A   1      44.792  23.589  27.709  1.00  0.00     0.060 A 
ATOM     36  C   UNL A   1      43.873  23.068  28.615  1.00  0.00     0.016 A 
ATOM     37  C   UNL A   1      45.781  24.316  28.273  1.00  0.00     0.016 A 
ATOM     38  C   UNL A   1      43.857  23.441  30.042  1.00  0.00     0.010 A 
ATOM     39  C   UNL A   1      45.678  24.697  29.623  1.00  0.00     0.010 A 
ATOM     40  C   UNL A   1      44.715  24.402  30.634  1.00  0.00    -0.014 A 
BRANCH  40  41
ATOM     41  C   UNL A   1      44.438  25.161  32.157  1.00  0.00     0.031 A 
ATOM     42  C   UNL A   1      43.887  26.685  32.819  1.00  0.00     0.074 A 
ATOM     43  C   UNL A   1      44.256  24.228  33.129  1.00  0.00     0.049 A 
ATOM     44  N   UNL A   1      43.453  26.830  34.070  1.00  0.00    -0.248 NA
ATOM     45  C   UNL A   1      43.772  28.067  32.262  1.00  0.00     0.031 C 
ATOM     46  C   UNL A   1      43.301  24.265  34.244  1.00  0.00     0.029 A 
ATOM     47  N   UNL A   1      44.903  23.010  33.319  1.00  0.00    -0.354 N 
ATOM     48  C   UNL A   1      42.807  28.063  34.249  1.00  0.00     0.074 A 
ATOM     49  C   UNL A   1      43.165  28.839  33.146  1.00  0.00     0.031 C 
ATOM     50  C   UNL A   1      43.615  23.321  35.132  1.00  0.00     0.029 A 
ATOM     51  C   UNL A   1      44.854  22.739  34.689  1.00  0.00     0.049 A 
ATOM     52  H   UNL A   1      45.315  22.448  32.624  1.00  0.00     0.167 HD
ATOM     53  C   UNL A   1      41.950  28.391  35.254  1.00  0.00     0.037 A 
ATOM     54  C   UNL A   1      45.983  22.576  35.421  1.00  0.00     0.037 A 
ATOM     55  C   UNL A   1      42.131  27.487  36.360  1.00  0.00     0.049 A 
ATOM     56  C   UNL A   1      46.017  23.423  36.655  1.00  0.00     0.074 A 
ATOM     57  C   UNL A   1      41.389  26.462  36.903  1.00  0.00     0.029 A 
ATOM     58  N   UNL A   1      43.386  27.445  36.959  1.00  0.00    -0.354 N 
ATOM     59  N   UNL A   1      45.181  24.403  36.870  1.00  0.00    -0.248 NA
ATOM     60  C   UNL A   1      46.947  23.245  37.761  1.00  0.00     0.031 C 
ATOM     61  C   UNL A   1      42.254  25.729  37.764  1.00  0.00     0.029 A 
ATOM     62  C   UNL A   1      43.495  26.350  37.789  1.00  0.00     0.049 A 
ATOM     63  H   UNL A   1      44.099  28.108  36.810  1.00  0.00     0.167 HD
ATOM     64  C   UNL A   1      45.440  24.991  38.074  1.00  0.00     0.074 A 
ATOM     65  C   UNL A   1      46.538  24.206  38.608  1.00  0.00     0.031 C 
ATOM     66  C   UNL A   1      44.744  26.086  38.502  1.00  0.00     0.037 A 
BRANCH  53  67
ATOM     67  C   UNL A   1      40.912  29.542  35.205  1.00  0.00     0.058 A 
ATOM     68  C   UNL A   1      39.881  29.555  34.239  1.00  0.00     0.135 A 
ATOM     69  C   UNL A   1      40.947  30.723  35.998  1.00  0.00     0.135 A 
ATOM     70  F   UNL A   1      39.750  28.546  33.366  1.00  0.00    -0.206 F 
ATOM     71  C   UNL A   1      38.964  30.618  34.090  1.00  0.00     0.059 A 
ATOM     72  C   UNL A   1      40.003  31.763  35.916  1.00  0.00     0.059 A 
ATOM     73  F   UNL A   1      41.952  30.984  36.845  1.00  0.00    -0.206 F 
ATOM     74  C   UNL A   1      39.026  31.718  34.939  1.00  0.00     0.060 A 
BRANCH  74  75
ATOM     75  S   UNL A   1      37.886  33.108  34.717  1.00  0.00     0.124 S 
ATOM     76  O   UNL A   1      38.571  33.901  33.700  1.00  0.00    -0.237 OA
ATOM     77  O   UNL A   1      36.657  32.451  34.288  1.00  0.00    -0.237 OA
ATOM     78  O   UNL A   1      37.828  33.720  36.043  1.00  0.00    -0.744 OA
ENDBRANCH  74  75
ENDBRANCH  53  67
BRANCH  54  79
ATOM     79  C   UNL A   1      47.061  21.913  34.634  1.00  0.00     0.058 A 
ATOM     80  C   UNL A   1      48.197  22.718  34.399  1.00  0.00     0.135 A 
ATOM     81  C   UNL A   1      47.260  20.519  34.660  1.00  0.00     0.135 A 
ATOM     82  F   UNL A   1      48.078  24.056  34.414  1.00  0.00    -0.206 F 
ATOM     83  C   UNL A   1      49.482  22.188  34.347  1.00  0.00     0.059 A 
ATOM     84  C   UNL A   1      48.547  19.963  34.588  1.00  0.00     0.059 A 
ATOM     85  F   UNL A   1      46.233  19.697  34.929  1.00  0.00    -0.206 F 
ATOM     86  C   UNL A   1      49.654  20.813  34.483  1.00  0.00     0.060 A 
BRANCH  86  87
ATOM     87  S   UNL A   1      51.342  20.214  34.768  1.00  0.00     0.124 S 
ATOM     88  O   UNL A   1      51.112  18.823  35.137  1.00  0.00    -0.237 OA
ATOM     89  O   UNL A   1      51.958  20.423  33.459  1.00  0.00    -0.237 OA
ATOM     90  O   UNL A   1      51.831  21.086  35.830  1.00  0.00    -0.744 OA
ENDBRANCH  86  87
ENDBRANCH  54  79
BRANCH  66  91
ATOM     91  C   UNL A   1      45.184  27.030  39.606  1.00  0.00     0.058 A 
ATOM     92  C   UNL A   1      45.820  28.261  39.364  1.00  0.00     0.135 A 
ATOM     93  C   UNL A   1      44.735  26.835  40.937  1.00  0.00     0.135 A 
ATOM     94  F   UNL A   1      46.203  28.632  38.136  1.00  0.00    -0.206 F 
ATOM     95  C   UNL A   1      45.963  29.242  40.345  1.00  0.00     0.059 A 
ATOM     96  C   UNL A   1      44.801  27.832  41.914  1.00  0.00     0.059 A 
ATOM     97  F   UNL A   1      44.133  25.694  41.309  1.00  0.00    -0.206 F 
ATOM     98  C   UNL A   1      45.398  29.045  41.598  1.00  0.00     0.060 A 
BRANCH  98  99
ATOM     99  S   UNL A   1      45.239  30.462  42.705  1.00  0.00     0.124 S 
ATOM    100  O   UNL A   1      46.440  31.224  42.382  1.00  0.00    -0.237 OA
ATOM    101  O   UNL A   1      43.978  31.059  42.274  1.00  0.00    -0.237 OA
ATOM    102  O   UNL A   1      45.207  29.847  44.027  1.00  0.00    -0.744 OA
ENDBRANCH  98  99
ENDBRANCH  66  91
ENDBRANCH  40  41
ENDBRANCH  33  35
ENDBRANCH  32  33
ENDBRANCH  31  32
ENDBRANCH  30  31
ENDBRANCH  29  30
ENDBRANCH  28  29
ENDBRANCH   1  28
TORSDOF 23
ENDMDL
MODEL 3
REMARK VINA RESULT:     -10.9      1.623      3.437
REMARK SMILES Cc1ccc([C@H](C)NC(=O)[C@H]2[C@@H]3CC[C@@H](C3)[C@@H]2C(=O)OCCOCCOCCOC(=O)c2ccc(-c3c4nc(c(-c5c(F)cc(S(=O)(=O)[O-])cc5F)c5ccc([nH]5)c(-c5c(F)cc(S(=O)(=O)[O-])cc5F)c5nc(c(-c6c(F)cc(S(=O)(=O)[O-])cc6F)c6ccc3[nH]6)C=C5)C=C4)cc2)cc1
REMARK SMILES IDX 24 1 23 2 22 3 21 4 20 5 18 6 19 7 17 8 11 9 12 10 13 11
REMARK SMILES IDX 16 12 15 13 14 14 9 15 8 16 10 18 6 19 7 20 5 21 1 22 2 23
REMARK SMILES IDX 3 24 99 25 4 26 98 27 25 28 26 29 27 30 28 31 29 32 30 33
REMARK SMILES IDX 31 34 32 35 33 36 97 37 34 38 96 39 35 40 36 41 37 42 90 43
REMARK SMILES IDX 38 44 95 45 89 46 91 47 39 48 94 49 88 50 87 51 40 53 74 54
REMARK SMILES IDX 53 55 73 56 54 57 57 58 72 59 92 60 55 61 56 62 71 64 93 65
REMARK SMILES IDX 58 66 41 67 42 68 51 69 43 70 44 71 50 72 52 73 45 74 46 75
REMARK SMILES IDX 47 76 48 77 49 78 75 79 76 80 85 81 77 82 78 83 84 84 86 85
REMARK SMILES IDX 79 86 80 87 81 88 82 89 83 90 59 91 60 92 69 93 61 94 62 95
REMARK SMILES IDX 68 96 70 97 63 98 64 99 65 100 66 101 67 102
REMARK H PARENT 8 17 91 52 57 63
REMARK Flexibility Score: inf
ROOT
ATOM      1  C   UNL A   1      35.753  33.401  28.468  1.00  0.00     0.188 C 
ENDROOT
BRANCH   1   2
ATOM      2  O   UNL A   1      35.877  31.996  28.204  1.00  0.00    -0.376 OA
BRANCH   2   3
ATOM      3  C   UNL A   1      34.792  31.074  28.218  1.00  0.00     0.202 C 
BRANCH   3   4
ATOM      4  C   UNL A   1      34.994  29.557  27.688  1.00  0.00     0.261 C 
BRANCH   4   5
ATOM      5  O   UNL A   1      33.901  28.813  26.975  1.00  0.00    -0.463 OA
BRANCH   5   6
ATOM      6  C   UNL A   1      33.394  28.731  25.661  1.00  0.00     0.310 C 
ATOM      7  O   UNL A   1      32.864  29.668  25.130  1.00  0.00    -0.252 OA
BRANCH   6   8
ATOM      8  C   UNL A   1      33.701  27.153  24.820  1.00  0.00     0.115 C 
ATOM      9  C   UNL A   1      32.389  26.744  24.135  1.00  0.00     0.096 C 
ATOM     10  C   UNL A   1      32.360  25.197  24.221  1.00  0.00     0.002 C 
ATOM     11  C   UNL A   1      32.375  24.701  25.693  1.00  0.00     0.005 C 
ATOM     12  C   UNL A   1      33.774  24.851  23.831  1.00  0.00     0.009 C 
ATOM     13  C   UNL A   1      34.391  25.696  24.989  1.00  0.00     0.004 C 
ATOM     14  C   UNL A   1      33.855  24.757  26.057  1.00  0.00     0.005 C 
BRANCH   9  15
ATOM     15  C   UNL A   1      32.194  27.339  22.714  1.00  0.00     0.224 C 
ATOM     16  N   UNL A   1      31.022  27.622  22.071  1.00  0.00    -0.349 N 
ATOM     17  H   UNL A   1      31.154  27.705  21.099  1.00  0.00     0.164 HD
ATOM     18  O   UNL A   1      33.217  27.582  22.057  1.00  0.00    -0.275 OA
BRANCH  16  19
ATOM     19  C   UNL A   1      29.609  27.834  22.448  1.00  0.00     0.109 C 
ATOM     20  C   UNL A   1      29.306  27.058  23.740  1.00  0.00     0.036 C 
BRANCH  19  21
ATOM     21  C   UNL A   1      29.162  29.263  22.697  1.00  0.00    -0.026 A 
ATOM     22  C   UNL A   1      28.823  33.529  23.053  1.00  0.00     0.044 C 
ATOM     23  C   UNL A   1      28.882  32.038  22.986  1.00  0.00    -0.051 A 
ATOM     24  C   UNL A   1      29.554  31.310  23.967  1.00  0.00     0.004 A 
ATOM     25  C   UNL A   1      28.249  31.366  21.936  1.00  0.00     0.004 A 
ATOM     26  C   UNL A   1      29.697  29.935  23.819  1.00  0.00     0.006 A 
ATOM     27  C   UNL A   1      28.395  29.989  21.782  1.00  0.00     0.006 A 
ENDBRANCH  19  21
ENDBRANCH  16  19
ENDBRANCH   9  15
ENDBRANCH   6   8
ENDBRANCH   5   6
ENDBRANCH   4   5
ENDBRANCH   3   4
ENDBRANCH   2   3
ENDBRANCH   1   2
BRANCH   1  28
ATOM     28  C   UNL A   1      34.648  34.230  27.835  1.00  0.00     0.188 C 
BRANCH  28  29
ATOM     29  O   UNL A   1      33.780  34.652  28.869  1.00  0.00    -0.376 OA
BRANCH  29  30
ATOM     30  C   UNL A   1      33.661  36.042  29.059  1.00  0.00     0.202 C 
BRANCH  30  31
ATOM     31  C   UNL A   1      32.622  36.373  30.127  1.00  0.00     0.261 C 
BRANCH  31  32
ATOM     32  O   UNL A   1      32.564  35.382  31.181  1.00  0.00    -0.460 OA
BRANCH  32  33
ATOM     33  C   UNL A   1      33.156  35.694  32.387  1.00  0.00     0.338 C 
ATOM     34  O   UNL A   1      32.769  36.616  33.079  1.00  0.00    -0.246 OA
BRANCH  33  35
ATOM     35  C   UNL A   1      34.110  34.634  32.824  1.00  0.00     0.060 A 
ATOM     36  C   UNL A   1      34.883  34.548  33.979  1.00  0.00     0.016 A 
ATOM     37  C   UNL A   1      34.246  33.586  31.983  1.00  0.00     0.016 A 
ATOM     38  C   UNL A   1      35.913  33.511  34.176  1.00  0.00     0.010 A 
ATOM     39  C   UNL A   1      35.289  32.664  32.185  1.00  0.00     0.010 A 
ATOM     40  C   UNL A   1      36.275  32.539  33.210  1.00  0.00    -0.014 A 
BRANCH  40  41
ATOM     41  C   UNL A   1      37.734  31.620  33.238  1.00  0.00     0.031 A 
ATOM     42  C   UNL A   1      38.419  30.162  32.551  1.00  0.00     0.074 A 
ATOM     43  C   UNL A   1      38.782  32.401  33.613  1.00  0.00     0.049 A 
ATOM     44  N   UNL A   1      39.726  29.913  32.508  1.00  0.00    -0.248 NA
ATOM     45  C   UNL A   1      37.823  28.945  31.921  1.00  0.00     0.031 C 
ATOM     46  C   UNL A   1      40.149  32.389  33.078  1.00  0.00     0.029 A 
ATOM     47  N   UNL A   1      38.838  33.406  34.575  1.00  0.00    -0.354 N 
ATOM     48  C   UNL A   1      40.014  28.835  31.658  1.00  0.00     0.074 A 
ATOM     49  C   UNL A   1      38.796  28.188  31.444  1.00  0.00     0.031 C 
ATOM     50  C   UNL A   1      40.950  33.088  33.882  1.00  0.00     0.029 A 
ATOM     51  C   UNL A   1      40.159  33.457  35.026  1.00  0.00     0.049 A 
ATOM     52  H   UNL A   1      38.092  33.972  34.878  1.00  0.00     0.167 HD
ATOM     53  C   UNL A   1      41.221  28.539  31.104  1.00  0.00     0.037 A 
ATOM     54  C   UNL A   1      40.471  33.254  36.330  1.00  0.00     0.037 A 
ATOM     55  C   UNL A   1      42.268  29.193  31.845  1.00  0.00     0.049 A 
ATOM     56  C   UNL A   1      41.546  32.231  36.530  1.00  0.00     0.074 A 
ATOM     57  C   UNL A   1      43.114  30.251  31.596  1.00  0.00     0.029 A 
ATOM     58  N   UNL A   1      42.403  28.869  33.191  1.00  0.00    -0.354 N 
ATOM     59  N   UNL A   1      41.954  31.431  35.582  1.00  0.00    -0.248 NA
ATOM     60  C   UNL A   1      42.279  32.026  37.772  1.00  0.00     0.031 C 
ATOM     61  C   UNL A   1      43.684  30.633  32.844  1.00  0.00     0.029 A 
ATOM     62  C   UNL A   1      43.233  29.766  33.829  1.00  0.00     0.049 A 
ATOM     63  H   UNL A   1      41.966  28.102  33.628  1.00  0.00     0.167 HD
ATOM     64  C   UNL A   1      42.945  30.615  36.045  1.00  0.00     0.074 A 
ATOM     65  C   UNL A   1      43.133  31.050  37.417  1.00  0.00     0.031 C 
ATOM     66  C   UNL A   1      43.495  29.639  35.262  1.00  0.00     0.037 A 
BRANCH  53  67
ATOM     67  C   UNL A   1      41.437  27.659  29.845  1.00  0.00     0.058 A 
ATOM     68  C   UNL A   1      42.506  26.737  29.773  1.00  0.00     0.135 A 
ATOM     69  C   UNL A   1      40.707  27.761  28.627  1.00  0.00     0.135 A 
ATOM     70  F   UNL A   1      43.334  26.570  30.814  1.00  0.00    -0.206 F 
ATOM     71  C   UNL A   1      42.804  25.977  28.621  1.00  0.00     0.059 A 
ATOM     72  C   UNL A   1      40.941  26.966  27.492  1.00  0.00     0.059 A 
ATOM     73  F   UNL A   1      39.775  28.703  28.433  1.00  0.00    -0.206 F 
ATOM     74  C   UNL A   1      42.012  26.091  27.484  1.00  0.00     0.060 A 
BRANCH  74  75
ATOM     75  S   UNL A   1      42.423  25.158  25.987  1.00  0.00     0.124 S 
ATOM     76  O   UNL A   1      41.677  23.919  26.189  1.00  0.00    -0.237 OA
ATOM     77  O   UNL A   1      41.935  26.027  24.923  1.00  0.00    -0.237 OA
ATOM     78  O   UNL A   1      43.877  25.022  26.055  1.00  0.00    -0.744 OA
ENDBRANCH  74  75
ENDBRANCH  53  67
BRANCH  54  79
ATOM     79  C   UNL A   1      39.421  33.791  37.240  1.00  0.00     0.058 A 
ATOM     80  C   UNL A   1      38.588  32.808  37.819  1.00  0.00     0.135 A 
ATOM     81  C   UNL A   1      39.591  34.988  37.960  1.00  0.00     0.135 A 
ATOM     82  F   UNL A   1      38.428  31.625  37.203  1.00  0.00    -0.206 F 
ATOM     83  C   UNL A   1      38.076  32.936  39.106  1.00  0.00     0.059 A 
ATOM     84  C   UNL A   1      39.065  35.145  39.253  1.00  0.00     0.059 A 
ATOM     85  F   UNL A   1      40.410  35.944  37.493  1.00  0.00    -0.206 F 
ATOM     86  C   UNL A   1      38.352  34.090  39.833  1.00  0.00     0.060 A 
BRANCH  86  87
ATOM     87  S   UNL A   1      37.978  34.061  41.607  1.00  0.00     0.124 S 
ATOM     88  O   UNL A   1      39.231  33.581  42.175  1.00  0.00    -0.237 OA
ATOM     89  O   UNL A   1      37.665  35.464  41.870  1.00  0.00    -0.237 OA
ATOM     90  O   UNL A   1      36.845  33.146  41.695  1.00  0.00    -0.744 OA
ENDBRANCH  86  87
ENDBRANCH  54  79
BRANCH  66  91
ATOM     91  C   UNL A   1      44.301  28.457  35.769  1.00  0.00     0.058 A 
ATOM     92  C   UNL A   1      43.737  27.384  36.482  1.00  0.00     0.135 A 
ATOM     93  C   UNL A   1      45.629  28.248  35.315  1.00  0.00     0.135 A 
ATOM     94  F   UNL A   1      42.460  27.392  36.883  1.00  0.00    -0.206 F 
ATOM     95  C   UNL A   1      44.412  26.182  36.695  1.00  0.00     0.059 A 
ATOM     96  C   UNL A   1      46.293  27.027  35.451  1.00  0.00     0.059 A 
ATOM     97  F   UNL A   1      46.293  29.200  34.641  1.00  0.00    -0.206 F 
ATOM     98  C   UNL A   1      45.663  25.989  36.124  1.00  0.00     0.060 A 
BRANCH  98  99
ATOM     99  S   UNL A   1      46.333  24.314  36.064  1.00  0.00     0.124 S 
ATOM    100  O   UNL A   1      47.704  24.529  36.515  1.00  0.00    -0.237 OA
ATOM    101  O   UNL A   1      45.468  23.593  36.995  1.00  0.00    -0.237 OA
ATOM    102  O   UNL A   1      46.171  23.943  34.663  1.00  0.00    -0.744 OA
ENDBRANCH  98  99
ENDBRANCH  66  91
ENDBRANCH  40  41
ENDBRANCH  33  35
ENDBRANCH  32  33
ENDBRANCH  31  32
ENDBRANCH  30  31
ENDBRANCH  29  30
ENDBRANCH  28  29
ENDBRANCH   1  28
TORSDOF 23
ENDMDL
