MODEL 1
REMARK VINA RESULT:     -13.0      0.000      0.000
REMARK SMILES Cc1ccccc1C(=O)Nc1ccc(N2CCCCC2)cc1C(=O)OCCOCCOCCOC(=O)c1ccc(-c2c3nc(c(-c4c(F)cc(S(=O)(=O)[O-])cc4F)c4ccc([nH]4)c(-c4c(F)cc(S(=O)(=O)[O-])cc4F)c4nc(c(-c5c(F)cc(S(=O)(=O)[O-])cc5F)c5ccc2[nH]5)C=C4)C=C3)cc1
REMARK SMILES IDX 30 1 29 2 28 3 27 4 26 5 25 6 23 7 24 8 22 9 11 10 12 11
REMARK SMILES IDX 13 12 21 13 14 14 10 15 8 16 9 17 7 19 1 20 2 21 3 22 4 23
REMARK SMILES IDX 6 24 5 25 15 26 16 27 20 28 17 29 19 30 18 31 31 32 32 33
REMARK SMILES IDX 33 34 34 35 35 36 36 37 37 38 38 39 102 40 39 41 101 42
REMARK SMILES IDX 40 43 41 44 42 45 95 46 43 47 100 48 94 49 96 50 44 51 99 52
REMARK SMILES IDX 93 53 92 54 45 56 79 57 58 58 78 59 59 60 62 61 77 62 97 63
REMARK SMILES IDX 60 64 61 65 76 67 98 68 63 69 46 70 47 71 56 72 48 73 49 74
REMARK SMILES IDX 55 75 57 76 50 77 51 78 52 79 53 80 54 81 80 82 81 83 90 84
REMARK SMILES IDX 82 85 83 86 89 87 91 88 84 89 85 90 86 91 87 92 88 93 64 94
REMARK SMILES IDX 65 95 74 96 66 97 67 98 73 99 75 100 68 101 69 102 70 103
REMARK SMILES IDX 71 104 72 105
REMARK H PARENT 10 18 96 55 62 66
REMARK Flexibility Score: inf
ROOT
ATOM      1  C   UNL A   1      35.982  33.030  28.289  1.00  0.00     0.188 C 
ENDROOT
BRANCH   1   2
ATOM      2  C   UNL A   1      35.716  31.474  28.013  1.00  0.00     0.188 C 
BRANCH   2   3
ATOM      3  O   UNL A   1      34.523  30.623  28.028  1.00  0.00    -0.376 OA
BRANCH   3   4
ATOM      4  C   UNL A   1      33.293  30.535  27.253  1.00  0.00     0.202 C 
BRANCH   4   5
ATOM      5  C   UNL A   1      32.514  29.669  25.808  1.00  0.00     0.261 C 
BRANCH   5   6
ATOM      6  O   UNL A   1      32.719  28.284  24.570  1.00  0.00    -0.460 OA
BRANCH   6   7
ATOM      7  C   UNL A   1      31.771  27.358  23.535  1.00  0.00     0.340 C 
ATOM      8  O   UNL A   1      32.059  26.633  22.576  1.00  0.00    -0.246 OA
BRANCH   7   9
ATOM      9  C   UNL A   1      30.339  27.149  23.673  1.00  0.00     0.085 A 
ATOM     10  C   UNL A   1      29.512  26.153  24.336  1.00  0.00     0.056 A 
ATOM     11  C   UNL A   1      28.157  26.426  24.076  1.00  0.00     0.029 A 
ATOM     12  C   UNL A   1      27.726  27.698  23.495  1.00  0.00     0.028 A 
ATOM     13  C   UNL A   1      29.895  28.219  22.899  1.00  0.00     0.043 A 
ATOM     14  C   UNL A   1      28.616  28.652  22.972  1.00  0.00     0.038 A 
BRANCH  10  15
ATOM     15  N   UNL A   1      29.966  24.879  25.200  1.00  0.00    -0.321 N 
ATOM     16  C   UNL A   1      31.309  24.496  25.984  1.00  0.00     0.255 C 
ATOM     17  O   UNL A   1      31.261  24.573  27.209  1.00  0.00    -0.269 OA
ATOM     18  H   UNL A   1      29.271  24.185  25.261  1.00  0.00     0.170 HD
BRANCH  16  19
ATOM     19  C   UNL A   1      32.738  24.196  25.205  1.00  0.00     0.043 A 
ATOM     20  C   UNL A   1      31.674  21.997  25.208  1.00  0.00     0.045 C 
ATOM     21  C   UNL A   1      33.039  22.847  26.060  1.00  0.00    -0.038 A 
ATOM     22  C   UNL A   1      34.904  22.198  26.536  1.00  0.00     0.004 A 
ATOM     23  C   UNL A   1      36.286  22.770  25.857  1.00  0.00     0.000 A 
ATOM     24  C   UNL A   1      34.238  24.813  24.406  1.00  0.00     0.014 A 
ATOM     25  C   UNL A   1      35.940  24.039  24.783  1.00  0.00     0.001 A 
ENDBRANCH  16  19
ENDBRANCH  10  15
BRANCH  14  26
ATOM     26  N   UNL A   1      28.381  30.004  22.655  1.00  0.00    -0.372 N 
ATOM     27  C   UNL A   1      29.031  30.920  23.609  1.00  0.00     0.116 C 
ATOM     28  C   UNL A   1      28.693  30.415  21.243  1.00  0.00     0.116 C 
ATOM     29  C   UNL A   1      28.514  32.342  23.379  1.00  0.00     0.021 C 
ATOM     30  C   UNL A   1      28.126  31.784  20.939  1.00  0.00     0.021 C 
ATOM     31  C   UNL A   1      28.649  32.816  21.929  1.00  0.00     0.004 C 
ENDBRANCH  14  26
ENDBRANCH   7   9
ENDBRANCH   6   7
ENDBRANCH   5   6
ENDBRANCH   4   5
ENDBRANCH   3   4
ENDBRANCH   2   3
ENDBRANCH   1   2
BRANCH   1  32
ATOM     32  O   UNL A   1      35.198  34.013  27.618  1.00  0.00    -0.376 OA
BRANCH  32  33
ATOM     33  C   UNL A   1      33.758  34.127  27.973  1.00  0.00     0.202 C 
BRANCH  33  34
ATOM     34  C   UNL A   1      33.027  35.398  28.998  1.00  0.00     0.261 C 
BRANCH  34  35
ATOM     35  O   UNL A   1      33.341  35.674  30.738  1.00  0.00    -0.460 OA
BRANCH  35  36
ATOM     36  C   UNL A   1      33.393  34.950  32.135  1.00  0.00     0.338 C 
ATOM     37  O   UNL A   1      32.438  35.140  32.890  1.00  0.00    -0.246 OA
BRANCH  36  38
ATOM     38  C   UNL A   1      34.726  33.869  32.728  1.00  0.00     0.060 A 
ATOM     39  C   UNL A   1      35.206  32.239  31.999  1.00  0.00     0.016 A 
ATOM     40  C   UNL A   1      35.983  34.389  34.218  1.00  0.00     0.016 A 
ATOM     41  C   UNL A   1      36.645  31.481  32.956  1.00  0.00     0.010 A 
ATOM     42  C   UNL A   1      37.070  33.651  34.933  1.00  0.00     0.010 A 
ATOM     43  C   UNL A   1      37.487  32.351  34.437  1.00  0.00    -0.014 A 
BRANCH  43  44
ATOM     44  C   UNL A   1      39.125  32.430  35.392  1.00  0.00     0.031 A 
ATOM     45  C   UNL A   1      39.407  33.325  36.928  1.00  0.00     0.074 A 
ATOM     46  C   UNL A   1      40.292  31.863  34.958  1.00  0.00     0.049 A 
ATOM     47  N   UNL A   1      40.318  34.258  36.992  1.00  0.00    -0.248 NA
ATOM     48  C   UNL A   1      38.471  33.569  38.125  1.00  0.00     0.031 C 
ATOM     49  C   UNL A   1      41.482  31.648  35.772  1.00  0.00     0.029 A 
ATOM     50  N   UNL A   1      40.631  31.277  33.736  1.00  0.00    -0.354 N 
ATOM     51  C   UNL A   1      40.000  35.104  38.047  1.00  0.00     0.074 A 
ATOM     52  C   UNL A   1      38.671  34.839  38.414  1.00  0.00     0.031 C 
ATOM     53  C   UNL A   1      42.442  31.071  35.028  1.00  0.00     0.029 A 
ATOM     54  C   UNL A   1      41.979  30.978  33.650  1.00  0.00     0.049 A 
ATOM     55  H   UNL A   1      39.983  31.096  33.016  1.00  0.00     0.167 HD
ATOM     56  C   UNL A   1      40.956  35.692  38.802  1.00  0.00     0.037 A 
ATOM     57  C   UNL A   1      42.701  31.300  32.546  1.00  0.00     0.037 A 
ATOM     58  C   UNL A   1      42.225  35.287  38.224  1.00  0.00     0.049 A 
ATOM     59  C   UNL A   1      43.398  32.622  32.837  1.00  0.00     0.074 A 
ATOM     60  C   UNL A   1      42.953  34.114  38.386  1.00  0.00     0.029 A 
ATOM     61  N   UNL A   1      42.508  35.731  36.933  1.00  0.00    -0.354 N 
ATOM     62  N   UNL A   1      43.224  33.290  33.954  1.00  0.00    -0.248 NA
ATOM     63  C   UNL A   1      44.386  33.265  31.980  1.00  0.00     0.031 C 
ATOM     64  C   UNL A   1      43.670  33.866  37.177  1.00  0.00     0.029 A 
ATOM     65  C   UNL A   1      43.414  34.899  36.291  1.00  0.00     0.049 A 
ATOM     66  H   UNL A   1      42.112  36.535  36.526  1.00  0.00     0.167 HD
ATOM     67  C   UNL A   1      43.991  34.415  33.975  1.00  0.00     0.074 A 
ATOM     68  C   UNL A   1      44.725  34.339  32.723  1.00  0.00     0.031 C 
ATOM     69  C   UNL A   1      43.965  35.319  35.003  1.00  0.00     0.037 A 
BRANCH  56  70
ATOM     70  C   UNL A   1      40.615  36.102  40.228  1.00  0.00     0.058 A 
ATOM     71  C   UNL A   1      40.326  37.441  40.524  1.00  0.00     0.135 A 
ATOM     72  C   UNL A   1      40.655  35.242  41.363  1.00  0.00     0.135 A 
ATOM     73  F   UNL A   1      40.213  38.349  39.547  1.00  0.00    -0.206 F 
ATOM     74  C   UNL A   1      40.141  37.904  41.833  1.00  0.00     0.059 A 
ATOM     75  C   UNL A   1      40.581  35.698  42.684  1.00  0.00     0.059 A 
ATOM     76  F   UNL A   1      40.746  33.908  41.228  1.00  0.00    -0.206 F 
ATOM     77  C   UNL A   1      40.287  37.033  42.909  1.00  0.00     0.060 A 
BRANCH  77  78
ATOM     78  S   UNL A   1      39.981  37.636  44.582  1.00  0.00     0.124 S 
ATOM     79  O   UNL A   1      39.964  39.084  44.399  1.00  0.00    -0.237 OA
ATOM     80  O   UNL A   1      38.696  37.017  44.885  1.00  0.00    -0.237 OA
ATOM     81  O   UNL A   1      41.117  37.125  45.346  1.00  0.00    -0.744 OA
ENDBRANCH  77  78
ENDBRANCH  56  70
BRANCH  57  82
ATOM     82  C   UNL A   1      42.116  30.713  31.292  1.00  0.00     0.058 A 
ATOM     83  C   UNL A   1      42.248  29.310  31.129  1.00  0.00     0.135 A 
ATOM     84  C   UNL A   1      41.111  31.318  30.528  1.00  0.00     0.135 A 
ATOM     85  F   UNL A   1      43.230  28.658  31.772  1.00  0.00    -0.206 F 
ATOM     86  C   UNL A   1      41.328  28.533  30.415  1.00  0.00     0.059 A 
ATOM     87  C   UNL A   1      40.209  30.552  29.764  1.00  0.00     0.059 A 
ATOM     88  F   UNL A   1      40.888  32.636  30.634  1.00  0.00    -0.206 F 
ATOM     89  C   UNL A   1      40.265  29.161  29.786  1.00  0.00     0.060 A 
BRANCH  89  90
ATOM     90  S   UNL A   1      38.870  28.148  29.205  1.00  0.00     0.124 S 
ATOM     91  O   UNL A   1      37.729  28.779  29.857  1.00  0.00    -0.237 OA
ATOM     92  O   UNL A   1      38.945  28.314  27.753  1.00  0.00    -0.237 OA
ATOM     93  O   UNL A   1      39.195  26.804  29.663  1.00  0.00    -0.744 OA
ENDBRANCH  89  90
ENDBRANCH  57  82
BRANCH  69  94
ATOM     94  C   UNL A   1      44.530  36.723  34.933  1.00  0.00     0.058 A 
ATOM     95  C   UNL A   1      43.866  37.803  34.336  1.00  0.00     0.135 A 
ATOM     96  C   UNL A   1      45.728  37.053  35.625  1.00  0.00     0.135 A 
ATOM     97  F   UNL A   1      42.657  37.667  33.775  1.00  0.00    -0.206 F 
ATOM     98  C   UNL A   1      44.413  39.084  34.313  1.00  0.00     0.059 A 
ATOM     99  C   UNL A   1      46.218  38.344  35.725  1.00  0.00     0.059 A 
ATOM    100  F   UNL A   1      46.484  36.128  36.234  1.00  0.00    -0.206 F 
ATOM    101  C   UNL A   1      45.593  39.340  35.004  1.00  0.00     0.060 A 
BRANCH 101 102
ATOM    102  S   UNL A   1      46.349  40.963  34.917  1.00  0.00     0.124 S 
ATOM    103  O   UNL A   1      46.182  41.274  33.501  1.00  0.00    -0.237 OA
ATOM    104  O   UNL A   1      45.534  41.748  35.838  1.00  0.00    -0.237 OA
ATOM    105  O   UNL A   1      47.721  40.720  35.354  1.00  0.00    -0.744 OA
ENDBRANCH 101 102
ENDBRANCH  69  94
ENDBRANCH  43  44
ENDBRANCH  36  38
ENDBRANCH  35  36
ENDBRANCH  34  35
ENDBRANCH  33  34
ENDBRANCH  32  33
ENDBRANCH   1  32
TORSDOF 23
ENDMDL
MODEL 2
REMARK VINA RESULT:     -12.7      3.338      5.446
REMARK SMILES Cc1ccccc1C(=O)Nc1ccc(N2CCCCC2)cc1C(=O)OCCOCCOCCOC(=O)c1ccc(-c2c3nc(c(-c4c(F)cc(S(=O)(=O)[O-])cc4F)c4ccc([nH]4)c(-c4c(F)cc(S(=O)(=O)[O-])cc4F)c4nc(c(-c5c(F)cc(S(=O)(=O)[O-])cc5F)c5ccc2[nH]5)C=C4)C=C3)cc1
REMARK SMILES IDX 30 1 29 2 28 3 27 4 26 5 25 6 23 7 24 8 22 9 11 10 12 11
REMARK SMILES IDX 13 12 21 13 14 14 10 15 8 16 9 17 7 19 1 20 2 21 3 22 4 23
REMARK SMILES IDX 6 24 5 25 15 26 16 27 20 28 17 29 19 30 18 31 31 32 32 33
REMARK SMILES IDX 33 34 34 35 35 36 36 37 37 38 38 39 102 40 39 41 101 42
REMARK SMILES IDX 40 43 41 44 42 45 95 46 43 47 100 48 94 49 96 50 44 51 99 52
REMARK SMILES IDX 93 53 92 54 45 56 79 57 58 58 78 59 59 60 62 61 77 62 97 63
REMARK SMILES IDX 60 64 61 65 76 67 98 68 63 69 46 70 47 71 56 72 48 73 49 74
REMARK SMILES IDX 55 75 57 76 50 77 51 78 52 79 53 80 54 81 80 82 81 83 90 84
REMARK SMILES IDX 82 85 83 86 89 87 91 88 84 89 85 90 86 91 87 92 88 93 64 94
REMARK SMILES IDX 65 95 74 96 66 97 67 98 73 99 75 100 68 101 69 102 70 103
REMARK SMILES IDX 71 104 72 105
REMARK H PARENT 10 18 96 55 62 66
REMARK Flexibility Score: inf
ROOT
ATOM      1  C   UNL A   1      36.509  33.082  28.332  1.00  0.00     0.188 C 
ENDROOT
BRANCH   1   2
ATOM      2  C   UNL A   1      36.732  31.494  28.351  1.00  0.00     0.188 C 
BRANCH   2   3
ATOM      3  O   UNL A   1      35.890  30.348  28.702  1.00  0.00    -0.376 OA
BRANCH   3   4
ATOM      4  C   UNL A   1      34.893  29.536  28.019  1.00  0.00     0.202 C 
BRANCH   4   5
ATOM      5  C   UNL A   1      34.521  28.696  26.406  1.00  0.00     0.261 C 
BRANCH   5   6
ATOM      6  O   UNL A   1      34.598  28.867  24.547  1.00  0.00    -0.460 OA
BRANCH   6   7
ATOM      7  C   UNL A   1      33.936  28.146  23.179  1.00  0.00     0.340 C 
ATOM      8  O   UNL A   1      34.253  28.190  21.985  1.00  0.00    -0.246 OA
BRANCH   7   9
ATOM      9  C   UNL A   1      32.853  27.176  23.185  1.00  0.00     0.085 A 
ATOM     10  C   UNL A   1      32.758  25.752  23.470  1.00  0.00     0.056 A 
ATOM     11  C   UNL A   1      31.437  25.322  23.251  1.00  0.00     0.029 A 
ATOM     12  C   UNL A   1      30.337  26.271  23.075  1.00  0.00     0.028 A 
ATOM     13  C   UNL A   1      31.821  28.011  22.763  1.00  0.00     0.043 A 
ATOM     14  C   UNL A   1      30.526  27.654  22.912  1.00  0.00     0.038 A 
BRANCH  10  15
ATOM     15  N   UNL A   1      33.916  24.734  23.914  1.00  0.00    -0.321 N 
ATOM     16  C   UNL A   1      34.345  23.269  23.432  1.00  0.00     0.255 C 
ATOM     17  O   UNL A   1      35.361  23.201  22.744  1.00  0.00    -0.269 OA
ATOM     18  H   UNL A   1      34.483  25.085  24.638  1.00  0.00     0.170 HD
BRANCH  16  19
ATOM     19  C   UNL A   1      33.391  21.938  23.674  1.00  0.00     0.043 A 
ATOM     20  C   UNL A   1      34.195  22.422  25.930  1.00  0.00     0.045 C 
ATOM     21  C   UNL A   1      34.489  21.197  24.617  1.00  0.00    -0.038 A 
ATOM     22  C   UNL A   1      34.718  19.181  24.721  1.00  0.00     0.004 A 
ATOM     23  C   UNL A   1      33.639  18.094  24.129  1.00  0.00     0.000 A 
ATOM     24  C   UNL A   1      32.163  20.766  23.053  1.00  0.00     0.014 A 
ATOM     25  C   UNL A   1      32.366  18.891  23.336  1.00  0.00     0.001 A 
ENDBRANCH  16  19
ENDBRANCH  10  15
BRANCH  14  26
ATOM     26  N   UNL A   1      29.584  28.696  23.021  1.00  0.00    -0.372 N 
ATOM     27  C   UNL A   1      29.912  29.836  22.146  1.00  0.00     0.116 C 
ATOM     28  C   UNL A   1      28.143  28.305  22.847  1.00  0.00     0.116 C 
ATOM     29  C   UNL A   1      29.025  31.028  22.514  1.00  0.00     0.021 C 
ATOM     30  C   UNL A   1      27.221  29.424  23.280  1.00  0.00     0.021 C 
ATOM     31  C   UNL A   1      27.529  30.701  22.512  1.00  0.00     0.004 C 
ENDBRANCH  14  26
ENDBRANCH   7   9
ENDBRANCH   6   7
ENDBRANCH   5   6
ENDBRANCH   4   5
ENDBRANCH   3   4
ENDBRANCH   2   3
ENDBRANCH   1   2
BRANCH   1  32
ATOM     32  O   UNL A   1      35.463  33.641  27.542  1.00  0.00    -0.376 OA
BRANCH  32  33
ATOM     33  C   UNL A   1      34.071  33.565  28.061  1.00  0.00     0.202 C 
BRANCH  33  34
ATOM     34  C   UNL A   1      33.256  34.802  29.063  1.00  0.00     0.261 C 
BRANCH  34  35
ATOM     35  O   UNL A   1      33.846  35.475  30.613  1.00  0.00    -0.460 OA
BRANCH  35  36
ATOM     36  C   UNL A   1      33.994  35.154  32.146  1.00  0.00     0.338 C 
ATOM     37  O   UNL A   1      33.149  35.645  32.897  1.00  0.00    -0.246 OA
BRANCH  36  38
ATOM     38  C   UNL A   1      35.291  34.132  32.903  1.00  0.00     0.060 A 
ATOM     39  C   UNL A   1      36.501  33.069  31.996  1.00  0.00     0.016 A 
ATOM     40  C   UNL A   1      35.679  34.136  34.883  1.00  0.00     0.016 A 
ATOM     41  C   UNL A   1      37.653  32.193  33.206  1.00  0.00     0.010 A 
ATOM     42  C   UNL A   1      36.606  33.331  35.737  1.00  0.00     0.010 A 
ATOM     43  C   UNL A   1      37.570  32.450  35.100  1.00  0.00    -0.014 A 
BRANCH  43  44
ATOM     44  C   UNL A   1      38.627  32.349  36.672  1.00  0.00     0.031 A 
ATOM     45  C   UNL A   1      38.012  32.071  38.340  1.00  0.00     0.074 A 
ATOM     46  C   UNL A   1      39.980  32.555  36.699  1.00  0.00     0.049 A 
ATOM     47  N   UNL A   1      38.233  32.948  39.282  1.00  0.00    -0.248 NA
ATOM     48  C   UNL A   1      36.839  31.207  38.838  1.00  0.00     0.031 C 
ATOM     49  C   UNL A   1      40.866  32.211  37.804  1.00  0.00     0.029 A 
ATOM     50  N   UNL A   1      40.858  33.024  35.719  1.00  0.00    -0.354 N 
ATOM     51  C   UNL A   1      37.272  32.776  40.270  1.00  0.00     0.074 A 
ATOM     52  C   UNL A   1      36.251  31.978  39.731  1.00  0.00     0.031 C 
ATOM     53  C   UNL A   1      42.129  32.552  37.495  1.00  0.00     0.029 A 
ATOM     54  C   UNL A   1      42.130  33.246  36.215  1.00  0.00     0.049 A 
ATOM     55  H   UNL A   1      40.601  33.179  34.781  1.00  0.00     0.167 HD
ATOM     56  C   UNL A   1      37.552  32.974  41.579  1.00  0.00     0.037 A 
ATOM     57  C   UNL A   1      42.804  34.391  35.933  1.00  0.00     0.037 A 
ATOM     58  C   UNL A   1      38.934  33.417  41.627  1.00  0.00     0.049 A 
ATOM     59  C   UNL A   1      42.590  35.337  37.107  1.00  0.00     0.074 A 
ATOM     60  C   UNL A   1      40.114  32.684  41.584  1.00  0.00     0.029 A 
ATOM     61  N   UNL A   1      39.231  34.645  41.040  1.00  0.00    -0.354 N 
ATOM     62  N   UNL A   1      41.826  35.041  38.132  1.00  0.00    -0.248 NA
ATOM     63  C   UNL A   1      43.249  36.625  37.288  1.00  0.00     0.031 C 
ATOM     64  C   UNL A   1      41.115  33.491  40.963  1.00  0.00     0.029 A 
ATOM     65  C   UNL A   1      40.563  34.725  40.661  1.00  0.00     0.049 A 
ATOM     66  H   UNL A   1      38.575  35.368  40.908  1.00  0.00     0.167 HD
ATOM     67  C   UNL A   1      41.839  36.040  39.057  1.00  0.00     0.074 A 
ATOM     68  C   UNL A   1      42.771  37.002  38.491  1.00  0.00     0.031 C 
ATOM     69  C   UNL A   1      41.089  36.010  40.202  1.00  0.00     0.037 A 
BRANCH  56  70
ATOM     70  C   UNL A   1      36.718  32.247  42.625  1.00  0.00     0.058 A 
ATOM     71  C   UNL A   1      35.538  32.829  43.110  1.00  0.00     0.135 A 
ATOM     72  C   UNL A   1      37.079  31.025  43.261  1.00  0.00     0.135 A 
ATOM     73  F   UNL A   1      35.059  33.957  42.572  1.00  0.00    -0.206 F 
ATOM     74  C   UNL A   1      34.804  32.278  44.168  1.00  0.00     0.059 A 
ATOM     75  C   UNL A   1      36.423  30.514  44.387  1.00  0.00     0.059 A 
ATOM     76  F   UNL A   1      38.081  30.262  42.793  1.00  0.00    -0.206 F 
ATOM     77  C   UNL A   1      35.260  31.132  44.813  1.00  0.00     0.060 A 
BRANCH  77  78
ATOM     78  S   UNL A   1      34.263  30.404  46.130  1.00  0.00     0.124 S 
ATOM     79  O   UNL A   1      34.569  28.981  46.011  1.00  0.00    -0.237 OA
ATOM     80  O   UNL A   1      34.802  31.074  47.308  1.00  0.00    -0.237 OA
ATOM     81  O   UNL A   1      32.896  30.773  45.771  1.00  0.00    -0.744 OA
ENDBRANCH  77  78
ENDBRANCH  56  70
BRANCH  57  82
ATOM     82  C   UNL A   1      42.942  34.621  34.454  1.00  0.00     0.058 A 
ATOM     83  C   UNL A   1      43.775  33.714  33.748  1.00  0.00     0.135 A 
ATOM     84  C   UNL A   1      42.022  35.330  33.672  1.00  0.00     0.135 A 
ATOM     85  F   UNL A   1      44.732  33.042  34.408  1.00  0.00    -0.206 F 
ATOM     86  C   UNL A   1      43.579  33.387  32.402  1.00  0.00     0.059 A 
ATOM     87  C   UNL A   1      41.850  35.045  32.304  1.00  0.00     0.059 A 
ATOM     88  F   UNL A   1      41.171  36.189  34.251  1.00  0.00    -0.206 F 
ATOM     89  C   UNL A   1      42.562  34.014  31.698  1.00  0.00     0.060 A 
BRANCH  89  90
ATOM     90  S   UNL A   1      42.049  33.320  30.097  1.00  0.00     0.124 S 
ATOM     91  O   UNL A   1      41.725  31.941  30.439  1.00  0.00    -0.237 OA
ATOM     92  O   UNL A   1      40.913  34.170  29.737  1.00  0.00    -0.237 OA
ATOM     93  O   UNL A   1      43.215  33.502  29.243  1.00  0.00    -0.744 OA
ENDBRANCH  89  90
ENDBRANCH  57  82
BRANCH  69  94
ATOM     94  C   UNL A   1      40.810  37.211  41.083  1.00  0.00     0.058 A 
ATOM     95  C   UNL A   1      41.529  37.508  42.247  1.00  0.00     0.135 A 
ATOM     96  C   UNL A   1      39.878  38.204  40.673  1.00  0.00     0.135 A 
ATOM     97  F   UNL A   1      42.538  36.736  42.672  1.00  0.00    -0.206 F 
ATOM     98  C   UNL A   1      41.253  38.637  43.017  1.00  0.00     0.059 A 
ATOM     99  C   UNL A   1      39.685  39.394  41.353  1.00  0.00     0.059 A 
ATOM    100  F   UNL A   1      39.104  38.059  39.587  1.00  0.00    -0.206 F 
ATOM    101  C   UNL A   1      40.324  39.567  42.563  1.00  0.00     0.060 A 
BRANCH 101 102
ATOM    102  S   UNL A   1      39.901  40.982  43.581  1.00  0.00     0.124 S 
ATOM    103  O   UNL A   1      38.462  41.067  43.357  1.00  0.00    -0.237 OA
ATOM    104  O   UNL A   1      40.311  40.553  44.914  1.00  0.00    -0.237 OA
ATOM    105  O   UNL A   1      40.696  42.062  43.004  1.00  0.00    -0.744 OA
ENDBRANCH 101 102
ENDBRANCH  69  94
ENDBRANCH  43  44
ENDBRANCH  36  38
ENDBRANCH  35  36
ENDBRANCH  34  35
ENDBRANCH  33  34
ENDBRANCH  32  33
ENDBRANCH   1  32
TORSDOF 23
ENDMDL
MODEL 3
REMARK VINA RESULT:     -12.2      9.105     13.062
REMARK SMILES Cc1ccccc1C(=O)Nc1ccc(N2CCCCC2)cc1C(=O)OCCOCCOCCOC(=O)c1ccc(-c2c3nc(c(-c4c(F)cc(S(=O)(=O)[O-])cc4F)c4ccc([nH]4)c(-c4c(F)cc(S(=O)(=O)[O-])cc4F)c4nc(c(-c5c(F)cc(S(=O)(=O)[O-])cc5F)c5ccc2[nH]5)C=C4)C=C3)cc1
REMARK SMILES IDX 30 1 29 2 28 3 27 4 26 5 25 6 23 7 24 8 22 9 11 10 12 11
REMARK SMILES IDX 13 12 21 13 14 14 10 15 8 16 9 17 7 19 1 20 2 21 3 22 4 23
REMARK SMILES IDX 6 24 5 25 15 26 16 27 20 28 17 29 19 30 18 31 31 32 32 33
REMARK SMILES IDX 33 34 34 35 35 36 36 37 37 38 38 39 102 40 39 41 101 42
REMARK SMILES IDX 40 43 41 44 42 45 95 46 43 47 100 48 94 49 96 50 44 51 99 52
REMARK SMILES IDX 93 53 92 54 45 56 79 57 58 58 78 59 59 60 62 61 77 62 97 63
REMARK SMILES IDX 60 64 61 65 76 67 98 68 63 69 46 70 47 71 56 72 48 73 49 74
REMARK SMILES IDX 55 75 57 76 50 77 51 78 52 79 53 80 54 81 80 82 81 83 90 84
REMARK SMILES IDX 82 85 83 86 89 87 91 88 84 89 85 90 86 91 87 92 88 93 64 94
REMARK SMILES IDX 65 95 74 96 66 97 67 98 73 99 75 100 68 101 69 102 70 103
REMARK SMILES IDX 71 104 72 105
REMARK H PARENT 10 18 96 55 62 66
REMARK Flexibility Score: inf
ROOT
ATOM      1  C   UNL A   1      38.657  30.496  29.258  1.00  0.00     0.188 C 
ENDROOT
BRANCH   1   2
ATOM      2  C   UNL A   1      37.877  30.220  27.885  1.00  0.00     0.188 C 
BRANCH   2   3
ATOM      3  O   UNL A   1      36.466  30.231  27.491  1.00  0.00    -0.376 OA
BRANCH   3   4
ATOM      4  C   UNL A   1      35.354  29.293  27.565  1.00  0.00     0.202 C 
BRANCH   4   5
ATOM      5  C   UNL A   1      33.997  28.524  26.558  1.00  0.00     0.261 C 
BRANCH   5   6
ATOM      6  O   UNL A   1      33.054  28.619  24.948  1.00  0.00    -0.460 OA
BRANCH   6   7
ATOM      7  C   UNL A   1      32.312  27.584  23.850  1.00  0.00     0.340 C 
ATOM      8  O   UNL A   1      32.770  26.776  23.035  1.00  0.00    -0.246 OA
BRANCH   7   9
ATOM      9  C   UNL A   1      30.878  27.366  23.743  1.00  0.00     0.085 A 
ATOM     10  C   UNL A   1      29.959  26.354  24.242  1.00  0.00     0.056 A 
ATOM     11  C   UNL A   1      28.665  26.626  23.764  1.00  0.00     0.029 A 
ATOM     12  C   UNL A   1      28.328  27.905  23.138  1.00  0.00     0.028 A 
ATOM     13  C   UNL A   1      30.562  28.446  22.923  1.00  0.00     0.043 A 
ATOM     14  C   UNL A   1      29.286  28.872  22.787  1.00  0.00     0.038 A 
BRANCH  10  15
ATOM     15  N   UNL A   1      30.273  25.068  25.150  1.00  0.00    -0.321 N 
ATOM     16  C   UNL A   1      31.512  24.637  26.067  1.00  0.00     0.255 C 
ATOM     17  O   UNL A   1      31.344  24.723  27.281  1.00  0.00    -0.269 OA
ATOM     18  H   UNL A   1      29.548  24.403  25.141  1.00  0.00     0.170 HD
BRANCH  16  19
ATOM     19  C   UNL A   1      33.000  24.276  25.438  1.00  0.00     0.043 A 
ATOM     20  C   UNL A   1      31.596  22.508  24.505  1.00  0.00     0.045 C 
ATOM     21  C   UNL A   1      32.876  22.693  25.785  1.00  0.00    -0.038 A 
ATOM     22  C   UNL A   1      34.458  21.507  26.249  1.00  0.00     0.004 A 
ATOM     23  C   UNL A   1      36.030  21.924  26.019  1.00  0.00     0.000 A 
ATOM     24  C   UNL A   1      34.718  24.747  25.129  1.00  0.00     0.014 A 
ATOM     25  C   UNL A   1      36.142  23.515  25.435  1.00  0.00     0.001 A 
ENDBRANCH  16  19
ENDBRANCH  10  15
BRANCH  14  26
ATOM     26  N   UNL A   1      29.097  30.227  22.457  1.00  0.00    -0.372 N 
ATOM     27  C   UNL A   1      28.192  30.399  21.306  1.00  0.00     0.116 C 
ATOM     28  C   UNL A   1      28.681  31.130  23.585  1.00  0.00     0.116 C 
ATOM     29  C   UNL A   1      28.250  31.852  20.828  1.00  0.00     0.021 C 
ATOM     30  C   UNL A   1      28.803  32.585  23.189  1.00  0.00     0.021 C 
ATOM     31  C   UNL A   1      27.983  32.873  21.939  1.00  0.00     0.004 C 
ENDBRANCH  14  26
ENDBRANCH   7   9
ENDBRANCH   6   7
ENDBRANCH   5   6
ENDBRANCH   4   5
ENDBRANCH   3   4
ENDBRANCH   2   3
ENDBRANCH   1   2
BRANCH   1  32
ATOM     32  O   UNL A   1      37.969  31.090  30.356  1.00  0.00    -0.376 OA
BRANCH  32  33
ATOM     33  C   UNL A   1      38.776  31.658  31.469  1.00  0.00     0.202 C 
BRANCH  33  34
ATOM     34  C   UNL A   1      40.492  32.156  31.372  1.00  0.00     0.261 C 
BRANCH  34  35
ATOM     35  O   UNL A   1      41.171  33.437  30.324  1.00  0.00    -0.460 OA
BRANCH  35  36
ATOM     36  C   UNL A   1      42.520  34.131  29.903  1.00  0.00     0.338 C 
ATOM     37  O   UNL A   1      42.759  35.227  30.413  1.00  0.00    -0.246 OA
BRANCH  36  38
ATOM     38  C   UNL A   1      43.746  33.465  28.741  1.00  0.00     0.060 A 
ATOM     39  C   UNL A   1      43.592  33.440  26.899  1.00  0.00     0.016 A 
ATOM     40  C   UNL A   1      45.550  32.772  29.322  1.00  0.00     0.016 A 
ATOM     41  C   UNL A   1      45.113  32.645  26.116  1.00  0.00     0.010 A 
ATOM     42  C   UNL A   1      46.665  32.101  28.584  1.00  0.00     0.010 A 
ATOM     43  C   UNL A   1      46.605  32.017  27.135  1.00  0.00    -0.014 A 
BRANCH  43  44
ATOM     44  C   UNL A   1      48.465  31.667  27.006  1.00  0.00     0.031 A 
ATOM     45  C   UNL A   1      49.748  32.889  26.686  1.00  0.00     0.074 A 
ATOM     46  C   UNL A   1      49.015  30.416  27.073  1.00  0.00     0.049 A 
ATOM     47  N   UNL A   1      50.528  32.771  25.645  1.00  0.00    -0.248 NA
ATOM     48  C   UNL A   1      49.857  34.359  27.128  1.00  0.00     0.031 C 
ATOM     49  C   UNL A   1      50.430  30.123  27.267  1.00  0.00     0.029 A 
ATOM     50  N   UNL A   1      48.423  29.151  27.076  1.00  0.00    -0.354 N 
ATOM     51  C   UNL A   1      51.042  34.026  25.343  1.00  0.00     0.074 A 
ATOM     52  C   UNL A   1      50.275  34.974  26.041  1.00  0.00     0.031 C 
ATOM     53  C   UNL A   1      50.619  28.791  27.282  1.00  0.00     0.029 A 
ATOM     54  C   UNL A   1      49.355  28.133  26.983  1.00  0.00     0.049 A 
ATOM     55  H   UNL A   1      47.452  29.000  27.138  1.00  0.00     0.167 HD
ATOM     56  C   UNL A   1      52.292  34.186  24.852  1.00  0.00     0.037 A 
ATOM     57  C   UNL A   1      49.183  27.100  26.117  1.00  0.00     0.037 A 
ATOM     58  C   UNL A   1      52.831  32.847  24.695  1.00  0.00     0.049 A 
ATOM     59  C   UNL A   1      49.978  27.432  24.861  1.00  0.00     0.074 A 
ATOM     60  C   UNL A   1      53.411  31.997  25.631  1.00  0.00     0.029 A 
ATOM     61  N   UNL A   1      52.216  32.016  23.762  1.00  0.00    -0.354 N 
ATOM     62  N   UNL A   1      50.628  28.562  24.706  1.00  0.00    -0.248 NA
ATOM     63  C   UNL A   1      50.188  26.536  23.730  1.00  0.00     0.031 C 
ATOM     64  C   UNL A   1      53.130  30.653  25.242  1.00  0.00     0.029 A 
ATOM     65  C   UNL A   1      52.416  30.676  24.055  1.00  0.00     0.049 A 
ATOM     66  H   UNL A   1      51.700  32.341  22.988  1.00  0.00     0.167 HD
ATOM     67  C   UNL A   1      51.284  28.589  23.513  1.00  0.00     0.074 A 
ATOM     68  C   UNL A   1      50.999  27.279  22.949  1.00  0.00     0.031 C 
ATOM     69  C   UNL A   1      52.001  29.671  23.077  1.00  0.00     0.037 A 
BRANCH  56  70
ATOM     70  C   UNL A   1      53.006  35.511  25.082  1.00  0.00     0.058 A 
ATOM     71  C   UNL A   1      53.771  35.705  26.240  1.00  0.00     0.135 A 
ATOM     72  C   UNL A   1      52.894  36.661  24.249  1.00  0.00     0.135 A 
ATOM     73  F   UNL A   1      53.995  34.694  27.090  1.00  0.00    -0.206 F 
ATOM     74  C   UNL A   1      54.336  36.941  26.575  1.00  0.00     0.059 A 
ATOM     75  C   UNL A   1      53.357  37.931  24.614  1.00  0.00     0.059 A 
ATOM     76  F   UNL A   1      52.343  36.588  23.025  1.00  0.00    -0.206 F 
ATOM     77  C   UNL A   1      54.112  38.054  25.768  1.00  0.00     0.060 A 
BRANCH  77  78
ATOM     78  S   UNL A   1      54.903  39.621  26.185  1.00  0.00     0.124 S 
ATOM     79  O   UNL A   1      55.028  40.270  24.883  1.00  0.00    -0.237 OA
ATOM     80  O   UNL A   1      53.928  40.207  27.097  1.00  0.00    -0.237 OA
ATOM     81  O   UNL A   1      56.167  39.217  26.796  1.00  0.00    -0.744 OA
ENDBRANCH  77  78
ENDBRANCH  56  70
BRANCH  57  82
ATOM     82  C   UNL A   1      47.880  26.385  26.336  1.00  0.00     0.058 A 
ATOM     83  C   UNL A   1      46.851  26.644  25.395  1.00  0.00     0.135 A 
ATOM     84  C   UNL A   1      47.737  25.205  27.077  1.00  0.00     0.135 A 
ATOM     85  F   UNL A   1      46.871  27.786  24.688  1.00  0.00    -0.206 F 
ATOM     86  C   UNL A   1      45.859  25.711  25.070  1.00  0.00     0.059 A 
ATOM     87  C   UNL A   1      46.713  24.281  26.795  1.00  0.00     0.059 A 
ATOM     88  F   UNL A   1      48.674  24.858  27.972  1.00  0.00    -0.206 F 
ATOM     89  C   UNL A   1      45.838  24.494  25.734  1.00  0.00     0.060 A 
BRANCH  89  90
ATOM     90  S   UNL A   1      44.825  23.144  25.055  1.00  0.00     0.124 S 
ATOM     91  O   UNL A   1      43.468  23.606  25.318  1.00  0.00    -0.237 OA
ATOM     92  O   UNL A   1      45.229  23.126  23.648  1.00  0.00    -0.237 OA
ATOM     93  O   UNL A   1      45.250  21.971  25.806  1.00  0.00    -0.744 OA
ENDBRANCH  89  90
ENDBRANCH  57  82
BRANCH  69  94
ATOM     94  C   UNL A   1      52.462  29.882  21.649  1.00  0.00     0.058 A 
ATOM     95  C   UNL A   1      51.601  30.182  20.587  1.00  0.00     0.135 A 
ATOM     96  C   UNL A   1      53.850  29.938  21.342  1.00  0.00     0.135 A 
ATOM     97  F   UNL A   1      50.279  30.308  20.763  1.00  0.00    -0.206 F 
ATOM     98  C   UNL A   1      52.071  30.391  19.292  1.00  0.00     0.059 A 
ATOM     99  C   UNL A   1      54.340  30.275  20.092  1.00  0.00     0.059 A 
ATOM    100  F   UNL A   1      54.799  29.662  22.248  1.00  0.00    -0.206 F 
ATOM    101  C   UNL A   1      53.441  30.427  19.056  1.00  0.00     0.060 A 
BRANCH 101 102
ATOM    102  S   UNL A   1      54.059  30.615  17.383  1.00  0.00     0.124 S 
ATOM    103  O   UNL A   1      53.038  31.481  16.804  1.00  0.00    -0.237 OA
ATOM    104  O   UNL A   1      55.367  31.228  17.590  1.00  0.00    -0.237 OA
ATOM    105  O   UNL A   1      54.088  29.246  16.878  1.00  0.00    -0.744 OA
ENDBRANCH 101 102
ENDBRANCH  69  94
ENDBRANCH  43  44
ENDBRANCH  36  38
ENDBRANCH  35  36
ENDBRANCH  34  35
ENDBRANCH  33  34
ENDBRANCH  32  33
ENDBRANCH   1  32
TORSDOF 23
ENDMDL
