MODEL 1
REMARK VINA RESULT:      -9.9      0.000      0.000
REMARK SMILES Cc1cnc(S[C@H]2CC[C@@]([NH2+]C(C)C)(C(=O)OCCOCCOCCOC(=O)c3ccc(-c4c5nc(c(-c6c(F)cc(S(=O)(=O)[O-])cc6F)c6ccc([nH]6)c(-c6c(F)cc(S(=O)(=O)[O-])cc6F)c6nc(c(-c7c(F)cc(S(=O)(=O)[O-])cc7F)c7ccc4[nH]7)C=C6)C=C5)cc3)C2)nc1
REMARK SMILES IDX 22 1 21 2 20 3 19 4 18 5 17 6 15 7 16 8 10 9 7 10 8 11 95 12
REMARK SMILES IDX 9 13 6 14 5 15 1 16 2 17 3 18 97 19 4 20 96 21 11 22 12 25
REMARK SMILES IDX 13 26 14 27 23 28 24 29 25 30 26 31 27 32 28 33 29 34 30 35
REMARK SMILES IDX 94 36 31 37 93 38 32 39 33 40 34 41 87 42 35 43 92 44 86 45
REMARK SMILES IDX 88 46 36 47 91 48 85 49 84 50 37 52 71 53 50 54 70 55 51 56
REMARK SMILES IDX 54 57 69 58 89 59 52 60 53 61 68 63 90 64 55 65 38 66 39 67
REMARK SMILES IDX 48 68 40 69 41 70 47 71 49 72 42 73 43 74 44 75 45 76 46 77
REMARK SMILES IDX 72 78 73 79 82 80 74 81 75 82 81 83 83 84 76 85 77 86 78 87
REMARK SMILES IDX 79 88 80 89 56 90 57 91 66 92 58 93 59 94 65 95 67 96 60 97
REMARK SMILES IDX 61 98 62 99 63 100 64 101
REMARK H PARENT 11 23 11 24 88 51 54 62
REMARK Flexibility Score: inf
ROOT
ATOM      1  C   UNL A   1      41.462  21.980  27.256  1.00  0.00     0.188 C 
ENDROOT
BRANCH   1   2
ATOM      2  C   UNL A   1      41.383  20.506  26.804  1.00  0.00     0.188 C 
BRANCH   2   3
ATOM      3  O   UNL A   1      40.237  19.991  26.151  1.00  0.00    -0.376 OA
BRANCH   3   4
ATOM      4  C   UNL A   1      39.225  20.872  25.712  1.00  0.00     0.202 C 
BRANCH   4   5
ATOM      5  C   UNL A   1      38.012  20.254  25.013  1.00  0.00     0.261 C 
BRANCH   5   6
ATOM      6  O   UNL A   1      36.719  20.650  25.510  1.00  0.00    -0.459 OA
BRANCH   6   7
ATOM      7  C   UNL A   1      36.005  21.437  24.660  1.00  0.00     0.368 C 
ATOM      8  O   UNL A   1      36.519  22.096  23.756  1.00  0.00    -0.245 OA
BRANCH   7   9
ATOM      9  C   UNL A   1      34.491  21.538  24.978  1.00  0.00     0.195 C 
ATOM     10  C   UNL A   1      33.078  23.686  25.168  1.00  0.00     0.062 C 
ATOM     11  C   UNL A   1      32.353  22.553  24.430  1.00  0.00     0.022 C 
ATOM     12  C   UNL A   1      34.248  22.868  25.808  1.00  0.00     0.096 C 
ATOM     13  C   UNL A   1      33.503  21.727  23.810  1.00  0.00     0.082 C 
BRANCH  10  14
ATOM     14  S   UNL A   1      33.490  24.865  23.792  1.00  0.00    -0.083 SA
BRANCH  14  15
ATOM     15  C   UNL A   1      32.368  26.240  23.708  1.00  0.00     0.187 A 
ATOM     16  C   UNL A   1      28.955  28.662  23.061  1.00  0.00     0.048 C 
ATOM     17  C   UNL A   1      30.183  27.852  23.317  1.00  0.00    -0.014 A 
ATOM     18  C   UNL A   1      30.700  27.559  24.567  1.00  0.00     0.119 A 
ATOM     19  C   UNL A   1      30.854  27.253  22.284  1.00  0.00     0.119 A 
ATOM     20  N   UNL A   1      31.786  26.761  24.796  1.00  0.00    -0.231 NA
ATOM     21  N   UNL A   1      31.919  26.445  22.452  1.00  0.00    -0.231 NA
ENDBRANCH  14  15
ENDBRANCH  10  14
BRANCH   9  22
ATOM     22  N   UNL A   1      34.015  20.260  25.602  1.00  0.00    -0.330 N 
ATOM     23  H   UNL A   1      33.224  20.498  26.200  1.00  0.00     0.347 HD
ATOM     24  H   UNL A   1      34.847  19.893  26.063  1.00  0.00     0.347 HD
BRANCH  22  25
ATOM     25  C   UNL A   1      33.581  19.153  24.739  1.00  0.00     0.176 C 
ATOM     26  C   UNL A   1      34.750  18.233  24.415  1.00  0.00     0.075 C 
ATOM     27  C   UNL A   1      32.458  18.384  25.444  1.00  0.00     0.075 C 
ENDBRANCH  22  25
ENDBRANCH   9  22
ENDBRANCH   7   9
ENDBRANCH   6   7
ENDBRANCH   5   6
ENDBRANCH   4   5
ENDBRANCH   3   4
ENDBRANCH   2   3
ENDBRANCH   1   2
BRANCH   1  28
ATOM     28  O   UNL A   1      42.715  22.586  27.518  1.00  0.00    -0.376 OA
BRANCH  28  29
ATOM     29  C   UNL A   1      43.624  22.689  26.435  1.00  0.00     0.202 C 
BRANCH  29  30
ATOM     30  C   UNL A   1      43.311  23.714  25.335  1.00  0.00     0.261 C 
BRANCH  30  31
ATOM     31  O   UNL A   1      43.789  25.034  25.657  1.00  0.00    -0.460 OA
BRANCH  31  32
ATOM     32  C   UNL A   1      42.827  25.964  25.843  1.00  0.00     0.338 C 
ATOM     33  O   UNL A   1      42.088  26.383  24.967  1.00  0.00    -0.246 OA
BRANCH  32  34
ATOM     34  C   UNL A   1      42.686  26.392  27.271  1.00  0.00     0.060 A 
ATOM     35  C   UNL A   1      41.778  25.809  28.162  1.00  0.00     0.016 A 
ATOM     36  C   UNL A   1      43.305  27.586  27.645  1.00  0.00     0.016 A 
ATOM     37  C   UNL A   1      41.376  26.489  29.323  1.00  0.00     0.010 A 
ATOM     38  C   UNL A   1      42.964  28.226  28.845  1.00  0.00     0.010 A 
ATOM     39  C   UNL A   1      41.950  27.719  29.673  1.00  0.00    -0.014 A 
BRANCH  39  40
ATOM     40  C   UNL A   1      41.498  28.491  30.872  1.00  0.00     0.031 A 
ATOM     41  C   UNL A   1      40.319  29.438  30.791  1.00  0.00     0.074 A 
ATOM     42  C   UNL A   1      42.148  28.364  32.046  1.00  0.00     0.049 A 
ATOM     43  N   UNL A   1      39.900  30.329  31.655  1.00  0.00    -0.248 NA
ATOM     44  C   UNL A   1      39.488  29.360  29.579  1.00  0.00     0.031 C 
ATOM     45  C   UNL A   1      43.249  27.438  32.308  1.00  0.00     0.029 A 
ATOM     46  N   UNL A   1      41.988  29.035  33.236  1.00  0.00    -0.354 N 
ATOM     47  C   UNL A   1      38.783  30.935  31.084  1.00  0.00     0.074 A 
ATOM     48  C   UNL A   1      38.577  30.299  29.800  1.00  0.00     0.031 C 
ATOM     49  C   UNL A   1      43.667  27.598  33.573  1.00  0.00     0.029 A 
ATOM     50  C   UNL A   1      42.932  28.702  34.181  1.00  0.00     0.049 A 
ATOM     51  H   UNL A   1      41.270  29.689  33.397  1.00  0.00     0.167 HD
ATOM     52  C   UNL A   1      38.016  31.942  31.575  1.00  0.00     0.037 A 
ATOM     53  C   UNL A   1      43.229  29.262  35.370  1.00  0.00     0.037 A 
ATOM     54  C   UNL A   1      38.234  32.580  32.852  1.00  0.00     0.049 A 
ATOM     55  C   UNL A   1      42.443  30.455  35.841  1.00  0.00     0.074 A 
ATOM     56  C   UNL A   1      37.523  33.622  33.427  1.00  0.00     0.029 A 
ATOM     57  N   UNL A   1      39.240  32.248  33.746  1.00  0.00    -0.354 N 
ATOM     58  N   UNL A   1      41.423  31.050  35.270  1.00  0.00    -0.248 NA
ATOM     59  C   UNL A   1      42.864  31.066  37.109  1.00  0.00     0.031 C 
ATOM     60  C   UNL A   1      38.138  33.960  34.638  1.00  0.00     0.029 A 
ATOM     61  C   UNL A   1      39.192  33.089  34.849  1.00  0.00     0.049 A 
ATOM     62  H   UNL A   1      39.892  31.523  33.618  1.00  0.00     0.167 HD
ATOM     63  C   UNL A   1      41.071  32.096  36.118  1.00  0.00     0.074 A 
ATOM     64  C   UNL A   1      41.970  32.034  37.252  1.00  0.00     0.031 C 
ATOM     65  C   UNL A   1      40.096  33.026  35.969  1.00  0.00     0.037 A 
BRANCH  52  66
ATOM     66  C   UNL A   1      36.899  32.482  30.718  1.00  0.00     0.058 A 
ATOM     67  C   UNL A   1      35.572  32.047  30.853  1.00  0.00     0.135 A 
ATOM     68  C   UNL A   1      37.150  33.534  29.819  1.00  0.00     0.135 A 
ATOM     69  F   UNL A   1      35.273  31.037  31.684  1.00  0.00    -0.206 F 
ATOM     70  C   UNL A   1      34.536  32.634  30.128  1.00  0.00     0.059 A 
ATOM     71  C   UNL A   1      36.128  34.149  29.099  1.00  0.00     0.059 A 
ATOM     72  F   UNL A   1      38.402  33.991  29.649  1.00  0.00    -0.206 F 
ATOM     73  C   UNL A   1      34.824  33.688  29.258  1.00  0.00     0.060 A 
BRANCH  73  74
ATOM     74  S   UNL A   1      33.465  34.455  28.344  1.00  0.00     0.124 S 
ATOM     75  O   UNL A   1      32.585  34.873  29.430  1.00  0.00    -0.237 OA
ATOM     76  O   UNL A   1      34.141  35.529  27.625  1.00  0.00    -0.237 OA
ATOM     77  O   UNL A   1      32.958  33.368  27.510  1.00  0.00    -0.744 OA
ENDBRANCH  73  74
ENDBRANCH  52  66
BRANCH  53  78
ATOM     78  C   UNL A   1      44.383  28.754  36.163  1.00  0.00     0.058 A 
ATOM     79  C   UNL A   1      44.237  27.692  37.067  1.00  0.00     0.135 A 
ATOM     80  C   UNL A   1      45.657  29.335  36.039  1.00  0.00     0.135 A 
ATOM     81  F   UNL A   1      43.037  27.115  37.234  1.00  0.00    -0.206 F 
ATOM     82  C   UNL A   1      45.305  27.235  37.831  1.00  0.00     0.059 A 
ATOM     83  C   UNL A   1      46.748  28.869  36.764  1.00  0.00     0.059 A 
ATOM     84  F   UNL A   1      45.855  30.353  35.186  1.00  0.00    -0.206 F 
ATOM     85  C   UNL A   1      46.558  27.828  37.670  1.00  0.00     0.060 A 
BRANCH  85  86
ATOM     86  S   UNL A   1      47.948  27.204  38.637  1.00  0.00     0.124 S 
ATOM     87  O   UNL A   1      47.582  25.803  38.804  1.00  0.00    -0.237 OA
ATOM     88  O   UNL A   1      49.081  27.469  37.756  1.00  0.00    -0.237 OA
ATOM     89  O   UNL A   1      47.904  28.018  39.849  1.00  0.00    -0.744 OA
ENDBRANCH  85  86
ENDBRANCH  53  78
BRANCH  65  90
ATOM     90  C   UNL A   1      39.937  34.033  37.078  1.00  0.00     0.058 A 
ATOM     91  C   UNL A   1      39.189  33.748  38.232  1.00  0.00     0.135 A 
ATOM     92  C   UNL A   1      40.531  35.301  36.980  1.00  0.00     0.135 A 
ATOM     93  F   UNL A   1      38.596  32.552  38.374  1.00  0.00    -0.206 F 
ATOM     94  C   UNL A   1      38.995  34.701  39.226  1.00  0.00     0.059 A 
ATOM     95  C   UNL A   1      40.376  36.259  37.977  1.00  0.00     0.059 A 
ATOM     96  F   UNL A   1      41.267  35.623  35.906  1.00  0.00    -0.206 F 
ATOM     97  C   UNL A   1      39.587  35.958  39.086  1.00  0.00     0.060 A 
BRANCH  97  98
ATOM     98  S   UNL A   1      39.314  37.193  40.374  1.00  0.00     0.124 S 
ATOM     99  O   UNL A   1      40.682  37.525  40.757  1.00  0.00    -0.237 OA
ATOM    100  O   UNL A   1      38.585  38.236  39.661  1.00  0.00    -0.237 OA
ATOM    101  O   UNL A   1      38.540  36.470  41.379  1.00  0.00    -0.744 OA
ENDBRANCH  97  98
ENDBRANCH  65  90
ENDBRANCH  39  40
ENDBRANCH  32  34
ENDBRANCH  31  32
ENDBRANCH  30  31
ENDBRANCH  29  30
ENDBRANCH  28  29
ENDBRANCH   1  28
TORSDOF 24
ENDMDL
MODEL 2
REMARK VINA RESULT:      -9.9      1.567      3.528
REMARK SMILES Cc1cnc(S[C@H]2CC[C@@]([NH2+]C(C)C)(C(=O)OCCOCCOCCOC(=O)c3ccc(-c4c5nc(c(-c6c(F)cc(S(=O)(=O)[O-])cc6F)c6ccc([nH]6)c(-c6c(F)cc(S(=O)(=O)[O-])cc6F)c6nc(c(-c7c(F)cc(S(=O)(=O)[O-])cc7F)c7ccc4[nH]7)C=C6)C=C5)cc3)C2)nc1
REMARK SMILES IDX 22 1 21 2 20 3 19 4 18 5 17 6 15 7 16 8 10 9 7 10 8 11 95 12
REMARK SMILES IDX 9 13 6 14 5 15 1 16 2 17 3 18 97 19 4 20 96 21 11 22 12 25
REMARK SMILES IDX 13 26 14 27 23 28 24 29 25 30 26 31 27 32 28 33 29 34 30 35
REMARK SMILES IDX 94 36 31 37 93 38 32 39 33 40 34 41 87 42 35 43 92 44 86 45
REMARK SMILES IDX 88 46 36 47 91 48 85 49 84 50 37 52 71 53 50 54 70 55 51 56
REMARK SMILES IDX 54 57 69 58 89 59 52 60 53 61 68 63 90 64 55 65 38 66 39 67
REMARK SMILES IDX 48 68 40 69 41 70 47 71 49 72 42 73 43 74 44 75 45 76 46 77
REMARK SMILES IDX 72 78 73 79 82 80 74 81 75 82 81 83 83 84 76 85 77 86 78 87
REMARK SMILES IDX 79 88 80 89 56 90 57 91 66 92 58 93 59 94 65 95 67 96 60 97
REMARK SMILES IDX 61 98 62 99 63 100 64 101
REMARK H PARENT 11 23 11 24 88 51 54 62
REMARK Flexibility Score: inf
ROOT
ATOM      1  C   UNL A   1      38.534  23.104  26.732  1.00  0.00     0.188 C 
ENDROOT
BRANCH   1   2
ATOM      2  C   UNL A   1      37.965  22.428  25.467  1.00  0.00     0.188 C 
BRANCH   2   3
ATOM      3  O   UNL A   1      36.576  22.418  25.192  1.00  0.00    -0.376 OA
BRANCH   3   4
ATOM      4  C   UNL A   1      35.932  23.608  24.794  1.00  0.00     0.202 C 
BRANCH   4   5
ATOM      5  C   UNL A   1      34.621  23.966  25.499  1.00  0.00     0.261 C 
BRANCH   5   6
ATOM      6  O   UNL A   1      34.426  25.358  25.815  1.00  0.00    -0.459 OA
BRANCH   6   7
ATOM      7  C   UNL A   1      33.134  25.704  26.065  1.00  0.00     0.368 C 
ATOM      8  O   UNL A   1      32.306  24.926  26.538  1.00  0.00    -0.245 OA
BRANCH   7   9
ATOM      9  C   UNL A   1      32.738  27.131  25.605  1.00  0.00     0.195 C 
ATOM     10  C   UNL A   1      32.639  28.019  23.188  1.00  0.00     0.062 C 
ATOM     11  C   UNL A   1      31.464  28.496  24.052  1.00  0.00     0.022 C 
ATOM     12  C   UNL A   1      33.586  27.488  24.313  1.00  0.00     0.096 C 
ATOM     13  C   UNL A   1      31.302  27.371  25.100  1.00  0.00     0.082 C 
BRANCH  10  14
ATOM     14  S   UNL A   1      31.835  26.775  22.065  1.00  0.00    -0.083 SA
BRANCH  14  15
ATOM     15  C   UNL A   1      32.254  25.101  22.486  1.00  0.00     0.187 A 
ATOM     16  C   UNL A   1      32.211  20.887  22.902  1.00  0.00     0.048 C 
ATOM     17  C   UNL A   1      32.280  22.373  22.776  1.00  0.00    -0.014 A 
ATOM     18  C   UNL A   1      33.214  23.069  22.029  1.00  0.00     0.119 A 
ATOM     19  C   UNL A   1      31.325  23.169  23.353  1.00  0.00     0.119 A 
ATOM     20  N   UNL A   1      33.230  24.426  21.865  1.00  0.00    -0.231 NA
ATOM     21  N   UNL A   1      31.283  24.508  23.212  1.00  0.00    -0.231 NA
ENDBRANCH  14  15
ENDBRANCH  10  14
BRANCH   9  22
ATOM     22  N   UNL A   1      32.839  28.084  26.759  1.00  0.00    -0.330 N 
ATOM     23  H   UNL A   1      33.297  27.583  27.520  1.00  0.00     0.347 HD
ATOM     24  H   UNL A   1      31.875  28.377  26.914  1.00  0.00     0.347 HD
BRANCH  22  25
ATOM     25  C   UNL A   1      33.562  29.352  26.587  1.00  0.00     0.176 C 
ATOM     26  C   UNL A   1      32.689  30.529  27.002  1.00  0.00     0.075 C 
ATOM     27  C   UNL A   1      34.850  29.307  27.415  1.00  0.00     0.075 C 
ENDBRANCH  22  25
ENDBRANCH   9  22
ENDBRANCH   7   9
ENDBRANCH   6   7
ENDBRANCH   5   6
ENDBRANCH   4   5
ENDBRANCH   3   4
ENDBRANCH   2   3
ENDBRANCH   1   2
BRANCH   1  28
ATOM     28  O   UNL A   1      39.857  22.835  27.159  1.00  0.00    -0.376 OA
BRANCH  28  29
ATOM     29  C   UNL A   1      40.742  22.263  26.209  1.00  0.00     0.202 C 
BRANCH  29  30
ATOM     30  C   UNL A   1      42.170  22.823  26.137  1.00  0.00     0.261 C 
BRANCH  30  31
ATOM     31  O   UNL A   1      42.372  23.940  27.024  1.00  0.00    -0.460 OA
BRANCH  31  32
ATOM     32  C   UNL A   1      42.352  25.154  26.433  1.00  0.00     0.338 C 
ATOM     33  O   UNL A   1      42.668  25.367  25.274  1.00  0.00    -0.246 OA
BRANCH  32  34
ATOM     34  C   UNL A   1      41.819  26.236  27.321  1.00  0.00     0.060 A 
ATOM     35  C   UNL A   1      42.479  27.452  27.532  1.00  0.00     0.016 A 
ATOM     36  C   UNL A   1      40.753  25.907  28.162  1.00  0.00     0.016 A 
ATOM     37  C   UNL A   1      42.188  28.239  28.658  1.00  0.00     0.010 A 
ATOM     38  C   UNL A   1      40.409  26.734  29.240  1.00  0.00     0.010 A 
ATOM     39  C   UNL A   1      41.160  27.882  29.542  1.00  0.00    -0.014 A 
BRANCH  39  40
ATOM     40  C   UNL A   1      40.870  28.670  30.779  1.00  0.00     0.031 A 
ATOM     41  C   UNL A   1      39.768  29.709  30.801  1.00  0.00     0.074 A 
ATOM     42  C   UNL A   1      41.599  28.476  31.896  1.00  0.00     0.049 A 
ATOM     43  N   UNL A   1      39.494  30.619  31.703  1.00  0.00    -0.248 NA
ATOM     44  C   UNL A   1      38.840  29.715  29.660  1.00  0.00     0.031 C 
ATOM     45  C   UNL A   1      42.639  27.461  32.061  1.00  0.00     0.029 A 
ATOM     46  N   UNL A   1      41.590  29.140  33.099  1.00  0.00    -0.354 N 
ATOM     47  C   UNL A   1      38.387  31.321  31.228  1.00  0.00     0.074 A 
ATOM     48  C   UNL A   1      38.028  30.721  29.961  1.00  0.00     0.031 C 
ATOM     49  C   UNL A   1      43.169  27.569  33.289  1.00  0.00     0.029 A 
ATOM     50  C   UNL A   1      42.577  28.720  33.962  1.00  0.00     0.049 A 
ATOM     51  H   UNL A   1      40.943  29.847  33.323  1.00  0.00     0.167 HD
ATOM     52  C   UNL A   1      37.746  32.379  31.787  1.00  0.00     0.037 A 
ATOM     53  C   UNL A   1      43.013  29.238  35.127  1.00  0.00     0.037 A 
ATOM     54  C   UNL A   1      38.116  32.979  33.047  1.00  0.00     0.049 A 
ATOM     55  C   UNL A   1      42.366  30.483  35.669  1.00  0.00     0.074 A 
ATOM     56  C   UNL A   1      37.540  34.067  33.686  1.00  0.00     0.029 A 
ATOM     57  N   UNL A   1      39.160  32.556  33.854  1.00  0.00    -0.354 N 
ATOM     58  N   UNL A   1      41.354  31.166  35.187  1.00  0.00    -0.248 NA
ATOM     59  C   UNL A   1      42.935  31.041  36.904  1.00  0.00     0.031 C 
ATOM     60  C   UNL A   1      38.275  34.337  34.845  1.00  0.00     0.029 A 
ATOM     61  C   UNL A   1      39.269  33.382  34.963  1.00  0.00     0.049 A 
ATOM     62  H   UNL A   1      39.739  31.782  33.668  1.00  0.00     0.167 HD
ATOM     63  C   UNL A   1      41.158  32.225  36.069  1.00  0.00     0.074 A 
ATOM     64  C   UNL A   1      42.136  32.075  37.126  1.00  0.00     0.031 C 
ATOM     65  C   UNL A   1      40.252  33.232  36.007  1.00  0.00     0.037 A 
BRANCH  52  66
ATOM     66  C   UNL A   1      36.610  33.018  31.028  1.00  0.00     0.058 A 
ATOM     67  C   UNL A   1      35.274  32.906  31.440  1.00  0.00     0.135 A 
ATOM     68  C   UNL A   1      36.883  33.848  29.926  1.00  0.00     0.135 A 
ATOM     69  F   UNL A   1      34.950  32.117  32.475  1.00  0.00    -0.206 F 
ATOM     70  C   UNL A   1      34.251  33.593  30.788  1.00  0.00     0.059 A 
ATOM     71  C   UNL A   1      35.881  34.559  29.271  1.00  0.00     0.059 A 
ATOM     72  F   UNL A   1      38.145  33.992  29.487  1.00  0.00    -0.206 F 
ATOM     73  C   UNL A   1      34.565  34.421  29.707  1.00  0.00     0.060 A 
BRANCH  73  74
ATOM     74  S   UNL A   1      33.230  35.323  28.888  1.00  0.00     0.124 S 
ATOM     75  O   UNL A   1      32.658  34.284  28.037  1.00  0.00    -0.237 OA
ATOM     76  O   UNL A   1      32.405  35.747  30.013  1.00  0.00    -0.237 OA
ATOM     77  O   UNL A   1      33.925  36.398  28.184  1.00  0.00    -0.744 OA
ENDBRANCH  73  74
ENDBRANCH  52  66
BRANCH  53  78
ATOM     78  C   UNL A   1      44.181  28.629  35.821  1.00  0.00     0.058 A 
ATOM     79  C   UNL A   1      44.015  27.639  36.800  1.00  0.00     0.135 A 
ATOM     80  C   UNL A   1      45.493  29.037  35.522  1.00  0.00     0.135 A 
ATOM     81  F   UNL A   1      42.782  27.227  37.133  1.00  0.00    -0.206 F 
ATOM     82  C   UNL A   1      45.102  27.089  37.471  1.00  0.00     0.059 A 
ATOM     83  C   UNL A   1      46.597  28.475  36.152  1.00  0.00     0.059 A 
ATOM     84  F   UNL A   1      45.711  29.979  34.590  1.00  0.00    -0.206 F 
ATOM     85  C   UNL A   1      46.390  27.512  37.137  1.00  0.00     0.060 A 
BRANCH  85  86
ATOM     86  S   UNL A   1      47.799  26.766  37.985  1.00  0.00     0.124 S 
ATOM     87  O   UNL A   1      48.249  27.867  38.828  1.00  0.00    -0.237 OA
ATOM     88  O   UNL A   1      47.181  25.641  38.678  1.00  0.00    -0.237 OA
ATOM     89  O   UNL A   1      48.693  26.402  36.890  1.00  0.00    -0.744 OA
ENDBRANCH  85  86
ENDBRANCH  53  78
BRANCH  65  90
ATOM     90  C   UNL A   1      40.264  34.232  37.131  1.00  0.00     0.058 A 
ATOM     91  C   UNL A   1      41.085  35.371  37.099  1.00  0.00     0.135 A 
ATOM     92  C   UNL A   1      39.451  34.046  38.260  1.00  0.00     0.135 A 
ATOM     93  F   UNL A   1      41.886  35.595  36.045  1.00  0.00    -0.206 F 
ATOM     94  C   UNL A   1      41.137  36.262  38.166  1.00  0.00     0.059 A 
ATOM     95  C   UNL A   1      39.463  34.940  39.326  1.00  0.00     0.059 A 
ATOM     96  F   UNL A   1      38.636  32.982  38.339  1.00  0.00    -0.206 F 
ATOM     97  C   UNL A   1      40.326  36.033  39.280  1.00  0.00     0.060 A 
BRANCH  97  98
ATOM     98  S   UNL A   1      40.414  37.186  40.666  1.00  0.00     0.124 S 
ATOM     99  O   UNL A   1      39.037  37.171  41.148  1.00  0.00    -0.237 OA
ATOM    100  O   UNL A   1      41.398  36.553  41.540  1.00  0.00    -0.237 OA
ATOM    101  O   UNL A   1      40.847  38.433  40.044  1.00  0.00    -0.744 OA
ENDBRANCH  97  98
ENDBRANCH  65  90
ENDBRANCH  39  40
ENDBRANCH  32  34
ENDBRANCH  31  32
ENDBRANCH  30  31
ENDBRANCH  29  30
ENDBRANCH  28  29
ENDBRANCH   1  28
TORSDOF 24
ENDMDL
MODEL 3
REMARK VINA RESULT:      -9.8      1.337      2.138
REMARK SMILES Cc1cnc(S[C@H]2CC[C@@]([NH2+]C(C)C)(C(=O)OCCOCCOCCOC(=O)c3ccc(-c4c5nc(c(-c6c(F)cc(S(=O)(=O)[O-])cc6F)c6ccc([nH]6)c(-c6c(F)cc(S(=O)(=O)[O-])cc6F)c6nc(c(-c7c(F)cc(S(=O)(=O)[O-])cc7F)c7ccc4[nH]7)C=C6)C=C5)cc3)C2)nc1
REMARK SMILES IDX 22 1 21 2 20 3 19 4 18 5 17 6 15 7 16 8 10 9 7 10 8 11 95 12
REMARK SMILES IDX 9 13 6 14 5 15 1 16 2 17 3 18 97 19 4 20 96 21 11 22 12 25
REMARK SMILES IDX 13 26 14 27 23 28 24 29 25 30 26 31 27 32 28 33 29 34 30 35
REMARK SMILES IDX 94 36 31 37 93 38 32 39 33 40 34 41 87 42 35 43 92 44 86 45
REMARK SMILES IDX 88 46 36 47 91 48 85 49 84 50 37 52 71 53 50 54 70 55 51 56
REMARK SMILES IDX 54 57 69 58 89 59 52 60 53 61 68 63 90 64 55 65 38 66 39 67
REMARK SMILES IDX 48 68 40 69 41 70 47 71 49 72 42 73 43 74 44 75 45 76 46 77
REMARK SMILES IDX 72 78 73 79 82 80 74 81 75 82 81 83 83 84 76 85 77 86 78 87
REMARK SMILES IDX 79 88 80 89 56 90 57 91 66 92 58 93 59 94 65 95 67 96 60 97
REMARK SMILES IDX 61 98 62 99 63 100 64 101
REMARK H PARENT 11 23 11 24 88 51 54 62
REMARK Flexibility Score: inf
ROOT
ATOM      1  C   UNL A   1      40.055  22.562  26.888  1.00  0.00     0.188 C 
ENDROOT
BRANCH   1   2
ATOM      2  C   UNL A   1      39.071  21.774  25.999  1.00  0.00     0.188 C 
BRANCH   2   3
ATOM      3  O   UNL A   1      37.699  22.117  25.925  1.00  0.00    -0.376 OA
BRANCH   3   4
ATOM      4  C   UNL A   1      37.323  23.423  25.546  1.00  0.00     0.202 C 
BRANCH   4   5
ATOM      5  C   UNL A   1      36.403  23.564  24.331  1.00  0.00     0.261 C 
BRANCH   5   6
ATOM      6  O   UNL A   1      35.373  24.566  24.424  1.00  0.00    -0.459 OA
BRANCH   6   7
ATOM      7  C   UNL A   1      34.329  24.385  23.571  1.00  0.00     0.368 C 
ATOM      8  O   UNL A   1      34.322  24.804  22.413  1.00  0.00    -0.245 OA
BRANCH   7   9
ATOM      9  C   UNL A   1      33.084  23.703  24.194  1.00  0.00     0.195 C 
ATOM     10  C   UNL A   1      31.235  24.819  25.600  1.00  0.00     0.062 C 
ATOM     11  C   UNL A   1      30.690  23.797  24.594  1.00  0.00     0.022 C 
ATOM     12  C   UNL A   1      32.750  24.436  25.561  1.00  0.00     0.096 C 
ATOM     13  C   UNL A   1      31.735  23.813  23.455  1.00  0.00     0.082 C 
BRANCH  10  14
ATOM     14  S   UNL A   1      30.726  26.439  24.846  1.00  0.00    -0.083 SA
BRANCH  14  15
ATOM     15  C   UNL A   1      31.490  27.835  25.637  1.00  0.00     0.187 A 
ATOM     16  C   UNL A   1      34.278  30.429  27.487  1.00  0.00     0.048 C 
ATOM     17  C   UNL A   1      33.257  29.558  26.832  1.00  0.00    -0.014 A 
ATOM     18  C   UNL A   1      32.682  29.794  25.596  1.00  0.00     0.119 A 
ATOM     19  C   UNL A   1      32.875  28.375  27.407  1.00  0.00     0.119 A 
ATOM     20  N   UNL A   1      31.798  28.957  24.974  1.00  0.00    -0.231 NA
ATOM     21  N   UNL A   1      32.021  27.506  26.832  1.00  0.00    -0.231 NA
ENDBRANCH  14  15
ENDBRANCH  10  14
BRANCH   9  22
ATOM     22  N   UNL A   1      33.296  22.219  24.261  1.00  0.00    -0.330 N 
ATOM     23  H   UNL A   1      34.284  22.051  24.073  1.00  0.00     0.347 HD
ATOM     24  H   UNL A   1      32.628  21.850  23.584  1.00  0.00     0.347 HD
BRANCH  22  25
ATOM     25  C   UNL A   1      32.968  21.499  25.499  1.00  0.00     0.176 C 
ATOM     26  C   UNL A   1      32.322  20.156  25.185  1.00  0.00     0.075 C 
ATOM     27  C   UNL A   1      34.248  21.312  26.320  1.00  0.00     0.075 C 
ENDBRANCH  22  25
ENDBRANCH   9  22
ENDBRANCH   7   9
ENDBRANCH   6   7
ENDBRANCH   5   6
ENDBRANCH   4   5
ENDBRANCH   3   4
ENDBRANCH   2   3
ENDBRANCH   1   2
BRANCH   1  28
ATOM     28  O   UNL A   1      41.119  21.899  27.548  1.00  0.00    -0.376 OA
BRANCH  28  29
ATOM     29  C   UNL A   1      42.264  21.580  26.775  1.00  0.00     0.202 C 
BRANCH  29  30
ATOM     30  C   UNL A   1      42.942  22.719  26.000  1.00  0.00     0.261 C 
BRANCH  30  31
ATOM     31  O   UNL A   1      43.293  23.831  26.847  1.00  0.00    -0.460 OA
BRANCH  31  32
ATOM     32  C   UNL A   1      43.187  25.048  26.270  1.00  0.00     0.338 C 
ATOM     33  O   UNL A   1      43.504  25.301  25.119  1.00  0.00    -0.246 OA
BRANCH  32  34
ATOM     34  C   UNL A   1      42.556  26.072  27.162  1.00  0.00     0.060 A 
ATOM     35  C   UNL A   1      43.103  27.341  27.381  1.00  0.00     0.016 A 
ATOM     36  C   UNL A   1      41.522  25.643  27.998  1.00  0.00     0.016 A 
ATOM     37  C   UNL A   1      42.739  28.093  28.511  1.00  0.00     0.010 A 
ATOM     38  C   UNL A   1      41.102  26.430  29.079  1.00  0.00     0.010 A 
ATOM     39  C   UNL A   1      41.745  27.639  29.389  1.00  0.00    -0.014 A 
BRANCH  39  40
ATOM     40  C   UNL A   1      41.381  28.391  30.630  1.00  0.00     0.031 A 
ATOM     41  C   UNL A   1      40.232  29.377  30.635  1.00  0.00     0.074 A 
ATOM     42  C   UNL A   1      42.085  28.211  31.765  1.00  0.00     0.049 A 
ATOM     43  N   UNL A   1      39.888  30.257  31.543  1.00  0.00    -0.248 NA
ATOM     44  C   UNL A   1      39.339  29.360  29.466  1.00  0.00     0.031 C 
ATOM     45  C   UNL A   1      43.167  27.242  31.946  1.00  0.00     0.029 A 
ATOM     46  N   UNL A   1      42.009  28.853  32.979  1.00  0.00    -0.354 N 
ATOM     47  C   UNL A   1      38.765  30.915  31.046  1.00  0.00     0.074 A 
ATOM     48  C   UNL A   1      38.472  30.322  29.758  1.00  0.00     0.031 C 
ATOM     49  C   UNL A   1      43.653  27.353  33.191  1.00  0.00     0.029 A 
ATOM     50  C   UNL A   1      42.989  28.463  33.864  1.00  0.00     0.049 A 
ATOM     51  H   UNL A   1      41.323  29.525  33.193  1.00  0.00     0.167 HD
ATOM     52  C   UNL A   1      38.058  31.932  31.602  1.00  0.00     0.037 A 
ATOM     53  C   UNL A   1      43.364  28.980  35.050  1.00  0.00     0.037 A 
ATOM     54  C   UNL A   1      38.362  32.527  32.883  1.00  0.00     0.049 A 
ATOM     55  C   UNL A   1      42.644  30.184  35.592  1.00  0.00     0.074 A 
ATOM     56  C   UNL A   1      37.717  33.575  33.521  1.00  0.00     0.029 A 
ATOM     57  N   UNL A   1      39.400  32.138  33.715  1.00  0.00    -0.354 N 
ATOM     58  N   UNL A   1      41.616  30.828  35.091  1.00  0.00    -0.248 NA
ATOM     59  C   UNL A   1      43.149  30.746  36.853  1.00  0.00     0.031 C 
ATOM     60  C   UNL A   1      38.404  33.859  34.707  1.00  0.00     0.029 A 
ATOM     61  C   UNL A   1      39.437  32.949  34.840  1.00  0.00     0.049 A 
ATOM     62  H   UNL A   1      40.020  31.395  33.534  1.00  0.00     0.167 HD
ATOM     63  C   UNL A   1      41.344  31.860  35.984  1.00  0.00     0.074 A 
ATOM     64  C   UNL A   1      42.297  31.738  37.067  1.00  0.00     0.031 C 
ATOM     65  C   UNL A   1      40.395  32.826  35.910  1.00  0.00     0.037 A 
BRANCH  52  66
ATOM     66  C   UNL A   1      36.917  32.531  30.819  1.00  0.00     0.058 A 
ATOM     67  C   UNL A   1      35.577  32.212  31.081  1.00  0.00     0.135 A 
ATOM     68  C   UNL A   1      37.173  33.528  29.859  1.00  0.00     0.135 A 
ATOM     69  F   UNL A   1      35.271  31.259  31.974  1.00  0.00    -0.206 F 
ATOM     70  C   UNL A   1      34.532  32.856  30.420  1.00  0.00     0.059 A 
ATOM     71  C   UNL A   1      36.145  34.199  29.201  1.00  0.00     0.059 A 
ATOM     72  F   UNL A   1      38.437  33.874  29.568  1.00  0.00    -0.206 F 
ATOM     73  C   UNL A   1      34.827  33.852  29.486  1.00  0.00     0.060 A 
BRANCH  73  74
ATOM     74  S   UNL A   1      33.459  34.695  28.656  1.00  0.00     0.124 S 
ATOM     75  O   UNL A   1      32.586  35.009  29.783  1.00  0.00    -0.237 OA
ATOM     76  O   UNL A   1      34.127  35.834  28.035  1.00  0.00    -0.237 OA
ATOM     77  O   UNL A   1      32.949  33.688  27.729  1.00  0.00    -0.744 OA
ENDBRANCH  73  74
ENDBRANCH  52  66
BRANCH  53  78
ATOM     78  C   UNL A   1      44.539  28.414  35.769  1.00  0.00     0.058 A 
ATOM     79  C   UNL A   1      45.843  28.852  35.499  1.00  0.00     0.135 A 
ATOM     80  C   UNL A   1      44.377  27.408  36.738  1.00  0.00     0.135 A 
ATOM     81  F   UNL A   1      46.053  29.798  34.570  1.00  0.00    -0.206 F 
ATOM     82  C   UNL A   1      46.945  28.304  36.147  1.00  0.00     0.059 A 
ATOM     83  C   UNL A   1      45.459  26.873  37.427  1.00  0.00     0.059 A 
ATOM     84  F   UNL A   1      43.150  26.953  37.040  1.00  0.00    -0.206 F 
ATOM     85  C   UNL A   1      46.741  27.316  37.113  1.00  0.00     0.060 A 
BRANCH  85  86
ATOM     86  S   UNL A   1      48.173  26.637  37.978  1.00  0.00     0.124 S 
ATOM     87  O   UNL A   1      48.257  25.301  37.399  1.00  0.00    -0.237 OA
ATOM     88  O   UNL A   1      49.232  27.566  37.598  1.00  0.00    -0.237 OA
ATOM     89  O   UNL A   1      47.774  26.694  39.381  1.00  0.00    -0.744 OA
ENDBRANCH  85  86
ENDBRANCH  53  78
BRANCH  65  90
ATOM     90  C   UNL A   1      40.326  33.805  37.051  1.00  0.00     0.058 A 
ATOM     91  C   UNL A   1      39.483  33.596  38.154  1.00  0.00     0.135 A 
ATOM     92  C   UNL A   1      41.105  34.973  37.036  1.00  0.00     0.135 A 
ATOM     93  F   UNL A   1      38.712  32.498  38.216  1.00  0.00    -0.206 F 
ATOM     94  C   UNL A   1      39.378  34.533  39.178  1.00  0.00     0.059 A 
ATOM     95  C   UNL A   1      41.040  35.908  38.064  1.00  0.00     0.059 A 
ATOM     96  F   UNL A   1      41.939  35.218  36.013  1.00  0.00    -0.206 F 
ATOM     97  C   UNL A   1      40.156  35.690  39.120  1.00  0.00     0.060 A 
BRANCH  97  98
ATOM     98  S   UNL A   1      40.000  36.906  40.445  1.00  0.00     0.124 S 
ATOM     99  O   UNL A   1      41.008  36.441  41.391  1.00  0.00    -0.237 OA
ATOM    100  O   UNL A   1      40.304  38.159  39.760  1.00  0.00    -0.237 OA
ATOM    101  O   UNL A   1      38.614  36.758  40.880  1.00  0.00    -0.744 OA
ENDBRANCH  97  98
ENDBRANCH  65  90
ENDBRANCH  39  40
ENDBRANCH  32  34
ENDBRANCH  31  32
ENDBRANCH  30  31
ENDBRANCH  29  30
ENDBRANCH  28  29
ENDBRANCH   1  28
TORSDOF 24
ENDMDL
