MODEL 1
REMARK VINA RESULT:      -8.9      0.000      0.000
REMARK SMILES C=CC[NH2+]CC(=O)N1CC[C@@H](CC(=O)OCCOCCOCCOC(=O)c2ccc(-c3c4nc(c(-c5c(F)cc(S(=O)(=O)[O-])cc5F)c5ccc([nH]5)c(-c5c(F)cc(S(=O)(=O)[O-])cc5F)c5nc(c(-c6c(F)cc(S(=O)(=O)[O-])cc6F)c6ccc3[nH]6)C=C5)C=C4)cc2)C1
REMARK SMILES IDX 18 1 17 2 16 3 15 4 13 5 14 6 12 7 11 8 8 9 9 10 93 11 10 12
REMARK SMILES IDX 6 13 7 14 5 15 4 16 3 19 2 20 1 21 19 22 20 23 21 24 22 25
REMARK SMILES IDX 23 26 24 27 25 28 26 29 27 30 28 31 92 32 29 33 91 34 30 35
REMARK SMILES IDX 31 36 32 37 85 38 33 39 90 40 84 41 86 42 34 43 89 44 83 45
REMARK SMILES IDX 82 46 35 48 69 49 48 50 68 51 49 52 52 53 67 54 87 55 50 56
REMARK SMILES IDX 51 57 66 59 88 60 53 61 36 62 37 63 46 64 38 65 39 66 45 67
REMARK SMILES IDX 47 68 40 69 41 70 42 71 43 72 44 73 70 74 71 75 80 76 72 77
REMARK SMILES IDX 73 78 79 79 81 80 74 81 75 82 76 83 77 84 78 85 54 86 55 87
REMARK SMILES IDX 64 88 56 89 57 90 63 91 65 92 58 93 59 94 60 95 61 96 62 97
REMARK H PARENT 4 17 4 18 86 47 52 58
REMARK Flexibility Score: inf
ROOT
ATOM      1  O   UNL A   1      38.823  21.279  25.351  1.00  0.00    -0.376 OA
ENDROOT
BRANCH   1   2
ATOM      2  C   UNL A   1      37.515  21.344  24.788  1.00  0.00     0.202 C 
BRANCH   2   3
ATOM      3  C   UNL A   1      36.461  22.111  25.596  1.00  0.00     0.261 C 
BRANCH   3   4
ATOM      4  O   UNL A   1      35.359  21.290  26.023  1.00  0.00    -0.463 OA
BRANCH   4   5
ATOM      5  C   UNL A   1      34.546  20.810  25.049  1.00  0.00     0.306 C 
ATOM      6  O   UNL A   1      34.486  19.636  24.702  1.00  0.00    -0.252 OA
BRANCH   5   7
ATOM      7  C   UNL A   1      33.692  21.874  24.388  1.00  0.00     0.128 C 
BRANCH   7   8
ATOM      8  C   UNL A   1      32.578  22.551  25.202  1.00  0.00     0.021 C 
ATOM      9  N   UNL A   1      32.395  24.894  24.766  1.00  0.00    -0.338 N 
ATOM     10  C   UNL A   1      31.621  24.201  23.753  1.00  0.00     0.120 C 
ATOM     11  C   UNL A   1      32.921  23.948  25.731  1.00  0.00     0.124 C 
ATOM     12  C   UNL A   1      31.350  22.822  24.321  1.00  0.00     0.027 C 
BRANCH   9  13
ATOM     13  C   UNL A   1      32.758  26.229  24.836  1.00  0.00     0.277 C 
ATOM     14  O   UNL A   1      33.884  26.603  24.492  1.00  0.00    -0.268 OA
BRANCH  13  15
ATOM     15  C   UNL A   1      31.790  27.240  25.483  1.00  0.00     0.362 C 
BRANCH  15  16
ATOM     16  N   UNL A   1      31.484  27.005  26.914  1.00  0.00    -0.335 N 
ATOM     17  H   UNL A   1      30.535  26.643  27.005  1.00  0.00     0.347 HD
ATOM     18  H   UNL A   1      32.141  26.325  27.298  1.00  0.00     0.347 HD
BRANCH  16  19
ATOM     19  C   UNL A   1      31.597  28.252  27.638  1.00  0.00     0.289 C 
BRANCH  19  20
ATOM     20  C   UNL A   1      31.899  29.476  26.851  1.00  0.00     0.025 C 
ATOM     21  C   UNL A   1      32.855  30.329  27.250  1.00  0.00     0.010 C 
ENDBRANCH  19  20
ENDBRANCH  16  19
ENDBRANCH  15  16
ENDBRANCH  13  15
ENDBRANCH   9  13
ENDBRANCH   7   8
ENDBRANCH   5   7
ENDBRANCH   4   5
ENDBRANCH   3   4
ENDBRANCH   2   3
ENDBRANCH   1   2
BRANCH   1  22
ATOM     22  C   UNL A   1      39.144  22.253  26.337  1.00  0.00     0.188 C 
BRANCH  22  23
ATOM     23  C   UNL A   1      40.633  22.504  26.587  1.00  0.00     0.188 C 
BRANCH  23  24
ATOM     24  O   UNL A   1      41.534  21.910  25.659  1.00  0.00    -0.376 OA
BRANCH  24  25
ATOM     25  C   UNL A   1      42.912  22.282  25.798  1.00  0.00     0.202 C 
BRANCH  25  26
ATOM     26  C   UNL A   1      43.350  23.627  25.181  1.00  0.00     0.261 C 
BRANCH  26  27
ATOM     27  O   UNL A   1      43.313  24.760  26.075  1.00  0.00    -0.460 OA
BRANCH  27  28
ATOM     28  C   UNL A   1      42.364  25.709  25.859  1.00  0.00     0.338 C 
ATOM     29  O   UNL A   1      41.605  25.766  24.922  1.00  0.00    -0.246 OA
BRANCH  28  30
ATOM     30  C   UNL A   1      42.219  26.516  27.111  1.00  0.00     0.060 A 
ATOM     31  C   UNL A   1      41.221  26.142  28.022  1.00  0.00     0.016 A 
ATOM     32  C   UNL A   1      43.088  27.564  27.430  1.00  0.00     0.016 A 
ATOM     33  C   UNL A   1      41.058  26.842  29.222  1.00  0.00     0.010 A 
ATOM     34  C   UNL A   1      42.921  28.269  28.630  1.00  0.00     0.010 A 
ATOM     35  C   UNL A   1      41.880  27.937  29.517  1.00  0.00    -0.014 A 
BRANCH  35  36
ATOM     36  C   UNL A   1      41.529  28.850  30.638  1.00  0.00     0.031 A 
ATOM     37  C   UNL A   1      42.335  28.764  31.909  1.00  0.00     0.074 A 
ATOM     38  C   UNL A   1      40.538  29.756  30.542  1.00  0.00     0.049 A 
ATOM     39  N   UNL A   1      42.206  29.434  33.024  1.00  0.00    -0.248 NA
ATOM     40  C   UNL A   1      43.435  27.786  31.919  1.00  0.00     0.031 C 
ATOM     41  C   UNL A   1      39.693  29.971  29.369  1.00  0.00     0.029 A 
ATOM     42  N   UNL A   1      40.068  30.664  31.463  1.00  0.00    -0.354 N 
ATOM     43  C   UNL A   1      43.199  28.954  33.871  1.00  0.00     0.074 A 
ATOM     44  C   UNL A   1      43.902  27.915  33.150  1.00  0.00     0.031 C 
ATOM     45  C   UNL A   1      38.799  30.938  29.645  1.00  0.00     0.029 A 
ATOM     46  C   UNL A   1      38.986  31.392  31.024  1.00  0.00     0.049 A 
ATOM     47  H   UNL A   1      40.468  30.781  32.355  1.00  0.00     0.167 HD
ATOM     48  C   UNL A   1      43.507  29.345  35.131  1.00  0.00     0.037 A 
ATOM     49  C   UNL A   1      38.223  32.303  31.664  1.00  0.00     0.037 A 
ATOM     50  C   UNL A   1      42.812  30.378  35.852  1.00  0.00     0.049 A 
ATOM     51  C   UNL A   1      38.547  32.684  33.090  1.00  0.00     0.074 A 
ATOM     52  C   UNL A   1      43.076  30.864  37.123  1.00  0.00     0.029 A 
ATOM     53  N   UNL A   1      41.710  31.074  35.380  1.00  0.00    -0.354 N 
ATOM     54  N   UNL A   1      39.514  32.251  33.862  1.00  0.00    -0.248 NA
ATOM     55  C   UNL A   1      37.675  33.683  33.728  1.00  0.00     0.031 C 
ATOM     56  C   UNL A   1      42.098  31.811  37.441  1.00  0.00     0.029 A 
ATOM     57  C   UNL A   1      41.263  31.964  36.346  1.00  0.00     0.049 A 
ATOM     58  H   UNL A   1      41.306  30.956  34.492  1.00  0.00     0.167 HD
ATOM     59  C   UNL A   1      39.384  32.943  35.064  1.00  0.00     0.074 A 
ATOM     60  C   UNL A   1      38.253  33.832  34.913  1.00  0.00     0.031 C 
ATOM     61  C   UNL A   1      40.136  32.850  36.191  1.00  0.00     0.037 A 
BRANCH  48  62
ATOM     62  C   UNL A   1      44.632  28.625  35.824  1.00  0.00     0.058 A 
ATOM     63  C   UNL A   1      44.408  27.494  36.625  1.00  0.00     0.135 A 
ATOM     64  C   UNL A   1      45.956  29.063  35.663  1.00  0.00     0.135 A 
ATOM     65  F   UNL A   1      43.159  27.045  36.828  1.00  0.00    -0.206 F 
ATOM     66  C   UNL A   1      45.455  26.840  37.267  1.00  0.00     0.059 A 
ATOM     67  C   UNL A   1      47.022  28.406  36.272  1.00  0.00     0.059 A 
ATOM     68  F   UNL A   1      46.226  30.141  34.911  1.00  0.00    -0.206 F 
ATOM     69  C   UNL A   1      46.759  27.306  37.084  1.00  0.00     0.060 A 
BRANCH  69  70
ATOM     70  S   UNL A   1      48.105  26.449  37.928  1.00  0.00     0.124 S 
ATOM     71  O   UNL A   1      47.381  25.732  38.975  1.00  0.00    -0.237 OA
ATOM     72  O   UNL A   1      48.663  25.623  36.864  1.00  0.00    -0.237 OA
ATOM     73  O   UNL A   1      48.962  27.535  38.391  1.00  0.00    -0.744 OA
ENDBRANCH  69  70
ENDBRANCH  48  62
BRANCH  49  74
ATOM     74  C   UNL A   1      37.053  32.911  30.972  1.00  0.00     0.058 A 
ATOM     75  C   UNL A   1      37.216  33.927  30.016  1.00  0.00     0.135 A 
ATOM     76  C   UNL A   1      35.744  32.494  31.261  1.00  0.00     0.135 A 
ATOM     77  F   UNL A   1      38.444  34.376  29.718  1.00  0.00    -0.206 F 
ATOM     78  C   UNL A   1      36.125  34.512  29.380  1.00  0.00     0.059 A 
ATOM     79  C   UNL A   1      34.639  33.044  30.618  1.00  0.00     0.059 A 
ATOM     80  F   UNL A   1      35.532  31.525  32.165  1.00  0.00    -0.206 F 
ATOM     81  C   UNL A   1      34.839  34.059  29.684  1.00  0.00     0.060 A 
BRANCH  81  82
ATOM     82  S   UNL A   1      33.436  34.783  28.808  1.00  0.00     0.124 S 
ATOM     83  O   UNL A   1      32.491  35.006  29.897  1.00  0.00    -0.237 OA
ATOM     84  O   UNL A   1      34.028  35.982  28.222  1.00  0.00    -0.237 OA
ATOM     85  O   UNL A   1      33.064  33.744  27.852  1.00  0.00    -0.744 OA
ENDBRANCH  81  82
ENDBRANCH  49  74
BRANCH  61  86
ATOM     86  C   UNL A   1      39.791  33.756  37.344  1.00  0.00     0.058 A 
ATOM     87  C   UNL A   1      38.865  33.383  38.332  1.00  0.00     0.135 A 
ATOM     88  C   UNL A   1      40.440  34.994  37.495  1.00  0.00     0.135 A 
ATOM     89  F   UNL A   1      38.214  32.212  38.238  1.00  0.00    -0.206 F 
ATOM     90  C   UNL A   1      38.573  34.214  39.409  1.00  0.00     0.059 A 
ATOM     91  C   UNL A   1      40.186  35.828  38.581  1.00  0.00     0.059 A 
ATOM     92  F   UNL A   1      41.346  35.397  36.590  1.00  0.00    -0.206 F 
ATOM     93  C   UNL A   1      39.240  35.436  39.526  1.00  0.00     0.060 A 
BRANCH  93  94
ATOM     94  S   UNL A   1      38.871  36.495  40.942  1.00  0.00     0.124 S 
ATOM     95  O   UNL A   1      40.190  36.637  41.553  1.00  0.00    -0.237 OA
ATOM     96  O   UNL A   1      38.337  37.694  40.303  1.00  0.00    -0.237 OA
ATOM     97  O   UNL A   1      37.905  35.717  41.709  1.00  0.00    -0.744 OA
ENDBRANCH  93  94
ENDBRANCH  61  86
ENDBRANCH  35  36
ENDBRANCH  28  30
ENDBRANCH  27  28
ENDBRANCH  26  27
ENDBRANCH  25  26
ENDBRANCH  24  25
ENDBRANCH  23  24
ENDBRANCH  22  23
ENDBRANCH   1  22
TORSDOF 26
ENDMDL
MODEL 2
REMARK VINA RESULT:      -8.8      6.455      9.167
REMARK SMILES C=CC[NH2+]CC(=O)N1CC[C@@H](CC(=O)OCCOCCOCCOC(=O)c2ccc(-c3c4nc(c(-c5c(F)cc(S(=O)(=O)[O-])cc5F)c5ccc([nH]5)c(-c5c(F)cc(S(=O)(=O)[O-])cc5F)c5nc(c(-c6c(F)cc(S(=O)(=O)[O-])cc6F)c6ccc3[nH]6)C=C5)C=C4)cc2)C1
REMARK SMILES IDX 18 1 17 2 16 3 15 4 13 5 14 6 12 7 11 8 8 9 9 10 93 11 10 12
REMARK SMILES IDX 6 13 7 14 5 15 4 16 3 19 2 20 1 21 19 22 20 23 21 24 22 25
REMARK SMILES IDX 23 26 24 27 25 28 26 29 27 30 28 31 92 32 29 33 91 34 30 35
REMARK SMILES IDX 31 36 32 37 85 38 33 39 90 40 84 41 86 42 34 43 89 44 83 45
REMARK SMILES IDX 82 46 35 48 69 49 48 50 68 51 49 52 52 53 67 54 87 55 50 56
REMARK SMILES IDX 51 57 66 59 88 60 53 61 36 62 37 63 46 64 38 65 39 66 45 67
REMARK SMILES IDX 47 68 40 69 41 70 42 71 43 72 44 73 70 74 71 75 80 76 72 77
REMARK SMILES IDX 73 78 79 79 81 80 74 81 75 82 76 83 77 84 78 85 54 86 55 87
REMARK SMILES IDX 64 88 56 89 57 90 63 91 65 92 58 93 59 94 60 95 61 96 62 97
REMARK H PARENT 4 17 4 18 86 47 52 58
REMARK Flexibility Score: inf
ROOT
ATOM      1  O   UNL A   1      38.490  21.343  25.742  1.00  0.00    -0.376 OA
ENDROOT
BRANCH   1   2
ATOM      2  C   UNL A   1      37.648  21.909  24.741  1.00  0.00     0.202 C 
BRANCH   2   3
ATOM      3  C   UNL A   1      36.726  23.050  25.191  1.00  0.00     0.261 C 
BRANCH   3   4
ATOM      4  O   UNL A   1      35.469  23.076  24.491  1.00  0.00    -0.463 OA
BRANCH   4   5
ATOM      5  C   UNL A   1      34.684  24.163  24.694  1.00  0.00     0.306 C 
ATOM      6  O   UNL A   1      34.443  25.022  23.852  1.00  0.00    -0.252 OA
BRANCH   5   7
ATOM      7  C   UNL A   1      34.111  24.249  26.095  1.00  0.00     0.128 C 
BRANCH   7   8
ATOM      8  C   UNL A   1      32.855  23.432  26.440  1.00  0.00     0.021 C 
ATOM      9  N   UNL A   1      32.853  21.259  25.444  1.00  0.00    -0.338 N 
ATOM     10  C   UNL A   1      33.599  21.168  26.686  1.00  0.00     0.120 C 
ATOM     11  C   UNL A   1      32.297  22.589  25.289  1.00  0.00     0.124 C 
ATOM     12  C   UNL A   1      33.174  22.371  27.504  1.00  0.00     0.027 C 
BRANCH   9  13
ATOM     13  C   UNL A   1      32.733  20.333  24.421  1.00  0.00     0.277 C 
ATOM     14  O   UNL A   1      32.082  20.589  23.401  1.00  0.00    -0.268 OA
BRANCH  13  15
ATOM     15  C   UNL A   1      33.301  18.913  24.619  1.00  0.00     0.362 C 
BRANCH  15  16
ATOM     16  N   UNL A   1      33.118  17.988  23.475  1.00  0.00    -0.335 N 
ATOM     17  H   UNL A   1      32.122  17.856  23.298  1.00  0.00     0.347 HD
ATOM     18  H   UNL A   1      33.558  18.381  22.642  1.00  0.00     0.347 HD
BRANCH  16  19
ATOM     19  C   UNL A   1      33.725  16.713  23.789  1.00  0.00     0.289 C 
BRANCH  19  20
ATOM     20  C   UNL A   1      34.792  16.700  24.825  1.00  0.00     0.025 C 
ATOM     21  C   UNL A   1      35.373  15.549  25.197  1.00  0.00     0.010 C 
ENDBRANCH  19  20
ENDBRANCH  16  19
ENDBRANCH  15  16
ENDBRANCH  13  15
ENDBRANCH   9  13
ENDBRANCH   7   8
ENDBRANCH   5   7
ENDBRANCH   4   5
ENDBRANCH   3   4
ENDBRANCH   2   3
ENDBRANCH   1   2
BRANCH   1  22
ATOM     22  C   UNL A   1      39.574  22.145  26.197  1.00  0.00     0.188 C 
BRANCH  22  23
ATOM     23  C   UNL A   1      40.894  21.418  26.465  1.00  0.00     0.188 C 
BRANCH  23  24
ATOM     24  O   UNL A   1      40.962  20.062  26.038  1.00  0.00    -0.376 OA
BRANCH  24  25
ATOM     25  C   UNL A   1      41.963  19.254  26.673  1.00  0.00     0.202 C 
BRANCH  25  26
ATOM     26  C   UNL A   1      42.922  18.464  25.759  1.00  0.00     0.261 C 
BRANCH  26  27
ATOM     27  O   UNL A   1      43.300  19.129  24.534  1.00  0.00    -0.460 OA
BRANCH  27  28
ATOM     28  C   UNL A   1      44.570  19.602  24.433  1.00  0.00     0.338 C 
ATOM     29  O   UNL A   1      45.483  19.088  23.834  1.00  0.00    -0.246 OA
BRANCH  28  30
ATOM     30  C   UNL A   1      44.585  21.007  24.949  1.00  0.00     0.060 A 
ATOM     31  C   UNL A   1      44.314  22.043  24.043  1.00  0.00     0.016 A 
ATOM     32  C   UNL A   1      44.778  21.305  26.301  1.00  0.00     0.016 A 
ATOM     33  C   UNL A   1      44.287  23.373  24.475  1.00  0.00     0.010 A 
ATOM     34  C   UNL A   1      44.756  22.639  26.732  1.00  0.00     0.010 A 
ATOM     35  C   UNL A   1      44.548  23.685  25.815  1.00  0.00    -0.014 A 
BRANCH  35  36
ATOM     36  C   UNL A   1      44.804  25.096  26.214  1.00  0.00     0.031 A 
ATOM     37  C   UNL A   1      46.211  25.627  26.097  1.00  0.00     0.074 A 
ATOM     38  C   UNL A   1      43.823  25.908  26.649  1.00  0.00     0.049 A 
ATOM     39  N   UNL A   1      46.683  26.807  26.403  1.00  0.00    -0.248 NA
ATOM     40  C   UNL A   1      47.218  24.694  25.564  1.00  0.00     0.031 C 
ATOM     41  C   UNL A   1      42.415  25.541  26.789  1.00  0.00     0.029 A 
ATOM     42  N   UNL A   1      43.870  27.218  27.067  1.00  0.00    -0.354 N 
ATOM     43  C   UNL A   1      48.041  26.758  26.109  1.00  0.00     0.074 A 
ATOM     44  C   UNL A   1      48.322  25.421  25.630  1.00  0.00     0.031 C 
ATOM     45  C   UNL A   1      41.735  26.597  27.272  1.00  0.00     0.029 A 
ATOM     46  C   UNL A   1      42.661  27.706  27.506  1.00  0.00     0.049 A 
ATOM     47  H   UNL A   1      44.694  27.757  27.054  1.00  0.00     0.167 HD
ATOM     48  C   UNL A   1      48.973  27.735  26.218  1.00  0.00     0.037 A 
ATOM     49  C   UNL A   1      42.341  28.898  28.051  1.00  0.00     0.037 A 
ATOM     50  C   UNL A   1      48.700  29.066  26.692  1.00  0.00     0.049 A 
ATOM     51  C   UNL A   1      43.406  29.957  28.218  1.00  0.00     0.074 A 
ATOM     52  C   UNL A   1      49.576  30.133  26.806  1.00  0.00     0.029 A 
ATOM     53  N   UNL A   1      47.468  29.512  27.147  1.00  0.00    -0.354 N 
ATOM     54  N   UNL A   1      44.677  29.909  27.897  1.00  0.00    -0.248 NA
ATOM     55  C   UNL A   1      42.990  31.234  28.818  1.00  0.00     0.031 C 
ATOM     56  C   UNL A   1      48.888  31.205  27.383  1.00  0.00     0.029 A 
ATOM     57  C   UNL A   1      47.568  30.828  27.571  1.00  0.00     0.049 A 
ATOM     58  H   UNL A   1      46.645  28.974  27.165  1.00  0.00     0.167 HD
ATOM     59  C   UNL A   1      45.204  31.155  28.230  1.00  0.00     0.074 A 
ATOM     60  C   UNL A   1      44.112  31.939  28.766  1.00  0.00     0.031 C 
ATOM     61  C   UNL A   1      46.477  31.608  28.102  1.00  0.00     0.037 A 
BRANCH  48  62
ATOM     62  C   UNL A   1      50.388  27.389  25.844  1.00  0.00     0.058 A 
ATOM     63  C   UNL A   1      51.298  26.869  26.779  1.00  0.00     0.135 A 
ATOM     64  C   UNL A   1      50.832  27.558  24.523  1.00  0.00     0.135 A 
ATOM     65  F   UNL A   1      50.931  26.704  28.060  1.00  0.00    -0.206 F 
ATOM     66  C   UNL A   1      52.606  26.558  26.424  1.00  0.00     0.059 A 
ATOM     67  C   UNL A   1      52.127  27.226  24.138  1.00  0.00     0.059 A 
ATOM     68  F   UNL A   1      50.005  28.055  23.590  1.00  0.00    -0.206 F 
ATOM     69  C   UNL A   1      53.011  26.741  25.100  1.00  0.00     0.060 A 
BRANCH  69  70
ATOM     70  S   UNL A   1      54.714  26.338  24.658  1.00  0.00     0.124 S 
ATOM     71  O   UNL A   1      54.696  26.550  23.213  1.00  0.00    -0.237 OA
ATOM     72  O   UNL A   1      55.476  27.311  25.432  1.00  0.00    -0.237 OA
ATOM     73  O   UNL A   1      54.856  24.950  25.085  1.00  0.00    -0.744 OA
ENDBRANCH  69  70
ENDBRANCH  48  62
BRANCH  49  74
ATOM     74  C   UNL A   1      40.946  29.159  28.505  1.00  0.00     0.058 A 
ATOM     75  C   UNL A   1      39.913  29.406  27.588  1.00  0.00     0.135 A 
ATOM     76  C   UNL A   1      40.622  29.175  29.871  1.00  0.00     0.135 A 
ATOM     77  F   UNL A   1      40.174  29.422  26.272  1.00  0.00    -0.206 F 
ATOM     78  C   UNL A   1      38.612  29.669  28.007  1.00  0.00     0.059 A 
ATOM     79  C   UNL A   1      39.323  29.407  30.314  1.00  0.00     0.059 A 
ATOM     80  F   UNL A   1      41.572  28.942  30.790  1.00  0.00    -0.206 F 
ATOM     81  C   UNL A   1      38.326  29.661  29.374  1.00  0.00     0.060 A 
BRANCH  81  82
ATOM     82  S   UNL A   1      36.623  29.942  29.904  1.00  0.00     0.124 S 
ATOM     83  O   UNL A   1      36.588  31.395  30.029  1.00  0.00    -0.237 OA
ATOM     84  O   UNL A   1      35.860  29.379  28.794  1.00  0.00    -0.237 OA
ATOM     85  O   UNL A   1      36.534  29.198  31.158  1.00  0.00    -0.744 OA
ENDBRANCH  81  82
ENDBRANCH  49  74
BRANCH  61  86
ATOM     86  C   UNL A   1      46.764  33.029  28.511  1.00  0.00     0.058 A 
ATOM     87  C   UNL A   1      47.208  33.356  29.803  1.00  0.00     0.135 A 
ATOM     88  C   UNL A   1      46.647  34.075  27.580  1.00  0.00     0.135 A 
ATOM     89  F   UNL A   1      47.336  32.397  30.735  1.00  0.00    -0.206 F 
ATOM     90  C   UNL A   1      47.497  34.668  30.165  1.00  0.00     0.059 A 
ATOM     91  C   UNL A   1      46.960  35.391  27.911  1.00  0.00     0.059 A 
ATOM     92  F   UNL A   1      46.242  33.821  26.326  1.00  0.00    -0.206 F 
ATOM     93  C   UNL A   1      47.371  35.680  29.211  1.00  0.00     0.060 A 
BRANCH  93  94
ATOM     94  S   UNL A   1      47.774  37.376  29.684  1.00  0.00     0.124 S 
ATOM     95  O   UNL A   1      49.150  37.495  29.211  1.00  0.00    -0.237 OA
ATOM     96  O   UNL A   1      46.781  38.150  28.945  1.00  0.00    -0.237 OA
ATOM     97  O   UNL A   1      47.606  37.375  31.134  1.00  0.00    -0.744 OA
ENDBRANCH  93  94
ENDBRANCH  61  86
ENDBRANCH  35  36
ENDBRANCH  28  30
ENDBRANCH  27  28
ENDBRANCH  26  27
ENDBRANCH  25  26
ENDBRANCH  24  25
ENDBRANCH  23  24
ENDBRANCH  22  23
ENDBRANCH   1  22
TORSDOF 26
ENDMDL
MODEL 3
REMARK VINA RESULT:      -8.7      1.344      2.317
REMARK SMILES C=CC[NH2+]CC(=O)N1CC[C@@H](CC(=O)OCCOCCOCCOC(=O)c2ccc(-c3c4nc(c(-c5c(F)cc(S(=O)(=O)[O-])cc5F)c5ccc([nH]5)c(-c5c(F)cc(S(=O)(=O)[O-])cc5F)c5nc(c(-c6c(F)cc(S(=O)(=O)[O-])cc6F)c6ccc3[nH]6)C=C5)C=C4)cc2)C1
REMARK SMILES IDX 18 1 17 2 16 3 15 4 13 5 14 6 12 7 11 8 8 9 9 10 93 11 10 12
REMARK SMILES IDX 6 13 7 14 5 15 4 16 3 19 2 20 1 21 19 22 20 23 21 24 22 25
REMARK SMILES IDX 23 26 24 27 25 28 26 29 27 30 28 31 92 32 29 33 91 34 30 35
REMARK SMILES IDX 31 36 32 37 85 38 33 39 90 40 84 41 86 42 34 43 89 44 83 45
REMARK SMILES IDX 82 46 35 48 69 49 48 50 68 51 49 52 52 53 67 54 87 55 50 56
REMARK SMILES IDX 51 57 66 59 88 60 53 61 36 62 37 63 46 64 38 65 39 66 45 67
REMARK SMILES IDX 47 68 40 69 41 70 42 71 43 72 44 73 70 74 71 75 80 76 72 77
REMARK SMILES IDX 73 78 79 79 81 80 74 81 75 82 76 83 77 84 78 85 54 86 55 87
REMARK SMILES IDX 64 88 56 89 57 90 63 91 65 92 58 93 59 94 60 95 61 96 62 97
REMARK H PARENT 4 17 4 18 86 47 52 58
REMARK Flexibility Score: inf
ROOT
ATOM      1  O   UNL A   1      36.559  22.489  24.634  1.00  0.00    -0.376 OA
ENDROOT
BRANCH   1   2
ATOM      2  C   UNL A   1      35.257  22.058  24.245  1.00  0.00     0.202 C 
BRANCH   2   3
ATOM      3  C   UNL A   1      34.402  21.399  25.336  1.00  0.00     0.261 C 
BRANCH   3   4
ATOM      4  O   UNL A   1      33.215  22.144  25.659  1.00  0.00    -0.463 OA
BRANCH   4   5
ATOM      5  C   UNL A   1      32.119  21.901  24.897  1.00  0.00     0.306 C 
ATOM      6  O   UNL A   1      31.922  20.870  24.263  1.00  0.00    -0.252 OA
BRANCH   5   7
ATOM      7  C   UNL A   1      31.123  23.043  24.879  1.00  0.00     0.128 C 
BRANCH   7   8
ATOM      8  C   UNL A   1      30.988  23.896  23.607  1.00  0.00     0.021 C 
ATOM      9  N   UNL A   1      31.836  26.114  23.877  1.00  0.00    -0.338 N 
ATOM     10  C   UNL A   1      32.955  25.260  23.526  1.00  0.00     0.120 C 
ATOM     11  C   UNL A   1      30.599  25.358  23.848  1.00  0.00     0.124 C 
ATOM     12  C   UNL A   1      32.343  24.026  22.895  1.00  0.00     0.027 C 
BRANCH   9  13
ATOM     13  C   UNL A   1      31.836  27.427  24.321  1.00  0.00     0.277 C 
ATOM     14  O   UNL A   1      30.904  27.871  25.000  1.00  0.00    -0.268 OA
BRANCH  13  15
ATOM     15  C   UNL A   1      32.946  28.384  23.842  1.00  0.00     0.362 C 
BRANCH  15  16
ATOM     16  N   UNL A   1      33.342  29.436  24.808  1.00  0.00    -0.335 N 
ATOM     17  H   UNL A   1      33.871  30.162  24.325  1.00  0.00     0.347 HD
ATOM     18  H   UNL A   1      32.507  29.849  25.226  1.00  0.00     0.347 HD
BRANCH  16  19
ATOM     19  C   UNL A   1      34.163  28.849  25.844  1.00  0.00     0.289 C 
BRANCH  19  20
ATOM     20  C   UNL A   1      34.100  29.461  27.197  1.00  0.00     0.025 C 
ATOM     21  C   UNL A   1      35.213  29.619  27.931  1.00  0.00     0.010 C 
ENDBRANCH  19  20
ENDBRANCH  16  19
ENDBRANCH  15  16
ENDBRANCH  13  15
ENDBRANCH   9  13
ENDBRANCH   7   8
ENDBRANCH   5   7
ENDBRANCH   4   5
ENDBRANCH   3   4
ENDBRANCH   2   3
ENDBRANCH   1   2
BRANCH   1  22
ATOM     22  C   UNL A   1      36.725  22.883  25.990  1.00  0.00     0.188 C 
BRANCH  22  23
ATOM     23  C   UNL A   1      37.985  23.689  26.316  1.00  0.00     0.188 C 
BRANCH  23  24
ATOM     24  O   UNL A   1      39.200  23.211  25.750  1.00  0.00    -0.376 OA
BRANCH  24  25
ATOM     25  C   UNL A   1      39.755  22.036  26.357  1.00  0.00     0.202 C 
BRANCH  25  26
ATOM     26  C   UNL A   1      41.274  21.809  26.204  1.00  0.00     0.261 C 
BRANCH  26  27
ATOM     27  O   UNL A   1      42.114  22.719  26.946  1.00  0.00    -0.460 OA
BRANCH  27  28
ATOM     28  C   UNL A   1      42.468  23.888  26.348  1.00  0.00     0.338 C 
ATOM     29  O   UNL A   1      42.805  24.033  25.198  1.00  0.00    -0.246 OA
BRANCH  28  30
ATOM     30  C   UNL A   1      42.101  25.010  27.268  1.00  0.00     0.060 A 
ATOM     31  C   UNL A   1      42.854  26.191  27.197  1.00  0.00     0.016 A 
ATOM     32  C   UNL A   1      40.997  24.945  28.123  1.00  0.00     0.016 A 
ATOM     33  C   UNL A   1      42.539  27.282  28.014  1.00  0.00     0.010 A 
ATOM     34  C   UNL A   1      40.685  26.037  28.945  1.00  0.00     0.010 A 
ATOM     35  C   UNL A   1      41.477  27.200  28.923  1.00  0.00    -0.014 A 
BRANCH  35  36
ATOM     36  C   UNL A   1      41.322  28.234  29.981  1.00  0.00     0.031 A 
ATOM     37  C   UNL A   1      42.277  28.210  31.149  1.00  0.00     0.074 A 
ATOM     38  C   UNL A   1      40.380  29.193  29.917  1.00  0.00     0.049 A 
ATOM     39  N   UNL A   1      42.328  28.986  32.199  1.00  0.00    -0.248 NA
ATOM     40  C   UNL A   1      43.313  27.163  31.123  1.00  0.00     0.031 C 
ATOM     41  C   UNL A   1      39.407  29.355  28.838  1.00  0.00     0.029 A 
ATOM     42  N   UNL A   1      40.082  30.211  30.792  1.00  0.00    -0.354 N 
ATOM     43  C   UNL A   1      43.392  28.519  32.963  1.00  0.00     0.074 A 
ATOM     44  C   UNL A   1      43.938  27.373  32.270  1.00  0.00     0.031 C 
ATOM     45  C   UNL A   1      38.611  30.402  29.123  1.00  0.00     0.029 A 
ATOM     46  C   UNL A   1      38.996  30.967  30.417  1.00  0.00     0.049 A 
ATOM     47  H   UNL A   1      40.598  30.382  31.614  1.00  0.00     0.167 HD
ATOM     48  C   UNL A   1      43.879  29.002  34.132  1.00  0.00     0.037 A 
ATOM     49  C   UNL A   1      38.373  31.983  31.051  1.00  0.00     0.037 A 
ATOM     50  C   UNL A   1      43.340  30.142  34.825  1.00  0.00     0.049 A 
ATOM     51  C   UNL A   1      38.895  32.470  32.382  1.00  0.00     0.074 A 
ATOM     52  C   UNL A   1      43.790  30.723  36.000  1.00  0.00     0.029 A 
ATOM     53  N   UNL A   1      42.229  30.866  34.423  1.00  0.00    -0.354 N 
ATOM     54  N   UNL A   1      39.928  32.045  33.071  1.00  0.00    -0.248 NA
ATOM     55  C   UNL A   1      38.170  33.581  33.019  1.00  0.00     0.031 C 
ATOM     56  C   UNL A   1      42.915  31.760  36.337  1.00  0.00     0.029 A 
ATOM     57  C   UNL A   1      41.958  31.868  35.342  1.00  0.00     0.049 A 
ATOM     58  H   UNL A   1      41.708  30.694  33.606  1.00  0.00     0.167 HD
ATOM     59  C   UNL A   1      39.989  32.852  34.205  1.00  0.00     0.074 A 
ATOM     60  C   UNL A   1      38.900  33.798  34.104  1.00  0.00     0.031 C 
ATOM     61  C   UNL A   1      40.872  32.812  35.236  1.00  0.00     0.037 A 
BRANCH  48  62
ATOM     62  C   UNL A   1      45.040  28.274  34.752  1.00  0.00     0.058 A 
ATOM     63  C   UNL A   1      46.371  28.633  34.484  1.00  0.00     0.135 A 
ATOM     64  C   UNL A   1      44.814  27.217  35.648  1.00  0.00     0.135 A 
ATOM     65  F   UNL A   1      46.643  29.624  33.620  1.00  0.00    -0.206 F 
ATOM     66  C   UNL A   1      47.437  27.949  35.057  1.00  0.00     0.059 A 
ATOM     67  C   UNL A   1      45.866  26.538  36.257  1.00  0.00     0.059 A 
ATOM     68  F   UNL A   1      43.562  26.831  35.937  1.00  0.00    -0.206 F 
ATOM     69  C   UNL A   1      47.173  26.901  35.942  1.00  0.00     0.060 A 
BRANCH  69  70
ATOM     70  S   UNL A   1      48.569  26.021  36.674  1.00  0.00     0.124 S 
ATOM     71  O   UNL A   1      49.569  26.131  35.616  1.00  0.00    -0.237 OA
ATOM     72  O   UNL A   1      48.832  26.801  37.879  1.00  0.00    -0.237 OA
ATOM     73  O   UNL A   1      48.042  24.679  36.902  1.00  0.00    -0.744 OA
ENDBRANCH  69  70
ENDBRANCH  48  62
BRANCH  49  74
ATOM     74  C   UNL A   1      37.161  32.604  30.448  1.00  0.00     0.058 A 
ATOM     75  C   UNL A   1      37.258  33.692  29.566  1.00  0.00     0.135 A 
ATOM     76  C   UNL A   1      35.876  32.125  30.750  1.00  0.00     0.135 A 
ATOM     77  F   UNL A   1      38.461  34.201  29.260  1.00  0.00    -0.206 F 
ATOM     78  C   UNL A   1      36.128  34.288  29.015  1.00  0.00     0.059 A 
ATOM     79  C   UNL A   1      34.732  32.686  30.189  1.00  0.00     0.059 A 
ATOM     80  F   UNL A   1      35.726  31.085  31.586  1.00  0.00    -0.206 F 
ATOM     81  C   UNL A   1      34.868  33.773  29.328  1.00  0.00     0.060 A 
BRANCH  81  82
ATOM     82  S   UNL A   1      33.413  34.515  28.559  1.00  0.00     0.124 S 
ATOM     83  O   UNL A   1      32.953  33.436  27.692  1.00  0.00    -0.237 OA
ATOM     84  O   UNL A   1      32.571  34.806  29.717  1.00  0.00    -0.237 OA
ATOM     85  O   UNL A   1      33.954  35.687  27.877  1.00  0.00    -0.744 OA
ENDBRANCH  81  82
ENDBRANCH  49  74
BRANCH  61  86
ATOM     86  C   UNL A   1      40.728  33.841  36.327  1.00  0.00     0.058 A 
ATOM     87  C   UNL A   1      41.422  35.061  36.294  1.00  0.00     0.135 A 
ATOM     88  C   UNL A   1      39.840  33.627  37.395  1.00  0.00     0.135 A 
ATOM     89  F   UNL A   1      42.286  35.320  35.298  1.00  0.00    -0.206 F 
ATOM     90  C   UNL A   1      41.263  36.019  37.292  1.00  0.00     0.059 A 
ATOM     91  C   UNL A   1      39.641  34.582  38.388  1.00  0.00     0.059 A 
ATOM     92  F   UNL A   1      39.138  32.485  37.472  1.00  0.00    -0.206 F 
ATOM     93  C   UNL A   1      40.369  35.771  38.335  1.00  0.00     0.060 A 
BRANCH  93  94
ATOM     94  S   UNL A   1      40.151  37.030  39.611  1.00  0.00     0.124 S 
ATOM     95  O   UNL A   1      38.936  37.701  39.158  1.00  0.00    -0.237 OA
ATOM     96  O   UNL A   1      40.017  36.227  40.823  1.00  0.00    -0.237 OA
ATOM     97  O   UNL A   1      41.374  37.821  39.523  1.00  0.00    -0.744 OA
ENDBRANCH  93  94
ENDBRANCH  61  86
ENDBRANCH  35  36
ENDBRANCH  28  30
ENDBRANCH  27  28
ENDBRANCH  26  27
ENDBRANCH  25  26
ENDBRANCH  24  25
ENDBRANCH  23  24
ENDBRANCH  22  23
ENDBRANCH   1  22
TORSDOF 26
ENDMDL
