MODEL 1
REMARK VINA RESULT:      -9.7      0.000      0.000
REMARK SMILES Cn1nc(N2CCC(CC(=O)OCCOCCOCCOC(=O)c3ccc(-c4c5nc(c(-c6c(F)cc(S(=O)(=O)[O-])cc6F)c6ccc([nH]6)c(-c6c(F)cc(S(=O)(=O)[O-])cc6F)c6nc(c(-c7c(F)cc(S(=O)(=O)[O-])cc7F)c7ccc4[nH]7)C=C6)C=C5)cc3)CC2)c(=O)n(C)c1=O
REMARK SMILES IDX 17 1 16 2 15 3 14 4 13 5 12 6 10 7 11 8 9 9 8 10 5 11 6 12
REMARK SMILES IDX 91 13 7 14 90 15 4 16 1 17 2 18 3 19 96 20 94 21 97 22 92 23
REMARK SMILES IDX 95 24 93 25 18 26 19 27 20 28 21 29 22 30 23 31 24 32 25 33
REMARK SMILES IDX 89 34 26 35 88 36 27 37 28 38 29 39 82 40 30 41 87 42 81 43
REMARK SMILES IDX 83 44 31 45 86 46 80 47 79 48 32 50 66 51 45 52 65 53 46 54
REMARK SMILES IDX 49 55 64 56 84 57 47 58 48 59 63 61 85 62 50 63 33 64 34 65
REMARK SMILES IDX 43 66 35 67 36 68 42 69 44 70 37 71 38 72 39 73 40 74 41 75
REMARK SMILES IDX 67 76 68 77 77 78 69 79 70 80 76 81 78 82 71 83 72 84 73 85
REMARK SMILES IDX 74 86 75 87 51 88 52 89 61 90 53 91 54 92 60 93 62 94 55 95
REMARK SMILES IDX 56 96 57 97 58 98 59 99
REMARK H PARENT 83 49 49 60
REMARK Flexibility Score: inf
ROOT
ATOM      1  C   UNL A   1      36.235  34.332  29.517  1.00  0.00     0.188 C 
ENDROOT
BRANCH   1   2
ATOM      2  C   UNL A   1      35.412  33.506  28.526  1.00  0.00     0.188 C 
BRANCH   2   3
ATOM      3  O   UNL A   1      36.101  32.426  27.903  1.00  0.00    -0.376 OA
BRANCH   3   4
ATOM      4  C   UNL A   1      35.409  31.179  27.845  1.00  0.00     0.202 C 
BRANCH   4   5
ATOM      5  C   UNL A   1      33.937  31.250  27.419  1.00  0.00     0.261 C 
BRANCH   5   6
ATOM      6  O   UNL A   1      33.557  30.195  26.510  1.00  0.00    -0.463 OA
BRANCH   6   7
ATOM      7  C   UNL A   1      32.224  29.964  26.396  1.00  0.00     0.306 C 
ATOM      8  O   UNL A   1      31.405  30.794  26.016  1.00  0.00    -0.252 OA
BRANCH   7   9
ATOM      9  C   UNL A   1      31.813  28.531  26.688  1.00  0.00     0.126 C 
BRANCH   9  10
ATOM     10  C   UNL A   1      31.665  27.509  25.545  1.00  0.00     0.003 C 
ATOM     11  N   UNL A   1      32.427  24.938  24.441  1.00  0.00    -0.351 N 
ATOM     12  C   UNL A   1      32.817  26.161  23.756  1.00  0.00     0.118 C 
ATOM     13  C   UNL A   1      31.141  25.007  25.125  1.00  0.00     0.118 C 
ATOM     14  C   UNL A   1      32.973  27.287  24.770  1.00  0.00     0.026 C 
ATOM     15  C   UNL A   1      31.169  26.160  26.139  1.00  0.00     0.026 C 
BRANCH  11  16
ATOM     16  C   UNL A   1      33.374  23.969  24.745  1.00  0.00     0.215 A 
ATOM     17  C   UNL A   1      34.100  21.705  27.433  1.00  0.00     0.180 C 
ATOM     18  N   UNL A   1      34.306  22.437  26.194  1.00  0.00    -0.216 N 
ATOM     19  N   UNL A   1      33.336  23.348  25.891  1.00  0.00    -0.145 NA
ATOM     20  C   UNL A   1      35.424  22.166  25.414  1.00  0.00     0.346 A 
ATOM     21  N   UNL A   1      35.514  22.854  24.221  1.00  0.00    -0.259 N 
ATOM     22  O   UNL A   1      36.275  21.345  25.764  1.00  0.00    -0.246 OA
ATOM     23  C   UNL A   1      34.510  23.680  23.754  1.00  0.00     0.299 A 
ATOM     24  C   UNL A   1      36.675  22.675  23.375  1.00  0.00     0.159 C 
ATOM     25  O   UNL A   1      34.498  24.200  22.643  1.00  0.00    -0.265 OA
ENDBRANCH  11  16
ENDBRANCH   9  10
ENDBRANCH   7   9
ENDBRANCH   6   7
ENDBRANCH   5   6
ENDBRANCH   4   5
ENDBRANCH   3   4
ENDBRANCH   2   3
ENDBRANCH   1   2
BRANCH   1  26
ATOM     26  O   UNL A   1      35.807  34.284  30.873  1.00  0.00    -0.376 OA
BRANCH  26  27
ATOM     27  C   UNL A   1      36.436  33.293  31.694  1.00  0.00     0.202 C 
BRANCH  27  28
ATOM     28  C   UNL A   1      35.710  31.936  31.830  1.00  0.00     0.261 C 
BRANCH  28  29
ATOM     29  O   UNL A   1      36.322  30.826  31.139  1.00  0.00    -0.460 OA
BRANCH  29  30
ATOM     30  C   UNL A   1      37.094  29.978  31.859  1.00  0.00     0.338 C 
ATOM     31  O   UNL A   1      36.703  29.184  32.697  1.00  0.00    -0.246 OA
BRANCH  30  32
ATOM     32  C   UNL A   1      38.457  29.961  31.261  1.00  0.00     0.060 A 
ATOM     33  C   UNL A   1      38.566  30.052  29.865  1.00  0.00     0.016 A 
ATOM     34  C   UNL A   1      39.614  29.935  32.047  1.00  0.00     0.016 A 
ATOM     35  C   UNL A   1      39.821  30.070  29.252  1.00  0.00     0.010 A 
ATOM     36  C   UNL A   1      40.872  29.935  31.432  1.00  0.00     0.010 A 
ATOM     37  C   UNL A   1      40.982  29.966  30.031  1.00  0.00    -0.014 A 
BRANCH  37  38
ATOM     38  C   UNL A   1      42.278  29.648  29.380  1.00  0.00     0.031 A 
ATOM     39  C   UNL A   1      42.480  28.248  28.862  1.00  0.00     0.074 A 
ATOM     40  C   UNL A   1      43.250  30.564  29.223  1.00  0.00     0.049 A 
ATOM     41  N   UNL A   1      43.531  27.710  28.303  1.00  0.00    -0.248 NA
ATOM     42  C   UNL A   1      41.332  27.334  28.995  1.00  0.00     0.031 C 
ATOM     43  C   UNL A   1      43.168  31.966  29.627  1.00  0.00     0.029 A 
ATOM     44  N   UNL A   1      44.506  30.442  28.680  1.00  0.00    -0.354 N 
ATOM     45  C   UNL A   1      43.176  26.396  28.022  1.00  0.00     0.074 A 
ATOM     46  C   UNL A   1      41.822  26.211  28.497  1.00  0.00     0.031 C 
ATOM     47  C   UNL A   1      44.331  32.573  29.327  1.00  0.00     0.029 A 
ATOM     48  C   UNL A   1      45.251  31.596  28.740  1.00  0.00     0.049 A 
ATOM     49  H   UNL A   1      44.842  29.606  28.284  1.00  0.00     0.167 HD
ATOM     50  C   UNL A   1      43.907  25.430  27.418  1.00  0.00     0.037 A 
ATOM     51  C   UNL A   1      46.532  31.831  28.387  1.00  0.00     0.037 A 
ATOM     52  C   UNL A   1      45.257  25.607  26.956  1.00  0.00     0.049 A 
ATOM     53  C   UNL A   1      47.359  30.720  27.789  1.00  0.00     0.074 A 
ATOM     54  C   UNL A   1      46.077  24.686  26.329  1.00  0.00     0.029 A 
ATOM     55  N   UNL A   1      45.990  26.777  27.079  1.00  0.00    -0.354 N 
ATOM     56  N   UNL A   1      47.013  29.482  27.528  1.00  0.00    -0.248 NA
ATOM     57  C   UNL A   1      48.751  31.038  27.438  1.00  0.00     0.031 C 
ATOM     58  C   UNL A   1      47.325  25.283  26.121  1.00  0.00     0.029 A 
ATOM     59  C   UNL A   1      47.264  26.595  26.564  1.00  0.00     0.049 A 
ATOM     60  H   UNL A   1      45.657  27.615  27.473  1.00  0.00     0.167 HD
ATOM     61  C   UNL A   1      48.135  28.881  26.962  1.00  0.00     0.074 A 
ATOM     62  C   UNL A   1      49.168  29.894  26.912  1.00  0.00     0.031 C 
ATOM     63  C   UNL A   1      48.291  27.606  26.521  1.00  0.00     0.037 A 
BRANCH  50  64
ATOM     64  C   UNL A   1      43.266  24.079  27.263  1.00  0.00     0.058 A 
ATOM     65  C   UNL A   1      43.347  23.101  28.266  1.00  0.00     0.135 A 
ATOM     66  C   UNL A   1      42.552  23.765  26.095  1.00  0.00     0.135 A 
ATOM     67  F   UNL A   1      44.039  23.340  29.391  1.00  0.00    -0.206 F 
ATOM     68  C   UNL A   1      42.766  21.847  28.105  1.00  0.00     0.059 A 
ATOM     69  C   UNL A   1      41.938  22.529  25.925  1.00  0.00     0.059 A 
ATOM     70  F   UNL A   1      42.450  24.663  25.102  1.00  0.00    -0.206 F 
ATOM     71  C   UNL A   1      42.065  21.570  26.930  1.00  0.00     0.060 A 
BRANCH  71  72
ATOM     72  S   UNL A   1      41.324  19.936  26.734  1.00  0.00     0.124 S 
ATOM     73  O   UNL A   1      42.423  19.190  26.128  1.00  0.00    -0.237 OA
ATOM     74  O   UNL A   1      40.996  19.576  28.110  1.00  0.00    -0.237 OA
ATOM     75  O   UNL A   1      40.179  20.183  25.863  1.00  0.00    -0.744 OA
ENDBRANCH  71  72
ENDBRANCH  50  64
BRANCH  51  76
ATOM     76  C   UNL A   1      47.114  33.185  28.596  1.00  0.00     0.058 A 
ATOM     77  C   UNL A   1      47.750  33.524  29.800  1.00  0.00     0.135 A 
ATOM     78  C   UNL A   1      47.077  34.155  27.582  1.00  0.00     0.135 A 
ATOM     79  F   UNL A   1      47.792  32.639  30.808  1.00  0.00    -0.206 F 
ATOM     80  C   UNL A   1      48.341  34.770  29.986  1.00  0.00     0.059 A 
ATOM     81  C   UNL A   1      47.681  35.400  27.736  1.00  0.00     0.059 A 
ATOM     82  F   UNL A   1      46.479  33.881  26.413  1.00  0.00    -0.206 F 
ATOM     83  C   UNL A   1      48.313  35.696  28.942  1.00  0.00     0.060 A 
BRANCH  83  84
ATOM     84  S   UNL A   1      49.172  37.271  29.161  1.00  0.00     0.124 S 
ATOM     85  O   UNL A   1      48.477  38.124  28.204  1.00  0.00    -0.237 OA
ATOM     86  O   UNL A   1      48.923  37.557  30.571  1.00  0.00    -0.237 OA
ATOM     87  O   UNL A   1      50.557  36.949  28.829  1.00  0.00    -0.744 OA
ENDBRANCH  83  84
ENDBRANCH  51  76
BRANCH  63  88
ATOM     88  C   UNL A   1      49.618  27.228  25.918  1.00  0.00     0.058 A 
ATOM     89  C   UNL A   1      50.697  26.802  26.707  1.00  0.00     0.135 A 
ATOM     90  C   UNL A   1      49.791  27.228  24.523  1.00  0.00     0.135 A 
ATOM     91  F   UNL A   1      50.589  26.782  28.045  1.00  0.00    -0.206 F 
ATOM     92  C   UNL A   1      51.907  26.413  26.138  1.00  0.00     0.059 A 
ATOM     93  C   UNL A   1      50.982  26.817  23.931  1.00  0.00     0.059 A 
ATOM     94  F   UNL A   1      48.787  27.611  23.717  1.00  0.00    -0.206 F 
ATOM     95  C   UNL A   1      52.039  26.422  24.748  1.00  0.00     0.060 A 
BRANCH  95  96
ATOM     96  S   UNL A   1      53.606  25.892  24.024  1.00  0.00     0.124 S 
ATOM     97  O   UNL A   1      54.553  26.781  24.690  1.00  0.00    -0.237 OA
ATOM     98  O   UNL A   1      53.672  24.488  24.415  1.00  0.00    -0.237 OA
ATOM     99  O   UNL A   1      53.421  26.132  22.596  1.00  0.00    -0.744 OA
ENDBRANCH  95  96
ENDBRANCH  63  88
ENDBRANCH  37  38
ENDBRANCH  30  32
ENDBRANCH  29  30
ENDBRANCH  28  29
ENDBRANCH  27  28
ENDBRANCH  26  27
ENDBRANCH   1  26
TORSDOF 22
ENDMDL
MODEL 2
REMARK VINA RESULT:      -9.6      4.329      9.477
REMARK SMILES Cn1nc(N2CCC(CC(=O)OCCOCCOCCOC(=O)c3ccc(-c4c5nc(c(-c6c(F)cc(S(=O)(=O)[O-])cc6F)c6ccc([nH]6)c(-c6c(F)cc(S(=O)(=O)[O-])cc6F)c6nc(c(-c7c(F)cc(S(=O)(=O)[O-])cc7F)c7ccc4[nH]7)C=C6)C=C5)cc3)CC2)c(=O)n(C)c1=O
REMARK SMILES IDX 17 1 16 2 15 3 14 4 13 5 12 6 10 7 11 8 9 9 8 10 5 11 6 12
REMARK SMILES IDX 91 13 7 14 90 15 4 16 1 17 2 18 3 19 96 20 94 21 97 22 92 23
REMARK SMILES IDX 95 24 93 25 18 26 19 27 20 28 21 29 22 30 23 31 24 32 25 33
REMARK SMILES IDX 89 34 26 35 88 36 27 37 28 38 29 39 82 40 30 41 87 42 81 43
REMARK SMILES IDX 83 44 31 45 86 46 80 47 79 48 32 50 66 51 45 52 65 53 46 54
REMARK SMILES IDX 49 55 64 56 84 57 47 58 48 59 63 61 85 62 50 63 33 64 34 65
REMARK SMILES IDX 43 66 35 67 36 68 42 69 44 70 37 71 38 72 39 73 40 74 41 75
REMARK SMILES IDX 67 76 68 77 77 78 69 79 70 80 76 81 78 82 71 83 72 84 73 85
REMARK SMILES IDX 74 86 75 87 51 88 52 89 61 90 53 91 54 92 60 93 62 94 55 95
REMARK SMILES IDX 56 96 57 97 58 98 59 99
REMARK H PARENT 83 49 49 60
REMARK Flexibility Score: inf
ROOT
ATOM      1  C   UNL A   1      43.100  36.438  27.330  1.00  0.00     0.188 C 
ENDROOT
BRANCH   1   2
ATOM      2  C   UNL A   1      42.385  36.138  28.649  1.00  0.00     0.188 C 
BRANCH   2   3
ATOM      3  O   UNL A   1      42.765  34.927  29.295  1.00  0.00    -0.376 OA
BRANCH   3   4
ATOM      4  C   UNL A   1      42.856  34.965  30.718  1.00  0.00     0.202 C 
BRANCH   4   5
ATOM      5  C   UNL A   1      41.725  34.260  31.480  1.00  0.00     0.261 C 
BRANCH   5   6
ATOM      6  O   UNL A   1      41.411  32.955  30.950  1.00  0.00    -0.463 OA
BRANCH   6   7
ATOM      7  C   UNL A   1      40.092  32.636  30.904  1.00  0.00     0.306 C 
ATOM      8  O   UNL A   1      39.360  32.846  29.943  1.00  0.00    -0.252 OA
BRANCH   7   9
ATOM      9  C   UNL A   1      39.588  31.890  32.129  1.00  0.00     0.126 C 
BRANCH   9  10
ATOM     10  C   UNL A   1      38.497  32.504  33.026  1.00  0.00     0.003 C 
ATOM     11  N   UNL A   1      35.943  33.867  33.197  1.00  0.00    -0.351 N 
ATOM     12  C   UNL A   1      37.155  34.551  33.620  1.00  0.00     0.118 C 
ATOM     13  C   UNL A   1      35.940  32.429  33.438  1.00  0.00     0.118 C 
ATOM     14  C   UNL A   1      38.344  34.020  32.830  1.00  0.00     0.026 C 
ATOM     15  C   UNL A   1      37.145  31.795  32.727  1.00  0.00     0.026 C 
BRANCH  11  16
ATOM     16  C   UNL A   1      35.075  34.466  32.292  1.00  0.00     0.215 A 
ATOM     17  C   UNL A   1      33.879  33.879  28.961  1.00  0.00     0.180 C 
ATOM     18  N   UNL A   1      34.098  34.592  30.209  1.00  0.00    -0.216 N 
ATOM     19  N   UNL A   1      34.913  33.960  31.102  1.00  0.00    -0.145 NA
ATOM     20  C   UNL A   1      33.475  35.816  30.418  1.00  0.00     0.346 A 
ATOM     21  N   UNL A   1      33.679  36.399  31.653  1.00  0.00    -0.259 N 
ATOM     22  O   UNL A   1      32.769  36.342  29.553  1.00  0.00    -0.246 OA
ATOM     23  C   UNL A   1      34.359  35.768  32.676  1.00  0.00     0.299 A 
ATOM     24  C   UNL A   1      33.114  37.702  31.934  1.00  0.00     0.159 C 
ATOM     25  O   UNL A   1      34.444  36.196  33.823  1.00  0.00    -0.265 OA
ENDBRANCH  11  16
ENDBRANCH   9  10
ENDBRANCH   7   9
ENDBRANCH   6   7
ENDBRANCH   5   6
ENDBRANCH   4   5
ENDBRANCH   3   4
ENDBRANCH   2   3
ENDBRANCH   1   2
BRANCH   1  26
ATOM     26  O   UNL A   1      43.429  37.803  27.098  1.00  0.00    -0.376 OA
BRANCH  26  27
ATOM     27  C   UNL A   1      43.709  38.588  28.262  1.00  0.00     0.202 C 
BRANCH  27  28
ATOM     28  C   UNL A   1      45.196  38.865  28.576  1.00  0.00     0.261 C 
BRANCH  28  29
ATOM     29  O   UNL A   1      46.062  37.710  28.576  1.00  0.00    -0.460 OA
BRANCH  29  30
ATOM     30  C   UNL A   1      46.107  36.951  29.696  1.00  0.00     0.338 C 
ATOM     31  O   UNL A   1      45.846  37.321  30.828  1.00  0.00    -0.246 OA
BRANCH  30  32
ATOM     32  C   UNL A   1      46.243  35.525  29.291  1.00  0.00     0.060 A 
ATOM     33  C   UNL A   1      46.235  35.225  27.920  1.00  0.00     0.016 A 
ATOM     34  C   UNL A   1      46.451  34.503  30.224  1.00  0.00     0.016 A 
ATOM     35  C   UNL A   1      46.388  33.907  27.483  1.00  0.00     0.010 A 
ATOM     36  C   UNL A   1      46.587  33.180  29.786  1.00  0.00     0.010 A 
ATOM     37  C   UNL A   1      46.520  32.871  28.417  1.00  0.00    -0.014 A 
BRANCH  37  38
ATOM     38  C   UNL A   1      46.344  31.462  27.981  1.00  0.00     0.031 A 
ATOM     39  C   UNL A   1      44.960  30.872  28.048  1.00  0.00     0.074 A 
ATOM     40  C   UNL A   1      47.365  30.718  27.516  1.00  0.00     0.049 A 
ATOM     41  N   UNL A   1      44.556  29.661  27.774  1.00  0.00    -0.248 NA
ATOM     42  C   UNL A   1      43.886  31.782  28.484  1.00  0.00     0.031 C 
ATOM     43  C   UNL A   1      48.741  31.178  27.348  1.00  0.00     0.029 A 
ATOM     44  N   UNL A   1      47.393  29.408  27.103  1.00  0.00    -0.354 N 
ATOM     45  C   UNL A   1      43.186  29.659  28.008  1.00  0.00     0.074 A 
ATOM     46  C   UNL A   1      42.833  30.982  28.472  1.00  0.00     0.031 C 
ATOM     47  C   UNL A   1      49.483  30.160  26.875  1.00  0.00     0.029 A 
ATOM     48  C   UNL A   1      48.643  28.968  26.741  1.00  0.00     0.049 A 
ATOM     49  H   UNL A   1      46.591  28.837  27.070  1.00  0.00     0.167 HD
ATOM     50  C   UNL A   1      42.298  28.650  27.846  1.00  0.00     0.037 A 
ATOM     51  C   UNL A   1      49.066  27.743  26.366  1.00  0.00     0.037 A 
ATOM     52  C   UNL A   1      42.648  27.329  27.396  1.00  0.00     0.049 A 
ATOM     53  C   UNL A   1      48.076  26.607  26.269  1.00  0.00     0.074 A 
ATOM     54  C   UNL A   1      41.816  26.241  27.199  1.00  0.00     0.029 A 
ATOM     55  N   UNL A   1      43.933  26.912  27.084  1.00  0.00    -0.354 N 
ATOM     56  N   UNL A   1      46.783  26.617  26.492  1.00  0.00    -0.248 NA
ATOM     57  C   UNL A   1      48.603  25.294  25.868  1.00  0.00     0.031 C 
ATOM     58  C   UNL A   1      42.606  25.151  26.819  1.00  0.00     0.029 A 
ATOM     59  C   UNL A   1      43.922  25.575  26.721  1.00  0.00     0.049 A 
ATOM     60  H   UNL A   1      44.736  27.481  27.115  1.00  0.00     0.167 HD
ATOM     61  C   UNL A   1      46.340  25.322  26.238  1.00  0.00     0.074 A 
ATOM     62  C   UNL A   1      47.501  24.556  25.836  1.00  0.00     0.031 C 
ATOM     63  C   UNL A   1      45.083  24.815  26.327  1.00  0.00     0.037 A 
BRANCH  50  64
ATOM     64  C   UNL A   1      40.865  28.931  28.201  1.00  0.00     0.058 A 
ATOM     65  C   UNL A   1      39.907  29.239  27.223  1.00  0.00     0.135 A 
ATOM     66  C   UNL A   1      40.444  28.881  29.540  1.00  0.00     0.135 A 
ATOM     67  F   UNL A   1      40.261  29.325  25.930  1.00  0.00    -0.206 F 
ATOM     68  C   UNL A   1      38.587  29.516  27.562  1.00  0.00     0.059 A 
ATOM     69  C   UNL A   1      39.123  29.125  29.899  1.00  0.00     0.059 A 
ATOM     70  F   UNL A   1      41.323  28.598  30.515  1.00  0.00    -0.206 F 
ATOM     71  C   UNL A   1      38.205  29.457  28.904  1.00  0.00     0.060 A 
BRANCH  71  72
ATOM     72  S   UNL A   1      36.490  29.827  29.327  1.00  0.00     0.124 S 
ATOM     73  O   UNL A   1      36.486  31.286  29.275  1.00  0.00    -0.237 OA
ATOM     74  O   UNL A   1      35.754  29.152  28.263  1.00  0.00    -0.237 OA
ATOM     75  O   UNL A   1      36.335  29.247  30.659  1.00  0.00    -0.744 OA
ENDBRANCH  71  72
ENDBRANCH  50  64
BRANCH  51  76
ATOM     76  C   UNL A   1      50.505  27.524  26.058  1.00  0.00     0.058 A 
ATOM     77  C   UNL A   1      51.424  27.205  27.069  1.00  0.00     0.135 A 
ATOM     78  C   UNL A   1      50.984  27.597  24.740  1.00  0.00     0.135 A 
ATOM     79  F   UNL A   1      51.020  27.146  28.347  1.00  0.00    -0.206 F 
ATOM     80  C   UNL A   1      52.762  26.951  26.784  1.00  0.00     0.059 A 
ATOM     81  C   UNL A   1      52.312  27.325  24.427  1.00  0.00     0.059 A 
ATOM     82  F   UNL A   1      50.146  27.901  23.737  1.00  0.00    -0.206 F 
ATOM     83  C   UNL A   1      53.193  26.999  25.457  1.00  0.00     0.060 A 
BRANCH  83  84
ATOM     84  S   UNL A   1      54.910  26.568  25.090  1.00  0.00     0.124 S 
ATOM     85  O   UNL A   1      55.103  25.386  25.922  1.00  0.00    -0.237 OA
ATOM     86  O   UNL A   1      54.861  26.335  23.650  1.00  0.00    -0.237 OA
ATOM     87  O   UNL A   1      55.651  27.757  25.501  1.00  0.00    -0.744 OA
ENDBRANCH  83  84
ENDBRANCH  51  76
BRANCH  63  88
ATOM     88  C   UNL A   1      44.879  23.369  25.959  1.00  0.00     0.058 A 
ATOM     89  C   UNL A   1      44.515  22.407  26.912  1.00  0.00     0.135 A 
ATOM     90  C   UNL A   1      44.985  22.954  24.620  1.00  0.00     0.135 A 
ATOM     91  F   UNL A   1      44.399  22.747  28.205  1.00  0.00    -0.206 F 
ATOM     92  C   UNL A   1      44.286  21.080  26.557  1.00  0.00     0.059 A 
ATOM     93  C   UNL A   1      44.735  21.639  24.238  1.00  0.00     0.059 A 
ATOM     94  F   UNL A   1      45.316  23.836  23.663  1.00  0.00    -0.206 F 
ATOM     95  C   UNL A   1      44.397  20.706  25.216  1.00  0.00     0.060 A 
BRANCH  95  96
ATOM     96  S   UNL A   1      44.074  18.987  24.767  1.00  0.00     0.124 S 
ATOM     97  O   UNL A   1      44.397  18.988  23.344  1.00  0.00    -0.237 OA
ATOM     98  O   UNL A   1      45.003  18.261  25.627  1.00  0.00    -0.237 OA
ATOM     99  O   UNL A   1      42.661  18.809  25.089  1.00  0.00    -0.744 OA
ENDBRANCH  95  96
ENDBRANCH  63  88
ENDBRANCH  37  38
ENDBRANCH  30  32
ENDBRANCH  29  30
ENDBRANCH  28  29
ENDBRANCH  27  28
ENDBRANCH  26  27
ENDBRANCH   1  26
TORSDOF 22
ENDMDL
MODEL 3
REMARK VINA RESULT:      -9.1      3.701     11.238
REMARK SMILES Cn1nc(N2CCC(CC(=O)OCCOCCOCCOC(=O)c3ccc(-c4c5nc(c(-c6c(F)cc(S(=O)(=O)[O-])cc6F)c6ccc([nH]6)c(-c6c(F)cc(S(=O)(=O)[O-])cc6F)c6nc(c(-c7c(F)cc(S(=O)(=O)[O-])cc7F)c7ccc4[nH]7)C=C6)C=C5)cc3)CC2)c(=O)n(C)c1=O
REMARK SMILES IDX 17 1 16 2 15 3 14 4 13 5 12 6 10 7 11 8 9 9 8 10 5 11 6 12
REMARK SMILES IDX 91 13 7 14 90 15 4 16 1 17 2 18 3 19 96 20 94 21 97 22 92 23
REMARK SMILES IDX 95 24 93 25 18 26 19 27 20 28 21 29 22 30 23 31 24 32 25 33
REMARK SMILES IDX 89 34 26 35 88 36 27 37 28 38 29 39 82 40 30 41 87 42 81 43
REMARK SMILES IDX 83 44 31 45 86 46 80 47 79 48 32 50 66 51 45 52 65 53 46 54
REMARK SMILES IDX 49 55 64 56 84 57 47 58 48 59 63 61 85 62 50 63 33 64 34 65
REMARK SMILES IDX 43 66 35 67 36 68 42 69 44 70 37 71 38 72 39 73 40 74 41 75
REMARK SMILES IDX 67 76 68 77 77 78 69 79 70 80 76 81 78 82 71 83 72 84 73 85
REMARK SMILES IDX 74 86 75 87 51 88 52 89 61 90 53 91 54 92 60 93 62 94 55 95
REMARK SMILES IDX 56 96 57 97 58 98 59 99
REMARK H PARENT 83 49 49 60
REMARK Flexibility Score: inf
ROOT
ATOM      1  C   UNL A   1      34.640  34.307  31.096  1.00  0.00     0.188 C 
ENDROOT
BRANCH   1   2
ATOM      2  C   UNL A   1      36.116  33.953  30.903  1.00  0.00     0.188 C 
BRANCH   2   3
ATOM      3  O   UNL A   1      36.984  34.327  31.969  1.00  0.00    -0.376 OA
BRANCH   3   4
ATOM      4  C   UNL A   1      37.805  33.295  32.514  1.00  0.00     0.202 C 
BRANCH   4   5
ATOM      5  C   UNL A   1      39.297  33.371  32.161  1.00  0.00     0.261 C 
BRANCH   5   6
ATOM      6  O   UNL A   1      39.541  33.846  30.821  1.00  0.00    -0.463 OA
BRANCH   6   7
ATOM      7  C   UNL A   1      40.833  34.136  30.522  1.00  0.00     0.306 C 
ATOM      8  O   UNL A   1      41.797  33.784  31.193  1.00  0.00    -0.252 OA
BRANCH   7   9
ATOM      9  C   UNL A   1      41.018  34.870  29.204  1.00  0.00     0.126 C 
BRANCH   9  10
ATOM     10  C   UNL A   1      42.420  35.309  28.742  1.00  0.00     0.003 C 
ATOM     11  N   UNL A   1      44.070  37.357  27.521  1.00  0.00    -0.351 N 
ATOM     12  C   UNL A   1      43.866  36.091  26.834  1.00  0.00     0.118 C 
ATOM     13  C   UNL A   1      44.108  37.260  28.976  1.00  0.00     0.118 C 
ATOM     14  C   UNL A   1      42.511  35.512  27.222  1.00  0.00     0.026 C 
ATOM     15  C   UNL A   1      42.800  36.627  29.474  1.00  0.00     0.026 C 
BRANCH  11  16
ATOM     16  C   UNL A   1      43.837  38.560  26.867  1.00  0.00     0.215 A 
ATOM     17  C   UNL A   1      45.758  41.190  25.362  1.00  0.00     0.180 C 
ATOM     18  N   UNL A   1      44.587  40.504  25.882  1.00  0.00    -0.216 N 
ATOM     19  N   UNL A   1      44.835  39.300  26.475  1.00  0.00    -0.145 NA
ATOM     20  C   UNL A   1      43.332  41.082  25.735  1.00  0.00     0.346 A 
ATOM     21  N   UNL A   1      42.263  40.339  26.196  1.00  0.00    -0.259 N 
ATOM     22  O   UNL A   1      43.184  42.188  25.210  1.00  0.00    -0.246 OA
ATOM     23  C   UNL A   1      42.396  39.049  26.669  1.00  0.00     0.299 A 
ATOM     24  C   UNL A   1      40.926  40.891  26.135  1.00  0.00     0.159 C 
ATOM     25  O   UNL A   1      41.457  38.314  26.961  1.00  0.00    -0.265 OA
ENDBRANCH  11  16
ENDBRANCH   9  10
ENDBRANCH   7   9
ENDBRANCH   6   7
ENDBRANCH   5   6
ENDBRANCH   4   5
ENDBRANCH   3   4
ENDBRANCH   2   3
ENDBRANCH   1   2
BRANCH   1  26
ATOM     26  O   UNL A   1      33.771  33.955  30.026  1.00  0.00    -0.376 OA
BRANCH  26  27
ATOM     27  C   UNL A   1      34.406  33.520  28.819  1.00  0.00     0.202 C 
BRANCH  27  28
ATOM     28  C   UNL A   1      34.804  32.029  28.738  1.00  0.00     0.261 C 
BRANCH  28  29
ATOM     29  O   UNL A   1      36.116  31.702  29.243  1.00  0.00    -0.460 OA
BRANCH  29  30
ATOM     30  C   UNL A   1      36.381  30.405  29.528  1.00  0.00     0.338 C 
ATOM     31  O   UNL A   1      35.557  29.531  29.737  1.00  0.00    -0.246 OA
BRANCH  30  32
ATOM     32  C   UNL A   1      37.823  30.150  29.259  1.00  0.00     0.060 A 
ATOM     33  C   UNL A   1      38.203  29.840  27.944  1.00  0.00     0.016 A 
ATOM     34  C   UNL A   1      38.800  30.284  30.251  1.00  0.00     0.016 A 
ATOM     35  C   UNL A   1      39.546  29.619  27.629  1.00  0.00     0.010 A 
ATOM     36  C   UNL A   1      40.144  30.045  29.939  1.00  0.00     0.010 A 
ATOM     37  C   UNL A   1      40.519  29.677  28.636  1.00  0.00    -0.014 A 
BRANCH  37  38
ATOM     38  C   UNL A   1      41.873  29.121  28.382  1.00  0.00     0.031 A 
ATOM     39  C   UNL A   1      43.045  30.064  28.457  1.00  0.00     0.074 A 
ATOM     40  C   UNL A   1      42.079  27.819  28.114  1.00  0.00     0.049 A 
ATOM     41  N   UNL A   1      44.312  29.838  28.231  1.00  0.00    -0.248 NA
ATOM     42  C   UNL A   1      42.740  31.452  28.844  1.00  0.00     0.031 C 
ATOM     43  C   UNL A   1      41.045  26.789  28.064  1.00  0.00     0.029 A 
ATOM     44  N   UNL A   1      43.242  27.144  27.828  1.00  0.00    -0.354 N 
ATOM     45  C   UNL A   1      44.954  31.052  28.441  1.00  0.00     0.074 A 
ATOM     46  C   UNL A   1      43.934  32.018  28.787  1.00  0.00     0.031 C 
ATOM     47  C   UNL A   1      41.619  25.612  27.755  1.00  0.00     0.029 A 
ATOM     48  C   UNL A   1      43.055  25.812  27.551  1.00  0.00     0.049 A 
ATOM     49  H   UNL A   1      44.127  27.576  27.823  1.00  0.00     0.167 HD
ATOM     50  C   UNL A   1      46.274  31.340  28.360  1.00  0.00     0.037 A 
ATOM     51  C   UNL A   1      43.935  24.867  27.157  1.00  0.00     0.037 A 
ATOM     52  C   UNL A   1      47.290  30.385  28.005  1.00  0.00     0.049 A 
ATOM     53  C   UNL A   1      45.393  25.224  26.993  1.00  0.00     0.074 A 
ATOM     54  C   UNL A   1      48.655  30.583  27.901  1.00  0.00     0.029 A 
ATOM     55  N   UNL A   1      47.053  29.056  27.687  1.00  0.00    -0.354 N 
ATOM     56  N   UNL A   1      45.988  26.376  27.195  1.00  0.00    -0.248 NA
ATOM     57  C   UNL A   1      46.297  24.154  26.548  1.00  0.00     0.031 C 
ATOM     58  C   UNL A   1      49.238  29.388  27.466  1.00  0.00     0.029 A 
ATOM     59  C   UNL A   1      48.244  28.429  27.359  1.00  0.00     0.049 A 
ATOM     60  H   UNL A   1      46.170  28.622  27.693  1.00  0.00     0.167 HD
ATOM     61  C   UNL A   1      47.338  26.162  26.924  1.00  0.00     0.074 A 
ATOM     62  C   UNL A   1      47.471  24.770  26.551  1.00  0.00     0.031 C 
ATOM     63  C   UNL A   1      48.371  27.041  26.983  1.00  0.00     0.037 A 
BRANCH  50  64
ATOM     64  C   UNL A   1      46.686  32.761  28.624  1.00  0.00     0.058 A 
ATOM     65  C   UNL A   1      46.581  33.757  27.641  1.00  0.00     0.135 A 
ATOM     66  C   UNL A   1      47.184  33.132  29.884  1.00  0.00     0.135 A 
ATOM     67  F   UNL A   1      46.135  33.451  26.411  1.00  0.00    -0.206 F 
ATOM     68  C   UNL A   1      46.981  35.066  27.888  1.00  0.00     0.059 A 
ATOM     69  C   UNL A   1      47.562  34.440  30.162  1.00  0.00     0.059 A 
ATOM     70  F   UNL A   1      47.311  32.216  30.857  1.00  0.00    -0.206 F 
ATOM     71  C   UNL A   1      47.472  35.397  29.153  1.00  0.00     0.060 A 
BRANCH  71  72
ATOM     72  S   UNL A   1      47.995  37.098  29.454  1.00  0.00     0.124 S 
ATOM     73  O   UNL A   1      46.847  37.631  30.181  1.00  0.00    -0.237 OA
ATOM     74  O   UNL A   1      49.213  36.916  30.237  1.00  0.00    -0.237 OA
ATOM     75  O   UNL A   1      48.191  37.637  28.110  1.00  0.00    -0.744 OA
ENDBRANCH  71  72
ENDBRANCH  50  64
BRANCH  51  76
ATOM     76  C   UNL A   1      43.456  23.485  26.883  1.00  0.00     0.058 A 
ATOM     77  C   UNL A   1      43.341  23.003  25.571  1.00  0.00     0.135 A 
ATOM     78  C   UNL A   1      43.137  22.607  27.931  1.00  0.00     0.135 A 
ATOM     79  F   UNL A   1      43.612  23.810  24.534  1.00  0.00    -0.206 F 
ATOM     80  C   UNL A   1      42.941  21.696  25.307  1.00  0.00     0.059 A 
ATOM     81  C   UNL A   1      42.756  21.290  27.694  1.00  0.00     0.059 A 
ATOM     82  F   UNL A   1      43.228  23.021  29.205  1.00  0.00    -0.206 F 
ATOM     83  C   UNL A   1      42.665  20.843  26.377  1.00  0.00     0.060 A 
BRANCH  83  84
ATOM     84  S   UNL A   1      42.245  19.121  26.023  1.00  0.00     0.124 S 
ATOM     85  O   UNL A   1      40.819  19.218  25.731  1.00  0.00    -0.237 OA
ATOM     86  O   UNL A   1      43.112  18.827  24.886  1.00  0.00    -0.237 OA
ATOM     87  O   UNL A   1      42.590  18.429  27.261  1.00  0.00    -0.744 OA
ENDBRANCH  83  84
ENDBRANCH  51  76
BRANCH  63  88
ATOM     88  C   UNL A   1      49.750  26.529  26.664  1.00  0.00     0.058 A 
ATOM     89  C   UNL A   1      50.637  26.113  27.668  1.00  0.00     0.135 A 
ATOM     90  C   UNL A   1      50.166  26.389  25.328  1.00  0.00     0.135 A 
ATOM     91  F   UNL A   1      50.293  26.223  28.961  1.00  0.00    -0.206 F 
ATOM     92  C   UNL A   1      51.895  25.600  27.363  1.00  0.00     0.059 A 
ATOM     93  C   UNL A   1      51.408  25.854  24.999  1.00  0.00     0.059 A 
ATOM     94  F   UNL A   1      49.352  26.757  24.325  1.00  0.00    -0.206 F 
ATOM     95  C   UNL A   1      52.271  25.472  26.024  1.00  0.00     0.060 A 
BRANCH  95  96
ATOM     96  S   UNL A   1      53.896  24.784  25.643  1.00  0.00     0.124 S 
ATOM     97  O   UNL A   1      54.523  24.763  26.961  1.00  0.00    -0.237 OA
ATOM     98  O   UNL A   1      53.559  23.480  25.080  1.00  0.00    -0.237 OA
ATOM     99  O   UNL A   1      54.459  25.742  24.696  1.00  0.00    -0.744 OA
ENDBRANCH  95  96
ENDBRANCH  63  88
ENDBRANCH  37  38
ENDBRANCH  30  32
ENDBRANCH  29  30
ENDBRANCH  28  29
ENDBRANCH  27  28
ENDBRANCH  26  27
ENDBRANCH   1  26
TORSDOF 22
ENDMDL
