MODEL 1
REMARK VINA RESULT:      -5.7      0.000      0.000
REMARK SMILES C=C[C@@H]1[C@@H](O)C[C@@H]2[C@@]3(CC[C@@]4(C)[C@@H]([C@H](C)CCC=C(C)C)CC[C@@]24C)C[C@@]13CCC(=O)OCCOCCOCCOC(=O)c1ccc(-c2c3nc(c(-c4c(F)cc(S(=O)(=O)[O-])cc4F)c4ccc([nH]4)c(-c4c(F)cc(S(=O)(=O)[O-])cc4F)c4nc(c(-c5c(F)cc(S(=O)(=O)[O-])cc5F)c5ccc2[nH]5)C=C4)C=C3)cc1
REMARK SMILES IDX 35 1 34 2 33 3 32 4 30 5 31 6 29 7 28 8 27 9 3 10 4 11 6 12
REMARK SMILES IDX 8 13 26 14 7 15 9 16 24 17 10 18 11 19 23 20 25 21 12 22
REMARK SMILES IDX 13 23 22 24 2 25 1 26 5 27 14 29 15 30 16 31 17 32 18 33
REMARK SMILES IDX 19 34 20 35 21 36 36 37 37 38 38 39 39 40 40 41 41 42 42 43
REMARK SMILES IDX 43 44 44 45 45 46 109 47 46 48 108 49 47 50 48 51 49 52
REMARK SMILES IDX 102 53 50 54 107 55 101 56 103 57 51 58 106 59 100 60 99 61
REMARK SMILES IDX 52 63 86 64 65 65 85 66 66 67 69 68 84 69 104 70 67 71 68 72
REMARK SMILES IDX 83 74 105 75 70 76 53 77 54 78 63 79 55 80 56 81 62 82 64 83
REMARK SMILES IDX 57 84 58 85 59 86 60 87 61 88 87 89 88 90 97 91 89 92 90 93
REMARK SMILES IDX 96 94 98 95 91 96 92 97 93 98 94 99 95 100 71 101 72 102
REMARK SMILES IDX 81 103 73 104 74 105 80 106 82 107 75 108 76 109 77 110
REMARK SMILES IDX 78 111 79 112
REMARK H PARENT 5 28 103 62 69 73
REMARK Flexibility Score: inf
ROOT
ATOM      1  O   UNL A   1      40.544  31.714  32.988  1.00  0.00    -0.376 OA
ENDROOT
BRANCH   1   2
ATOM      2  C   UNL A   1      39.506  31.982  32.072  1.00  0.00     0.202 C 
BRANCH   2   3
ATOM      3  C   UNL A   1      38.596  30.904  31.503  1.00  0.00     0.261 C 
BRANCH   3   4
ATOM      4  O   UNL A   1      39.489  30.011  30.942  1.00  0.00    -0.463 OA
BRANCH   4   5
ATOM      5  C   UNL A   1      39.620  28.761  31.373  1.00  0.00     0.305 C 
ATOM      6  O   UNL A   1      38.753  27.936  31.657  1.00  0.00    -0.252 OA
BRANCH   5   7
ATOM      7  C   UNL A   1      41.090  28.684  31.418  1.00  0.00     0.123 C 
BRANCH   7   8
ATOM      8  C   UNL A   1      41.535  27.747  30.223  1.00  0.00     0.020 C 
BRANCH   8   9
ATOM      9  C   UNL A   1      42.561  28.344  29.147  1.00  0.00    -0.014 C 
ATOM     10  C   UNL A   1      41.897  28.843  27.814  1.00  0.00     0.047 C 
ATOM     11  C   UNL A   1      42.820  28.700  26.554  1.00  0.00     0.122 C 
ATOM     12  C   UNL A   1      44.344  28.838  26.795  1.00  0.00     0.037 C 
ATOM     13  C   UNL A   1      44.222  28.127  29.211  1.00  0.00    -0.019 C 
ATOM     14  C   UNL A   1      43.502  29.389  29.660  1.00  0.00     0.016 C 
ATOM     15  C   UNL A   1      44.769  27.728  27.764  1.00  0.00     0.005 C 
ATOM     16  C   UNL A   1      45.071  27.627  30.407  1.00  0.00     0.008 C 
ATOM     17  C   UNL A   1      46.272  27.111  27.665  1.00  0.00    -0.023 C 
ATOM     18  C   UNL A   1      46.384  26.837  30.111  1.00  0.00     0.008 C 
ATOM     19  C   UNL A   1      46.603  25.991  28.771  1.00  0.00    -0.024 C 
ATOM     20  C   UNL A   1      46.560  26.275  26.397  1.00  0.00     0.008 C 
ATOM     21  C   UNL A   1      47.221  28.351  27.682  1.00  0.00     0.012 C 
ATOM     22  C   UNL A   1      48.174  25.719  28.888  1.00  0.00     0.012 C 
ATOM     23  C   UNL A   1      46.055  24.345  28.120  1.00  0.00    -0.002 C 
ATOM     24  C   UNL A   1      46.315  24.747  26.609  1.00  0.00     0.005 C 
BRANCH  10  25
ATOM     25  C   UNL A   1      40.455  28.412  27.571  1.00  0.00    -0.028 C 
ATOM     26  C   UNL A   1      39.349  29.168  27.517  1.00  0.00     0.004 C 
ENDBRANCH  10  25
BRANCH  11  27
ATOM     27  O   UNL A   1      42.461  29.669  25.556  1.00  0.00    -0.392 OA
ATOM     28  H   UNL A   1      41.496  29.687  25.456  1.00  0.00     0.210 HD
ENDBRANCH  11  27
BRANCH  23  29
ATOM     29  C   UNL A   1      44.675  23.064  28.009  1.00  0.00    -0.010 C 
ATOM     30  C   UNL A   1      43.605  22.623  26.815  1.00  0.00     0.008 C 
BRANCH  29  31
ATOM     31  C   UNL A   1      43.634  22.934  29.208  1.00  0.00     0.008 C 
BRANCH  31  32
ATOM     32  C   UNL A   1      43.892  23.993  30.419  1.00  0.00     0.027 C 
BRANCH  32  33
ATOM     33  C   UNL A   1      44.052  23.342  31.784  1.00  0.00    -0.028 C 
ATOM     34  C   UNL A   1      44.555  23.826  32.942  1.00  0.00    -0.080 C 
ATOM     35  C   UNL A   1      44.373  23.023  34.211  1.00  0.00     0.039 C 
ATOM     36  C   UNL A   1      45.301  25.119  33.132  1.00  0.00     0.039 C 
ENDBRANCH  32  33
ENDBRANCH  31  32
ENDBRANCH  29  31
ENDBRANCH  23  29
ENDBRANCH   8   9
ENDBRANCH   7   8
ENDBRANCH   5   7
ENDBRANCH   4   5
ENDBRANCH   3   4
ENDBRANCH   2   3
ENDBRANCH   1   2
BRANCH   1  37
ATOM     37  C   UNL A   1      41.432  32.806  33.114  1.00  0.00     0.188 C 
BRANCH  37  38
ATOM     38  C   UNL A   1      41.324  33.578  34.416  1.00  0.00     0.188 C 
BRANCH  38  39
ATOM     39  O   UNL A   1      42.409  33.448  35.337  1.00  0.00    -0.376 OA
BRANCH  39  40
ATOM     40  C   UNL A   1      42.011  33.291  36.687  1.00  0.00     0.202 C 
BRANCH  40  41
ATOM     41  C   UNL A   1      41.000  32.152  36.863  1.00  0.00     0.261 C 
BRANCH  41  42
ATOM     42  O   UNL A   1      41.623  30.895  37.181  1.00  0.00    -0.460 OA
BRANCH  42  43
ATOM     43  C   UNL A   1      41.462  29.891  36.268  1.00  0.00     0.338 C 
ATOM     44  O   UNL A   1      40.409  29.390  35.914  1.00  0.00    -0.246 OA
BRANCH  43  45
ATOM     45  C   UNL A   1      42.766  29.712  35.552  1.00  0.00     0.060 A 
ATOM     46  C   UNL A   1      43.950  30.164  36.168  1.00  0.00     0.016 A 
ATOM     47  C   UNL A   1      42.846  28.893  34.416  1.00  0.00     0.016 A 
ATOM     48  C   UNL A   1      45.200  29.853  35.618  1.00  0.00     0.010 A 
ATOM     49  C   UNL A   1      44.087  28.580  33.867  1.00  0.00     0.010 A 
ATOM     50  C   UNL A   1      45.258  29.128  34.422  1.00  0.00    -0.014 A 
BRANCH  50  51
ATOM     51  C   UNL A   1      46.385  29.340  33.484  1.00  0.00     0.031 A 
ATOM     52  C   UNL A   1      46.176  30.445  32.479  1.00  0.00     0.074 A 
ATOM     53  C   UNL A   1      47.467  28.549  33.438  1.00  0.00     0.049 A 
ATOM     54  N   UNL A   1      46.843  30.736  31.398  1.00  0.00    -0.248 NA
ATOM     55  C   UNL A   1      45.003  31.311  32.708  1.00  0.00     0.031 C 
ATOM     56  C   UNL A   1      47.772  27.463  34.366  1.00  0.00     0.029 A 
ATOM     57  N   UNL A   1      48.497  28.522  32.532  1.00  0.00    -0.354 N 
ATOM     58  C   UNL A   1      46.149  31.787  30.809  1.00  0.00     0.074 A 
ATOM     59  C   UNL A   1      44.986  32.050  31.617  1.00  0.00     0.031 C 
ATOM     60  C   UNL A   1      48.899  26.849  33.959  1.00  0.00     0.029 A 
ATOM     61  C   UNL A   1      49.365  27.475  32.721  1.00  0.00     0.049 A 
ATOM     62  H   UNL A   1      48.603  29.188  31.814  1.00  0.00     0.167 HD
ATOM     63  C   UNL A   1      46.456  32.481  29.690  1.00  0.00     0.037 A 
ATOM     64  C   UNL A   1      50.392  27.055  31.953  1.00  0.00     0.037 A 
ATOM     65  C   UNL A   1      47.615  32.194  28.894  1.00  0.00     0.049 A 
ATOM     66  C   UNL A   1      50.717  27.817  30.692  1.00  0.00     0.074 A 
ATOM     67  C   UNL A   1      48.065  32.845  27.763  1.00  0.00     0.029 A 
ATOM     68  N   UNL A   1      48.497  31.150  29.143  1.00  0.00    -0.354 N 
ATOM     69  N   UNL A   1      50.088  28.844  30.163  1.00  0.00    -0.248 NA
ATOM     70  C   UNL A   1      51.890  27.374  29.927  1.00  0.00     0.031 C 
ATOM     71  C   UNL A   1      49.184  32.152  27.289  1.00  0.00     0.029 A 
ATOM     72  C   UNL A   1      49.475  31.116  28.168  1.00  0.00     0.049 A 
ATOM     73  H   UNL A   1      48.435  30.527  29.903  1.00  0.00     0.167 HD
ATOM     74  C   UNL A   1      50.802  29.185  29.018  1.00  0.00     0.074 A 
ATOM     75  C   UNL A   1      51.915  28.258  28.938  1.00  0.00     0.031 C 
ATOM     76  C   UNL A   1      50.568  30.175  28.117  1.00  0.00     0.037 A 
BRANCH  63  77
ATOM     77  C   UNL A   1      45.495  33.557  29.263  1.00  0.00     0.058 A 
ATOM     78  C   UNL A   1      44.484  33.327  28.312  1.00  0.00     0.135 A 
ATOM     79  C   UNL A   1      45.624  34.860  29.770  1.00  0.00     0.135 A 
ATOM     80  F   UNL A   1      44.331  32.108  27.768  1.00  0.00    -0.206 F 
ATOM     81  C   UNL A   1      43.676  34.357  27.841  1.00  0.00     0.059 A 
ATOM     82  C   UNL A   1      44.799  35.897  29.343  1.00  0.00     0.059 A 
ATOM     83  F   UNL A   1      46.578  35.145  30.669  1.00  0.00    -0.206 F 
ATOM     84  C   UNL A   1      43.845  35.641  28.360  1.00  0.00     0.060 A 
BRANCH  84  85
ATOM     85  S   UNL A   1      42.809  36.972  27.721  1.00  0.00     0.124 S 
ATOM     86  O   UNL A   1      43.614  37.457  26.603  1.00  0.00    -0.237 OA
ATOM     87  O   UNL A   1      41.583  36.266  27.361  1.00  0.00    -0.237 OA
ATOM     88  O   UNL A   1      42.692  37.886  28.853  1.00  0.00    -0.744 OA
ENDBRANCH  84  85
ENDBRANCH  63  77
BRANCH  64  89
ATOM     89  C   UNL A   1      51.170  25.855  32.364  1.00  0.00     0.058 A 
ATOM     90  C   UNL A   1      50.694  24.560  32.116  1.00  0.00     0.135 A 
ATOM     91  C   UNL A   1      52.443  25.980  32.947  1.00  0.00     0.135 A 
ATOM     92  F   UNL A   1      49.477  24.385  31.578  1.00  0.00    -0.206 F 
ATOM     93  C   UNL A   1      51.455  23.432  32.412  1.00  0.00     0.059 A 
ATOM     94  C   UNL A   1      53.233  24.869  33.229  1.00  0.00     0.059 A 
ATOM     95  F   UNL A   1      52.949  27.197  33.202  1.00  0.00    -0.206 F 
ATOM     96  C   UNL A   1      52.732  23.598  32.953  1.00  0.00     0.060 A 
BRANCH  96  97
ATOM     97  S   UNL A   1      53.755  22.133  33.222  1.00  0.00     0.124 S 
ATOM     98  O   UNL A   1      53.237  21.639  34.492  1.00  0.00    -0.237 OA
ATOM     99  O   UNL A   1      53.440  21.325  32.046  1.00  0.00    -0.237 OA
ATOM    100  O   UNL A   1      55.111  22.671  33.259  1.00  0.00    -0.744 OA
ENDBRANCH  96  97
ENDBRANCH  64  89
BRANCH  76 101
ATOM    101  C   UNL A   1      51.549  30.334  26.987  1.00  0.00     0.058 A 
ATOM    102  C   UNL A   1      51.421  29.618  25.787  1.00  0.00     0.135 A 
ATOM    103  C   UNL A   1      52.587  31.275  27.084  1.00  0.00     0.135 A 
ATOM    104  F   UNL A   1      50.447  28.706  25.643  1.00  0.00    -0.206 F 
ATOM    105  C   UNL A   1      52.307  29.811  24.731  1.00  0.00     0.059 A 
ATOM    106  C   UNL A   1      53.461  31.510  26.028  1.00  0.00     0.059 A 
ATOM    107  F   UNL A   1      52.742  32.000  28.204  1.00  0.00    -0.206 F 
ATOM    108  C   UNL A   1      53.320  30.763  24.861  1.00  0.00     0.060 A 
BRANCH 108 109
ATOM    109  S   UNL A   1      54.442  31.025  23.472  1.00  0.00     0.124 S 
ATOM    110  O   UNL A   1      53.564  30.774  22.334  1.00  0.00    -0.237 OA
ATOM    111  O   UNL A   1      54.855  32.411  23.663  1.00  0.00    -0.237 OA
ATOM    112  O   UNL A   1      55.488  30.028  23.687  1.00  0.00    -0.744 OA
ENDBRANCH 108 109
ENDBRANCH  76 101
ENDBRANCH  50  51
ENDBRANCH  43  45
ENDBRANCH  42  43
ENDBRANCH  41  42
ENDBRANCH  40  41
ENDBRANCH  39  40
ENDBRANCH  38  39
ENDBRANCH  37  38
ENDBRANCH   1  37
TORSDOF 28
ENDMDL
MODEL 2
REMARK VINA RESULT:      -5.1      4.817      9.066
REMARK SMILES C=C[C@@H]1[C@@H](O)C[C@@H]2[C@@]3(CC[C@@]4(C)[C@@H]([C@H](C)CCC=C(C)C)CC[C@@]24C)C[C@@]13CCC(=O)OCCOCCOCCOC(=O)c1ccc(-c2c3nc(c(-c4c(F)cc(S(=O)(=O)[O-])cc4F)c4ccc([nH]4)c(-c4c(F)cc(S(=O)(=O)[O-])cc4F)c4nc(c(-c5c(F)cc(S(=O)(=O)[O-])cc5F)c5ccc2[nH]5)C=C4)C=C3)cc1
REMARK SMILES IDX 35 1 34 2 33 3 32 4 30 5 31 6 29 7 28 8 27 9 3 10 4 11 6 12
REMARK SMILES IDX 8 13 26 14 7 15 9 16 24 17 10 18 11 19 23 20 25 21 12 22
REMARK SMILES IDX 13 23 22 24 2 25 1 26 5 27 14 29 15 30 16 31 17 32 18 33
REMARK SMILES IDX 19 34 20 35 21 36 36 37 37 38 38 39 39 40 40 41 41 42 42 43
REMARK SMILES IDX 43 44 44 45 45 46 109 47 46 48 108 49 47 50 48 51 49 52
REMARK SMILES IDX 102 53 50 54 107 55 101 56 103 57 51 58 106 59 100 60 99 61
REMARK SMILES IDX 52 63 86 64 65 65 85 66 66 67 69 68 84 69 104 70 67 71 68 72
REMARK SMILES IDX 83 74 105 75 70 76 53 77 54 78 63 79 55 80 56 81 62 82 64 83
REMARK SMILES IDX 57 84 58 85 59 86 60 87 61 88 87 89 88 90 97 91 89 92 90 93
REMARK SMILES IDX 96 94 98 95 91 96 92 97 93 98 94 99 95 100 71 101 72 102
REMARK SMILES IDX 81 103 73 104 74 105 80 106 82 107 75 108 76 109 77 110
REMARK SMILES IDX 78 111 79 112
REMARK H PARENT 5 28 103 62 69 73
REMARK Flexibility Score: inf
ROOT
ATOM      1  O   UNL A   1      41.794  33.896  32.654  1.00  0.00    -0.376 OA
ENDROOT
BRANCH   1   2
ATOM      2  C   UNL A   1      42.400  34.564  31.571  1.00  0.00     0.202 C 
BRANCH   2   3
ATOM      3  C   UNL A   1      42.402  34.023  30.150  1.00  0.00     0.261 C 
BRANCH   3   4
ATOM      4  O   UNL A   1      43.698  33.570  29.994  1.00  0.00    -0.463 OA
BRANCH   4   5
ATOM      5  C   UNL A   1      44.015  32.281  30.017  1.00  0.00     0.305 C 
ATOM      6  O   UNL A   1      44.607  31.635  30.881  1.00  0.00    -0.252 OA
BRANCH   5   7
ATOM      7  C   UNL A   1      43.463  31.882  28.710  1.00  0.00     0.123 C 
BRANCH   7   8
ATOM      8  C   UNL A   1      43.365  30.303  28.719  1.00  0.00     0.020 C 
BRANCH   8   9
ATOM      9  C   UNL A   1      43.958  29.510  27.459  1.00  0.00    -0.014 C 
ATOM     10  C   UNL A   1      42.896  29.120  26.370  1.00  0.00     0.047 C 
ATOM     11  C   UNL A   1      43.233  27.795  25.602  1.00  0.00     0.122 C 
ATOM     12  C   UNL A   1      44.735  27.467  25.415  1.00  0.00     0.037 C 
ATOM     13  C   UNL A   1      45.473  28.794  27.428  1.00  0.00    -0.019 C 
ATOM     14  C   UNL A   1      45.145  30.139  26.799  1.00  0.00     0.016 C 
ATOM     15  C   UNL A   1      45.362  27.326  26.807  1.00  0.00     0.005 C 
ATOM     16  C   UNL A   1      46.651  29.015  28.410  1.00  0.00     0.008 C 
ATOM     17  C   UNL A   1      46.620  26.315  27.020  1.00  0.00    -0.023 C 
ATOM     18  C   UNL A   1      47.638  27.835  28.672  1.00  0.00     0.008 C 
ATOM     19  C   UNL A   1      47.213  26.300  28.515  1.00  0.00    -0.024 C 
ATOM     20  C   UNL A   1      46.288  24.811  26.888  1.00  0.00     0.008 C 
ATOM     21  C   UNL A   1      47.647  26.707  25.910  1.00  0.00     0.012 C 
ATOM     22  C   UNL A   1      48.660  25.622  28.573  1.00  0.00     0.012 C 
ATOM     23  C   UNL A   1      46.257  25.065  29.512  1.00  0.00    -0.002 C 
ATOM     24  C   UNL A   1      45.958  24.141  28.260  1.00  0.00     0.005 C 
BRANCH  10  25
ATOM     25  C   UNL A   1      41.432  29.240  26.776  1.00  0.00    -0.028 C 
ATOM     26  C   UNL A   1      40.651  28.336  27.388  1.00  0.00     0.004 C 
ENDBRANCH  10  25
BRANCH  11  27
ATOM     27  O   UNL A   1      42.637  27.806  24.295  1.00  0.00    -0.392 OA
ATOM     28  H   UNL A   1      42.162  28.642  24.163  1.00  0.00     0.210 HD
ENDBRANCH  11  27
BRANCH  23  29
ATOM     29  C   UNL A   1      44.795  24.746  30.660  1.00  0.00    -0.010 C 
ATOM     30  C   UNL A   1      44.321  23.451  31.591  1.00  0.00     0.008 C 
BRANCH  29  31
ATOM     31  C   UNL A   1      43.327  25.140  30.182  1.00  0.00     0.008 C 
BRANCH  31  32
ATOM     32  C   UNL A   1      42.677  24.086  29.123  1.00  0.00     0.027 C 
BRANCH  32  33
ATOM     33  C   UNL A   1      41.633  24.701  28.204  1.00  0.00    -0.028 C 
ATOM     34  C   UNL A   1      41.521  24.686  26.856  1.00  0.00    -0.080 C 
ATOM     35  C   UNL A   1      40.243  25.188  26.222  1.00  0.00     0.039 C 
ATOM     36  C   UNL A   1      42.553  24.209  25.870  1.00  0.00     0.039 C 
ENDBRANCH  32  33
ENDBRANCH  31  32
ENDBRANCH  29  31
ENDBRANCH  23  29
ENDBRANCH   8   9
ENDBRANCH   7   8
ENDBRANCH   5   7
ENDBRANCH   4   5
ENDBRANCH   3   4
ENDBRANCH   2   3
ENDBRANCH   1   2
BRANCH   1  37
ATOM     37  C   UNL A   1      40.923  34.742  33.377  1.00  0.00     0.188 C 
BRANCH  37  38
ATOM     38  C   UNL A   1      39.445  34.443  33.206  1.00  0.00     0.188 C 
BRANCH  38  39
ATOM     39  O   UNL A   1      38.899  34.608  31.894  1.00  0.00    -0.376 OA
BRANCH  39  40
ATOM     40  C   UNL A   1      37.675  33.927  31.683  1.00  0.00     0.202 C 
BRANCH  40  41
ATOM     41  C   UNL A   1      37.849  32.404  31.715  1.00  0.00     0.261 C 
BRANCH  41  42
ATOM     42  O   UNL A   1      38.977  31.953  30.945  1.00  0.00    -0.460 OA
BRANCH  42  43
ATOM     43  C   UNL A   1      39.066  30.605  30.733  1.00  0.00     0.338 C 
ATOM     44  O   UNL A   1      38.661  29.992  29.761  1.00  0.00    -0.246 OA
BRANCH  43  45
ATOM     45  C   UNL A   1      40.009  30.044  31.753  1.00  0.00     0.060 A 
ATOM     46  C   UNL A   1      39.623  28.904  32.485  1.00  0.00     0.016 A 
ATOM     47  C   UNL A   1      41.341  30.482  31.807  1.00  0.00     0.016 A 
ATOM     48  C   UNL A   1      40.542  28.245  33.312  1.00  0.00     0.010 A 
ATOM     49  C   UNL A   1      42.258  29.829  32.625  1.00  0.00     0.010 A 
ATOM     50  C   UNL A   1      41.838  28.761  33.439  1.00  0.00    -0.014 A 
BRANCH  50  51
ATOM     51  C   UNL A   1      42.587  28.571  34.702  1.00  0.00     0.031 A 
ATOM     52  C   UNL A   1      42.464  29.703  35.691  1.00  0.00     0.074 A 
ATOM     53  C   UNL A   1      43.410  27.535  34.924  1.00  0.00     0.049 A 
ATOM     54  N   UNL A   1      43.154  29.958  36.766  1.00  0.00    -0.248 NA
ATOM     55  C   UNL A   1      41.444  30.722  35.380  1.00  0.00     0.031 C 
ATOM     56  C   UNL A   1      43.594  26.385  34.043  1.00  0.00     0.029 A 
ATOM     57  N   UNL A   1      44.282  27.313  35.960  1.00  0.00    -0.354 N 
ATOM     58  C   UNL A   1      42.675  31.178  37.230  1.00  0.00     0.074 A 
ATOM     59  C   UNL A   1      41.677  31.638  36.298  1.00  0.00     0.031 C 
ATOM     60  C   UNL A   1      44.551  25.592  34.559  1.00  0.00     0.029 A 
ATOM     61  C   UNL A   1      45.072  26.204  35.782  1.00  0.00     0.049 A 
ATOM     62  H   UNL A   1      44.336  27.893  36.754  1.00  0.00     0.167 HD
ATOM     63  C   UNL A   1      43.030  31.859  38.343  1.00  0.00     0.037 A 
ATOM     64  C   UNL A   1      46.120  25.764  36.510  1.00  0.00     0.037 A 
ATOM     65  C   UNL A   1      44.035  31.387  39.251  1.00  0.00     0.049 A 
ATOM     66  C   UNL A   1      46.530  26.541  37.737  1.00  0.00     0.074 A 
ATOM     67  C   UNL A   1      44.462  31.956  40.434  1.00  0.00     0.029 A 
ATOM     68  N   UNL A   1      44.786  30.234  39.059  1.00  0.00    -0.354 N 
ATOM     69  N   UNL A   1      46.041  27.669  38.202  1.00  0.00    -0.248 NA
ATOM     70  C   UNL A   1      47.625  25.985  38.543  1.00  0.00     0.031 C 
ATOM     71  C   UNL A   1      45.518  31.181  40.924  1.00  0.00     0.029 A 
ATOM     72  C   UNL A   1      45.698  30.088  40.086  1.00  0.00     0.049 A 
ATOM     73  H   UNL A   1      44.682  29.613  38.303  1.00  0.00     0.167 HD
ATOM     74  C   UNL A   1      46.751  27.946  39.367  1.00  0.00     0.074 A 
ATOM     75  C   UNL A   1      47.697  26.860  39.538  1.00  0.00     0.031 C 
ATOM     76  C   UNL A   1      46.630  28.995  40.222  1.00  0.00     0.037 A 
BRANCH  63  77
ATOM     77  C   UNL A   1      42.362  33.187  38.580  1.00  0.00     0.058 A 
ATOM     78  C   UNL A   1      42.835  34.379  38.003  1.00  0.00     0.135 A 
ATOM     79  C   UNL A   1      41.262  33.278  39.448  1.00  0.00     0.135 A 
ATOM     80  F   UNL A   1      43.903  34.360  37.188  1.00  0.00    -0.206 F 
ATOM     81  C   UNL A   1      42.279  35.615  38.320  1.00  0.00     0.059 A 
ATOM     82  C   UNL A   1      40.664  34.499  39.748  1.00  0.00     0.059 A 
ATOM     83  F   UNL A   1      40.774  32.177  40.040  1.00  0.00    -0.206 F 
ATOM     84  C   UNL A   1      41.196  35.664  39.198  1.00  0.00     0.060 A 
BRANCH  84  85
ATOM     85  S   UNL A   1      40.502  37.275  39.622  1.00  0.00     0.124 S 
ATOM     86  O   UNL A   1      39.398  37.376  38.672  1.00  0.00    -0.237 OA
ATOM     87  O   UNL A   1      40.122  37.091  41.019  1.00  0.00    -0.237 OA
ATOM     88  O   UNL A   1      41.613  38.194  39.393  1.00  0.00    -0.744 OA
ENDBRANCH  84  85
ENDBRANCH  63  77
BRANCH  64  89
ATOM     89  C   UNL A   1      46.844  24.536  36.082  1.00  0.00     0.058 A 
ATOM     90  C   UNL A   1      46.392  23.261  36.449  1.00  0.00     0.135 A 
ATOM     91  C   UNL A   1      47.962  24.612  35.234  1.00  0.00     0.135 A 
ATOM     92  F   UNL A   1      45.340  23.134  37.273  1.00  0.00    -0.206 F 
ATOM     93  C   UNL A   1      47.007  22.104  35.978  1.00  0.00     0.059 A 
ATOM     94  C   UNL A   1      48.579  23.470  34.730  1.00  0.00     0.059 A 
ATOM     95  F   UNL A   1      48.433  25.807  34.849  1.00  0.00    -0.206 F 
ATOM     96  C   UNL A   1      48.090  22.219  35.104  1.00  0.00     0.060 A 
BRANCH  96  97
ATOM     97  S   UNL A   1      48.804  20.712  34.408  1.00  0.00     0.124 S 
ATOM     98  O   UNL A   1      49.729  21.252  33.418  1.00  0.00    -0.237 OA
ATOM     99  O   UNL A   1      49.414  20.096  35.583  1.00  0.00    -0.237 OA
ATOM    100  O   UNL A   1      47.644  20.008  33.870  1.00  0.00    -0.744 OA
ENDBRANCH  96  97
ENDBRANCH  64  89
BRANCH  76 101
ATOM    101  C   UNL A   1      47.516  29.006  41.439  1.00  0.00     0.058 A 
ATOM    102  C   UNL A   1      47.162  28.338  42.621  1.00  0.00     0.135 A 
ATOM    103  C   UNL A   1      48.772  29.633  41.389  1.00  0.00     0.135 A 
ATOM    104  F   UNL A   1      45.973  27.723  42.721  1.00  0.00    -0.206 F 
ATOM    105  C   UNL A   1      48.012  28.314  43.722  1.00  0.00     0.059 A 
ATOM    106  C   UNL A   1      49.652  29.591  42.465  1.00  0.00     0.059 A 
ATOM    107  F   UNL A   1      49.167  30.270  40.276  1.00  0.00    -0.206 F 
ATOM    108  C   UNL A   1      49.257  28.941  43.632  1.00  0.00     0.060 A 
BRANCH 108 109
ATOM    109  S   UNL A   1      50.362  28.875  45.056  1.00  0.00     0.124 S 
ATOM    110  O   UNL A   1      50.878  30.239  45.090  1.00  0.00    -0.237 OA
ATOM    111  O   UNL A   1      49.453  28.513  46.139  1.00  0.00    -0.237 OA
ATOM    112  O   UNL A   1      51.331  27.847  44.689  1.00  0.00    -0.744 OA
ENDBRANCH 108 109
ENDBRANCH  76 101
ENDBRANCH  50  51
ENDBRANCH  43  45
ENDBRANCH  42  43
ENDBRANCH  41  42
ENDBRANCH  40  41
ENDBRANCH  39  40
ENDBRANCH  38  39
ENDBRANCH  37  38
ENDBRANCH   1  37
TORSDOF 28
ENDMDL
MODEL 3
REMARK VINA RESULT:      -5.0      3.008      5.115
REMARK SMILES C=C[C@@H]1[C@@H](O)C[C@@H]2[C@@]3(CC[C@@]4(C)[C@@H]([C@H](C)CCC=C(C)C)CC[C@@]24C)C[C@@]13CCC(=O)OCCOCCOCCOC(=O)c1ccc(-c2c3nc(c(-c4c(F)cc(S(=O)(=O)[O-])cc4F)c4ccc([nH]4)c(-c4c(F)cc(S(=O)(=O)[O-])cc4F)c4nc(c(-c5c(F)cc(S(=O)(=O)[O-])cc5F)c5ccc2[nH]5)C=C4)C=C3)cc1
REMARK SMILES IDX 35 1 34 2 33 3 32 4 30 5 31 6 29 7 28 8 27 9 3 10 4 11 6 12
REMARK SMILES IDX 8 13 26 14 7 15 9 16 24 17 10 18 11 19 23 20 25 21 12 22
REMARK SMILES IDX 13 23 22 24 2 25 1 26 5 27 14 29 15 30 16 31 17 32 18 33
REMARK SMILES IDX 19 34 20 35 21 36 36 37 37 38 38 39 39 40 40 41 41 42 42 43
REMARK SMILES IDX 43 44 44 45 45 46 109 47 46 48 108 49 47 50 48 51 49 52
REMARK SMILES IDX 102 53 50 54 107 55 101 56 103 57 51 58 106 59 100 60 99 61
REMARK SMILES IDX 52 63 86 64 65 65 85 66 66 67 69 68 84 69 104 70 67 71 68 72
REMARK SMILES IDX 83 74 105 75 70 76 53 77 54 78 63 79 55 80 56 81 62 82 64 83
REMARK SMILES IDX 57 84 58 85 59 86 60 87 61 88 87 89 88 90 97 91 89 92 90 93
REMARK SMILES IDX 96 94 98 95 91 96 92 97 93 98 94 99 95 100 71 101 72 102
REMARK SMILES IDX 81 103 73 104 74 105 80 106 82 107 75 108 76 109 77 110
REMARK SMILES IDX 78 111 79 112
REMARK H PARENT 5 28 103 62 69 73
REMARK Flexibility Score: inf
ROOT
ATOM      1  O   UNL A   1      39.872  29.406  33.939  1.00  0.00    -0.376 OA
ENDROOT
BRANCH   1   2
ATOM      2  C   UNL A   1      41.204  29.401  33.477  1.00  0.00     0.202 C 
BRANCH   2   3
ATOM      3  C   UNL A   1      41.623  28.808  32.141  1.00  0.00     0.261 C 
BRANCH   3   4
ATOM      4  O   UNL A   1      42.901  28.347  32.395  1.00  0.00    -0.463 OA
BRANCH   4   5
ATOM      5  C   UNL A   1      43.898  28.485  31.529  1.00  0.00     0.305 C 
ATOM      6  O   UNL A   1      44.354  29.506  31.015  1.00  0.00    -0.252 OA
BRANCH   5   7
ATOM      7  C   UNL A   1      44.267  27.068  31.370  1.00  0.00     0.123 C 
BRANCH   7   8
ATOM      8  C   UNL A   1      45.649  27.038  30.602  1.00  0.00     0.020 C 
BRANCH   8   9
ATOM      9  C   UNL A   1      45.687  26.347  29.156  1.00  0.00    -0.014 C 
ATOM     10  C   UNL A   1      46.553  27.107  28.089  1.00  0.00     0.047 C 
ATOM     11  C   UNL A   1      46.033  26.944  26.618  1.00  0.00     0.122 C 
ATOM     12  C   UNL A   1      45.326  25.608  26.279  1.00  0.00     0.037 C 
ATOM     13  C   UNL A   1      44.620  25.155  28.657  1.00  0.00    -0.019 C 
ATOM     14  C   UNL A   1      46.037  24.893  29.143  1.00  0.00     0.016 C 
ATOM     15  C   UNL A   1      44.094  25.485  27.185  1.00  0.00     0.005 C 
ATOM     16  C   UNL A   1      43.664  24.306  29.532  1.00  0.00     0.008 C 
ATOM     17  C   UNL A   1      42.784  24.681  26.650  1.00  0.00    -0.023 C 
ATOM     18  C   UNL A   1      42.321  23.811  28.908  1.00  0.00     0.008 C 
ATOM     19  C   UNL A   1      41.584  24.583  27.716  1.00  0.00    -0.024 C 
ATOM     20  C   UNL A   1      42.014  25.367  25.498  1.00  0.00     0.008 C 
ATOM     21  C   UNL A   1      43.329  23.306  26.147  1.00  0.00     0.012 C 
ATOM     22  C   UNL A   1      40.515  23.468  27.306  1.00  0.00     0.012 C 
ATOM     23  C   UNL A   1      40.528  26.096  27.550  1.00  0.00    -0.002 C 
ATOM     24  C   UNL A   1      40.836  26.260  26.004  1.00  0.00     0.005 C 
BRANCH  10  25
ATOM     25  C   UNL A   1      46.969  28.530  28.440  1.00  0.00    -0.028 C 
ATOM     26  C   UNL A   1      46.377  29.687  28.105  1.00  0.00     0.004 C 
ENDBRANCH  10  25
BRANCH  11  27
ATOM     27  O   UNL A   1      47.112  27.101  25.683  1.00  0.00    -0.392 OA
ATOM     28  H   UNL A   1      47.742  26.371  25.791  1.00  0.00     0.210 HD
ENDBRANCH  11  27
BRANCH  23  29
ATOM     29  C   UNL A   1      40.183  27.860  28.124  1.00  0.00    -0.010 C 
ATOM     30  C   UNL A   1      41.148  29.126  28.606  1.00  0.00     0.008 C 
BRANCH  29  31
ATOM     31  C   UNL A   1      39.038  28.118  29.202  1.00  0.00     0.008 C 
BRANCH  31  32
ATOM     32  C   UNL A   1      37.668  28.733  28.569  1.00  0.00     0.027 C 
BRANCH  32  33
ATOM     33  C   UNL A   1      37.441  30.200  28.899  1.00  0.00    -0.028 C 
ATOM     34  C   UNL A   1      36.398  31.016  28.628  1.00  0.00    -0.080 C 
ATOM     35  C   UNL A   1      36.344  32.378  29.286  1.00  0.00     0.039 C 
ATOM     36  C   UNL A   1      35.235  30.726  27.718  1.00  0.00     0.039 C 
ENDBRANCH  32  33
ENDBRANCH  31  32
ENDBRANCH  29  31
ENDBRANCH  23  29
ENDBRANCH   8   9
ENDBRANCH   7   8
ENDBRANCH   5   7
ENDBRANCH   4   5
ENDBRANCH   3   4
ENDBRANCH   2   3
ENDBRANCH   1   2
BRANCH   1  37
ATOM     37  C   UNL A   1      39.634  30.455  34.855  1.00  0.00     0.188 C 
BRANCH  37  38
ATOM     38  C   UNL A   1      39.984  31.843  34.350  1.00  0.00     0.188 C 
BRANCH  38  39
ATOM     39  O   UNL A   1      39.673  32.941  35.211  1.00  0.00    -0.376 OA
BRANCH  39  40
ATOM     40  C   UNL A   1      40.398  32.951  36.428  1.00  0.00     0.202 C 
BRANCH  40  41
ATOM     41  C   UNL A   1      40.907  34.353  36.786  1.00  0.00     0.261 C 
BRANCH  41  42
ATOM     42  O   UNL A   1      42.292  34.548  36.447  1.00  0.00    -0.460 OA
BRANCH  42  43
ATOM     43  C   UNL A   1      42.579  34.672  35.116  1.00  0.00     0.338 C 
ATOM     44  O   UNL A   1      42.280  35.605  34.391  1.00  0.00    -0.246 OA
BRANCH  43  45
ATOM     45  C   UNL A   1      43.579  33.615  34.764  1.00  0.00     0.060 A 
ATOM     46  C   UNL A   1      44.800  33.570  35.466  1.00  0.00     0.016 A 
ATOM     47  C   UNL A   1      43.218  32.543  33.935  1.00  0.00     0.016 A 
ATOM     48  C   UNL A   1      45.680  32.494  35.294  1.00  0.00     0.010 A 
ATOM     49  C   UNL A   1      44.088  31.469  33.763  1.00  0.00     0.010 A 
ATOM     50  C   UNL A   1      45.352  31.485  34.379  1.00  0.00    -0.014 A 
BRANCH  50  51
ATOM     51  C   UNL A   1      46.429  30.751  33.674  1.00  0.00     0.031 A 
ATOM     52  C   UNL A   1      47.055  31.493  32.521  1.00  0.00     0.074 A 
ATOM     53  C   UNL A   1      46.758  29.480  33.950  1.00  0.00     0.049 A 
ATOM     54  N   UNL A   1      47.841  31.066  31.574  1.00  0.00    -0.248 NA
ATOM     55  C   UNL A   1      46.689  32.917  32.396  1.00  0.00     0.031 C 
ATOM     56  C   UNL A   1      46.225  28.676  35.046  1.00  0.00     0.029 A 
ATOM     57  N   UNL A   1      47.605  28.629  33.285  1.00  0.00    -0.354 N 
ATOM     58  C   UNL A   1      48.027  32.155  30.730  1.00  0.00     0.074 A 
ATOM     59  C   UNL A   1      47.236  33.245  31.243  1.00  0.00     0.031 C 
ATOM     60  C   UNL A   1      46.731  27.432  34.957  1.00  0.00     0.029 A 
ATOM     61  C   UNL A   1      47.589  27.346  33.775  1.00  0.00     0.049 A 
ATOM     62  H   UNL A   1      48.170  28.911  32.529  1.00  0.00     0.167 HD
ATOM     63  C   UNL A   1      48.797  32.246  29.622  1.00  0.00     0.037 A 
ATOM     64  C   UNL A   1      48.173  26.230  33.292  1.00  0.00     0.037 A 
ATOM     65  C   UNL A   1      49.568  31.144  29.123  1.00  0.00     0.049 A 
ATOM     66  C   UNL A   1      49.010  26.329  32.041  1.00  0.00     0.074 A 
ATOM     67  C   UNL A   1      50.421  31.111  28.038  1.00  0.00     0.029 A 
ATOM     68  N   UNL A   1      49.559  29.869  29.674  1.00  0.00    -0.354 N 
ATOM     69  N   UNL A   1      49.226  27.374  31.273  1.00  0.00    -0.248 NA
ATOM     70  C   UNL A   1      49.690  25.106  31.594  1.00  0.00     0.031 C 
ATOM     71  C   UNL A   1      50.877  29.797  27.893  1.00  0.00     0.029 A 
ATOM     72  C   UNL A   1      50.367  29.029  28.933  1.00  0.00     0.049 A 
ATOM     73  H   UNL A   1      49.052  29.603  30.475  1.00  0.00     0.167 HD
ATOM     74  C   UNL A   1      50.085  26.942  30.266  1.00  0.00     0.074 A 
ATOM     75  C   UNL A   1      50.355  25.542  30.531  1.00  0.00     0.031 C 
ATOM     76  C   UNL A   1      50.610  27.636  29.223  1.00  0.00     0.037 A 
BRANCH  63  77
ATOM     77  C   UNL A   1      48.781  33.554  28.878  1.00  0.00     0.058 A 
ATOM     78  C   UNL A   1      47.847  33.828  27.863  1.00  0.00     0.135 A 
ATOM     79  C   UNL A   1      49.755  34.530  29.145  1.00  0.00     0.135 A 
ATOM     80  F   UNL A   1      46.910  32.921  27.541  1.00  0.00    -0.206 F 
ATOM     81  C   UNL A   1      47.913  34.994  27.105  1.00  0.00     0.059 A 
ATOM     82  C   UNL A   1      49.815  35.721  28.427  1.00  0.00     0.059 A 
ATOM     83  F   UNL A   1      50.681  34.320  30.093  1.00  0.00    -0.206 F 
ATOM     84  C   UNL A   1      48.905  35.932  27.392  1.00  0.00     0.060 A 
BRANCH  84  85
ATOM     85  S   UNL A   1      48.996  37.426  26.384  1.00  0.00     0.124 S 
ATOM     86  O   UNL A   1      50.100  38.139  27.020  1.00  0.00    -0.237 OA
ATOM     87  O   UNL A   1      49.271  36.887  25.056  1.00  0.00    -0.237 OA
ATOM     88  O   UNL A   1      47.679  38.031  26.551  1.00  0.00    -0.744 OA
ENDBRANCH  84  85
ENDBRANCH  63  77
BRANCH  64  89
ATOM     89  C   UNL A   1      47.971  24.935  33.998  1.00  0.00     0.058 A 
ATOM     90  C   UNL A   1      46.829  24.153  33.770  1.00  0.00     0.135 A 
ATOM     91  C   UNL A   1      48.953  24.417  34.859  1.00  0.00     0.135 A 
ATOM     92  F   UNL A   1      45.853  24.610  32.971  1.00  0.00    -0.206 F 
ATOM     93  C   UNL A   1      46.675  22.898  34.353  1.00  0.00     0.059 A 
ATOM     94  C   UNL A   1      48.833  23.156  35.434  1.00  0.00     0.059 A 
ATOM     95  F   UNL A   1      50.067  25.123  35.108  1.00  0.00    -0.206 F 
ATOM     96  C   UNL A   1      47.692  22.401  35.171  1.00  0.00     0.060 A 
BRANCH  96  97
ATOM     97  S   UNL A   1      47.532  20.724  35.826  1.00  0.00     0.124 S 
ATOM     98  O   UNL A   1      46.915  20.970  37.124  1.00  0.00    -0.237 OA
ATOM     99  O   UNL A   1      46.680  20.088  34.824  1.00  0.00    -0.237 OA
ATOM    100  O   UNL A   1      48.910  20.244  35.862  1.00  0.00    -0.744 OA
ENDBRANCH  96  97
ENDBRANCH  64  89
BRANCH  76 101
ATOM    101  C   UNL A   1      51.557  26.907  28.308  1.00  0.00     0.058 A 
ATOM    102  C   UNL A   1      52.936  26.852  28.557  1.00  0.00     0.135 A 
ATOM    103  C   UNL A   1      51.058  26.189  27.208  1.00  0.00     0.135 A 
ATOM    104  F   UNL A   1      53.464  27.521  29.594  1.00  0.00    -0.206 F 
ATOM    105  C   UNL A   1      53.794  26.134  27.730  1.00  0.00     0.059 A 
ATOM    106  C   UNL A   1      51.892  25.434  26.390  1.00  0.00     0.059 A 
ATOM    107  F   UNL A   1      49.744  26.192  26.936  1.00  0.00    -0.206 F 
ATOM    108  C   UNL A   1      53.260  25.424  26.652  1.00  0.00     0.060 A 
BRANCH 108 109
ATOM    109  S   UNL A   1      54.380  24.471  25.607  1.00  0.00     0.124 S 
ATOM    110  O   UNL A   1      53.477  23.476  25.040  1.00  0.00    -0.237 OA
ATOM    111  O   UNL A   1      54.876  25.482  24.679  1.00  0.00    -0.237 OA
ATOM    112  O   UNL A   1      55.370  23.955  26.550  1.00  0.00    -0.744 OA
ENDBRANCH 108 109
ENDBRANCH  76 101
ENDBRANCH  50  51
ENDBRANCH  43  45
ENDBRANCH  42  43
ENDBRANCH  41  42
ENDBRANCH  40  41
ENDBRANCH  39  40
ENDBRANCH  38  39
ENDBRANCH  37  38
ENDBRANCH   1  37
TORSDOF 28
ENDMDL
