MODEL 1
REMARK VINA RESULT:      -8.9      0.000      0.000
REMARK SMILES CC(C)(C[NH2+]CCc1cccnc1)C(=O)OCCOCCOCCOC(=O)c1ccc(-c2c3nc(c(-c4c(F)cc(S(=O)(=O)[O-])cc4F)c4ccc([nH]4)c(-c4c(F)cc(S(=O)(=O)[O-])cc4F)c4nc(c(-c5c(F)cc(S(=O)(=O)[O-])cc5F)c5ccc2[nH]5)C=C4)C=C3)cc1
REMARK SMILES IDX 20 1 19 2 18 3 17 4 16 5 14 6 15 7 2 8 1 9 3 10 4 11 5 12
REMARK SMILES IDX 6 15 7 16 8 17 9 18 13 19 10 20 12 21 11 22 21 23 22 24
REMARK SMILES IDX 23 25 24 26 25 27 26 28 27 29 28 30 29 31 93 32 30 33 92 34
REMARK SMILES IDX 31 35 32 36 33 37 86 38 34 39 91 40 85 41 87 42 35 43 90 44
REMARK SMILES IDX 84 45 83 46 36 48 70 49 49 50 69 51 50 52 53 53 68 54 88 55
REMARK SMILES IDX 51 56 52 57 67 59 89 60 54 61 37 62 38 63 47 64 39 65 40 66
REMARK SMILES IDX 46 67 48 68 41 69 42 70 43 71 44 72 45 73 71 74 72 75 81 76
REMARK SMILES IDX 73 77 74 78 80 79 82 80 75 81 76 82 77 83 78 84 79 85 55 86
REMARK SMILES IDX 56 87 65 88 57 89 58 90 64 91 66 92 59 93 60 94 61 95 62 96
REMARK SMILES IDX 63 97
REMARK H PARENT 5 13 5 14 87 47 53 58
REMARK Flexibility Score: inf
ROOT
ATOM      1  C   UNL A   1      37.638  23.518  26.111  1.00  0.00     0.188 C 
ENDROOT
BRANCH   1   2
ATOM      2  O   UNL A   1      37.309  23.286  24.747  1.00  0.00    -0.376 OA
BRANCH   2   3
ATOM      3  C   UNL A   1      37.242  21.923  24.340  1.00  0.00     0.202 C 
BRANCH   3   4
ATOM      4  C   UNL A   1      35.939  21.156  24.627  1.00  0.00     0.261 C 
BRANCH   4   5
ATOM      5  O   UNL A   1      34.703  21.864  24.358  1.00  0.00    -0.463 OA
BRANCH   5   6
ATOM      6  C   UNL A   1      33.793  21.858  25.372  1.00  0.00     0.317 C 
ATOM      7  O   UNL A   1      34.086  22.134  26.534  1.00  0.00    -0.251 OA
BRANCH   6   8
ATOM      8  C   UNL A   1      32.349  21.486  24.974  1.00  0.00     0.111 C 
ATOM      9  C   UNL A   1      32.232  19.946  25.002  1.00  0.00     0.029 C 
ATOM     10  C   UNL A   1      32.247  21.937  23.497  1.00  0.00     0.029 C 
BRANCH   8  11
ATOM     11  C   UNL A   1      31.185  22.180  25.757  1.00  0.00     0.278 C 
BRANCH  11  12
ATOM     12  N   UNL A   1      30.631  23.390  25.131  1.00  0.00    -0.345 N 
ATOM     13  H   UNL A   1      29.644  23.226  24.930  1.00  0.00     0.346 HD
ATOM     14  H   UNL A   1      31.178  23.565  24.289  1.00  0.00     0.346 HD
BRANCH  12  15
ATOM     15  C   UNL A   1      30.737  24.598  25.968  1.00  0.00     0.265 C 
BRANCH  15  16
ATOM     16  C   UNL A   1      31.914  25.547  25.646  1.00  0.00     0.098 C 
BRANCH  16  17
ATOM     17  C   UNL A   1      32.245  25.685  24.181  1.00  0.00    -0.024 A 
ATOM     18  C   UNL A   1      31.359  26.260  23.266  1.00  0.00     0.007 A 
ATOM     19  C   UNL A   1      33.456  25.221  23.679  1.00  0.00     0.114 A 
ATOM     20  C   UNL A   1      31.687  26.298  21.911  1.00  0.00     0.020 A 
ATOM     21  N   UNL A   1      33.801  25.242  22.372  1.00  0.00    -0.264 NA
ATOM     22  C   UNL A   1      32.903  25.770  21.513  1.00  0.00     0.111 A 
ENDBRANCH  16  17
ENDBRANCH  15  16
ENDBRANCH  12  15
ENDBRANCH  11  12
ENDBRANCH   8  11
ENDBRANCH   6   8
ENDBRANCH   5   6
ENDBRANCH   4   5
ENDBRANCH   3   4
ENDBRANCH   2   3
ENDBRANCH   1   2
BRANCH   1  23
ATOM     23  C   UNL A   1      39.101  23.319  26.500  1.00  0.00     0.188 C 
BRANCH  23  24
ATOM     24  O   UNL A   1      39.511  21.991  26.798  1.00  0.00    -0.376 OA
BRANCH  24  25
ATOM     25  C   UNL A   1      40.837  21.848  27.313  1.00  0.00     0.202 C 
BRANCH  25  26
ATOM     26  C   UNL A   1      41.976  22.501  26.498  1.00  0.00     0.261 C 
BRANCH  26  27
ATOM     27  O   UNL A   1      42.666  23.600  27.137  1.00  0.00    -0.460 OA
BRANCH  27  28
ATOM     28  C   UNL A   1      42.612  24.806  26.528  1.00  0.00     0.338 C 
ATOM     29  O   UNL A   1      42.763  25.014  25.335  1.00  0.00    -0.246 OA
BRANCH  28  30
ATOM     30  C   UNL A   1      42.103  25.821  27.494  1.00  0.00     0.060 A 
ATOM     31  C   UNL A   1      42.784  27.041  27.581  1.00  0.00     0.016 A 
ATOM     32  C   UNL A   1      40.979  25.614  28.294  1.00  0.00     0.016 A 
ATOM     33  C   UNL A   1      42.422  28.005  28.525  1.00  0.00     0.010 A 
ATOM     34  C   UNL A   1      40.618  26.579  29.252  1.00  0.00     0.010 A 
ATOM     35  C   UNL A   1      41.379  27.752  29.419  1.00  0.00    -0.014 A 
BRANCH  35  36
ATOM     36  C   UNL A   1      41.247  28.595  30.643  1.00  0.00     0.031 A 
ATOM     37  C   UNL A   1      40.151  29.636  30.681  1.00  0.00     0.074 A 
ATOM     38  C   UNL A   1      42.010  28.405  31.737  1.00  0.00     0.049 A 
ATOM     39  N   UNL A   1      39.851  30.500  31.618  1.00  0.00    -0.248 NA
ATOM     40  C   UNL A   1      39.270  29.704  29.503  1.00  0.00     0.031 C 
ATOM     41  C   UNL A   1      43.054  27.393  31.878  1.00  0.00     0.029 A 
ATOM     42  N   UNL A   1      42.017  29.063  32.946  1.00  0.00    -0.354 N 
ATOM     43  C   UNL A   1      38.768  31.227  31.135  1.00  0.00     0.074 A 
ATOM     44  C   UNL A   1      38.480  30.720  29.811  1.00  0.00     0.031 C 
ATOM     45  C   UNL A   1      43.608  27.503  33.099  1.00  0.00     0.029 A 
ATOM     46  C   UNL A   1      42.985  28.615  33.816  1.00  0.00     0.049 A 
ATOM     47  H   UNL A   1      41.389  29.788  33.168  1.00  0.00     0.167 HD
ATOM     48  C   UNL A   1      38.067  32.219  31.736  1.00  0.00     0.037 A 
ATOM     49  C   UNL A   1      43.344  29.063  35.039  1.00  0.00     0.037 A 
ATOM     50  C   UNL A   1      38.342  32.721  33.058  1.00  0.00     0.049 A 
ATOM     51  C   UNL A   1      42.598  30.220  35.659  1.00  0.00     0.074 A 
ATOM     52  C   UNL A   1      37.680  33.720  33.752  1.00  0.00     0.029 A 
ATOM     53  N   UNL A   1      39.359  32.270  33.885  1.00  0.00    -0.354 N 
ATOM     54  N   UNL A   1      41.579  30.899  35.187  1.00  0.00    -0.248 NA
ATOM     55  C   UNL A   1      43.052  30.670  36.985  1.00  0.00     0.031 C 
ATOM     56  C   UNL A   1      38.332  33.913  34.974  1.00  0.00     0.029 A 
ATOM     57  C   UNL A   1      39.357  32.987  35.072  1.00  0.00     0.049 A 
ATOM     58  H   UNL A   1      39.989  31.547  33.663  1.00  0.00     0.167 HD
ATOM     59  C   UNL A   1      41.250  31.829  36.172  1.00  0.00     0.074 A 
ATOM     60  C   UNL A   1      42.169  31.618  37.269  1.00  0.00     0.031 C 
ATOM     61  C   UNL A   1      40.270  32.770  36.168  1.00  0.00     0.037 A 
BRANCH  48  62
ATOM     62  C   UNL A   1      36.952  32.859  30.951  1.00  0.00     0.058 A 
ATOM     63  C   UNL A   1      37.197  33.816  29.952  1.00  0.00     0.135 A 
ATOM     64  C   UNL A   1      35.618  32.487  31.184  1.00  0.00     0.135 A 
ATOM     65  F   UNL A   1      38.451  34.225  29.702  1.00  0.00    -0.206 F 
ATOM     66  C   UNL A   1      36.159  34.399  29.234  1.00  0.00     0.059 A 
ATOM     67  C   UNL A   1      34.566  33.033  30.456  1.00  0.00     0.059 A 
ATOM     68  F   UNL A   1      35.325  31.580  32.129  1.00  0.00    -0.206 F 
ATOM     69  C   UNL A   1      34.846  34.000  29.493  1.00  0.00     0.060 A 
BRANCH  69  70
ATOM     70  S   UNL A   1      33.509  34.768  28.552  1.00  0.00     0.124 S 
ATOM     71  O   UNL A   1      34.196  35.908  27.951  1.00  0.00    -0.237 OA
ATOM     72  O   UNL A   1      33.126  33.702  27.631  1.00  0.00    -0.237 OA
ATOM     73  O   UNL A   1      32.520  35.098  29.572  1.00  0.00    -0.744 OA
ENDBRANCH  69  70
ENDBRANCH  48  62
BRANCH  49  74
ATOM     74  C   UNL A   1      44.484  28.431  35.762  1.00  0.00     0.058 A 
ATOM     75  C   UNL A   1      45.809  28.841  35.540  1.00  0.00     0.135 A 
ATOM     76  C   UNL A   1      44.274  27.382  36.672  1.00  0.00     0.135 A 
ATOM     77  F   UNL A   1      46.068  29.824  34.664  1.00  0.00    -0.206 F 
ATOM     78  C   UNL A   1      46.881  28.228  36.180  1.00  0.00     0.059 A 
ATOM     79  C   UNL A   1      45.327  26.774  37.347  1.00  0.00     0.059 A 
ATOM     80  F   UNL A   1      43.028  26.948  36.921  1.00  0.00    -0.206 F 
ATOM     81  C   UNL A   1      46.630  27.197  37.087  1.00  0.00     0.060 A 
BRANCH  81  82
ATOM     82  S   UNL A   1      48.025  26.438  37.948  1.00  0.00     0.124 S 
ATOM     83  O   UNL A   1      47.507  25.103  38.228  1.00  0.00    -0.237 OA
ATOM     84  O   UNL A   1      49.081  26.516  36.944  1.00  0.00    -0.237 OA
ATOM     85  O   UNL A   1      48.210  27.299  39.113  1.00  0.00    -0.744 OA
ENDBRANCH  81  82
ENDBRANCH  49  74
BRANCH  61  86
ATOM     86  C   UNL A   1      40.101  33.612  37.407  1.00  0.00     0.058 A 
ATOM     87  C   UNL A   1      39.150  33.309  38.394  1.00  0.00     0.135 A 
ATOM     88  C   UNL A   1      40.933  34.725  37.625  1.00  0.00     0.135 A 
ATOM     89  F   UNL A   1      38.329  32.258  38.241  1.00  0.00    -0.206 F 
ATOM     90  C   UNL A   1      39.002  34.100  39.530  1.00  0.00     0.059 A 
ATOM     91  C   UNL A   1      40.824  35.510  38.770  1.00  0.00     0.059 A 
ATOM     92  F   UNL A   1      41.872  35.055  36.724  1.00  0.00    -0.206 F 
ATOM     93  C   UNL A   1      39.843  35.200  39.709  1.00  0.00     0.060 A 
BRANCH  93  94
ATOM     94  S   UNL A   1      39.644  36.214  41.190  1.00  0.00     0.124 S 
ATOM     95  O   UNL A   1      39.361  35.203  42.203  1.00  0.00    -0.237 OA
ATOM     96  O   UNL A   1      40.943  36.872  41.295  1.00  0.00    -0.237 OA
ATOM     97  O   UNL A   1      38.529  37.094  40.853  1.00  0.00    -0.744 OA
ENDBRANCH  93  94
ENDBRANCH  61  86
ENDBRANCH  35  36
ENDBRANCH  28  30
ENDBRANCH  27  28
ENDBRANCH  26  27
ENDBRANCH  25  26
ENDBRANCH  24  25
ENDBRANCH  23  24
ENDBRANCH   1  23
TORSDOF 25
ENDMDL
MODEL 2
REMARK VINA RESULT:      -8.8      1.588      2.617
REMARK SMILES CC(C)(C[NH2+]CCc1cccnc1)C(=O)OCCOCCOCCOC(=O)c1ccc(-c2c3nc(c(-c4c(F)cc(S(=O)(=O)[O-])cc4F)c4ccc([nH]4)c(-c4c(F)cc(S(=O)(=O)[O-])cc4F)c4nc(c(-c5c(F)cc(S(=O)(=O)[O-])cc5F)c5ccc2[nH]5)C=C4)C=C3)cc1
REMARK SMILES IDX 20 1 19 2 18 3 17 4 16 5 14 6 15 7 2 8 1 9 3 10 4 11 5 12
REMARK SMILES IDX 6 15 7 16 8 17 9 18 13 19 10 20 12 21 11 22 21 23 22 24
REMARK SMILES IDX 23 25 24 26 25 27 26 28 27 29 28 30 29 31 93 32 30 33 92 34
REMARK SMILES IDX 31 35 32 36 33 37 86 38 34 39 91 40 85 41 87 42 35 43 90 44
REMARK SMILES IDX 84 45 83 46 36 48 70 49 49 50 69 51 50 52 53 53 68 54 88 55
REMARK SMILES IDX 51 56 52 57 67 59 89 60 54 61 37 62 38 63 47 64 39 65 40 66
REMARK SMILES IDX 46 67 48 68 41 69 42 70 43 71 44 72 45 73 71 74 72 75 81 76
REMARK SMILES IDX 73 77 74 78 80 79 82 80 75 81 76 82 77 83 78 84 79 85 55 86
REMARK SMILES IDX 56 87 65 88 57 89 58 90 64 91 66 92 59 93 60 94 61 95 62 96
REMARK SMILES IDX 63 97
REMARK H PARENT 5 13 5 14 87 47 53 58
REMARK Flexibility Score: inf
ROOT
ATOM      1  C   UNL A   1      36.019  21.055  25.692  1.00  0.00     0.188 C 
ENDROOT
BRANCH   1   2
ATOM      2  O   UNL A   1      34.751  21.682  25.828  1.00  0.00    -0.376 OA
BRANCH   2   3
ATOM      3  C   UNL A   1      34.459  22.239  27.106  1.00  0.00     0.202 C 
BRANCH   3   4
ATOM      4  C   UNL A   1      32.981  22.509  27.446  1.00  0.00     0.261 C 
BRANCH   4   5
ATOM      5  O   UNL A   1      32.376  23.664  26.815  1.00  0.00    -0.463 OA
BRANCH   5   6
ATOM      6  C   UNL A   1      31.468  23.389  25.838  1.00  0.00     0.317 C 
ATOM      7  O   UNL A   1      30.360  22.907  26.071  1.00  0.00    -0.251 OA
BRANCH   6   8
ATOM      8  C   UNL A   1      31.908  23.727  24.397  1.00  0.00     0.111 C 
ATOM      9  C   UNL A   1      32.313  22.407  23.704  1.00  0.00     0.029 C 
ATOM     10  C   UNL A   1      33.194  24.565  24.595  1.00  0.00     0.029 C 
BRANCH   8  11
ATOM     11  C   UNL A   1      30.926  24.575  23.524  1.00  0.00     0.278 C 
BRANCH  11  12
ATOM     12  N   UNL A   1      31.456  25.028  22.228  1.00  0.00    -0.345 N 
ATOM     13  H   UNL A   1      30.929  24.565  21.487  1.00  0.00     0.346 HD
ATOM     14  H   UNL A   1      32.446  24.788  22.213  1.00  0.00     0.346 HD
BRANCH  12  15
ATOM     15  C   UNL A   1      31.365  26.483  22.021  1.00  0.00     0.265 C 
BRANCH  15  16
ATOM     16  C   UNL A   1      30.812  27.306  23.206  1.00  0.00     0.098 C 
BRANCH  16  17
ATOM     17  C   UNL A   1      29.752  28.316  22.846  1.00  0.00    -0.024 A 
ATOM     18  C   UNL A   1      30.052  29.512  22.187  1.00  0.00     0.007 A 
ATOM     19  C   UNL A   1      28.419  28.099  23.181  1.00  0.00     0.114 A 
ATOM     20  C   UNL A   1      29.043  30.442  21.942  1.00  0.00     0.020 A 
ATOM     21  N   UNL A   1      27.421  28.982  22.960  1.00  0.00    -0.264 NA
ATOM     22  C   UNL A   1      27.756  30.142  22.354  1.00  0.00     0.111 A 
ENDBRANCH  16  17
ENDBRANCH  15  16
ENDBRANCH  12  15
ENDBRANCH  11  12
ENDBRANCH   8  11
ENDBRANCH   6   8
ENDBRANCH   5   6
ENDBRANCH   4   5
ENDBRANCH   3   4
ENDBRANCH   2   3
ENDBRANCH   1   2
BRANCH   1  23
ATOM     23  C   UNL A   1      36.944  21.620  24.618  1.00  0.00     0.188 C 
BRANCH  23  24
ATOM     24  O   UNL A   1      37.861  22.627  25.025  1.00  0.00    -0.376 OA
BRANCH  24  25
ATOM     25  C   UNL A   1      38.719  22.286  26.117  1.00  0.00     0.202 C 
BRANCH  25  26
ATOM     26  C   UNL A   1      39.857  23.279  26.446  1.00  0.00     0.261 C 
BRANCH  26  27
ATOM     27  O   UNL A   1      39.484  24.675  26.508  1.00  0.00    -0.460 OA
BRANCH  27  28
ATOM     28  C   UNL A   1      40.472  25.590  26.379  1.00  0.00     0.338 C 
ATOM     29  O   UNL A   1      40.960  25.974  25.329  1.00  0.00    -0.246 OA
BRANCH  28  30
ATOM     30  C   UNL A   1      40.716  26.237  27.699  1.00  0.00     0.060 A 
ATOM     31  C   UNL A   1      39.740  26.090  28.692  1.00  0.00     0.016 A 
ATOM     32  C   UNL A   1      41.873  26.961  27.989  1.00  0.00     0.016 A 
ATOM     33  C   UNL A   1      39.856  26.741  29.922  1.00  0.00     0.010 A 
ATOM     34  C   UNL A   1      41.988  27.626  29.223  1.00  0.00     0.010 A 
ATOM     35  C   UNL A   1      40.949  27.574  30.172  1.00  0.00    -0.014 A 
BRANCH  35  36
ATOM     36  C   UNL A   1      40.882  28.545  31.303  1.00  0.00     0.031 A 
ATOM     37  C   UNL A   1      39.851  29.649  31.241  1.00  0.00     0.074 A 
ATOM     38  C   UNL A   1      41.645  28.422  32.407  1.00  0.00     0.049 A 
ATOM     39  N   UNL A   1      39.614  30.621  32.085  1.00  0.00    -0.248 NA
ATOM     40  C   UNL A   1      38.962  29.650  30.068  1.00  0.00     0.031 C 
ATOM     41  C   UNL A   1      42.629  27.368  32.645  1.00  0.00     0.029 A 
ATOM     42  N   UNL A   1      41.706  29.198  33.542  1.00  0.00    -0.354 N 
ATOM     43  C   UNL A   1      38.571  31.360  31.537  1.00  0.00     0.074 A 
ATOM     44  C   UNL A   1      38.237  30.739  30.274  1.00  0.00     0.031 C 
ATOM     45  C   UNL A   1      43.202  27.568  33.845  1.00  0.00     0.029 A 
ATOM     46  C   UNL A   1      42.656  28.783  34.448  1.00  0.00     0.049 A 
ATOM     47  H   UNL A   1      41.125  29.979  33.692  1.00  0.00     0.167 HD
ATOM     48  C   UNL A   1      37.939  32.449  32.037  1.00  0.00     0.037 A 
ATOM     49  C   UNL A   1      43.055  29.331  35.616  1.00  0.00     0.037 A 
ATOM     50  C   UNL A   1      38.259  33.065  33.299  1.00  0.00     0.049 A 
ATOM     51  C   UNL A   1      42.388  30.589  36.119  1.00  0.00     0.074 A 
ATOM     52  C   UNL A   1      37.667  34.168  33.890  1.00  0.00     0.029 A 
ATOM     53  N   UNL A   1      39.257  32.640  34.162  1.00  0.00    -0.354 N 
ATOM     54  N   UNL A   1      41.406  31.277  35.585  1.00  0.00    -0.248 NA
ATOM     55  C   UNL A   1      42.884  31.143  37.388  1.00  0.00     0.031 C 
ATOM     56  C   UNL A   1      38.344  34.445  35.082  1.00  0.00     0.029 A 
ATOM     57  C   UNL A   1      39.312  33.473  35.269  1.00  0.00     0.049 A 
ATOM     58  H   UNL A   1      39.840  31.862  34.012  1.00  0.00     0.167 HD
ATOM     59  C   UNL A   1      41.145  32.321  36.472  1.00  0.00     0.074 A 
ATOM     60  C   UNL A   1      42.063  32.167  37.579  1.00  0.00     0.031 C 
ATOM     61  C   UNL A   1      40.224  33.314  36.376  1.00  0.00     0.037 A 
BRANCH  48  62
ATOM     62  C   UNL A   1      36.855  33.072  31.197  1.00  0.00     0.058 A 
ATOM     63  C   UNL A   1      37.145  33.906  30.104  1.00  0.00     0.135 A 
ATOM     64  C   UNL A   1      35.504  32.806  31.474  1.00  0.00     0.135 A 
ATOM     65  F   UNL A   1      38.417  34.211  29.806  1.00  0.00    -0.206 F 
ATOM     66  C   UNL A   1      36.134  34.475  29.336  1.00  0.00     0.059 A 
ATOM     67  C   UNL A   1      34.477  33.338  30.699  1.00  0.00     0.059 A 
ATOM     68  F   UNL A   1      35.168  32.019  32.508  1.00  0.00    -0.206 F 
ATOM     69  C   UNL A   1      34.803  34.184  29.641  1.00  0.00     0.060 A 
BRANCH  69  70
ATOM     70  S   UNL A   1      33.504  34.932  28.634  1.00  0.00     0.124 S 
ATOM     71  O   UNL A   1      32.554  35.358  29.658  1.00  0.00    -0.237 OA
ATOM     72  O   UNL A   1      34.221  36.003  27.950  1.00  0.00    -0.237 OA
ATOM     73  O   UNL A   1      33.058  33.834  27.782  1.00  0.00    -0.744 OA
ENDBRANCH  69  70
ENDBRANCH  48  62
BRANCH  49  74
ATOM     74  C   UNL A   1      44.164  28.708  36.393  1.00  0.00     0.058 A 
ATOM     75  C   UNL A   1      43.945  27.588  37.212  1.00  0.00     0.135 A 
ATOM     76  C   UNL A   1      45.465  29.237  36.353  1.00  0.00     0.135 A 
ATOM     77  F   UNL A   1      42.717  27.056  37.305  1.00  0.00    -0.206 F 
ATOM     78  C   UNL A   1      44.967  27.027  37.973  1.00  0.00     0.059 A 
ATOM     79  C   UNL A   1      46.509  28.675  37.079  1.00  0.00     0.059 A 
ATOM     80  F   UNL A   1      45.732  30.307  35.587  1.00  0.00    -0.206 F 
ATOM     81  C   UNL A   1      46.249  27.575  37.895  1.00  0.00     0.060 A 
BRANCH  81  82
ATOM     82  S   UNL A   1      47.578  26.810  38.850  1.00  0.00     0.124 S 
ATOM     83  O   UNL A   1      47.590  25.457  38.306  1.00  0.00    -0.237 OA
ATOM     84  O   UNL A   1      48.723  27.648  38.503  1.00  0.00    -0.237 OA
ATOM     85  O   UNL A   1      47.116  26.932  40.229  1.00  0.00    -0.744 OA
ENDBRANCH  81  82
ENDBRANCH  49  74
BRANCH  61  86
ATOM     86  C   UNL A   1      40.120  34.287  37.523  1.00  0.00     0.058 A 
ATOM     87  C   UNL A   1      40.949  35.416  37.623  1.00  0.00     0.135 A 
ATOM     88  C   UNL A   1      39.149  34.103  38.522  1.00  0.00     0.135 A 
ATOM     89  F   UNL A   1      41.895  35.645  36.698  1.00  0.00    -0.206 F 
ATOM     90  C   UNL A   1      40.846  36.303  38.691  1.00  0.00     0.059 A 
ATOM     91  C   UNL A   1      39.006  34.996  39.581  1.00  0.00     0.059 A 
ATOM     92  F   UNL A   1      38.316  33.051  38.471  1.00  0.00    -0.206 F 
ATOM     93  C   UNL A   1      39.872  36.084  39.668  1.00  0.00     0.060 A 
BRANCH  93  94
ATOM     94  S   UNL A   1      39.745  37.245  41.045  1.00  0.00     0.124 S 
ATOM     95  O   UNL A   1      41.128  37.690  41.183  1.00  0.00    -0.237 OA
ATOM     96  O   UNL A   1      38.807  38.239  40.530  1.00  0.00    -0.237 OA
ATOM     97  O   UNL A   1      39.239  36.422  42.139  1.00  0.00    -0.744 OA
ENDBRANCH  93  94
ENDBRANCH  61  86
ENDBRANCH  35  36
ENDBRANCH  28  30
ENDBRANCH  27  28
ENDBRANCH  26  27
ENDBRANCH  25  26
ENDBRANCH  24  25
ENDBRANCH  23  24
ENDBRANCH   1  23
TORSDOF 25
ENDMDL
MODEL 3
REMARK VINA RESULT:      -8.8      1.588      2.514
REMARK SMILES CC(C)(C[NH2+]CCc1cccnc1)C(=O)OCCOCCOCCOC(=O)c1ccc(-c2c3nc(c(-c4c(F)cc(S(=O)(=O)[O-])cc4F)c4ccc([nH]4)c(-c4c(F)cc(S(=O)(=O)[O-])cc4F)c4nc(c(-c5c(F)cc(S(=O)(=O)[O-])cc5F)c5ccc2[nH]5)C=C4)C=C3)cc1
REMARK SMILES IDX 20 1 19 2 18 3 17 4 16 5 14 6 15 7 2 8 1 9 3 10 4 11 5 12
REMARK SMILES IDX 6 15 7 16 8 17 9 18 13 19 10 20 12 21 11 22 21 23 22 24
REMARK SMILES IDX 23 25 24 26 25 27 26 28 27 29 28 30 29 31 93 32 30 33 92 34
REMARK SMILES IDX 31 35 32 36 33 37 86 38 34 39 91 40 85 41 87 42 35 43 90 44
REMARK SMILES IDX 84 45 83 46 36 48 70 49 49 50 69 51 50 52 53 53 68 54 88 55
REMARK SMILES IDX 51 56 52 57 67 59 89 60 54 61 37 62 38 63 47 64 39 65 40 66
REMARK SMILES IDX 46 67 48 68 41 69 42 70 43 71 44 72 45 73 71 74 72 75 81 76
REMARK SMILES IDX 73 77 74 78 80 79 82 80 75 81 76 82 77 83 78 84 79 85 55 86
REMARK SMILES IDX 56 87 65 88 57 89 58 90 64 91 66 92 59 93 60 94 61 95 62 96
REMARK SMILES IDX 63 97
REMARK H PARENT 5 13 5 14 87 47 53 58
REMARK Flexibility Score: inf
ROOT
ATOM      1  C   UNL A   1      35.895  23.152  24.559  1.00  0.00     0.188 C 
ENDROOT
BRANCH   1   2
ATOM      2  O   UNL A   1      34.836  22.208  24.641  1.00  0.00    -0.376 OA
BRANCH   2   3
ATOM      3  C   UNL A   1      33.597  22.696  25.145  1.00  0.00     0.202 C 
BRANCH   3   4
ATOM      4  C   UNL A   1      33.647  23.789  26.228  1.00  0.00     0.261 C 
BRANCH   4   5
ATOM      5  O   UNL A   1      33.039  25.059  25.888  1.00  0.00    -0.463 OA
BRANCH   5   6
ATOM      6  C   UNL A   1      31.702  25.018  25.633  1.00  0.00     0.317 C 
ATOM      7  O   UNL A   1      30.862  24.774  26.498  1.00  0.00    -0.251 OA
BRANCH   6   8
ATOM      8  C   UNL A   1      31.288  25.305  24.173  1.00  0.00     0.111 C 
ATOM      9  C   UNL A   1      30.253  26.451  24.191  1.00  0.00     0.029 C 
ATOM     10  C   UNL A   1      30.551  24.015  23.741  1.00  0.00     0.029 C 
BRANCH   8  11
ATOM     11  C   UNL A   1      32.432  25.559  23.137  1.00  0.00     0.278 C 
BRANCH  11  12
ATOM     12  N   UNL A   1      33.458  26.531  23.548  1.00  0.00    -0.345 N 
ATOM     13  H   UNL A   1      34.372  26.082  23.480  1.00  0.00     0.346 HD
ATOM     14  H   UNL A   1      33.232  26.815  24.500  1.00  0.00     0.346 HD
BRANCH  12  15
ATOM     15  C   UNL A   1      33.483  27.756  22.731  1.00  0.00     0.265 C 
BRANCH  15  16
ATOM     16  C   UNL A   1      32.588  28.917  23.219  1.00  0.00     0.098 C 
BRANCH  16  17
ATOM     17  C   UNL A   1      32.713  29.252  24.684  1.00  0.00    -0.024 A 
ATOM     18  C   UNL A   1      31.744  29.992  25.368  1.00  0.00     0.007 A 
ATOM     19  C   UNL A   1      33.826  28.846  25.413  1.00  0.00     0.114 A 
ATOM     20  C   UNL A   1      31.945  30.332  26.705  1.00  0.00     0.020 A 
ATOM     21  N   UNL A   1      34.050  29.163  26.708  1.00  0.00    -0.264 NA
ATOM     22  C   UNL A   1      33.109  29.910  27.324  1.00  0.00     0.111 A 
ENDBRANCH  16  17
ENDBRANCH  15  16
ENDBRANCH  12  15
ENDBRANCH  11  12
ENDBRANCH   8  11
ENDBRANCH   6   8
ENDBRANCH   5   6
ENDBRANCH   4   5
ENDBRANCH   3   4
ENDBRANCH   2   3
ENDBRANCH   1   2
BRANCH   1  23
ATOM     23  C   UNL A   1      37.299  22.584  24.367  1.00  0.00     0.188 C 
BRANCH  23  24
ATOM     24  O   UNL A   1      37.919  22.004  25.507  1.00  0.00    -0.376 OA
BRANCH  24  25
ATOM     25  C   UNL A   1      38.658  22.900  26.340  1.00  0.00     0.202 C 
BRANCH  25  26
ATOM     26  C   UNL A   1      40.136  22.539  26.614  1.00  0.00     0.261 C 
BRANCH  26  27
ATOM     27  O   UNL A   1      40.841  23.403  27.534  1.00  0.00    -0.460 OA
BRANCH  27  28
ATOM     28  C   UNL A   1      41.362  24.548  27.037  1.00  0.00     0.338 C 
ATOM     29  O   UNL A   1      41.877  24.683  25.939  1.00  0.00    -0.246 OA
BRANCH  28  30
ATOM     30  C   UNL A   1      41.002  25.682  27.935  1.00  0.00     0.060 A 
ATOM     31  C   UNL A   1      41.887  26.763  28.011  1.00  0.00     0.016 A 
ATOM     32  C   UNL A   1      39.823  25.717  28.681  1.00  0.00     0.016 A 
ATOM     33  C   UNL A   1      41.663  27.820  28.897  1.00  0.00     0.010 A 
ATOM     34  C   UNL A   1      39.600  26.775  29.581  1.00  0.00     0.010 A 
ATOM     35  C   UNL A   1      40.553  27.800  29.744  1.00  0.00    -0.014 A 
BRANCH  35  36
ATOM     36  C   UNL A   1      40.519  28.710  30.926  1.00  0.00     0.031 A 
ATOM     37  C   UNL A   1      39.506  29.832  30.939  1.00  0.00     0.074 A 
ATOM     38  C   UNL A   1      41.298  28.516  32.009  1.00  0.00     0.049 A 
ATOM     39  N   UNL A   1      39.299  30.761  31.836  1.00  0.00    -0.248 NA
ATOM     40  C   UNL A   1      38.599  29.909  29.781  1.00  0.00     0.031 C 
ATOM     41  C   UNL A   1      42.267  27.436  32.174  1.00  0.00     0.029 A 
ATOM     42  N   UNL A   1      41.389  29.231  33.181  1.00  0.00    -0.354 N 
ATOM     43  C   UNL A   1      38.260  31.544  31.345  1.00  0.00     0.074 A 
ATOM     44  C   UNL A   1      37.896  30.996  30.056  1.00  0.00     0.031 C 
ATOM     45  C   UNL A   1      42.863  27.563  33.374  1.00  0.00     0.029 A 
ATOM     46  C   UNL A   1      42.346  28.754  34.049  1.00  0.00     0.049 A 
ATOM     47  H   UNL A   1      40.824  30.011  33.382  1.00  0.00     0.167 HD
ATOM     48  C   UNL A   1      37.653  32.615  31.912  1.00  0.00     0.037 A 
ATOM     49  C   UNL A   1      42.773  29.233  35.237  1.00  0.00     0.037 A 
ATOM     50  C   UNL A   1      38.003  33.159  33.199  1.00  0.00     0.049 A 
ATOM     51  C   UNL A   1      42.134  30.473  35.816  1.00  0.00     0.074 A 
ATOM     52  C   UNL A   1      37.438  34.238  33.857  1.00  0.00     0.029 A 
ATOM     53  N   UNL A   1      39.007  32.673  34.022  1.00  0.00    -0.354 N 
ATOM     54  N   UNL A   1      41.156  31.203  35.335  1.00  0.00    -0.248 NA
ATOM     55  C   UNL A   1      42.659  30.951  37.105  1.00  0.00     0.031 C 
ATOM     56  C   UNL A   1      38.138  34.441  35.051  1.00  0.00     0.029 A 
ATOM     57  C   UNL A   1      39.094  33.446  35.170  1.00  0.00     0.049 A 
ATOM     58  H   UNL A   1      39.575  31.895  33.821  1.00  0.00     0.167 HD
ATOM     59  C   UNL A   1      40.926  32.203  36.280  1.00  0.00     0.074 A 
ATOM     60  C   UNL A   1      41.858  31.976  37.363  1.00  0.00     0.031 C 
ATOM     61  C   UNL A   1      40.019  33.214  36.252  1.00  0.00     0.037 A 
BRANCH  48  62
ATOM     62  C   UNL A   1      36.566  33.299  31.124  1.00  0.00     0.058 A 
ATOM     63  C   UNL A   1      36.851  34.130  30.027  1.00  0.00     0.135 A 
ATOM     64  C   UNL A   1      35.217  33.095  31.455  1.00  0.00     0.135 A 
ATOM     65  F   UNL A   1      38.123  34.377  29.679  1.00  0.00    -0.206 F 
ATOM     66  C   UNL A   1      35.838  34.755  29.307  1.00  0.00     0.059 A 
ATOM     67  C   UNL A   1      34.186  33.684  30.729  1.00  0.00     0.059 A 
ATOM     68  F   UNL A   1      34.887  32.314  32.495  1.00  0.00    -0.206 F 
ATOM     69  C   UNL A   1      34.508  34.525  29.665  1.00  0.00     0.060 A 
BRANCH  69  70
ATOM     70  S   UNL A   1      33.206  35.345  28.721  1.00  0.00     0.124 S 
ATOM     71  O   UNL A   1      32.539  34.206  28.098  1.00  0.00    -0.237 OA
ATOM     72  O   UNL A   1      32.450  36.029  29.765  1.00  0.00    -0.237 OA
ATOM     73  O   UNL A   1      33.942  36.216  27.810  1.00  0.00    -0.744 OA
ENDBRANCH  69  70
ENDBRANCH  48  62
BRANCH  49  74
ATOM     74  C   UNL A   1      43.883  28.552  35.962  1.00  0.00     0.058 A 
ATOM     75  C   UNL A   1      45.224  28.918  35.759  1.00  0.00     0.135 A 
ATOM     76  C   UNL A   1      43.628  27.500  36.857  1.00  0.00     0.135 A 
ATOM     77  F   UNL A   1      45.526  29.902  34.898  1.00  0.00    -0.206 F 
ATOM     78  C   UNL A   1      46.267  28.259  36.401  1.00  0.00     0.059 A 
ATOM     79  C   UNL A   1      44.652  26.846  37.534  1.00  0.00     0.059 A 
ATOM     80  F   UNL A   1      42.365  27.106  37.089  1.00  0.00    -0.206 F 
ATOM     81  C   UNL A   1      45.971  27.227  37.292  1.00  0.00     0.060 A 
BRANCH  81  82
ATOM     82  S   UNL A   1      47.331  26.409  38.156  1.00  0.00     0.124 S 
ATOM     83  O   UNL A   1      46.615  25.630  39.160  1.00  0.00    -0.237 OA
ATOM     84  O   UNL A   1      47.958  25.644  37.082  1.00  0.00    -0.237 OA
ATOM     85  O   UNL A   1      48.122  27.523  38.669  1.00  0.00    -0.744 OA
ENDBRANCH  81  82
ENDBRANCH  49  74
BRANCH  61  86
ATOM     86  C   UNL A   1      39.950  34.127  37.450  1.00  0.00     0.058 A 
ATOM     87  C   UNL A   1      40.818  35.219  37.610  1.00  0.00     0.135 A 
ATOM     88  C   UNL A   1      38.972  33.923  38.439  1.00  0.00     0.135 A 
ATOM     89  F   UNL A   1      41.772  35.464  36.697  1.00  0.00    -0.206 F 
ATOM     90  C   UNL A   1      40.746  36.050  38.725  1.00  0.00     0.059 A 
ATOM     91  C   UNL A   1      38.860  34.762  39.545  1.00  0.00     0.059 A 
ATOM     92  F   UNL A   1      38.103  32.905  38.333  1.00  0.00    -0.206 F 
ATOM     93  C   UNL A   1      39.765  35.812  39.689  1.00  0.00     0.060 A 
BRANCH  93  94
ATOM     94  S   UNL A   1      39.678  36.901  41.127  1.00  0.00     0.124 S 
ATOM     95  O   UNL A   1      41.086  37.224  41.337  1.00  0.00    -0.237 OA
ATOM     96  O   UNL A   1      38.842  37.995  40.641  1.00  0.00    -0.237 OA
ATOM     97  O   UNL A   1      39.068  36.062  42.154  1.00  0.00    -0.744 OA
ENDBRANCH  93  94
ENDBRANCH  61  86
ENDBRANCH  35  36
ENDBRANCH  28  30
ENDBRANCH  27  28
ENDBRANCH  26  27
ENDBRANCH  25  26
ENDBRANCH  24  25
ENDBRANCH  23  24
ENDBRANCH   1  23
TORSDOF 25
ENDMDL
