MODEL 1
REMARK VINA RESULT:     -10.0      0.000      0.000
REMARK SMILES COc1ccc(NC(=O)C[C@@H](C[NH+]2CCOCC2)C(=O)OCCOCCOCCOC(=O)c2ccc(-c3c4nc(c(-c5c(F)cc(S(=O)(=O)[O-])cc5F)c5ccc([nH]5)c(-c5c(F)cc(S(=O)(=O)[O-])cc5F)c5nc(c(-c6c(F)cc(S(=O)(=O)[O-])cc6F)c6ccc3[nH]6)C=C5)C=C4)cc2)cc1
REMARK SMILES IDX 25 1 24 2 23 3 22 4 21 5 19 6 20 7 11 8 10 9 8 10 7 11 9 13
REMARK SMILES IDX 6 14 3 15 4 16 100 17 5 18 99 19 2 20 1 21 12 22 13 23 14 24
REMARK SMILES IDX 18 25 15 27 17 28 16 29 26 30 27 31 28 32 29 33 30 34 31 35
REMARK SMILES IDX 32 36 33 37 34 38 98 39 35 40 97 41 36 42 37 43 38 44 91 45
REMARK SMILES IDX 39 46 96 47 90 48 92 49 40 50 95 51 89 52 88 53 41 55 75 56
REMARK SMILES IDX 54 57 74 58 55 59 58 60 73 61 93 62 56 63 57 64 72 66 94 67
REMARK SMILES IDX 59 68 42 69 43 70 52 71 44 72 45 73 51 74 53 75 46 76 47 77
REMARK SMILES IDX 48 78 49 79 50 80 76 81 77 82 86 83 78 84 79 85 85 86 87 87
REMARK SMILES IDX 80 88 81 89 82 90 83 91 84 92 60 93 61 94 70 95 62 96 63 97
REMARK SMILES IDX 69 98 71 99 64 100 65 101 66 102 67 103 68 104
REMARK H PARENT 7 12 13 26 92 54 58 65
REMARK Flexibility Score: inf
ROOT
ATOM      1  C   UNL A   1      32.724  29.654  25.853  1.00  0.00     0.188 C 
ENDROOT
BRANCH   1   2
ATOM      2  O   UNL A   1      31.528  29.006  26.281  1.00  0.00    -0.376 OA
BRANCH   2   3
ATOM      3  C   UNL A   1      31.244  27.737  25.703  1.00  0.00     0.202 C 
BRANCH   3   4
ATOM      4  C   UNL A   1      31.416  26.541  26.642  1.00  0.00     0.261 C 
BRANCH   4   5
ATOM      5  O   UNL A   1      30.948  25.304  26.045  1.00  0.00    -0.463 OA
BRANCH   5   6
ATOM      6  C   UNL A   1      31.492  24.137  26.489  1.00  0.00     0.315 C 
ATOM      7  O   UNL A   1      31.374  23.711  27.632  1.00  0.00    -0.252 OA
BRANCH   6   8
ATOM      8  C   UNL A   1      32.341  23.436  25.429  1.00  0.00     0.163 C 
BRANCH   8   9
ATOM      9  C   UNL A   1      32.524  21.923  25.623  1.00  0.00     0.121 C 
BRANCH   9  10
ATOM     10  C   UNL A   1      32.927  21.109  24.400  1.00  0.00     0.225 C 
ATOM     11  N   UNL A   1      34.212  20.974  23.972  1.00  0.00    -0.326 N 
ATOM     12  H   UNL A   1      34.324  20.334  23.232  1.00  0.00     0.169 HD
ATOM     13  O   UNL A   1      32.057  20.509  23.759  1.00  0.00    -0.275 OA
BRANCH  11  14
ATOM     14  C   UNL A   1      35.400  21.575  24.389  1.00  0.00     0.041 A 
ATOM     15  C   UNL A   1      37.673  22.727  25.582  1.00  0.00     0.119 A 
ATOM     16  C   UNL A   1      36.883  23.471  24.709  1.00  0.00     0.048 A 
ATOM     17  C   UNL A   1      37.380  21.373  25.758  1.00  0.00     0.048 A 
ATOM     18  C   UNL A   1      35.737  22.898  24.121  1.00  0.00     0.030 A 
ATOM     19  C   UNL A   1      36.275  20.787  25.135  1.00  0.00     0.030 A 
BRANCH  15  20
ATOM     20  O   UNL A   1      38.719  23.161  26.340  1.00  0.00    -0.497 OA
ATOM     21  C   UNL A   1      38.759  24.486  26.844  1.00  0.00     0.278 C 
ENDBRANCH  15  20
ENDBRANCH  11  14
ENDBRANCH   9  10
ENDBRANCH   8   9
BRANCH   8  22
ATOM     22  C   UNL A   1      31.934  24.017  24.063  1.00  0.00     0.278 C 
BRANCH  22  23
ATOM     23  N   UNL A   1      32.853  24.575  23.088  1.00  0.00    -0.330 N 
ATOM     24  C   UNL A   1      33.597  25.763  23.484  1.00  0.00     0.291 C 
ATOM     25  C   UNL A   1      32.990  24.254  21.681  1.00  0.00     0.291 C 
ATOM     26  H   UNL A   1      32.978  23.570  23.212  1.00  0.00     0.348 HD
ATOM     27  C   UNL A   1      33.234  26.927  22.557  1.00  0.00     0.221 C 
ATOM     28  C   UNL A   1      32.786  25.468  20.762  1.00  0.00     0.221 C 
ATOM     29  O   UNL A   1      33.542  26.609  21.191  1.00  0.00    -0.370 OA
ENDBRANCH  22  23
ENDBRANCH   8  22
ENDBRANCH   6   8
ENDBRANCH   5   6
ENDBRANCH   4   5
ENDBRANCH   3   4
ENDBRANCH   2   3
ENDBRANCH   1   2
BRANCH   1  30
ATOM     30  C   UNL A   1      34.010  28.811  25.923  1.00  0.00     0.188 C 
BRANCH  30  31
ATOM     31  O   UNL A   1      35.060  29.463  26.610  1.00  0.00    -0.376 OA
BRANCH  31  32
ATOM     32  C   UNL A   1      34.751  30.503  27.515  1.00  0.00     0.202 C 
BRANCH  32  33
ATOM     33  C   UNL A   1      35.327  30.556  28.942  1.00  0.00     0.261 C 
BRANCH  33  34
ATOM     34  O   UNL A   1      36.087  29.432  29.393  1.00  0.00    -0.460 OA
BRANCH  34  35
ATOM     35  C   UNL A   1      36.855  29.576  30.498  1.00  0.00     0.338 C 
ATOM     36  O   UNL A   1      36.480  29.535  31.657  1.00  0.00    -0.246 OA
BRANCH  35  37
ATOM     37  C   UNL A   1      38.268  29.535  30.042  1.00  0.00     0.060 A 
ATOM     38  C   UNL A   1      38.543  29.708  28.678  1.00  0.00     0.016 A 
ATOM     39  C   UNL A   1      39.318  29.451  30.964  1.00  0.00     0.016 A 
ATOM     40  C   UNL A   1      39.866  29.777  28.233  1.00  0.00     0.010 A 
ATOM     41  C   UNL A   1      40.641  29.503  30.517  1.00  0.00     0.010 A 
ATOM     42  C   UNL A   1      40.922  29.636  29.146  1.00  0.00    -0.014 A 
BRANCH  42  43
ATOM     43  C   UNL A   1      42.294  29.352  28.660  1.00  0.00     0.031 A 
ATOM     44  C   UNL A   1      42.591  27.938  28.235  1.00  0.00     0.074 A 
ATOM     45  C   UNL A   1      43.254  30.292  28.609  1.00  0.00     0.049 A 
ATOM     46  N   UNL A   1      43.718  27.402  27.850  1.00  0.00    -0.248 NA
ATOM     47  C   UNL A   1      41.455  27.000  28.258  1.00  0.00     0.031 C 
ATOM     48  C   UNL A   1      43.087  31.701  28.960  1.00  0.00     0.029 A 
ATOM     49  N   UNL A   1      44.578  30.189  28.253  1.00  0.00    -0.354 N 
ATOM     50  C   UNL A   1      43.427  26.068  27.589  1.00  0.00     0.074 A 
ATOM     51  C   UNL A   1      42.028  25.868  27.887  1.00  0.00     0.031 C 
ATOM     52  C   UNL A   1      44.269  32.328  28.817  1.00  0.00     0.029 A 
ATOM     53  C   UNL A   1      45.281  31.362  28.392  1.00  0.00     0.049 A 
ATOM     54  H   UNL A   1      44.983  29.354  27.926  1.00  0.00     0.167 HD
ATOM     55  C   UNL A   1      44.252  25.095  27.138  1.00  0.00     0.037 A 
ATOM     56  C   UNL A   1      46.595  31.614  28.217  1.00  0.00     0.037 A 
ATOM     57  C   UNL A   1      45.646  25.291  26.854  1.00  0.00     0.049 A 
ATOM     58  C   UNL A   1      47.513  30.497  27.778  1.00  0.00     0.074 A 
ATOM     59  C   UNL A   1      46.565  24.370  26.385  1.00  0.00     0.029 A 
ATOM     60  N   UNL A   1      46.325  26.489  27.024  1.00  0.00    -0.354 N 
ATOM     61  N   UNL A   1      47.223  29.245  27.510  1.00  0.00    -0.248 NA
ATOM     62  C   UNL A   1      48.938  30.825  27.618  1.00  0.00     0.031 C 
ATOM     63  C   UNL A   1      47.812  25.001  26.314  1.00  0.00     0.029 A 
ATOM     64  C   UNL A   1      47.658  26.326  26.690  1.00  0.00     0.049 A 
ATOM     65  H   UNL A   1      45.918  27.329  27.336  1.00  0.00     0.167 HD
ATOM     66  C   UNL A   1      48.419  28.647  27.123  1.00  0.00     0.074 A 
ATOM     67  C   UNL A   1      49.437  29.676  27.185  1.00  0.00     0.031 C 
ATOM     68  C   UNL A   1      48.655  27.365  26.746  1.00  0.00     0.037 A 
BRANCH  55  69
ATOM     69  C   UNL A   1      43.662  23.727  26.956  1.00  0.00     0.058 A 
ATOM     70  C   UNL A   1      43.344  23.224  25.684  1.00  0.00     0.135 A 
ATOM     71  C   UNL A   1      43.412  22.908  28.069  1.00  0.00     0.135 A 
ATOM     72  F   UNL A   1      43.537  23.979  24.590  1.00  0.00    -0.206 F 
ATOM     73  C   UNL A   1      42.775  21.965  25.523  1.00  0.00     0.059 A 
ATOM     74  C   UNL A   1      42.868  21.635  27.929  1.00  0.00     0.059 A 
ATOM     75  F   UNL A   1      43.688  23.347  29.306  1.00  0.00    -0.206 F 
ATOM     76  C   UNL A   1      42.540  21.179  26.652  1.00  0.00     0.060 A 
BRANCH  76  77
ATOM     77  S   UNL A   1      41.803  19.546  26.428  1.00  0.00     0.124 S 
ATOM     78  O   UNL A   1      42.312  18.835  27.597  1.00  0.00    -0.237 OA
ATOM     79  O   UNL A   1      40.374  19.844  26.441  1.00  0.00    -0.237 OA
ATOM     80  O   UNL A   1      42.338  19.106  25.143  1.00  0.00    -0.744 OA
ENDBRANCH  76  77
ENDBRANCH  55  69
BRANCH  56  81
ATOM     81  C   UNL A   1      47.139  32.978  28.467  1.00  0.00     0.058 A 
ATOM     82  C   UNL A   1      47.547  33.372  29.750  1.00  0.00     0.135 A 
ATOM     83  C   UNL A   1      47.238  33.923  27.434  1.00  0.00     0.135 A 
ATOM     84  F   UNL A   1      47.454  32.514  30.777  1.00  0.00    -0.206 F 
ATOM     85  C   UNL A   1      48.023  34.657  30.004  1.00  0.00     0.059 A 
ATOM     86  C   UNL A   1      47.733  35.205  27.657  1.00  0.00     0.059 A 
ATOM     87  F   UNL A   1      46.860  33.598  26.187  1.00  0.00    -0.206 F 
ATOM     88  C   UNL A   1      48.114  35.566  28.948  1.00  0.00     0.060 A 
BRANCH  88  89
ATOM     89  S   UNL A   1      48.772  37.216  29.279  1.00  0.00     0.124 S 
ATOM     90  O   UNL A   1      48.848  37.217  30.735  1.00  0.00    -0.237 OA
ATOM     91  O   UNL A   1      50.050  37.185  28.574  1.00  0.00    -0.237 OA
ATOM     92  O   UNL A   1      47.766  38.101  28.699  1.00  0.00    -0.744 OA
ENDBRANCH  88  89
ENDBRANCH  56  81
BRANCH  68  93
ATOM     93  C   UNL A   1      50.054  27.003  26.329  1.00  0.00     0.058 A 
ATOM     94  C   UNL A   1      50.955  26.390  27.214  1.00  0.00     0.135 A 
ATOM     95  C   UNL A   1      50.472  27.204  25.003  1.00  0.00     0.135 A 
ATOM     96  F   UNL A   1      50.605  26.177  28.492  1.00  0.00    -0.206 F 
ATOM     97  C   UNL A   1      52.227  26.005  26.804  1.00  0.00     0.059 A 
ATOM     98  C   UNL A   1      51.730  26.803  24.564  1.00  0.00     0.059 A 
ATOM     99  F   UNL A   1      49.645  27.772  24.111  1.00  0.00    -0.206 F 
ATOM    100  C   UNL A   1      52.605  26.213  25.475  1.00  0.00     0.060 A 
BRANCH 100 101
ATOM    101  S   UNL A   1      54.243  25.672  24.944  1.00  0.00     0.124 S 
ATOM    102  O   UNL A   1      54.313  26.222  23.594  1.00  0.00    -0.237 OA
ATOM    103  O   UNL A   1      55.117  26.301  25.931  1.00  0.00    -0.237 OA
ATOM    104  O   UNL A   1      54.164  24.217  25.025  1.00  0.00    -0.744 OA
ENDBRANCH 100 101
ENDBRANCH  68  93
ENDBRANCH  42  43
ENDBRANCH  35  37
ENDBRANCH  34  35
ENDBRANCH  33  34
ENDBRANCH  32  33
ENDBRANCH  31  32
ENDBRANCH  30  31
ENDBRANCH   1  30
TORSDOF 26
ENDMDL
MODEL 2
REMARK VINA RESULT:      -9.7      5.889     11.064
REMARK SMILES COc1ccc(NC(=O)C[C@@H](C[NH+]2CCOCC2)C(=O)OCCOCCOCCOC(=O)c2ccc(-c3c4nc(c(-c5c(F)cc(S(=O)(=O)[O-])cc5F)c5ccc([nH]5)c(-c5c(F)cc(S(=O)(=O)[O-])cc5F)c5nc(c(-c6c(F)cc(S(=O)(=O)[O-])cc6F)c6ccc3[nH]6)C=C5)C=C4)cc2)cc1
REMARK SMILES IDX 25 1 24 2 23 3 22 4 21 5 19 6 20 7 11 8 10 9 8 10 7 11 9 13
REMARK SMILES IDX 6 14 3 15 4 16 100 17 5 18 99 19 2 20 1 21 12 22 13 23 14 24
REMARK SMILES IDX 18 25 15 27 17 28 16 29 26 30 27 31 28 32 29 33 30 34 31 35
REMARK SMILES IDX 32 36 33 37 34 38 98 39 35 40 97 41 36 42 37 43 38 44 91 45
REMARK SMILES IDX 39 46 96 47 90 48 92 49 40 50 95 51 89 52 88 53 41 55 75 56
REMARK SMILES IDX 54 57 74 58 55 59 58 60 73 61 93 62 56 63 57 64 72 66 94 67
REMARK SMILES IDX 59 68 42 69 43 70 52 71 44 72 45 73 51 74 53 75 46 76 47 77
REMARK SMILES IDX 48 78 49 79 50 80 76 81 77 82 86 83 78 84 79 85 85 86 87 87
REMARK SMILES IDX 80 88 81 89 82 90 83 91 84 92 60 93 61 94 70 95 62 96 63 97
REMARK SMILES IDX 69 98 71 99 64 100 65 101 66 102 67 103 68 104
REMARK H PARENT 7 12 13 26 92 54 58 65
REMARK Flexibility Score: inf
ROOT
ATOM      1  C   UNL A   1      38.586  21.145  26.058  1.00  0.00     0.188 C 
ENDROOT
BRANCH   1   2
ATOM      2  O   UNL A   1      38.095  21.478  24.763  1.00  0.00    -0.376 OA
BRANCH   2   3
ATOM      3  C   UNL A   1      37.244  22.616  24.671  1.00  0.00     0.202 C 
BRANCH   3   4
ATOM      4  C   UNL A   1      36.236  22.584  23.521  1.00  0.00     0.261 C 
BRANCH   4   5
ATOM      5  O   UNL A   1      34.931  23.076  23.921  1.00  0.00    -0.463 OA
BRANCH   5   6
ATOM      6  C   UNL A   1      33.872  22.226  23.823  1.00  0.00     0.315 C 
ATOM      7  O   UNL A   1      33.102  22.190  22.871  1.00  0.00    -0.252 OA
BRANCH   6   8
ATOM      8  C   UNL A   1      33.687  21.362  25.070  1.00  0.00     0.163 C 
BRANCH   8   9
ATOM      9  C   UNL A   1      34.013  22.051  26.404  1.00  0.00     0.121 C 
BRANCH   9  10
ATOM     10  C   UNL A   1      32.848  22.659  27.176  1.00  0.00     0.225 C 
ATOM     11  N   UNL A   1      32.235  23.823  26.827  1.00  0.00    -0.326 N 
ATOM     12  H   UNL A   1      31.434  24.031  27.360  1.00  0.00     0.169 HD
ATOM     13  O   UNL A   1      32.402  22.065  28.163  1.00  0.00    -0.275 OA
BRANCH  11  14
ATOM     14  C   UNL A   1      32.534  24.776  25.852  1.00  0.00     0.041 A 
ATOM     15  C   UNL A   1      33.169  26.407  23.649  1.00  0.00     0.119 A 
ATOM     16  C   UNL A   1      33.959  26.434  24.797  1.00  0.00     0.048 A 
ATOM     17  C   UNL A   1      31.999  25.645  23.663  1.00  0.00     0.048 A 
ATOM     18  C   UNL A   1      33.649  25.608  25.895  1.00  0.00     0.030 A 
ATOM     19  C   UNL A   1      31.659  24.866  24.772  1.00  0.00     0.030 A 
BRANCH  15  20
ATOM     20  O   UNL A   1      33.404  27.024  22.458  1.00  0.00    -0.497 OA
ATOM     21  C   UNL A   1      33.393  28.438  22.350  1.00  0.00     0.278 C 
ENDBRANCH  15  20
ENDBRANCH  11  14
ENDBRANCH   9  10
ENDBRANCH   8   9
BRANCH   8  22
ATOM     22  C   UNL A   1      32.380  20.570  24.885  1.00  0.00     0.278 C 
BRANCH  22  23
ATOM     23  N   UNL A   1      32.299  19.179  24.480  1.00  0.00    -0.330 N 
ATOM     24  C   UNL A   1      32.688  18.180  25.466  1.00  0.00     0.291 C 
ATOM     25  C   UNL A   1      32.093  18.629  23.155  1.00  0.00     0.291 C 
ATOM     26  H   UNL A   1      31.444  19.696  24.275  1.00  0.00     0.348 HD
ATOM     27  C   UNL A   1      33.890  17.386  24.943  1.00  0.00     0.221 C 
ATOM     28  C   UNL A   1      33.230  17.699  22.703  1.00  0.00     0.221 C 
ATOM     29  O   UNL A   1      33.572  16.732  23.705  1.00  0.00    -0.370 OA
ENDBRANCH  22  23
ENDBRANCH   8  22
ENDBRANCH   6   8
ENDBRANCH   5   6
ENDBRANCH   4   5
ENDBRANCH   3   4
ENDBRANCH   2   3
ENDBRANCH   1   2
BRANCH   1  30
ATOM     30  C   UNL A   1      39.957  21.735  26.433  1.00  0.00     0.188 C 
BRANCH  30  31
ATOM     31  O   UNL A   1      40.879  20.755  26.868  1.00  0.00    -0.376 OA
BRANCH  31  32
ATOM     32  C   UNL A   1      42.030  20.498  26.090  1.00  0.00     0.202 C 
BRANCH  32  33
ATOM     33  C   UNL A   1      43.282  21.392  26.142  1.00  0.00     0.261 C 
BRANCH  33  34
ATOM     34  O   UNL A   1      43.170  22.651  26.811  1.00  0.00    -0.460 OA
BRANCH  34  35
ATOM     35  C   UNL A   1      43.007  23.766  26.063  1.00  0.00     0.338 C 
ATOM     36  O   UNL A   1      42.978  23.829  24.846  1.00  0.00    -0.246 OA
BRANCH  35  37
ATOM     37  C   UNL A   1      42.616  24.852  26.997  1.00  0.00     0.060 A 
ATOM     38  C   UNL A   1      43.295  26.077  26.931  1.00  0.00     0.016 A 
ATOM     39  C   UNL A   1      41.512  24.706  27.845  1.00  0.00     0.016 A 
ATOM     40  C   UNL A   1      42.882  27.150  27.726  1.00  0.00     0.010 A 
ATOM     41  C   UNL A   1      41.111  25.774  28.653  1.00  0.00     0.010 A 
ATOM     42  C   UNL A   1      41.813  26.992  28.620  1.00  0.00    -0.014 A 
BRANCH  42  43
ATOM     43  C   UNL A   1      41.595  27.980  29.704  1.00  0.00     0.031 A 
ATOM     44  C   UNL A   1      42.502  27.891  30.903  1.00  0.00     0.074 A 
ATOM     45  C   UNL A   1      40.625  28.910  29.653  1.00  0.00     0.049 A 
ATOM     46  N   UNL A   1      42.479  28.572  32.018  1.00  0.00    -0.248 NA
ATOM     47  C   UNL A   1      43.577  26.887  30.832  1.00  0.00     0.031 C 
ATOM     48  C   UNL A   1      39.705  29.122  28.537  1.00  0.00     0.029 A 
ATOM     49  N   UNL A   1      40.247  29.849  30.583  1.00  0.00    -0.354 N 
ATOM     50  C   UNL A   1      43.531  28.077  32.779  1.00  0.00     0.074 A 
ATOM     51  C   UNL A   1      44.153  27.020  32.015  1.00  0.00     0.031 C 
ATOM     52  C   UNL A   1      38.856  30.116  28.856  1.00  0.00     0.029 A 
ATOM     53  C   UNL A   1      39.154  30.593  30.207  1.00  0.00     0.049 A 
ATOM     54  H   UNL A   1      40.716  29.977  31.439  1.00  0.00     0.167 HD
ATOM     55  C   UNL A   1      43.946  28.469  34.005  1.00  0.00     0.037 A 
ATOM     56  C   UNL A   1      38.465  31.533  30.887  1.00  0.00     0.037 A 
ATOM     57  C   UNL A   1      43.320  29.510  34.771  1.00  0.00     0.049 A 
ATOM     58  C   UNL A   1      38.904  31.908  32.283  1.00  0.00     0.074 A 
ATOM     59  C   UNL A   1      43.669  29.987  36.021  1.00  0.00     0.029 A 
ATOM     60  N   UNL A   1      42.205  30.228  34.362  1.00  0.00    -0.354 N 
ATOM     61  N   UNL A   1      39.915  31.451  32.983  1.00  0.00    -0.248 NA
ATOM     62  C   UNL A   1      38.107  32.927  32.983  1.00  0.00     0.031 C 
ATOM     63  C   UNL A   1      42.738  30.965  36.387  1.00  0.00     0.029 A 
ATOM     64  C   UNL A   1      41.839  31.130  35.345  1.00  0.00     0.049 A 
ATOM     65  H   UNL A   1      41.744  30.112  33.500  1.00  0.00     0.167 HD
ATOM     66  C   UNL A   1      39.893  32.146  34.189  1.00  0.00     0.074 A 
ATOM     67  C   UNL A   1      38.771  33.060  34.123  1.00  0.00     0.031 C 
ATOM     68  C   UNL A   1      40.727  32.042  35.255  1.00  0.00     0.037 A 
BRANCH  55  69
ATOM     69  C   UNL A   1      45.116  27.739  34.599  1.00  0.00     0.058 A 
ATOM     70  C   UNL A   1      44.947  26.578  35.370  1.00  0.00     0.135 A 
ATOM     71  C   UNL A   1      46.424  28.207  34.392  1.00  0.00     0.135 A 
ATOM     72  F   UNL A   1      43.715  26.106  35.621  1.00  0.00    -0.206 F 
ATOM     73  C   UNL A   1      46.032  25.920  35.937  1.00  0.00     0.059 A 
ATOM     74  C   UNL A   1      47.526  27.549  34.928  1.00  0.00     0.059 A 
ATOM     75  F   UNL A   1      46.638  29.319  33.672  1.00  0.00    -0.206 F 
ATOM     76  C   UNL A   1      47.318  26.414  35.712  1.00  0.00     0.060 A 
BRANCH  76  77
ATOM     77  S   UNL A   1      48.718  25.547  36.453  1.00  0.00     0.124 S 
ATOM     78  O   UNL A   1      49.041  26.424  37.573  1.00  0.00    -0.237 OA
ATOM     79  O   UNL A   1      48.135  24.256  36.806  1.00  0.00    -0.237 OA
ATOM     80  O   UNL A   1      49.704  25.514  35.376  1.00  0.00    -0.744 OA
ENDBRANCH  76  77
ENDBRANCH  55  69
BRANCH  56  81
ATOM     81  C   UNL A   1      37.275  32.184  30.272  1.00  0.00     0.058 A 
ATOM     82  C   UNL A   1      37.389  33.403  29.585  1.00  0.00     0.135 A 
ATOM     83  C   UNL A   1      35.997  31.615  30.379  1.00  0.00     0.135 A 
ATOM     84  F   UNL A   1      38.585  33.999  29.471  1.00  0.00    -0.206 F 
ATOM     85  C   UNL A   1      36.278  34.040  29.038  1.00  0.00     0.059 A 
ATOM     86  C   UNL A   1      34.875  32.220  29.820  1.00  0.00     0.059 A 
ATOM     87  F   UNL A   1      35.831  30.450  31.027  1.00  0.00    -0.206 F 
ATOM     88  C   UNL A   1      35.023  33.438  29.159  1.00  0.00     0.060 A 
BRANCH  88  89
ATOM     89  S   UNL A   1      33.595  34.252  28.409  1.00  0.00     0.124 S 
ATOM     90  O   UNL A   1      34.236  35.238  27.547  1.00  0.00    -0.237 OA
ATOM     91  O   UNL A   1      32.932  33.143  27.727  1.00  0.00    -0.237 OA
ATOM     92  O   UNL A   1      32.875  34.791  29.559  1.00  0.00    -0.744 OA
ENDBRANCH  88  89
ENDBRANCH  56  81
BRANCH  68  93
ATOM     93  C   UNL A   1      40.492  32.962  36.422  1.00  0.00     0.058 A 
ATOM     94  C   UNL A   1      41.249  34.128  36.609  1.00  0.00     0.135 A 
ATOM     95  C   UNL A   1      39.444  32.710  37.323  1.00  0.00     0.135 A 
ATOM     96  F   UNL A   1      42.263  34.415  35.778  1.00  0.00    -0.206 F 
ATOM     97  C   UNL A   1      40.987  35.004  37.658  1.00  0.00     0.059 A 
ATOM     98  C   UNL A   1      39.147  33.585  38.363  1.00  0.00     0.059 A 
ATOM     99  F   UNL A   1      38.678  31.615  37.181  1.00  0.00    -0.206 F 
ATOM    100  C   UNL A   1      39.931  34.725  38.528  1.00  0.00     0.060 A 
BRANCH 100 101
ATOM    101  S   UNL A   1      39.574  35.889  39.861  1.00  0.00     0.124 S 
ATOM    102  O   UNL A   1      39.039  37.028  39.122  1.00  0.00    -0.237 OA
ATOM    103  O   UNL A   1      38.610  35.152  40.673  1.00  0.00    -0.237 OA
ATOM    104  O   UNL A   1      40.876  36.102  40.485  1.00  0.00    -0.744 OA
ENDBRANCH 100 101
ENDBRANCH  68  93
ENDBRANCH  42  43
ENDBRANCH  35  37
ENDBRANCH  34  35
ENDBRANCH  33  34
ENDBRANCH  32  33
ENDBRANCH  31  32
ENDBRANCH  30  31
ENDBRANCH   1  30
TORSDOF 26
ENDMDL
MODEL 3
REMARK VINA RESULT:      -9.6      6.212     11.624
REMARK SMILES COc1ccc(NC(=O)C[C@@H](C[NH+]2CCOCC2)C(=O)OCCOCCOCCOC(=O)c2ccc(-c3c4nc(c(-c5c(F)cc(S(=O)(=O)[O-])cc5F)c5ccc([nH]5)c(-c5c(F)cc(S(=O)(=O)[O-])cc5F)c5nc(c(-c6c(F)cc(S(=O)(=O)[O-])cc6F)c6ccc3[nH]6)C=C5)C=C4)cc2)cc1
REMARK SMILES IDX 25 1 24 2 23 3 22 4 21 5 19 6 20 7 11 8 10 9 8 10 7 11 9 13
REMARK SMILES IDX 6 14 3 15 4 16 100 17 5 18 99 19 2 20 1 21 12 22 13 23 14 24
REMARK SMILES IDX 18 25 15 27 17 28 16 29 26 30 27 31 28 32 29 33 30 34 31 35
REMARK SMILES IDX 32 36 33 37 34 38 98 39 35 40 97 41 36 42 37 43 38 44 91 45
REMARK SMILES IDX 39 46 96 47 90 48 92 49 40 50 95 51 89 52 88 53 41 55 75 56
REMARK SMILES IDX 54 57 74 58 55 59 58 60 73 61 93 62 56 63 57 64 72 66 94 67
REMARK SMILES IDX 59 68 42 69 43 70 52 71 44 72 45 73 51 74 53 75 46 76 47 77
REMARK SMILES IDX 48 78 49 79 50 80 76 81 77 82 86 83 78 84 79 85 85 86 87 87
REMARK SMILES IDX 80 88 81 89 82 90 83 91 84 92 60 93 61 94 70 95 62 96 63 97
REMARK SMILES IDX 69 98 71 99 64 100 65 101 66 102 67 103 68 104
REMARK H PARENT 7 12 13 26 92 54 58 65
REMARK Flexibility Score: inf
ROOT
ATOM      1  C   UNL A   1      38.095  20.903  25.337  1.00  0.00     0.188 C 
ENDROOT
BRANCH   1   2
ATOM      2  O   UNL A   1      36.677  21.034  25.373  1.00  0.00    -0.376 OA
BRANCH   2   3
ATOM      3  C   UNL A   1      36.158  22.316  25.709  1.00  0.00     0.202 C 
BRANCH   3   4
ATOM      4  C   UNL A   1      35.506  23.079  24.554  1.00  0.00     0.261 C 
BRANCH   4   5
ATOM      5  O   UNL A   1      34.421  22.331  23.947  1.00  0.00    -0.463 OA
BRANCH   5   6
ATOM      6  C   UNL A   1      33.173  22.875  23.985  1.00  0.00     0.315 C 
ATOM      7  O   UNL A   1      32.859  23.920  23.430  1.00  0.00    -0.252 OA
BRANCH   6   8
ATOM      8  C   UNL A   1      32.207  22.083  24.866  1.00  0.00     0.163 C 
BRANCH   8   9
ATOM      9  C   UNL A   1      30.964  22.852  25.339  1.00  0.00     0.121 C 
BRANCH   9  10
ATOM     10  C   UNL A   1      31.108  23.696  26.599  1.00  0.00     0.225 C 
ATOM     11  N   UNL A   1      30.968  25.050  26.623  1.00  0.00    -0.326 N 
ATOM     12  H   UNL A   1      30.986  25.441  27.526  1.00  0.00     0.169 HD
ATOM     13  O   UNL A   1      31.340  23.138  27.678  1.00  0.00    -0.275 OA
BRANCH  11  14
ATOM     14  C   UNL A   1      30.804  25.986  25.601  1.00  0.00     0.041 A 
ATOM     15  C   UNL A   1      30.420  27.578  23.313  1.00  0.00     0.119 A 
ATOM     16  C   UNL A   1      31.604  27.666  24.041  1.00  0.00     0.048 A 
ATOM     17  C   UNL A   1      29.390  26.775  23.808  1.00  0.00     0.048 A 
ATOM     18  C   UNL A   1      31.802  26.860  25.180  1.00  0.00     0.030 A 
ATOM     19  C   UNL A   1      29.563  26.014  24.967  1.00  0.00     0.030 A 
BRANCH  15  20
ATOM     20  O   UNL A   1      30.124  28.170  22.122  1.00  0.00    -0.497 OA
ATOM     21  C   UNL A   1      29.974  29.577  22.020  1.00  0.00     0.278 C 
ENDBRANCH  15  20
ENDBRANCH  11  14
ENDBRANCH   9  10
ENDBRANCH   8   9
BRANCH   8  22
ATOM     22  C   UNL A   1      32.084  20.675  24.254  1.00  0.00     0.278 C 
BRANCH  22  23
ATOM     23  N   UNL A   1      32.868  19.522  24.654  1.00  0.00    -0.330 N 
ATOM     24  C   UNL A   1      33.660  18.870  23.619  1.00  0.00     0.291 C 
ATOM     25  C   UNL A   1      32.821  18.777  25.896  1.00  0.00     0.291 C 
ATOM     26  H   UNL A   1      33.007  20.322  25.272  1.00  0.00     0.348 HD
ATOM     27  C   UNL A   1      33.180  17.425  23.444  1.00  0.00     0.221 C 
ATOM     28  C   UNL A   1      32.501  17.288  25.696  1.00  0.00     0.221 C 
ATOM     29  O   UNL A   1      33.307  16.691  24.671  1.00  0.00    -0.370 OA
ENDBRANCH  22  23
ENDBRANCH   8  22
ENDBRANCH   6   8
ENDBRANCH   5   6
ENDBRANCH   4   5
ENDBRANCH   3   4
ENDBRANCH   2   3
ENDBRANCH   1   2
BRANCH   1  30
ATOM     30  C   UNL A   1      38.891  21.969  26.110  1.00  0.00     0.188 C 
BRANCH  30  31
ATOM     31  O   UNL A   1      40.004  21.435  26.800  1.00  0.00    -0.376 OA
BRANCH  31  32
ATOM     32  C   UNL A   1      41.044  22.301  27.205  1.00  0.00     0.202 C 
BRANCH  32  33
ATOM     33  C   UNL A   1      41.821  23.183  26.211  1.00  0.00     0.261 C 
BRANCH  33  34
ATOM     34  O   UNL A   1      41.510  24.578  26.180  1.00  0.00    -0.460 OA
BRANCH  34  35
ATOM     35  C   UNL A   1      42.526  25.462  26.053  1.00  0.00     0.338 C 
ATOM     36  O   UNL A   1      43.260  25.596  25.090  1.00  0.00    -0.246 OA
BRANCH  35  37
ATOM     37  C   UNL A   1      42.417  26.403  27.198  1.00  0.00     0.060 A 
ATOM     38  C   UNL A   1      41.682  26.012  28.326  1.00  0.00     0.016 A 
ATOM     39  C   UNL A   1      43.131  27.607  27.208  1.00  0.00     0.016 A 
ATOM     40  C   UNL A   1      41.646  26.832  29.458  1.00  0.00     0.010 A 
ATOM     41  C   UNL A   1      43.081  28.435  28.332  1.00  0.00     0.010 A 
ATOM     42  C   UNL A   1      42.313  28.066  29.451  1.00  0.00    -0.014 A 
BRANCH  42  43
ATOM     43  C   UNL A   1      41.999  29.088  30.479  1.00  0.00     0.031 A 
ATOM     44  C   UNL A   1      42.892  29.138  31.691  1.00  0.00     0.074 A 
ATOM     45  C   UNL A   1      40.957  29.931  30.369  1.00  0.00     0.049 A 
ATOM     46  N   UNL A   1      42.797  29.872  32.767  1.00  0.00    -0.248 NA
ATOM     47  C   UNL A   1      44.048  28.224  31.685  1.00  0.00     0.031 C 
ATOM     48  C   UNL A   1      40.039  30.007  29.234  1.00  0.00     0.029 A 
ATOM     49  N   UNL A   1      40.488  30.882  31.243  1.00  0.00    -0.354 N 
ATOM     50  C   UNL A   1      43.875  29.506  33.565  1.00  0.00     0.074 A 
ATOM     51  C   UNL A   1      44.593  28.467  32.864  1.00  0.00     0.031 C 
ATOM     52  C   UNL A   1      39.106  30.942  29.490  1.00  0.00     0.029 A 
ATOM     53  C   UNL A   1      39.344  31.512  30.816  1.00  0.00     0.049 A 
ATOM     54  H   UNL A   1      40.933  31.093  32.096  1.00  0.00     0.167 HD
ATOM     55  C   UNL A   1      44.237  29.995  34.773  1.00  0.00     0.037 A 
ATOM     56  C   UNL A   1      38.570  32.426  31.438  1.00  0.00     0.037 A 
ATOM     57  C   UNL A   1      43.516  31.019  35.475  1.00  0.00     0.049 A 
ATOM     58  C   UNL A   1      38.955  32.909  32.817  1.00  0.00     0.074 A 
ATOM     59  C   UNL A   1      43.807  31.588  36.701  1.00  0.00     0.029 A 
ATOM     60  N   UNL A   1      42.353  31.619  35.016  1.00  0.00    -0.354 N 
ATOM     61  N   UNL A   1      39.990  32.575  33.551  1.00  0.00    -0.248 NA
ATOM     62  C   UNL A   1      38.066  33.893  33.453  1.00  0.00     0.031 C 
ATOM     63  C   UNL A   1      42.792  32.504  37.005  1.00  0.00     0.029 A 
ATOM     64  C   UNL A   1      41.899  32.539  35.946  1.00  0.00     0.049 A 
ATOM     65  H   UNL A   1      41.915  31.421  34.157  1.00  0.00     0.167 HD
ATOM     66  C   UNL A   1      39.893  33.327  34.718  1.00  0.00     0.074 A 
ATOM     67  C   UNL A   1      38.701  34.140  34.591  1.00  0.00     0.031 C 
ATOM     68  C   UNL A   1      40.716  33.349  35.796  1.00  0.00     0.037 A 
BRANCH  55  69
ATOM     69  C   UNL A   1      45.455  29.398  35.416  1.00  0.00     0.058 A 
ATOM     70  C   UNL A   1      46.749  29.851  35.110  1.00  0.00     0.135 A 
ATOM     71  C   UNL A   1      45.327  28.358  36.351  1.00  0.00     0.135 A 
ATOM     72  F   UNL A   1      46.927  30.823  34.200  1.00  0.00    -0.206 F 
ATOM     73  C   UNL A   1      47.874  29.277  35.690  1.00  0.00     0.059 A 
ATOM     74  C   UNL A   1      46.438  27.788  36.964  1.00  0.00     0.059 A 
ATOM     75  F   UNL A   1      44.113  27.882  36.669  1.00  0.00    -0.206 F 
ATOM     76  C   UNL A   1      47.709  28.245  36.615  1.00  0.00     0.060 A 
BRANCH  76  77
ATOM     77  S   UNL A   1      49.179  27.512  37.362  1.00  0.00     0.124 S 
ATOM     78  O   UNL A   1      49.694  28.630  38.147  1.00  0.00    -0.237 OA
ATOM     79  O   UNL A   1      48.619  26.403  38.131  1.00  0.00    -0.237 OA
ATOM     80  O   UNL A   1      49.989  27.127  36.210  1.00  0.00    -0.744 OA
ENDBRANCH  76  77
ENDBRANCH  55  69
BRANCH  56  81
ATOM     81  C   UNL A   1      37.339  32.943  30.777  1.00  0.00     0.058 A 
ATOM     82  C   UNL A   1      36.071  32.449  31.117  1.00  0.00     0.135 A 
ATOM     83  C   UNL A   1      37.409  33.924  29.775  1.00  0.00     0.135 A 
ATOM     84  F   UNL A   1      35.951  31.496  32.054  1.00  0.00    -0.206 F 
ATOM     85  C   UNL A   1      34.917  32.899  30.480  1.00  0.00     0.059 A 
ATOM     86  C   UNL A   1      36.268  34.407  29.141  1.00  0.00     0.059 A 
ATOM     87  F   UNL A   1      38.598  34.430  29.411  1.00  0.00    -0.206 F 
ATOM     88  C   UNL A   1      35.025  33.881  29.494  1.00  0.00     0.060 A 
BRANCH  88  89
ATOM     89  S   UNL A   1      33.518  34.489  28.704  1.00  0.00     0.124 S 
ATOM     90  O   UNL A   1      34.010  35.662  27.993  1.00  0.00    -0.237 OA
ATOM     91  O   UNL A   1      33.129  33.354  27.871  1.00  0.00    -0.237 OA
ATOM     92  O   UNL A   1      32.634  34.759  29.833  1.00  0.00    -0.744 OA
ENDBRANCH  88  89
ENDBRANCH  56  81
BRANCH  68  93
ATOM     93  C   UNL A   1      40.390  34.306  36.910  1.00  0.00     0.058 A 
ATOM     94  C   UNL A   1      40.885  35.618  36.927  1.00  0.00     0.135 A 
ATOM     95  C   UNL A   1      39.506  33.925  37.934  1.00  0.00     0.135 A 
ATOM     96  F   UNL A   1      41.734  36.032  35.973  1.00  0.00    -0.206 F 
ATOM     97  C   UNL A   1      40.531  36.515  37.930  1.00  0.00     0.059 A 
ATOM     98  C   UNL A   1      39.117  34.814  38.932  1.00  0.00     0.059 A 
ATOM     99  F   UNL A   1      38.990  32.686  37.956  1.00  0.00    -0.206 F 
ATOM    100  C   UNL A   1      39.643  36.104  38.927  1.00  0.00     0.060 A 
BRANCH 100 101
ATOM    101  S   UNL A   1      39.158  37.289  40.200  1.00  0.00     0.124 S 
ATOM    102  O   UNL A   1      38.430  36.437  41.134  1.00  0.00    -0.237 OA
ATOM    103  O   UNL A   1      40.447  37.790  40.670  1.00  0.00    -0.237 OA
ATOM    104  O   UNL A   1      38.346  38.258  39.471  1.00  0.00    -0.744 OA
ENDBRANCH 100 101
ENDBRANCH  68  93
ENDBRANCH  42  43
ENDBRANCH  35  37
ENDBRANCH  34  35
ENDBRANCH  33  34
ENDBRANCH  32  33
ENDBRANCH  31  32
ENDBRANCH  30  31
ENDBRANCH   1  30
TORSDOF 26
ENDMDL
