MODEL 1
REMARK VINA RESULT:     -10.7      0.000      0.000
REMARK SMILES Cc1cc2c(c(C)c1Cl)C=C(C(=O)OCCOCCOCCOC(=O)c1ccc(-c3c4nc(c(-c5c(F)cc(S(=O)(=O)[O-])cc5F)c5ccc([nH]5)c(-c5c(F)cc(S(=O)(=O)[O-])cc5F)c5nc(c(-c6c(F)cc(S(=O)(=O)[O-])cc6F)c6ccc3[nH]6)C=C5)C=C4)cc1)[C@@H](C(F)(F)F)O2
REMARK SMILES IDX 19 1 18 2 17 3 16 4 15 5 14 6 12 7 13 8 11 9 1 10 2 11 3 12
REMARK SMILES IDX 8 13 4 14 6 15 9 16 5 17 97 18 7 19 10 20 92 21 93 22 94 23
REMARK SMILES IDX 95 24 96 25 20 26 21 27 22 28 23 29 24 30 25 31 26 32 27 33
REMARK SMILES IDX 91 34 28 35 90 36 29 37 30 38 31 39 84 40 32 41 89 42 83 43
REMARK SMILES IDX 85 44 33 45 88 46 82 47 81 48 34 50 68 51 47 52 67 53 48 54
REMARK SMILES IDX 51 55 66 56 86 57 49 58 50 59 65 61 87 62 52 63 35 64 36 65
REMARK SMILES IDX 45 66 37 67 38 68 44 69 46 70 39 71 40 72 41 73 42 74 43 75
REMARK SMILES IDX 69 76 70 77 79 78 71 79 72 80 78 81 80 82 73 83 74 84 75 85
REMARK SMILES IDX 76 86 77 87 53 88 54 89 63 90 55 91 56 92 62 93 64 94 57 95
REMARK SMILES IDX 58 96 59 97 60 98 61 99
REMARK H PARENT 85 49 51 60
REMARK Flexibility Score: inf
ROOT
ATOM      1  C   UNL A   1      30.589  29.675  24.167  1.00  0.00     0.188 C 
ENDROOT
BRANCH   1   2
ATOM      2  C   UNL A   1      30.572  28.504  23.160  1.00  0.00     0.188 C 
BRANCH   2   3
ATOM      3  O   UNL A   1      29.522  27.544  23.210  1.00  0.00    -0.376 OA
BRANCH   3   4
ATOM      4  C   UNL A   1      29.670  26.363  23.988  1.00  0.00     0.202 C 
BRANCH   4   5
ATOM      5  C   UNL A   1      30.500  26.426  25.275  1.00  0.00     0.261 C 
BRANCH   5   6
ATOM      6  O   UNL A   1      31.395  25.315  25.447  1.00  0.00    -0.460 OA
BRANCH   6   7
ATOM      7  C   UNL A   1      32.568  25.405  24.776  1.00  0.00     0.338 C 
ATOM      8  O   UNL A   1      33.026  26.397  24.232  1.00  0.00    -0.246 OA
BRANCH   7   9
ATOM      9  C   UNL A   1      33.303  24.129  24.885  1.00  0.00     0.087 C 
ATOM     10  C   UNL A   1      37.704  19.380  24.852  1.00  0.00     0.046 C 
ATOM     11  C   UNL A   1      36.912  20.638  25.087  1.00  0.00    -0.028 A 
ATOM     12  C   UNL A   1      35.543  20.637  24.797  1.00  0.00     0.052 A 
ATOM     13  C   UNL A   1      37.501  21.814  25.591  1.00  0.00     0.047 A 
ATOM     14  C   UNL A   1      34.786  21.801  24.920  1.00  0.00     0.128 A 
ATOM     15  C   UNL A   1      36.743  22.999  25.748  1.00  0.00    -0.021 A 
ATOM     16  Cl  UNL A   1      39.190  21.781  25.995  1.00  0.00    -0.084 Cl
ATOM     17  C   UNL A   1      35.381  22.992  25.351  1.00  0.00     0.022 A 
ATOM     18  O   UNL A   1      33.468  21.668  24.583  1.00  0.00    -0.475 OA
ATOM     19  C   UNL A   1      37.355  24.264  26.309  1.00  0.00     0.047 C 
ATOM     20  C   UNL A   1      34.572  24.209  25.307  1.00  0.00     0.027 C 
ATOM     21  C   UNL A   1      32.623  22.845  24.518  1.00  0.00     0.316 C 
BRANCH  21  22
ATOM     22  C   UNL A   1      31.976  22.890  23.126  1.00  0.00     0.430 C 
ATOM     23  F   UNL A   1      30.677  23.274  23.202  1.00  0.00    -0.167 F 
ATOM     24  F   UNL A   1      32.589  23.782  22.312  1.00  0.00    -0.167 F 
ATOM     25  F   UNL A   1      32.006  21.688  22.509  1.00  0.00    -0.167 F 
ENDBRANCH  21  22
ENDBRANCH   7   9
ENDBRANCH   6   7
ENDBRANCH   5   6
ENDBRANCH   4   5
ENDBRANCH   3   4
ENDBRANCH   2   3
ENDBRANCH   1   2
BRANCH   1  26
ATOM     26  O   UNL A   1      31.663  29.626  25.079  1.00  0.00    -0.376 OA
BRANCH  26  27
ATOM     27  C   UNL A   1      31.875  30.717  25.957  1.00  0.00     0.202 C 
BRANCH  27  28
ATOM     28  C   UNL A   1      32.629  30.584  27.295  1.00  0.00     0.261 C 
BRANCH  28  29
ATOM     29  O   UNL A   1      34.053  30.440  27.247  1.00  0.00    -0.460 OA
BRANCH  29  30
ATOM     30  C   UNL A   1      34.763  31.021  28.240  1.00  0.00     0.338 C 
ATOM     31  O   UNL A   1      34.373  31.873  29.017  1.00  0.00    -0.246 OA
BRANCH  30  32
ATOM     32  C   UNL A   1      36.048  30.297  28.360  1.00  0.00     0.060 A 
ATOM     33  C   UNL A   1      36.395  29.743  29.599  1.00  0.00     0.016 A 
ATOM     34  C   UNL A   1      36.902  30.167  27.261  1.00  0.00     0.016 A 
ATOM     35  C   UNL A   1      37.620  29.094  29.756  1.00  0.00     0.010 A 
ATOM     36  C   UNL A   1      38.142  29.541  27.426  1.00  0.00     0.010 A 
ATOM     37  C   UNL A   1      38.520  29.036  28.683  1.00  0.00    -0.014 A 
BRANCH  37  38
ATOM     38  C   UNL A   1      39.939  28.686  28.935  1.00  0.00     0.031 A 
ATOM     39  C   UNL A   1      40.819  29.736  29.561  1.00  0.00     0.074 A 
ATOM     40  C   UNL A   1      40.436  27.470  28.645  1.00  0.00     0.049 A 
ATOM     41  N   UNL A   1      42.102  29.709  29.806  1.00  0.00    -0.248 NA
ATOM     42  C   UNL A   1      40.154  30.987  29.968  1.00  0.00     0.031 C 
ATOM     43  C   UNL A   1      39.673  26.349  28.102  1.00  0.00     0.029 A 
ATOM     44  N   UNL A   1      41.714  26.984  28.766  1.00  0.00    -0.354 N 
ATOM     45  C   UNL A   1      42.397  30.932  30.399  1.00  0.00     0.074 A 
ATOM     46  C   UNL A   1      41.165  31.688  30.454  1.00  0.00     0.031 C 
ATOM     47  C   UNL A   1      40.503  25.304  27.926  1.00  0.00     0.029 A 
ATOM     48  C   UNL A   1      41.861  25.697  28.305  1.00  0.00     0.049 A 
ATOM     49  H   UNL A   1      42.456  27.507  29.146  1.00  0.00     0.167 HD
ATOM     50  C   UNL A   1      43.586  31.384  30.859  1.00  0.00     0.037 A 
ATOM     51  C   UNL A   1      42.970  24.939  28.180  1.00  0.00     0.037 A 
ATOM     52  C   UNL A   1      44.815  30.643  30.781  1.00  0.00     0.049 A 
ATOM     53  C   UNL A   1      44.305  25.509  28.593  1.00  0.00     0.074 A 
ATOM     54  C   UNL A   1      46.079  31.024  31.194  1.00  0.00     0.029 A 
ATOM     55  N   UNL A   1      44.936  29.370  30.245  1.00  0.00    -0.354 N 
ATOM     56  N   UNL A   1      44.578  26.677  29.127  1.00  0.00    -0.248 NA
ATOM     57  C   UNL A   1      45.485  24.659  28.377  1.00  0.00     0.031 C 
ATOM     58  C   UNL A   1      46.972  29.997  30.868  1.00  0.00     0.029 A 
ATOM     59  C   UNL A   1      46.256  28.957  30.294  1.00  0.00     0.049 A 
ATOM     60  H   UNL A   1      44.191  28.837  29.883  1.00  0.00     0.167 HD
ATOM     61  C   UNL A   1      45.957  26.696  29.319  1.00  0.00     0.074 A 
ATOM     62  C   UNL A   1      46.458  25.414  28.867  1.00  0.00     0.031 C 
ATOM     63  C   UNL A   1      46.739  27.684  29.823  1.00  0.00     0.037 A 
BRANCH  50  64
ATOM     64  C   UNL A   1      43.612  32.760  31.462  1.00  0.00     0.058 A 
ATOM     65  C   UNL A   1      43.426  32.963  32.839  1.00  0.00     0.135 A 
ATOM     66  C   UNL A   1      43.843  33.887  30.658  1.00  0.00     0.135 A 
ATOM     67  F   UNL A   1      43.172  31.921  33.647  1.00  0.00    -0.206 F 
ATOM     68  C   UNL A   1      43.451  34.237  33.395  1.00  0.00     0.059 A 
ATOM     69  C   UNL A   1      43.897  35.168  31.195  1.00  0.00     0.059 A 
ATOM     70  F   UNL A   1      44.016  33.747  29.334  1.00  0.00    -0.206 F 
ATOM     71  C   UNL A   1      43.690  35.334  32.564  1.00  0.00     0.060 A 
BRANCH  71  72
ATOM     72  S   UNL A   1      43.731  36.980  33.304  1.00  0.00     0.124 S 
ATOM     73  O   UNL A   1      42.507  36.972  34.101  1.00  0.00    -0.237 OA
ATOM     74  O   UNL A   1      44.979  36.949  34.061  1.00  0.00    -0.237 OA
ATOM     75  O   UNL A   1      43.721  37.873  32.151  1.00  0.00    -0.744 OA
ENDBRANCH  71  72
ENDBRANCH  50  64
BRANCH  51  76
ATOM     76  C   UNL A   1      42.880  23.568  27.610  1.00  0.00     0.058 A 
ATOM     77  C   UNL A   1      43.122  23.334  26.247  1.00  0.00     0.135 A 
ATOM     78  C   UNL A   1      42.537  22.467  28.409  1.00  0.00     0.135 A 
ATOM     79  F   UNL A   1      43.433  24.357  25.437  1.00  0.00    -0.206 F 
ATOM     80  C   UNL A   1      43.022  22.060  25.697  1.00  0.00     0.059 A 
ATOM     81  C   UNL A   1      42.454  21.179  27.887  1.00  0.00     0.059 A 
ATOM     82  F   UNL A   1      42.295  22.636  29.718  1.00  0.00    -0.206 F 
ATOM     83  C   UNL A   1      42.692  20.987  26.527  1.00  0.00     0.060 A 
BRANCH  83  84
ATOM     84  S   UNL A   1      42.618  19.331  25.812  1.00  0.00     0.124 S 
ATOM     85  O   UNL A   1      43.412  19.496  24.601  1.00  0.00    -0.237 OA
ATOM     86  O   UNL A   1      43.221  18.518  26.865  1.00  0.00    -0.237 OA
ATOM     87  O   UNL A   1      41.188  19.117  25.606  1.00  0.00    -0.744 OA
ENDBRANCH  83  84
ENDBRANCH  51  76
BRANCH  63  88
ATOM     88  C   UNL A   1      48.217  27.416  29.913  1.00  0.00     0.058 A 
ATOM     89  C   UNL A   1      49.093  27.782  28.879  1.00  0.00     0.135 A 
ATOM     90  C   UNL A   1      48.769  26.820  31.060  1.00  0.00     0.135 A 
ATOM     91  F   UNL A   1      48.619  28.353  27.762  1.00  0.00    -0.206 F 
ATOM     92  C   UNL A   1      50.460  27.533  28.963  1.00  0.00     0.059 A 
ATOM     93  C   UNL A   1      50.136  26.589  31.177  1.00  0.00     0.059 A 
ATOM     94  F   UNL A   1      47.977  26.467  32.085  1.00  0.00    -0.206 F 
ATOM     95  C   UNL A   1      50.971  26.933  30.115  1.00  0.00     0.060 A 
BRANCH  95  96
ATOM     96  S   UNL A   1      52.747  26.620  30.212  1.00  0.00     0.124 S 
ATOM     97  O   UNL A   1      53.256  27.934  30.591  1.00  0.00    -0.237 OA
ATOM     98  O   UNL A   1      52.827  25.588  31.241  1.00  0.00    -0.237 OA
ATOM     99  O   UNL A   1      53.089  26.179  28.863  1.00  0.00    -0.744 OA
ENDBRANCH  95  96
ENDBRANCH  63  88
ENDBRANCH  37  38
ENDBRANCH  30  32
ENDBRANCH  29  30
ENDBRANCH  28  29
ENDBRANCH  27  28
ENDBRANCH  26  27
ENDBRANCH   1  26
TORSDOF 21
ENDMDL
MODEL 2
REMARK VINA RESULT:     -10.1      1.844      2.425
REMARK SMILES Cc1cc2c(c(C)c1Cl)C=C(C(=O)OCCOCCOCCOC(=O)c1ccc(-c3c4nc(c(-c5c(F)cc(S(=O)(=O)[O-])cc5F)c5ccc([nH]5)c(-c5c(F)cc(S(=O)(=O)[O-])cc5F)c5nc(c(-c6c(F)cc(S(=O)(=O)[O-])cc6F)c6ccc3[nH]6)C=C5)C=C4)cc1)[C@@H](C(F)(F)F)O2
REMARK SMILES IDX 19 1 18 2 17 3 16 4 15 5 14 6 12 7 13 8 11 9 1 10 2 11 3 12
REMARK SMILES IDX 8 13 4 14 6 15 9 16 5 17 97 18 7 19 10 20 92 21 93 22 94 23
REMARK SMILES IDX 95 24 96 25 20 26 21 27 22 28 23 29 24 30 25 31 26 32 27 33
REMARK SMILES IDX 91 34 28 35 90 36 29 37 30 38 31 39 84 40 32 41 89 42 83 43
REMARK SMILES IDX 85 44 33 45 88 46 82 47 81 48 34 50 68 51 47 52 67 53 48 54
REMARK SMILES IDX 51 55 66 56 86 57 49 58 50 59 65 61 87 62 52 63 35 64 36 65
REMARK SMILES IDX 45 66 37 67 38 68 44 69 46 70 39 71 40 72 41 73 42 74 43 75
REMARK SMILES IDX 69 76 70 77 79 78 71 79 72 80 78 81 80 82 73 83 74 84 75 85
REMARK SMILES IDX 76 86 77 87 53 88 54 89 63 90 55 91 56 92 62 93 64 94 57 95
REMARK SMILES IDX 58 96 59 97 60 98 61 99
REMARK H PARENT 85 49 51 60
REMARK Flexibility Score: inf
ROOT
ATOM      1  C   UNL A   1      29.951  31.550  24.929  1.00  0.00     0.188 C 
ENDROOT
BRANCH   1   2
ATOM      2  C   UNL A   1      29.328  31.065  23.601  1.00  0.00     0.188 C 
BRANCH   2   3
ATOM      3  O   UNL A   1      28.885  29.716  23.479  1.00  0.00    -0.376 OA
BRANCH   3   4
ATOM      4  C   UNL A   1      29.597  28.803  22.654  1.00  0.00     0.202 C 
BRANCH   4   5
ATOM      5  C   UNL A   1      30.737  27.985  23.271  1.00  0.00     0.261 C 
BRANCH   5   6
ATOM      6  O   UNL A   1      31.556  27.305  22.306  1.00  0.00    -0.460 OA
BRANCH   6   7
ATOM      7  C   UNL A   1      32.892  27.398  22.509  1.00  0.00     0.338 C 
ATOM      8  O   UNL A   1      33.644  28.247  22.058  1.00  0.00    -0.246 OA
BRANCH   7   9
ATOM      9  C   UNL A   1      33.321  26.365  23.472  1.00  0.00     0.087 C 
ATOM     10  C   UNL A   1      33.787  21.287  27.463  1.00  0.00     0.046 C 
ATOM     11  C   UNL A   1      33.615  22.214  26.290  1.00  0.00    -0.028 A 
ATOM     12  C   UNL A   1      34.134  23.511  26.373  1.00  0.00     0.052 A 
ATOM     13  C   UNL A   1      32.954  21.819  25.111  1.00  0.00     0.047 A 
ATOM     14  C   UNL A   1      33.928  24.430  25.346  1.00  0.00     0.128 A 
ATOM     15  C   UNL A   1      32.757  22.731  24.046  1.00  0.00    -0.021 A 
ATOM     16  Cl  UNL A   1      32.361  20.190  25.005  1.00  0.00    -0.084 Cl
ATOM     17  C   UNL A   1      33.207  24.066  24.203  1.00  0.00     0.022 A 
ATOM     18  O   UNL A   1      34.467  25.667  25.565  1.00  0.00    -0.475 OA
ATOM     19  C   UNL A   1      32.067  22.317  22.764  1.00  0.00     0.047 C 
ATOM     20  C   UNL A   1      32.891  25.118  23.238  1.00  0.00     0.027 C 
ATOM     21  C   UNL A   1      34.179  26.747  24.640  1.00  0.00     0.316 C 
BRANCH  21  22
ATOM     22  C   UNL A   1      33.602  27.920  25.445  1.00  0.00     0.430 C 
ATOM     23  F   UNL A   1      34.217  28.037  26.649  1.00  0.00    -0.167 F 
ATOM     24  F   UNL A   1      33.777  29.104  24.813  1.00  0.00    -0.167 F 
ATOM     25  F   UNL A   1      32.278  27.777  25.681  1.00  0.00    -0.167 F 
ENDBRANCH  21  22
ENDBRANCH   7   9
ENDBRANCH   6   7
ENDBRANCH   5   6
ENDBRANCH   4   5
ENDBRANCH   3   4
ENDBRANCH   2   3
ENDBRANCH   1   2
BRANCH   1  26
ATOM     26  O   UNL A   1      31.119  30.851  25.297  1.00  0.00    -0.376 OA
BRANCH  26  27
ATOM     27  C   UNL A   1      31.572  30.921  26.638  1.00  0.00     0.202 C 
BRANCH  27  28
ATOM     28  C   UNL A   1      32.953  31.484  27.029  1.00  0.00     0.261 C 
BRANCH  28  29
ATOM     29  O   UNL A   1      33.811  30.657  27.822  1.00  0.00    -0.460 OA
BRANCH  29  30
ATOM     30  C   UNL A   1      34.620  31.281  28.708  1.00  0.00     0.338 C 
ATOM     31  O   UNL A   1      34.314  32.179  29.470  1.00  0.00    -0.246 OA
BRANCH  30  32
ATOM     32  C   UNL A   1      35.903  30.545  28.743  1.00  0.00     0.060 A 
ATOM     33  C   UNL A   1      36.381  30.086  29.977  1.00  0.00     0.016 A 
ATOM     34  C   UNL A   1      36.628  30.312  27.571  1.00  0.00     0.016 A 
ATOM     35  C   UNL A   1      37.610  29.429  30.050  1.00  0.00     0.010 A 
ATOM     36  C   UNL A   1      37.873  29.680  27.648  1.00  0.00     0.010 A 
ATOM     37  C   UNL A   1      38.385  29.270  28.892  1.00  0.00    -0.014 A 
BRANCH  37  38
ATOM     38  C   UNL A   1      39.820  28.915  29.014  1.00  0.00     0.031 A 
ATOM     39  C   UNL A   1      40.764  29.981  29.504  1.00  0.00     0.074 A 
ATOM     40  C   UNL A   1      40.277  27.684  28.725  1.00  0.00     0.049 A 
ATOM     41  N   UNL A   1      42.066  29.950  29.619  1.00  0.00    -0.248 NA
ATOM     42  C   UNL A   1      40.152  31.254  29.924  1.00  0.00     0.031 C 
ATOM     43  C   UNL A   1      39.456  26.550  28.308  1.00  0.00     0.029 A 
ATOM     44  N   UNL A   1      41.558  27.190  28.736  1.00  0.00    -0.354 N 
ATOM     45  C   UNL A   1      42.427  31.193  30.128  1.00  0.00     0.074 A 
ATOM     46  C   UNL A   1      41.212  31.963  30.277  1.00  0.00     0.031 C 
ATOM     47  C   UNL A   1      40.258  25.490  28.092  1.00  0.00     0.029 A 
ATOM     48  C   UNL A   1      41.649  25.884  28.316  1.00  0.00     0.049 A 
ATOM     49  H   UNL A   1      42.337  27.720  29.017  1.00  0.00     0.167 HD
ATOM     50  C   UNL A   1      43.659  31.651  30.447  1.00  0.00     0.037 A 
ATOM     51  C   UNL A   1      42.735  25.111  28.110  1.00  0.00     0.037 A 
ATOM     52  C   UNL A   1      44.869  30.895  30.275  1.00  0.00     0.049 A 
ATOM     53  C   UNL A   1      44.108  25.683  28.363  1.00  0.00     0.074 A 
ATOM     54  C   UNL A   1      46.172  31.279  30.542  1.00  0.00     0.029 A 
ATOM     55  N   UNL A   1      44.927  29.600  29.782  1.00  0.00    -0.354 N 
ATOM     56  N   UNL A   1      44.441  26.868  28.818  1.00  0.00    -0.248 NA
ATOM     57  C   UNL A   1      45.255  24.813  28.063  1.00  0.00     0.031 C 
ATOM     58  C   UNL A   1      47.020  30.231  30.170  1.00  0.00     0.029 A 
ATOM     59  C   UNL A   1      46.243  29.176  29.715  1.00  0.00     0.049 A 
ATOM     60  H   UNL A   1      44.147  29.061  29.519  1.00  0.00     0.167 HD
ATOM     61  C   UNL A   1      45.833  26.881  28.868  1.00  0.00     0.074 A 
ATOM     62  C   UNL A   1      46.277  25.577  28.421  1.00  0.00     0.031 C 
ATOM     63  C   UNL A   1      46.668  27.880  29.250  1.00  0.00     0.037 A 
BRANCH  50  64
ATOM     64  C   UNL A   1      43.755  33.050  30.987  1.00  0.00     0.058 A 
ATOM     65  C   UNL A   1      43.823  33.302  32.366  1.00  0.00     0.135 A 
ATOM     66  C   UNL A   1      43.797  34.150  30.116  1.00  0.00     0.135 A 
ATOM     67  F   UNL A   1      43.757  32.287  33.243  1.00  0.00    -0.206 F 
ATOM     68  C   UNL A   1      43.912  34.597  32.864  1.00  0.00     0.059 A 
ATOM     69  C   UNL A   1      43.911  35.452  30.590  1.00  0.00     0.059 A 
ATOM     70  F   UNL A   1      43.724  33.962  28.788  1.00  0.00    -0.206 F 
ATOM     71  C   UNL A   1      43.958  35.666  31.967  1.00  0.00     0.060 A 
BRANCH  71  72
ATOM     72  S   UNL A   1      44.085  37.340  32.630  1.00  0.00     0.124 S 
ATOM     73  O   UNL A   1      45.419  37.318  33.223  1.00  0.00    -0.237 OA
ATOM     74  O   UNL A   1      43.939  38.161  31.431  1.00  0.00    -0.237 OA
ATOM     75  O   UNL A   1      42.980  37.417  33.579  1.00  0.00    -0.744 OA
ENDBRANCH  71  72
ENDBRANCH  50  64
BRANCH  51  76
ATOM     76  C   UNL A   1      42.579  23.719  27.609  1.00  0.00     0.058 A 
ATOM     77  C   UNL A   1      42.524  23.448  26.233  1.00  0.00     0.135 A 
ATOM     78  C   UNL A   1      42.468  22.634  28.492  1.00  0.00     0.135 A 
ATOM     79  F   UNL A   1      42.606  24.453  25.348  1.00  0.00    -0.206 F 
ATOM     80  C   UNL A   1      42.359  22.153  25.751  1.00  0.00     0.059 A 
ATOM     81  C   UNL A   1      42.325  21.327  28.033  1.00  0.00     0.059 A 
ATOM     82  F   UNL A   1      42.513  22.838  29.817  1.00  0.00    -0.206 F 
ATOM     83  C   UNL A   1      42.265  21.098  26.660  1.00  0.00     0.060 A 
BRANCH  83  84
ATOM     84  S   UNL A   1      42.105  19.416  26.020  1.00  0.00     0.124 S 
ATOM     85  O   UNL A   1      40.673  19.335  25.759  1.00  0.00    -0.237 OA
ATOM     86  O   UNL A   1      42.968  19.456  24.843  1.00  0.00    -0.237 OA
ATOM     87  O   UNL A   1      42.594  18.590  27.120  1.00  0.00    -0.744 OA
ENDBRANCH  83  84
ENDBRANCH  51  76
BRANCH  63  88
ATOM     88  C   UNL A   1      48.146  27.601  29.201  1.00  0.00     0.058 A 
ATOM     89  C   UNL A   1      48.914  27.909  28.067  1.00  0.00     0.135 A 
ATOM     90  C   UNL A   1      48.809  27.053  30.312  1.00  0.00     0.135 A 
ATOM     91  F   UNL A   1      48.331  28.433  26.978  1.00  0.00    -0.206 F 
ATOM     92  C   UNL A   1      50.281  27.650  28.022  1.00  0.00     0.059 A 
ATOM     93  C   UNL A   1      50.179  26.813  30.299  1.00  0.00     0.059 A 
ATOM     94  F   UNL A   1      48.125  26.755  31.428  1.00  0.00    -0.206 F 
ATOM     95  C   UNL A   1      50.903  27.098  29.143  1.00  0.00     0.060 A 
BRANCH  95  96
ATOM     96  S   UNL A   1      52.678  26.771  29.072  1.00  0.00     0.124 S 
ATOM     97  O   UNL A   1      52.783  25.987  27.846  1.00  0.00    -0.237 OA
ATOM     98  O   UNL A   1      53.242  28.117  29.014  1.00  0.00    -0.237 OA
ATOM     99  O   UNL A   1      52.939  26.041  30.309  1.00  0.00    -0.744 OA
ENDBRANCH  95  96
ENDBRANCH  63  88
ENDBRANCH  37  38
ENDBRANCH  30  32
ENDBRANCH  29  30
ENDBRANCH  28  29
ENDBRANCH  27  28
ENDBRANCH  26  27
ENDBRANCH   1  26
TORSDOF 21
ENDMDL
MODEL 3
REMARK VINA RESULT:     -10.1      2.738      4.187
REMARK SMILES Cc1cc2c(c(C)c1Cl)C=C(C(=O)OCCOCCOCCOC(=O)c1ccc(-c3c4nc(c(-c5c(F)cc(S(=O)(=O)[O-])cc5F)c5ccc([nH]5)c(-c5c(F)cc(S(=O)(=O)[O-])cc5F)c5nc(c(-c6c(F)cc(S(=O)(=O)[O-])cc6F)c6ccc3[nH]6)C=C5)C=C4)cc1)[C@@H](C(F)(F)F)O2
REMARK SMILES IDX 19 1 18 2 17 3 16 4 15 5 14 6 12 7 13 8 11 9 1 10 2 11 3 12
REMARK SMILES IDX 8 13 4 14 6 15 9 16 5 17 97 18 7 19 10 20 92 21 93 22 94 23
REMARK SMILES IDX 95 24 96 25 20 26 21 27 22 28 23 29 24 30 25 31 26 32 27 33
REMARK SMILES IDX 91 34 28 35 90 36 29 37 30 38 31 39 84 40 32 41 89 42 83 43
REMARK SMILES IDX 85 44 33 45 88 46 82 47 81 48 34 50 68 51 47 52 67 53 48 54
REMARK SMILES IDX 51 55 66 56 86 57 49 58 50 59 65 61 87 62 52 63 35 64 36 65
REMARK SMILES IDX 45 66 37 67 38 68 44 69 46 70 39 71 40 72 41 73 42 74 43 75
REMARK SMILES IDX 69 76 70 77 79 78 71 79 72 80 78 81 80 82 73 83 74 84 75 85
REMARK SMILES IDX 76 86 77 87 53 88 54 89 63 90 55 91 56 92 62 93 64 94 57 95
REMARK SMILES IDX 58 96 59 97 60 98 61 99
REMARK H PARENT 85 49 51 60
REMARK Flexibility Score: inf
ROOT
ATOM      1  C   UNL A   1      34.039  33.986  29.039  1.00  0.00     0.188 C 
ENDROOT
BRANCH   1   2
ATOM      2  C   UNL A   1      33.938  33.018  27.840  1.00  0.00     0.188 C 
BRANCH   2   3
ATOM      3  O   UNL A   1      33.955  31.611  28.064  1.00  0.00    -0.376 OA
BRANCH   3   4
ATOM      4  C   UNL A   1      35.053  30.829  27.613  1.00  0.00     0.202 C 
BRANCH   4   5
ATOM      5  C   UNL A   1      34.847  29.328  27.384  1.00  0.00     0.261 C 
BRANCH   5   6
ATOM      6  O   UNL A   1      33.533  28.983  26.917  1.00  0.00    -0.460 OA
BRANCH   6   7
ATOM      7  C   UNL A   1      33.476  28.477  25.662  1.00  0.00     0.338 C 
ATOM      8  O   UNL A   1      33.837  29.027  24.634  1.00  0.00    -0.246 OA
BRANCH   7   9
ATOM      9  C   UNL A   1      33.007  27.078  25.711  1.00  0.00     0.087 C 
ATOM     10  C   UNL A   1      32.149  20.701  24.991  1.00  0.00     0.046 C 
ATOM     11  C   UNL A   1      32.667  22.082  25.287  1.00  0.00    -0.028 A 
ATOM     12  C   UNL A   1      31.752  23.134  25.409  1.00  0.00     0.052 A 
ATOM     13  C   UNL A   1      34.040  22.351  25.450  1.00  0.00     0.047 A 
ATOM     14  C   UNL A   1      32.191  24.443  25.601  1.00  0.00     0.128 A 
ATOM     15  C   UNL A   1      34.503  23.670  25.672  1.00  0.00    -0.021 A 
ATOM     16  Cl  UNL A   1      35.157  21.024  25.346  1.00  0.00    -0.084 Cl
ATOM     17  C   UNL A   1      33.558  24.728  25.690  1.00  0.00     0.022 A 
ATOM     18  O   UNL A   1      31.196  25.377  25.680  1.00  0.00    -0.475 OA
ATOM     19  C   UNL A   1      35.973  23.973  25.870  1.00  0.00     0.047 C 
ATOM     20  C   UNL A   1      33.957  26.134  25.732  1.00  0.00     0.027 C 
ATOM     21  C   UNL A   1      31.537  26.786  25.718  1.00  0.00     0.316 C 
BRANCH  21  22
ATOM     22  C   UNL A   1      30.784  27.489  24.579  1.00  0.00     0.430 C 
ATOM     23  F   UNL A   1      31.440  27.347  23.399  1.00  0.00    -0.167 F 
ATOM     24  F   UNL A   1      29.549  26.968  24.392  1.00  0.00    -0.167 F 
ATOM     25  F   UNL A   1      30.638  28.814  24.802  1.00  0.00    -0.167 F 
ENDBRANCH  21  22
ENDBRANCH   7   9
ENDBRANCH   6   7
ENDBRANCH   5   6
ENDBRANCH   4   5
ENDBRANCH   3   4
ENDBRANCH   2   3
ENDBRANCH   1   2
BRANCH   1  26
ATOM     26  O   UNL A   1      33.732  33.391  30.279  1.00  0.00    -0.376 OA
BRANCH  26  27
ATOM     27  C   UNL A   1      34.657  33.501  31.347  1.00  0.00     0.202 C 
BRANCH  27  28
ATOM     28  C   UNL A   1      35.698  32.412  31.672  1.00  0.00     0.261 C 
BRANCH  28  29
ATOM     29  O   UNL A   1      36.366  31.779  30.576  1.00  0.00    -0.460 OA
BRANCH  29  30
ATOM     30  C   UNL A   1      36.697  30.477  30.727  1.00  0.00     0.338 C 
ATOM     31  O   UNL A   1      35.943  29.555  30.980  1.00  0.00    -0.246 OA
BRANCH  30  32
ATOM     32  C   UNL A   1      38.114  30.322  30.328  1.00  0.00     0.060 A 
ATOM     33  C   UNL A   1      38.418  30.179  28.968  1.00  0.00     0.016 A 
ATOM     34  C   UNL A   1      39.131  30.317  31.286  1.00  0.00     0.016 A 
ATOM     35  C   UNL A   1      39.740  29.986  28.564  1.00  0.00     0.010 A 
ATOM     36  C   UNL A   1      40.452  30.094  30.884  1.00  0.00     0.010 A 
ATOM     37  C   UNL A   1      40.755  29.890  29.526  1.00  0.00    -0.014 A 
BRANCH  37  38
ATOM     38  C   UNL A   1      42.074  29.328  29.145  1.00  0.00     0.031 A 
ATOM     39  C   UNL A   1      43.263  30.253  29.176  1.00  0.00     0.074 A 
ATOM     40  C   UNL A   1      42.228  28.037  28.804  1.00  0.00     0.049 A 
ATOM     41  N   UNL A   1      44.499  30.032  28.813  1.00  0.00    -0.248 NA
ATOM     42  C   UNL A   1      43.020  31.611  29.693  1.00  0.00     0.031 C 
ATOM     43  C   UNL A   1      41.171  27.028  28.800  1.00  0.00     0.029 A 
ATOM     44  N   UNL A   1      43.346  27.358  28.386  1.00  0.00    -0.354 N 
ATOM     45  C   UNL A   1      45.180  31.218  29.061  1.00  0.00     0.074 A 
ATOM     46  C   UNL A   1      44.217  32.163  29.582  1.00  0.00     0.031 C 
ATOM     47  C   UNL A   1      41.691  25.857  28.388  1.00  0.00     0.029 A 
ATOM     48  C   UNL A   1      43.105  26.045  28.062  1.00  0.00     0.049 A 
ATOM     49  H   UNL A   1      44.236  27.773  28.324  1.00  0.00     0.167 HD
ATOM     50  C   UNL A   1      46.491  31.495  28.876  1.00  0.00     0.037 A 
ATOM     51  C   UNL A   1      43.927  25.114  27.535  1.00  0.00     0.037 A 
ATOM     52  C   UNL A   1      47.443  30.564  28.334  1.00  0.00     0.049 A 
ATOM     53  C   UNL A   1      45.358  25.481  27.228  1.00  0.00     0.074 A 
ATOM     54  C   UNL A   1      48.790  30.756  28.080  1.00  0.00     0.029 A 
ATOM     55  N   UNL A   1      47.146  29.264  27.953  1.00  0.00    -0.354 N 
ATOM     56  N   UNL A   1      45.987  26.614  27.440  1.00  0.00    -0.248 NA
ATOM     57  C   UNL A   1      46.189  24.444  26.599  1.00  0.00     0.031 C 
ATOM     58  C   UNL A   1      49.296  29.585  27.506  1.00  0.00     0.029 A 
ATOM     59  C   UNL A   1      48.276  28.648  27.445  1.00  0.00     0.049 A 
ATOM     60  H   UNL A   1      46.260  28.841  28.033  1.00  0.00     0.167 HD
ATOM     61  C   UNL A   1      47.287  26.421  26.981  1.00  0.00     0.074 A 
ATOM     62  C   UNL A   1      47.361  25.056  26.502  1.00  0.00     0.031 C 
ATOM     63  C   UNL A   1      48.327  27.293  26.956  1.00  0.00     0.037 A 
BRANCH  50  64
ATOM     64  C   UNL A   1      46.961  32.876  29.237  1.00  0.00     0.058 A 
ATOM     65  C   UNL A   1      47.450  33.173  30.519  1.00  0.00     0.135 A 
ATOM     66  C   UNL A   1      46.938  33.908  28.287  1.00  0.00     0.135 A 
ATOM     67  F   UNL A   1      47.467  32.229  31.473  1.00  0.00    -0.206 F 
ATOM     68  C   UNL A   1      47.885  34.452  30.851  1.00  0.00     0.059 A 
ATOM     69  C   UNL A   1      47.390  35.188  28.589  1.00  0.00     0.059 A 
ATOM     70  F   UNL A   1      46.468  33.677  27.050  1.00  0.00    -0.206 F 
ATOM     71  C   UNL A   1      47.853  35.453  29.877  1.00  0.00     0.060 A 
BRANCH  71  72
ATOM     72  S   UNL A   1      48.432  37.104  30.322  1.00  0.00     0.124 S 
ATOM     73  O   UNL A   1      49.731  36.806  30.918  1.00  0.00    -0.237 OA
ATOM     74  O   UNL A   1      48.468  37.779  29.028  1.00  0.00    -0.237 OA
ATOM     75  O   UNL A   1      47.413  37.584  31.250  1.00  0.00    -0.744 OA
ENDBRANCH  71  72
ENDBRANCH  50  64
BRANCH  51  76
ATOM     76  C   UNL A   1      43.417  23.750  27.231  1.00  0.00     0.058 A 
ATOM     77  C   UNL A   1      43.158  23.352  25.910  1.00  0.00     0.135 A 
ATOM     78  C   UNL A   1      43.166  22.821  28.252  1.00  0.00     0.135 A 
ATOM     79  F   UNL A   1      43.363  24.211  24.900  1.00  0.00    -0.206 F 
ATOM     80  C   UNL A   1      42.663  22.086  25.614  1.00  0.00     0.059 A 
ATOM     81  C   UNL A   1      42.692  21.541  27.979  1.00  0.00     0.059 A 
ATOM     82  F   UNL A   1      43.395  23.151  29.532  1.00  0.00    -0.206 F 
ATOM     83  C   UNL A   1      42.438  21.185  26.656  1.00  0.00     0.060 A 
BRANCH  83  84
ATOM     84  S   UNL A   1      41.846  19.527  26.253  1.00  0.00     0.124 S 
ATOM     85  O   UNL A   1      42.555  19.253  25.009  1.00  0.00    -0.237 OA
ATOM     86  O   UNL A   1      42.278  18.759  27.417  1.00  0.00    -0.237 OA
ATOM     87  O   UNL A   1      40.402  19.706  26.130  1.00  0.00    -0.744 OA
ENDBRANCH  83  84
ENDBRANCH  51  76
BRANCH  63  88
ATOM     88  C   UNL A   1      49.631  26.797  26.396  1.00  0.00     0.058 A 
ATOM     89  C   UNL A   1      50.608  26.211  27.218  1.00  0.00     0.135 A 
ATOM     90  C   UNL A   1      49.895  26.873  25.018  1.00  0.00     0.135 A 
ATOM     91  F   UNL A   1      50.407  26.114  28.541  1.00  0.00    -0.206 F 
ATOM     92  C   UNL A   1      51.815  25.752  26.699  1.00  0.00     0.059 A 
ATOM     93  C   UNL A   1      51.083  26.394  24.474  1.00  0.00     0.059 A 
ATOM     94  F   UNL A   1      48.989  27.408  24.185  1.00  0.00    -0.206 F 
ATOM     95  C   UNL A   1      52.044  25.851  25.325  1.00  0.00     0.060 A 
BRANCH  95  96
ATOM     96  S   UNL A   1      53.613  25.248  24.665  1.00  0.00     0.124 S 
ATOM     97  O   UNL A   1      53.460  23.805  24.817  1.00  0.00    -0.237 OA
ATOM     98  O   UNL A   1      53.588  25.747  23.294  1.00  0.00    -0.237 OA
ATOM     99  O   UNL A   1      54.609  25.869  25.534  1.00  0.00    -0.744 OA
ENDBRANCH  95  96
ENDBRANCH  63  88
ENDBRANCH  37  38
ENDBRANCH  30  32
ENDBRANCH  29  30
ENDBRANCH  28  29
ENDBRANCH  27  28
ENDBRANCH  26  27
ENDBRANCH   1  26
TORSDOF 21
ENDMDL
