MODEL 1
REMARK VINA RESULT:      -8.9      0.000      0.000
REMARK SMILES Cc1cc(I)cc([C@H]([NH3+])C(=O)OCCOCCOCCOC(=O)c2ccc(-c3c4nc(c(-c5c(F)cc(S(=O)(=O)[O-])cc5F)c5ccc([nH]5)c(-c5c(F)cc(S(=O)(=O)[O-])cc5F)c5nc(c(-c6c(F)cc(S(=O)(=O)[O-])cc6F)c6ccc3[nH]6)C=C5)C=C4)cc2)c1O
REMARK SMILES IDX 17 1 16 2 15 3 14 4 13 5 12 6 10 7 11 8 8 9 7 10 1 11 2 12
REMARK SMILES IDX 3 13 90 14 4 15 5 16 6 17 91 18 9 20 18 24 19 25 20 26 21 27
REMARK SMILES IDX 22 28 23 29 24 30 25 31 89 32 26 33 88 34 27 35 28 36 29 37
REMARK SMILES IDX 82 38 30 39 87 40 81 41 83 42 31 43 86 44 80 45 79 46 32 48
REMARK SMILES IDX 66 49 45 50 65 51 46 52 49 53 64 54 84 55 47 56 48 57 63 59
REMARK SMILES IDX 85 60 50 61 33 62 34 63 43 64 35 65 36 66 42 67 44 68 37 69
REMARK SMILES IDX 38 70 39 71 40 72 41 73 67 74 68 75 77 76 69 77 70 78 76 79
REMARK SMILES IDX 78 80 71 81 72 82 73 83 74 84 75 85 51 86 52 87 61 88 53 89
REMARK SMILES IDX 54 90 60 91 62 92 55 93 56 94 57 95 58 96 59 97
REMARK H PARENT 91 19 9 21 9 22 9 23 83 47 49 58
REMARK Flexibility Score: inf
ROOT
ATOM      1  C   UNL A   1      43.006  18.372  25.798  1.00  0.00     0.188 C 
ENDROOT
BRANCH   1   2
ATOM      2  C   UNL A   1      44.152  18.654  24.812  1.00  0.00     0.188 C 
BRANCH   2   3
ATOM      3  O   UNL A   1      45.457  18.312  25.226  1.00  0.00    -0.376 OA
BRANCH   3   4
ATOM      4  C   UNL A   1      46.463  19.312  25.321  1.00  0.00     0.202 C 
BRANCH   4   5
ATOM      5  C   UNL A   1      46.418  20.655  24.583  1.00  0.00     0.261 C 
BRANCH   5   6
ATOM      6  O   UNL A   1      46.130  21.795  25.397  1.00  0.00    -0.459 OA
BRANCH   6   7
ATOM      7  C   UNL A   1      45.281  22.720  24.847  1.00  0.00     0.369 C 
ATOM      8  O   UNL A   1      45.213  22.939  23.641  1.00  0.00    -0.245 OA
BRANCH   7   9
ATOM      9  C   UNL A   1      44.345  23.375  25.897  1.00  0.00     0.326 C 
BRANCH   9  10
ATOM     10  C   UNL A   1      44.812  24.730  26.425  1.00  0.00     0.064 A 
ATOM     11  C   UNL A   1      47.953  26.276  28.035  1.00  0.00     0.048 C 
ATOM     12  C   UNL A   1      46.580  26.098  27.456  1.00  0.00    -0.008 A 
ATOM     13  C   UNL A   1      45.814  27.247  27.215  1.00  0.00     0.022 A 
ATOM     14  C   UNL A   1      46.056  24.850  27.080  1.00  0.00     0.128 A 
ATOM     15  C   UNL A   1      44.549  27.143  26.646  1.00  0.00     0.014 A 
ATOM     16  I   UNL A   1      43.407  28.853  26.333  1.00  0.00    -0.044 I 
ATOM     17  C   UNL A   1      44.052  25.901  26.256  1.00  0.00     0.029 A 
BRANCH  14  18
ATOM     18  O   UNL A   1      46.752  23.697  27.343  1.00  0.00    -0.507 OA
ATOM     19  H   UNL A   1      47.664  23.643  27.135  1.00  0.00     0.293 HD
ENDBRANCH  14  18
ENDBRANCH   9  10
BRANCH   9  20
ATOM     20  N   UNL A   1      44.101  22.439  27.031  1.00  0.00    -0.342 N 
ATOM     21  H   UNL A   1      43.121  22.158  27.035  1.00  0.00     0.345 HD
ATOM     22  H   UNL A   1      44.323  22.906  27.910  1.00  0.00     0.345 HD
ATOM     23  H   UNL A   1      44.692  21.615  26.926  1.00  0.00     0.345 HD
ENDBRANCH   9  20
ENDBRANCH   7   9
ENDBRANCH   6   7
ENDBRANCH   5   6
ENDBRANCH   4   5
ENDBRANCH   3   4
ENDBRANCH   2   3
ENDBRANCH   1   2
BRANCH   1  24
ATOM     24  O   UNL A   1      42.511  19.370  26.672  1.00  0.00    -0.376 OA
BRANCH  24  25
ATOM     25  C   UNL A   1      41.179  19.843  26.507  1.00  0.00     0.202 C 
BRANCH  25  26
ATOM     26  C   UNL A   1      40.834  21.293  26.113  1.00  0.00     0.261 C 
BRANCH  26  27
ATOM     27  O   UNL A   1      40.011  22.023  27.024  1.00  0.00    -0.460 OA
BRANCH  27  28
ATOM     28  C   UNL A   1      39.192  22.945  26.456  1.00  0.00     0.338 C 
ATOM     29  O   UNL A   1      38.276  22.738  25.677  1.00  0.00    -0.246 OA
BRANCH  28  30
ATOM     30  C   UNL A   1      39.424  24.235  27.138  1.00  0.00     0.060 A 
ATOM     31  C   UNL A   1      38.844  24.510  28.377  1.00  0.00     0.016 A 
ATOM     32  C   UNL A   1      40.194  25.207  26.480  1.00  0.00     0.016 A 
ATOM     33  C   UNL A   1      39.063  25.753  28.971  1.00  0.00     0.010 A 
ATOM     34  C   UNL A   1      40.387  26.459  27.060  1.00  0.00     0.010 A 
ATOM     35  C   UNL A   1      39.850  26.727  28.325  1.00  0.00    -0.014 A 
BRANCH  35  36
ATOM     36  C   UNL A   1      40.304  27.914  29.084  1.00  0.00     0.031 A 
ATOM     37  C   UNL A   1      39.454  29.131  29.266  1.00  0.00     0.074 A 
ATOM     38  C   UNL A   1      41.536  27.851  29.625  1.00  0.00     0.049 A 
ATOM     39  N   UNL A   1      39.676  30.171  30.027  1.00  0.00    -0.248 NA
ATOM     40  C   UNL A   1      38.205  29.201  28.495  1.00  0.00     0.031 C 
ATOM     41  C   UNL A   1      42.462  26.728  29.461  1.00  0.00     0.029 A 
ATOM     42  N   UNL A   1      42.214  28.731  30.426  1.00  0.00    -0.354 N 
ATOM     43  C   UNL A   1      38.583  31.010  29.860  1.00  0.00     0.074 A 
ATOM     44  C   UNL A   1      37.721  30.379  28.878  1.00  0.00     0.031 C 
ATOM     45  C   UNL A   1      43.573  26.969  30.172  1.00  0.00     0.029 A 
ATOM     46  C   UNL A   1      43.442  28.265  30.829  1.00  0.00     0.049 A 
ATOM     47  H   UNL A   1      41.856  29.610  30.688  1.00  0.00     0.167 HD
ATOM     48  C   UNL A   1      38.322  32.183  30.485  1.00  0.00     0.037 A 
ATOM     49  C   UNL A   1      44.355  28.809  31.654  1.00  0.00     0.037 A 
ATOM     50  C   UNL A   1      39.207  32.805  31.443  1.00  0.00     0.049 A 
ATOM     51  C   UNL A   1      44.050  30.121  32.315  1.00  0.00     0.074 A 
ATOM     52  C   UNL A   1      39.010  33.971  32.164  1.00  0.00     0.029 A 
ATOM     53  N   UNL A   1      40.458  32.324  31.802  1.00  0.00    -0.354 N 
ATOM     54  N   UNL A   1      42.968  30.856  32.221  1.00  0.00    -0.248 NA
ATOM     55  C   UNL A   1      45.082  30.675  33.201  1.00  0.00     0.031 C 
ATOM     56  C   UNL A   1      40.160  34.221  32.919  1.00  0.00     0.029 A 
ATOM     57  C   UNL A   1      41.056  33.185  32.710  1.00  0.00     0.049 A 
ATOM     58  H   UNL A   1      40.863  31.495  31.461  1.00  0.00     0.167 HD
ATOM     59  C   UNL A   1      43.179  31.948  33.052  1.00  0.00     0.074 A 
ATOM     60  C   UNL A   1      44.487  31.772  33.650  1.00  0.00     0.031 C 
ATOM     61  C   UNL A   1      42.361  33.001  33.297  1.00  0.00     0.037 A 
BRANCH  48  62
ATOM     62  C   UNL A   1      37.019  32.874  30.186  1.00  0.00     0.058 A 
ATOM     63  C   UNL A   1      35.891  32.682  31.001  1.00  0.00     0.135 A 
ATOM     64  C   UNL A   1      36.920  33.814  29.147  1.00  0.00     0.135 A 
ATOM     65  F   UNL A   1      35.927  31.792  32.006  1.00  0.00    -0.206 F 
ATOM     66  C   UNL A   1      34.711  33.389  30.790  1.00  0.00     0.059 A 
ATOM     67  C   UNL A   1      35.757  34.549  28.933  1.00  0.00     0.059 A 
ATOM     68  F   UNL A   1      37.969  34.041  28.340  1.00  0.00    -0.206 F 
ATOM     69  C   UNL A   1      34.656  34.326  29.757  1.00  0.00     0.060 A 
BRANCH  69  70
ATOM     70  S   UNL A   1      33.126  35.257  29.526  1.00  0.00     0.124 S 
ATOM     71  O   UNL A   1      33.637  36.569  29.142  1.00  0.00    -0.237 OA
ATOM     72  O   UNL A   1      32.460  34.503  28.469  1.00  0.00    -0.237 OA
ATOM     73  O   UNL A   1      32.486  35.194  30.837  1.00  0.00    -0.744 OA
ENDBRANCH  69  70
ENDBRANCH  48  62
BRANCH  49  74
ATOM     74  C   UNL A   1      45.613  28.073  31.934  1.00  0.00     0.058 A 
ATOM     75  C   UNL A   1      45.650  27.058  32.901  1.00  0.00     0.135 A 
ATOM     76  C   UNL A   1      46.784  28.332  31.207  1.00  0.00     0.135 A 
ATOM     77  F   UNL A   1      44.552  26.773  33.618  1.00  0.00    -0.206 F 
ATOM     78  C   UNL A   1      46.810  26.333  33.146  1.00  0.00     0.059 A 
ATOM     79  C   UNL A   1      47.950  27.603  31.417  1.00  0.00     0.059 A 
ATOM     80  F   UNL A   1      46.789  29.277  30.254  1.00  0.00    -0.206 F 
ATOM     81  C   UNL A   1      47.954  26.610  32.395  1.00  0.00     0.060 A 
BRANCH  81  82
ATOM     82  S   UNL A   1      49.438  25.625  32.689  1.00  0.00     0.124 S 
ATOM     83  O   UNL A   1      48.989  24.727  33.747  1.00  0.00    -0.237 OA
ATOM     84  O   UNL A   1      49.662  25.014  31.383  1.00  0.00    -0.237 OA
ATOM     85  O   UNL A   1      50.429  26.621  33.086  1.00  0.00    -0.744 OA
ENDBRANCH  81  82
ENDBRANCH  49  74
BRANCH  61  86
ATOM     86  C   UNL A   1      42.847  34.050  34.259  1.00  0.00     0.058 A 
ATOM     87  C   UNL A   1      43.625  35.136  33.828  1.00  0.00     0.135 A 
ATOM     88  C   UNL A   1      42.467  34.011  35.611  1.00  0.00     0.135 A 
ATOM     89  F   UNL A   1      44.024  35.216  32.549  1.00  0.00    -0.206 F 
ATOM     90  C   UNL A   1      44.014  36.144  34.704  1.00  0.00     0.059 A 
ATOM     91  C   UNL A   1      42.825  35.020  36.499  1.00  0.00     0.059 A 
ATOM     92  F   UNL A   1      41.720  32.996  36.073  1.00  0.00    -0.206 F 
ATOM     93  C   UNL A   1      43.601  36.082  36.037  1.00  0.00     0.060 A 
BRANCH  93  94
ATOM     94  S   UNL A   1      44.063  37.430  37.146  1.00  0.00     0.124 S 
ATOM     95  O   UNL A   1      45.296  36.917  37.736  1.00  0.00    -0.237 OA
ATOM     96  O   UNL A   1      44.220  38.550  36.223  1.00  0.00    -0.237 OA
ATOM     97  O   UNL A   1      42.926  37.528  38.056  1.00  0.00    -0.744 OA
ENDBRANCH  93  94
ENDBRANCH  61  86
ENDBRANCH  35  36
ENDBRANCH  28  30
ENDBRANCH  27  28
ENDBRANCH  26  27
ENDBRANCH  25  26
ENDBRANCH  24  25
ENDBRANCH   1  24
TORSDOF 23
ENDMDL
MODEL 2
REMARK VINA RESULT:      -8.8      1.847      2.304
REMARK SMILES Cc1cc(I)cc([C@H]([NH3+])C(=O)OCCOCCOCCOC(=O)c2ccc(-c3c4nc(c(-c5c(F)cc(S(=O)(=O)[O-])cc5F)c5ccc([nH]5)c(-c5c(F)cc(S(=O)(=O)[O-])cc5F)c5nc(c(-c6c(F)cc(S(=O)(=O)[O-])cc6F)c6ccc3[nH]6)C=C5)C=C4)cc2)c1O
REMARK SMILES IDX 17 1 16 2 15 3 14 4 13 5 12 6 10 7 11 8 8 9 7 10 1 11 2 12
REMARK SMILES IDX 3 13 90 14 4 15 5 16 6 17 91 18 9 20 18 24 19 25 20 26 21 27
REMARK SMILES IDX 22 28 23 29 24 30 25 31 89 32 26 33 88 34 27 35 28 36 29 37
REMARK SMILES IDX 82 38 30 39 87 40 81 41 83 42 31 43 86 44 80 45 79 46 32 48
REMARK SMILES IDX 66 49 45 50 65 51 46 52 49 53 64 54 84 55 47 56 48 57 63 59
REMARK SMILES IDX 85 60 50 61 33 62 34 63 43 64 35 65 36 66 42 67 44 68 37 69
REMARK SMILES IDX 38 70 39 71 40 72 41 73 67 74 68 75 77 76 69 77 70 78 76 79
REMARK SMILES IDX 78 80 71 81 72 82 73 83 74 84 75 85 51 86 52 87 61 88 53 89
REMARK SMILES IDX 54 90 60 91 62 92 55 93 56 94 57 95 58 96 59 97
REMARK H PARENT 91 19 9 21 9 22 9 23 83 47 49 58
REMARK Flexibility Score: inf
ROOT
ATOM      1  C   UNL A   1      42.190  19.210  26.815  1.00  0.00     0.188 C 
ENDROOT
BRANCH   1   2
ATOM      2  C   UNL A   1      43.067  19.097  25.557  1.00  0.00     0.188 C 
BRANCH   2   3
ATOM      3  O   UNL A   1      44.269  18.366  25.674  1.00  0.00    -0.376 OA
BRANCH   3   4
ATOM      4  C   UNL A   1      45.435  18.791  24.980  1.00  0.00     0.202 C 
BRANCH   4   5
ATOM      5  C   UNL A   1      45.955  20.234  24.967  1.00  0.00     0.261 C 
BRANCH   5   6
ATOM      6  O   UNL A   1      44.988  21.233  24.631  1.00  0.00    -0.459 OA
BRANCH   6   7
ATOM      7  C   UNL A   1      45.462  22.517  24.546  1.00  0.00     0.369 C 
ATOM      8  O   UNL A   1      46.642  22.786  24.336  1.00  0.00    -0.245 OA
BRANCH   7   9
ATOM      9  C   UNL A   1      44.337  23.580  24.635  1.00  0.00     0.326 C 
BRANCH   9  10
ATOM     10  C   UNL A   1      44.375  24.461  25.882  1.00  0.00     0.064 A 
ATOM     11  C   UNL A   1      44.201  24.059  29.710  1.00  0.00     0.048 C 
ATOM     12  C   UNL A   1      44.308  24.651  28.336  1.00  0.00    -0.008 A 
ATOM     13  C   UNL A   1      44.658  26.005  28.227  1.00  0.00     0.022 A 
ATOM     14  C   UNL A   1      44.146  23.904  27.158  1.00  0.00     0.128 A 
ATOM     15  C   UNL A   1      44.807  26.595  26.977  1.00  0.00     0.014 A 
ATOM     16  I   UNL A   1      45.285  28.615  26.833  1.00  0.00    -0.044 I 
ATOM     17  C   UNL A   1      44.666  25.836  25.818  1.00  0.00     0.029 A 
BRANCH  14  18
ATOM     18  O   UNL A   1      43.757  22.589  27.218  1.00  0.00    -0.507 OA
ATOM     19  H   UNL A   1      44.308  21.955  27.634  1.00  0.00     0.293 HD
ENDBRANCH  14  18
ENDBRANCH   9  10
BRANCH   9  20
ATOM     20  N   UNL A   1      42.999  22.933  24.505  1.00  0.00    -0.342 N 
ATOM     21  H   UNL A   1      42.901  22.539  23.570  1.00  0.00     0.345 HD
ATOM     22  H   UNL A   1      42.270  23.630  24.658  1.00  0.00     0.345 HD
ATOM     23  H   UNL A   1      42.911  22.191  25.199  1.00  0.00     0.345 HD
ENDBRANCH   9  20
ENDBRANCH   7   9
ENDBRANCH   6   7
ENDBRANCH   5   6
ENDBRANCH   4   5
ENDBRANCH   3   4
ENDBRANCH   2   3
ENDBRANCH   1   2
BRANCH   1  24
ATOM     24  O   UNL A   1      42.002  20.443  27.485  1.00  0.00    -0.376 OA
BRANCH  24  25
ATOM     25  C   UNL A   1      40.733  21.083  27.427  1.00  0.00     0.202 C 
BRANCH  25  26
ATOM     26  C   UNL A   1      40.308  22.026  26.283  1.00  0.00     0.261 C 
BRANCH  26  27
ATOM     27  O   UNL A   1      40.740  23.383  26.383  1.00  0.00    -0.460 OA
BRANCH  27  28
ATOM     28  C   UNL A   1      39.750  24.312  26.349  1.00  0.00     0.338 C 
ATOM     29  O   UNL A   1      38.682  24.229  25.766  1.00  0.00    -0.246 OA
BRANCH  28  30
ATOM     30  C   UNL A   1      40.066  25.345  27.357  1.00  0.00     0.060 A 
ATOM     31  C   UNL A   1      41.056  26.300  27.124  1.00  0.00     0.016 A 
ATOM     32  C   UNL A   1      39.391  25.304  28.587  1.00  0.00     0.016 A 
ATOM     33  C   UNL A   1      41.345  27.238  28.116  1.00  0.00     0.010 A 
ATOM     34  C   UNL A   1      39.701  26.221  29.588  1.00  0.00     0.010 A 
ATOM     35  C   UNL A   1      40.658  27.215  29.346  1.00  0.00    -0.014 A 
BRANCH  35  36
ATOM     36  C   UNL A   1      40.770  28.372  30.261  1.00  0.00     0.031 A 
ATOM     37  C   UNL A   1      39.789  29.502  30.259  1.00  0.00     0.074 A 
ATOM     38  C   UNL A   1      41.806  28.366  31.121  1.00  0.00     0.049 A 
ATOM     39  N   UNL A   1      39.693  30.496  31.105  1.00  0.00    -0.248 NA
ATOM     40  C   UNL A   1      38.799  29.533  29.174  1.00  0.00     0.031 C 
ATOM     41  C   UNL A   1      42.845  27.334  31.166  1.00  0.00     0.029 A 
ATOM     42  N   UNL A   1      42.150  29.232  32.124  1.00  0.00    -0.354 N 
ATOM     43  C   UNL A   1      38.612  31.256  30.681  1.00  0.00     0.074 A 
ATOM     44  C   UNL A   1      38.117  30.637  29.466  1.00  0.00     0.031 C 
ATOM     45  C   UNL A   1      43.689  27.606  32.172  1.00  0.00     0.029 A 
ATOM     46  C   UNL A   1      43.259  28.834  32.830  1.00  0.00     0.049 A 
ATOM     47  H   UNL A   1      41.651  30.058  32.320  1.00  0.00     0.167 HD
ATOM     48  C   UNL A   1      38.078  32.355  31.268  1.00  0.00     0.037 A 
ATOM     49  C   UNL A   1      43.854  29.383  33.905  1.00  0.00     0.037 A 
ATOM     50  C   UNL A   1      38.602  32.969  32.465  1.00  0.00     0.049 A 
ATOM     51  C   UNL A   1      43.255  30.614  34.521  1.00  0.00     0.074 A 
ATOM     52  C   UNL A   1      38.104  34.058  33.161  1.00  0.00     0.029 A 
ATOM     53  N   UNL A   1      39.747  32.562  33.135  1.00  0.00    -0.354 N 
ATOM     54  N   UNL A   1      42.174  31.267  34.165  1.00  0.00    -0.248 NA
ATOM     55  C   UNL A   1      43.946  31.177  35.687  1.00  0.00     0.031 C 
ATOM     56  C   UNL A   1      38.973  34.340  34.219  1.00  0.00     0.029 A 
ATOM     57  C   UNL A   1      39.987  33.396  34.217  1.00  0.00     0.049 A 
ATOM     58  H   UNL A   1      40.308  31.795  32.879  1.00  0.00     0.167 HD
ATOM     59  C   UNL A   1      42.043  32.306  35.077  1.00  0.00     0.074 A 
ATOM     60  C   UNL A   1      43.148  32.188  36.007  1.00  0.00     0.031 C 
ATOM     61  C   UNL A   1      41.092  33.271  35.136  1.00  0.00     0.037 A 
BRANCH  48  62
ATOM     62  C   UNL A   1      36.847  32.963  30.651  1.00  0.00     0.058 A 
ATOM     63  C   UNL A   1      35.575  32.748  31.206  1.00  0.00     0.135 A 
ATOM     64  C   UNL A   1      36.943  33.850  29.566  1.00  0.00     0.135 A 
ATOM     65  F   UNL A   1      35.422  31.906  32.241  1.00  0.00    -0.206 F 
ATOM     66  C   UNL A   1      34.443  33.382  30.702  1.00  0.00     0.059 A 
ATOM     67  C   UNL A   1      35.828  34.513  29.061  1.00  0.00     0.059 A 
ATOM     68  F   UNL A   1      38.135  34.096  29.000  1.00  0.00    -0.206 F 
ATOM     69  C   UNL A   1      34.581  34.268  29.633  1.00  0.00     0.060 A 
BRANCH  69  70
ATOM     70  S   UNL A   1      33.104  35.107  29.019  1.00  0.00     0.124 S 
ATOM     71  O   UNL A   1      32.334  35.279  30.247  1.00  0.00    -0.237 OA
ATOM     72  O   UNL A   1      33.656  36.327  28.442  1.00  0.00    -0.237 OA
ATOM     73  O   UNL A   1      32.546  34.158  28.059  1.00  0.00    -0.744 OA
ENDBRANCH  69  70
ENDBRANCH  48  62
BRANCH  49  74
ATOM     74  C   UNL A   1      45.051  28.729  34.489  1.00  0.00     0.058 A 
ATOM     75  C   UNL A   1      44.919  27.712  35.445  1.00  0.00     0.135 A 
ATOM     76  C   UNL A   1      46.344  29.068  34.064  1.00  0.00     0.135 A 
ATOM     77  F   UNL A   1      43.701  27.351  35.877  1.00  0.00    -0.206 F 
ATOM     78  C   UNL A   1      46.029  27.062  35.970  1.00  0.00     0.059 A 
ATOM     79  C   UNL A   1      47.469  28.415  34.557  1.00  0.00     0.059 A 
ATOM     80  F   UNL A   1      46.519  30.019  33.133  1.00  0.00    -0.206 F 
ATOM     81  C   UNL A   1      47.301  27.418  35.516  1.00  0.00     0.060 A 
BRANCH  81  82
ATOM     82  S   UNL A   1      48.729  26.530  36.170  1.00  0.00     0.124 S 
ATOM     83  O   UNL A   1      48.690  26.907  37.578  1.00  0.00    -0.237 OA
ATOM     84  O   UNL A   1      48.389  25.142  35.871  1.00  0.00    -0.237 OA
ATOM     85  O   UNL A   1      49.844  27.075  35.402  1.00  0.00    -0.744 OA
ENDBRANCH  81  82
ENDBRANCH  49  74
BRANCH  61  86
ATOM     86  C   UNL A   1      41.192  34.278  36.248  1.00  0.00     0.058 A 
ATOM     87  C   UNL A   1      41.803  35.526  36.053  1.00  0.00     0.135 A 
ATOM     88  C   UNL A   1      40.604  34.023  37.498  1.00  0.00     0.135 A 
ATOM     89  F   UNL A   1      42.390  35.816  34.881  1.00  0.00    -0.206 F 
ATOM     90  C   UNL A   1      41.832  36.486  37.060  1.00  0.00     0.059 A 
ATOM     91  C   UNL A   1      40.600  34.977  38.511  1.00  0.00     0.059 A 
ATOM     92  F   UNL A   1      40.003  32.846  37.735  1.00  0.00    -0.206 F 
ATOM     93  C   UNL A   1      41.219  36.205  38.283  1.00  0.00     0.060 A 
BRANCH  93  94
ATOM     94  S   UNL A   1      41.213  37.485  39.557  1.00  0.00     0.124 S 
ATOM     95  O   UNL A   1      42.430  38.225  39.239  1.00  0.00    -0.237 OA
ATOM     96  O   UNL A   1      39.959  38.182  39.289  1.00  0.00    -0.237 OA
ATOM     97  O   UNL A   1      41.248  36.726  40.803  1.00  0.00    -0.744 OA
ENDBRANCH  93  94
ENDBRANCH  61  86
ENDBRANCH  35  36
ENDBRANCH  28  30
ENDBRANCH  27  28
ENDBRANCH  26  27
ENDBRANCH  25  26
ENDBRANCH  24  25
ENDBRANCH   1  24
TORSDOF 23
ENDMDL
MODEL 3
REMARK VINA RESULT:      -8.6      4.435     10.766
REMARK SMILES Cc1cc(I)cc([C@H]([NH3+])C(=O)OCCOCCOCCOC(=O)c2ccc(-c3c4nc(c(-c5c(F)cc(S(=O)(=O)[O-])cc5F)c5ccc([nH]5)c(-c5c(F)cc(S(=O)(=O)[O-])cc5F)c5nc(c(-c6c(F)cc(S(=O)(=O)[O-])cc6F)c6ccc3[nH]6)C=C5)C=C4)cc2)c1O
REMARK SMILES IDX 17 1 16 2 15 3 14 4 13 5 12 6 10 7 11 8 8 9 7 10 1 11 2 12
REMARK SMILES IDX 3 13 90 14 4 15 5 16 6 17 91 18 9 20 18 24 19 25 20 26 21 27
REMARK SMILES IDX 22 28 23 29 24 30 25 31 89 32 26 33 88 34 27 35 28 36 29 37
REMARK SMILES IDX 82 38 30 39 87 40 81 41 83 42 31 43 86 44 80 45 79 46 32 48
REMARK SMILES IDX 66 49 45 50 65 51 46 52 49 53 64 54 84 55 47 56 48 57 63 59
REMARK SMILES IDX 85 60 50 61 33 62 34 63 43 64 35 65 36 66 42 67 44 68 37 69
REMARK SMILES IDX 38 70 39 71 40 72 41 73 67 74 68 75 77 76 69 77 70 78 76 79
REMARK SMILES IDX 78 80 71 81 72 82 73 83 74 84 75 85 51 86 52 87 61 88 53 89
REMARK SMILES IDX 54 90 60 91 62 92 55 93 56 94 57 95 58 96 59 97
REMARK H PARENT 91 19 9 21 9 22 9 23 83 47 49 58
REMARK Flexibility Score: inf
ROOT
ATOM      1  C   UNL A   1      37.788  22.543  25.711  1.00  0.00     0.188 C 
ENDROOT
BRANCH   1   2
ATOM      2  C   UNL A   1      36.386  23.012  26.136  1.00  0.00     0.188 C 
BRANCH   2   3
ATOM      3  O   UNL A   1      35.417  23.145  25.120  1.00  0.00    -0.376 OA
BRANCH   3   4
ATOM      4  C   UNL A   1      34.418  22.148  24.949  1.00  0.00     0.202 C 
BRANCH   4   5
ATOM      5  C   UNL A   1      32.929  22.357  25.249  1.00  0.00     0.261 C 
BRANCH   5   6
ATOM      6  O   UNL A   1      32.555  23.690  25.606  1.00  0.00    -0.459 OA
BRANCH   6   7
ATOM      7  C   UNL A   1      31.500  23.801  26.475  1.00  0.00     0.369 C 
ATOM      8  O   UNL A   1      31.530  23.376  27.627  1.00  0.00    -0.245 OA
BRANCH   7   9
ATOM      9  C   UNL A   1      30.317  24.611  25.884  1.00  0.00     0.326 C 
BRANCH   9  10
ATOM     10  C   UNL A   1      30.670  26.020  25.410  1.00  0.00     0.064 A 
ATOM     11  C   UNL A   1      29.286  28.685  22.996  1.00  0.00     0.048 C 
ATOM     12  C   UNL A   1      30.136  27.968  24.003  1.00  0.00    -0.008 A 
ATOM     13  C   UNL A   1      31.139  28.699  24.658  1.00  0.00     0.022 A 
ATOM     14  C   UNL A   1      29.934  26.628  24.372  1.00  0.00     0.128 A 
ATOM     15  C   UNL A   1      31.932  28.094  25.626  1.00  0.00     0.014 A 
ATOM     16  I   UNL A   1      33.441  29.180  26.559  1.00  0.00    -0.044 I 
ATOM     17  C   UNL A   1      31.703  26.771  25.999  1.00  0.00     0.029 A 
BRANCH  14  18
ATOM     18  O   UNL A   1      28.997  25.864  23.722  1.00  0.00    -0.507 OA
ATOM     19  H   UNL A   1      28.416  25.317  24.214  1.00  0.00     0.293 HD
ENDBRANCH  14  18
ENDBRANCH   9  10
BRANCH   9  20
ATOM     20  N   UNL A   1      29.187  24.664  26.856  1.00  0.00    -0.342 N 
ATOM     21  H   UNL A   1      29.288  25.486  27.450  1.00  0.00     0.345 HD
ATOM     22  H   UNL A   1      29.197  23.823  27.434  1.00  0.00     0.345 HD
ATOM     23  H   UNL A   1      28.305  24.716  26.347  1.00  0.00     0.345 HD
ENDBRANCH   9  20
ENDBRANCH   7   9
ENDBRANCH   6   7
ENDBRANCH   5   6
ENDBRANCH   4   5
ENDBRANCH   3   4
ENDBRANCH   2   3
ENDBRANCH   1   2
BRANCH   1  24
ATOM     24  O   UNL A   1      38.956  22.988  26.376  1.00  0.00    -0.376 OA
BRANCH  24  25
ATOM     25  C   UNL A   1      40.094  22.135  26.434  1.00  0.00     0.202 C 
BRANCH  25  26
ATOM     26  C   UNL A   1      41.533  22.616  26.155  1.00  0.00     0.261 C 
BRANCH  26  27
ATOM     27  O   UNL A   1      42.057  23.604  27.043  1.00  0.00    -0.460 OA
BRANCH  27  28
ATOM     28  C   UNL A   1      42.144  24.858  26.529  1.00  0.00     0.338 C 
ATOM     29  O   UNL A   1      42.300  25.167  25.359  1.00  0.00    -0.246 OA
BRANCH  28  30
ATOM     30  C   UNL A   1      41.755  25.808  27.592  1.00  0.00     0.060 A 
ATOM     31  C   UNL A   1      40.582  25.629  28.326  1.00  0.00     0.016 A 
ATOM     32  C   UNL A   1      42.564  26.935  27.805  1.00  0.00     0.016 A 
ATOM     33  C   UNL A   1      40.237  26.568  29.299  1.00  0.00     0.010 A 
ATOM     34  C   UNL A   1      42.204  27.888  28.756  1.00  0.00     0.010 A 
ATOM     35  C   UNL A   1      41.054  27.692  29.532  1.00  0.00    -0.014 A 
BRANCH  35  36
ATOM     36  C   UNL A   1      40.831  28.513  30.742  1.00  0.00     0.031 A 
ATOM     37  C   UNL A   1      41.673  28.385  31.972  1.00  0.00     0.074 A 
ATOM     38  C   UNL A   1      39.824  29.406  30.691  1.00  0.00     0.049 A 
ATOM     39  N   UNL A   1      41.674  29.143  33.039  1.00  0.00    -0.248 NA
ATOM     40  C   UNL A   1      42.626  27.267  32.023  1.00  0.00     0.031 C 
ATOM     41  C   UNL A   1      38.914  29.572  29.555  1.00  0.00     0.029 A 
ATOM     42  N   UNL A   1      39.407  30.346  31.595  1.00  0.00    -0.354 N 
ATOM     43  C   UNL A   1      42.648  28.620  33.878  1.00  0.00     0.074 A 
ATOM     44  C   UNL A   1      43.181  27.444  33.218  1.00  0.00     0.031 C 
ATOM     45  C   UNL A   1      38.069  30.580  29.814  1.00  0.00     0.029 A 
ATOM     46  C   UNL A   1      38.370  31.121  31.135  1.00  0.00     0.049 A 
ATOM     47  H   UNL A   1      39.811  30.457  32.486  1.00  0.00     0.167 HD
ATOM     48  C   UNL A   1      43.065  29.097  35.077  1.00  0.00     0.037 A 
ATOM     49  C   UNL A   1      37.741  32.167  31.703  1.00  0.00     0.037 A 
ATOM     50  C   UNL A   1      42.503  30.257  35.727  1.00  0.00     0.049 A 
ATOM     51  C   UNL A   1      38.208  32.658  33.042  1.00  0.00     0.074 A 
ATOM     52  C   UNL A   1      42.888  30.843  36.921  1.00  0.00     0.029 A 
ATOM     53  N   UNL A   1      41.431  30.997  35.251  1.00  0.00    -0.354 N 
ATOM     54  N   UNL A   1      39.197  32.213  33.781  1.00  0.00    -0.248 NA
ATOM     55  C   UNL A   1      37.486  33.798  33.621  1.00  0.00     0.031 C 
ATOM     56  C   UNL A   1      42.020  31.905  37.191  1.00  0.00     0.029 A 
ATOM     57  C   UNL A   1      41.122  32.015  36.142  1.00  0.00     0.049 A 
ATOM     58  H   UNL A   1      40.957  30.825  34.406  1.00  0.00     0.167 HD
ATOM     59  C   UNL A   1      39.229  33.032  34.902  1.00  0.00     0.074 A 
ATOM     60  C   UNL A   1      38.169  34.006  34.739  1.00  0.00     0.031 C 
ATOM     61  C   UNL A   1      40.062  32.979  35.970  1.00  0.00     0.037 A 
BRANCH  48  62
ATOM     62  C   UNL A   1      44.202  28.390  35.766  1.00  0.00     0.058 A 
ATOM     63  C   UNL A   1      45.534  28.782  35.557  1.00  0.00     0.135 A 
ATOM     64  C   UNL A   1      43.959  27.388  36.720  1.00  0.00     0.135 A 
ATOM     65  F   UNL A   1      45.826  29.731  34.653  1.00  0.00    -0.206 F 
ATOM     66  C   UNL A   1      46.584  28.200  36.261  1.00  0.00     0.059 A 
ATOM     67  C   UNL A   1      44.991  26.809  37.453  1.00  0.00     0.059 A 
ATOM     68  F   UNL A   1      42.704  26.978  36.964  1.00  0.00    -0.206 F 
ATOM     69  C   UNL A   1      46.302  27.218  37.212  1.00  0.00     0.060 A 
BRANCH  69  70
ATOM     70  S   UNL A   1      47.677  26.504  38.139  1.00  0.00     0.124 S 
ATOM     71  O   UNL A   1      48.671  27.569  38.055  1.00  0.00    -0.237 OA
ATOM     72  O   UNL A   1      47.086  26.291  39.456  1.00  0.00    -0.237 OA
ATOM     73  O   UNL A   1      47.997  25.289  37.394  1.00  0.00    -0.744 OA
ENDBRANCH  69  70
ENDBRANCH  48  62
BRANCH  49  74
ATOM     74  C   UNL A   1      36.644  32.843  30.969  1.00  0.00     0.058 A 
ATOM     75  C   UNL A   1      35.309  32.690  31.372  1.00  0.00     0.135 A 
ATOM     76  C   UNL A   1      36.910  33.695  29.887  1.00  0.00     0.135 A 
ATOM     77  F   UNL A   1      35.008  31.888  32.405  1.00  0.00    -0.206 F 
ATOM     78  C   UNL A   1      34.274  33.350  30.720  1.00  0.00     0.059 A 
ATOM     79  C   UNL A   1      35.894  34.385  29.234  1.00  0.00     0.059 A 
ATOM     80  F   UNL A   1      38.174  33.892  29.481  1.00  0.00    -0.206 F 
ATOM     81  C   UNL A   1      34.577  34.198  29.654  1.00  0.00     0.060 A 
BRANCH  81  82
ATOM     82  S   UNL A   1      33.228  35.087  28.849  1.00  0.00     0.124 S 
ATOM     83  O   UNL A   1      32.306  35.288  29.960  1.00  0.00    -0.237 OA
ATOM     84  O   UNL A   1      33.903  36.283  28.353  1.00  0.00    -0.237 OA
ATOM     85  O   UNL A   1      32.780  34.156  27.818  1.00  0.00    -0.744 OA
ENDBRANCH  81  82
ENDBRANCH  49  74
BRANCH  61  86
ATOM     86  C   UNL A   1      39.874  34.007  37.051  1.00  0.00     0.058 A 
ATOM     87  C   UNL A   1      39.053  33.761  38.162  1.00  0.00     0.135 A 
ATOM     88  C   UNL A   1      40.580  35.221  37.014  1.00  0.00     0.135 A 
ATOM     89  F   UNL A   1      38.348  32.621  38.242  1.00  0.00    -0.206 F 
ATOM     90  C   UNL A   1      38.935  34.683  39.197  1.00  0.00     0.059 A 
ATOM     91  C   UNL A   1      40.495  36.147  38.048  1.00  0.00     0.059 A 
ATOM     92  F   UNL A   1      41.381  35.505  35.974  1.00  0.00    -0.206 F 
ATOM     93  C   UNL A   1      39.667  35.870  39.135  1.00  0.00     0.060 A 
BRANCH  93  94
ATOM     94  S   UNL A   1      39.550  37.028  40.516  1.00  0.00     0.124 S 
ATOM     95  O   UNL A   1      39.093  38.241  39.846  1.00  0.00    -0.237 OA
ATOM     96  O   UNL A   1      38.572  36.377  41.383  1.00  0.00    -0.237 OA
ATOM     97  O   UNL A   1      40.911  37.074  41.039  1.00  0.00    -0.744 OA
ENDBRANCH  93  94
ENDBRANCH  61  86
ENDBRANCH  35  36
ENDBRANCH  28  30
ENDBRANCH  27  28
ENDBRANCH  26  27
ENDBRANCH  25  26
ENDBRANCH  24  25
ENDBRANCH   1  24
TORSDOF 23
ENDMDL
