MODEL 1
REMARK VINA RESULT:     -10.1      0.000      0.000
REMARK SMILES CCCCN(c1ccccc1C(=O)OCCOCCOCCOC(=O)c1ccc(-c2c3nc(c(-c4c(F)cc(S(=O)(=O)[O-])cc4F)c4ccc([nH]4)c(-c4c(F)cc(S(=O)(=O)[O-])cc4F)c4nc(c(-c5c(F)cc(S(=O)(=O)[O-])cc5F)c5ccc2[nH]5)C=C4)C=C3)cc1)S(=O)(=O)c1ccc2c(c1)oc(=O)n2C
REMARK SMILES IDX 18 1 17 2 16 3 15 4 14 5 12 6 13 7 11 8 6 9 7 10 8 11 10 12
REMARK SMILES IDX 9 13 5 14 4 15 3 16 2 17 1 18 92 19 93 20 94 21 95 22 96 23
REMARK SMILES IDX 100 24 97 25 99 26 98 27 101 28 104 29 102 30 105 31 103 32
REMARK SMILES IDX 19 33 20 34 21 35 22 36 23 37 24 38 25 39 26 40 27 41 91 42
REMARK SMILES IDX 28 43 90 44 29 45 30 46 31 47 84 48 32 49 89 50 83 51 85 52
REMARK SMILES IDX 33 53 88 54 82 55 81 56 34 58 68 59 47 60 67 61 48 62 51 63
REMARK SMILES IDX 66 64 86 65 49 66 50 67 65 69 87 70 52 71 35 72 36 73 45 74
REMARK SMILES IDX 37 75 38 76 44 77 46 78 39 79 40 80 41 81 42 82 43 83 69 84
REMARK SMILES IDX 70 85 79 86 71 87 72 88 78 89 80 90 73 91 74 92 75 93 76 94
REMARK SMILES IDX 77 95 53 96 54 97 63 98 55 99 56 100 62 101 64 102 57 103
REMARK SMILES IDX 58 104 59 105 60 106 61 107
REMARK H PARENT 85 57 51 68
REMARK Flexibility Score: inf
ROOT
ATOM      1  C   UNL A   1      39.475  23.419  26.644  1.00  0.00     0.188 C 
ENDROOT
BRANCH   1   2
ATOM      2  O   UNL A   1      38.191  23.967  26.376  1.00  0.00    -0.376 OA
BRANCH   2   3
ATOM      3  C   UNL A   1      37.183  23.114  25.837  1.00  0.00     0.202 C 
BRANCH   3   4
ATOM      4  C   UNL A   1      36.162  23.700  24.851  1.00  0.00     0.261 C 
BRANCH   4   5
ATOM      5  O   UNL A   1      35.256  24.640  25.462  1.00  0.00    -0.460 OA
BRANCH   5   6
ATOM      6  C   UNL A   1      34.322  25.193  24.659  1.00  0.00     0.340 C 
ATOM      7  O   UNL A   1      34.090  24.874  23.503  1.00  0.00    -0.246 OA
BRANCH   6   8
ATOM      8  C   UNL A   1      33.481  26.185  25.377  1.00  0.00     0.084 A 
ATOM      9  C   UNL A   1      32.192  25.985  25.928  1.00  0.00     0.066 A 
ATOM     10  C   UNL A   1      31.733  26.977  26.820  1.00  0.00     0.028 A 
ATOM     11  C   UNL A   1      32.400  28.197  26.994  1.00  0.00     0.002 A 
ATOM     12  C   UNL A   1      34.153  27.415  25.570  1.00  0.00     0.018 A 
ATOM     13  C   UNL A   1      33.596  28.432  26.336  1.00  0.00     0.001 A 
BRANCH   9  14
ATOM     14  N   UNL A   1      31.293  24.852  25.695  1.00  0.00    -0.265 N 
BRANCH  14  15
ATOM     15  C   UNL A   1      29.964  25.089  25.057  1.00  0.00     0.136 C 
BRANCH  15  16
ATOM     16  C   UNL A   1      29.973  25.753  23.682  1.00  0.00     0.022 C 
BRANCH  16  17
ATOM     17  C   UNL A   1      29.831  27.274  23.606  1.00  0.00    -0.002 C 
ATOM     18  C   UNL A   1      30.979  28.013  22.934  1.00  0.00     0.004 C 
ENDBRANCH  16  17
ENDBRANCH  15  16
ENDBRANCH  14  15
BRANCH  14  19
ATOM     19  S   UNL A   1      31.371  23.433  26.690  1.00  0.00     0.264 S 
ATOM     20  O   UNL A   1      32.171  23.721  27.862  1.00  0.00    -0.201 OA
ATOM     21  O   UNL A   1      29.998  22.982  26.839  1.00  0.00    -0.201 OA
BRANCH  19  22
ATOM     22  C   UNL A   1      32.219  22.100  25.863  1.00  0.00     0.091 A 
ATOM     23  C   UNL A   1      33.320  21.472  26.495  1.00  0.00     0.025 A 
ATOM     24  C   UNL A   1      31.785  21.686  24.603  1.00  0.00     0.071 A 
ATOM     25  C   UNL A   1      33.924  20.348  25.922  1.00  0.00     0.032 A 
ATOM     26  C   UNL A   1      32.357  20.543  24.093  1.00  0.00     0.157 A 
ATOM     27  C   UNL A   1      33.385  19.885  24.742  1.00  0.00     0.090 A 
ATOM     28  O   UNL A   1      31.928  19.882  22.954  1.00  0.00    -0.408 OA
ATOM     29  N   UNL A   1      33.633  18.757  23.998  1.00  0.00    -0.277 N 
ATOM     30  C   UNL A   1      32.727  18.732  22.957  1.00  0.00     0.419 A 
ATOM     31  C   UNL A   1      34.555  17.703  24.305  1.00  0.00     0.157 C 
ATOM     32  O   UNL A   1      32.587  17.821  22.146  1.00  0.00    -0.223 OA
ENDBRANCH  19  22
ENDBRANCH  14  19
ENDBRANCH   9  14
ENDBRANCH   6   8
ENDBRANCH   5   6
ENDBRANCH   4   5
ENDBRANCH   3   4
ENDBRANCH   2   3
ENDBRANCH   1   2
BRANCH   1  33
ATOM     33  C   UNL A   1      39.669  21.898  26.489  1.00  0.00     0.188 C 
BRANCH  33  34
ATOM     34  O   UNL A   1      40.993  21.455  26.670  1.00  0.00    -0.376 OA
BRANCH  34  35
ATOM     35  C   UNL A   1      41.228  20.093  26.989  1.00  0.00     0.202 C 
BRANCH  35  36
ATOM     36  C   UNL A   1      42.200  19.186  26.203  1.00  0.00     0.261 C 
BRANCH  36  37
ATOM     37  O   UNL A   1      42.737  19.671  24.968  1.00  0.00    -0.460 OA
BRANCH  37  38
ATOM     38  C   UNL A   1      44.085  19.676  24.833  1.00  0.00     0.338 C 
ATOM     39  O   UNL A   1      44.781  18.767  24.424  1.00  0.00    -0.246 OA
BRANCH  38  40
ATOM     40  C   UNL A   1      44.538  21.070  25.052  1.00  0.00     0.060 A 
ATOM     41  C   UNL A   1      45.062  21.436  26.303  1.00  0.00     0.016 A 
ATOM     42  C   UNL A   1      44.483  21.996  24.011  1.00  0.00     0.016 A 
ATOM     43  C   UNL A   1      45.515  22.741  26.518  1.00  0.00     0.010 A 
ATOM     44  C   UNL A   1      44.907  23.307  24.237  1.00  0.00     0.010 A 
ATOM     45  C   UNL A   1      45.398  23.693  25.498  1.00  0.00    -0.014 A 
BRANCH  45  46
ATOM     46  C   UNL A   1      45.551  25.140  25.789  1.00  0.00     0.031 A 
ATOM     47  C   UNL A   1      46.933  25.727  25.685  1.00  0.00     0.074 A 
ATOM     48  C   UNL A   1      44.516  25.904  26.180  1.00  0.00     0.049 A 
ATOM     49  N   UNL A   1      47.369  26.901  26.055  1.00  0.00    -0.248 NA
ATOM     50  C   UNL A   1      47.965  24.855  25.098  1.00  0.00     0.031 C 
ATOM     51  C   UNL A   1      43.125  25.466  26.271  1.00  0.00     0.029 A 
ATOM     52  N   UNL A   1      44.487  27.210  26.604  1.00  0.00    -0.354 N 
ATOM     53  C   UNL A   1      48.729  26.902  25.767  1.00  0.00     0.074 A 
ATOM     54  C   UNL A   1      49.050  25.606  25.214  1.00  0.00     0.031 C 
ATOM     55  C   UNL A   1      42.381  26.480  26.751  1.00  0.00     0.029 A 
ATOM     56  C   UNL A   1      43.250  27.621  27.043  1.00  0.00     0.049 A 
ATOM     57  H   UNL A   1      45.277  27.797  26.595  1.00  0.00     0.167 HD
ATOM     58  C   UNL A   1      49.629  27.897  25.946  1.00  0.00     0.037 A 
ATOM     59  C   UNL A   1      42.875  28.769  27.646  1.00  0.00     0.037 A 
ATOM     60  C   UNL A   1      49.300  29.184  26.500  1.00  0.00     0.049 A 
ATOM     61  C   UNL A   1      43.908  29.839  27.906  1.00  0.00     0.074 A 
ATOM     62  C   UNL A   1      50.135  30.265  26.715  1.00  0.00     0.029 A 
ATOM     63  N   UNL A   1      48.036  29.559  26.932  1.00  0.00    -0.354 N 
ATOM     64  N   UNL A   1      45.191  29.835  27.625  1.00  0.00    -0.248 NA
ATOM     65  C   UNL A   1      43.446  31.069  28.563  1.00  0.00     0.031 C 
ATOM     66  C   UNL A   1      49.389  31.275  27.330  1.00  0.00     0.029 A 
ATOM     67  C   UNL A   1      48.073  30.849  27.433  1.00  0.00     0.049 A 
ATOM     68  H   UNL A   1      47.233  28.993  26.889  1.00  0.00     0.167 HD
ATOM     69  C   UNL A   1      45.676  31.076  28.032  1.00  0.00     0.074 A 
ATOM     70  C   UNL A   1      44.551  31.803  28.580  1.00  0.00     0.031 C 
ATOM     71  C   UNL A   1      46.938  31.571  27.951  1.00  0.00     0.037 A 
BRANCH  58  72
ATOM     72  C   UNL A   1      51.060  27.618  25.575  1.00  0.00     0.058 A 
ATOM     73  C   UNL A   1      51.981  27.103  26.502  1.00  0.00     0.135 A 
ATOM     74  C   UNL A   1      51.510  27.848  24.264  1.00  0.00     0.135 A 
ATOM     75  F   UNL A   1      51.611  26.885  27.774  1.00  0.00    -0.206 F 
ATOM     76  C   UNL A   1      53.302  26.851  26.150  1.00  0.00     0.059 A 
ATOM     77  C   UNL A   1      52.819  27.571  23.882  1.00  0.00     0.059 A 
ATOM     78  F   UNL A   1      50.674  28.344  23.340  1.00  0.00    -0.206 F 
ATOM     79  C   UNL A   1      53.711  27.086  24.836  1.00  0.00     0.060 A 
BRANCH  79  80
ATOM     80  S   UNL A   1      55.426  26.741  24.393  1.00  0.00     0.124 S 
ATOM     81  O   UNL A   1      55.598  25.389  24.915  1.00  0.00    -0.237 OA
ATOM     82  O   UNL A   1      55.403  26.861  22.939  1.00  0.00    -0.237 OA
ATOM     83  O   UNL A   1      56.175  27.781  25.092  1.00  0.00    -0.744 OA
ENDBRANCH  79  80
ENDBRANCH  58  72
BRANCH  59  84
ATOM     84  C   UNL A   1      41.459  28.967  28.066  1.00  0.00     0.058 A 
ATOM     85  C   UNL A   1      40.454  29.226  27.121  1.00  0.00     0.135 A 
ATOM     86  C   UNL A   1      41.083  28.913  29.417  1.00  0.00     0.135 A 
ATOM     87  F   UNL A   1      40.762  29.303  25.818  1.00  0.00    -0.206 F 
ATOM     88  C   UNL A   1      39.133  29.441  27.501  1.00  0.00     0.059 A 
ATOM     89  C   UNL A   1      39.763  29.095  29.819  1.00  0.00     0.059 A 
ATOM     90  F   UNL A   1      42.003  28.664  30.362  1.00  0.00    -0.206 F 
ATOM     91  C   UNL A   1      38.795  29.368  28.853  1.00  0.00     0.060 A 
BRANCH  91  92
ATOM     92  S   UNL A   1      37.069  29.600  29.327  1.00  0.00     0.124 S 
ATOM     93  O   UNL A   1      36.370  28.986  28.205  1.00  0.00    -0.237 OA
ATOM     94  O   UNL A   1      37.001  28.879  30.595  1.00  0.00    -0.237 OA
ATOM     95  O   UNL A   1      36.940  31.051  29.431  1.00  0.00    -0.744 OA
ENDBRANCH  91  92
ENDBRANCH  59  84
BRANCH  71  96
ATOM     96  C   UNL A   1      47.169  32.992  28.394  1.00  0.00     0.058 A 
ATOM     97  C   UNL A   1      47.586  33.313  29.695  1.00  0.00     0.135 A 
ATOM     98  C   UNL A   1      47.053  34.043  27.467  1.00  0.00     0.135 A 
ATOM     99  F   UNL A   1      47.709  32.350  30.622  1.00  0.00    -0.206 F 
ATOM    100  C   UNL A   1      47.864  34.625  30.066  1.00  0.00     0.059 A 
ATOM    101  C   UNL A   1      47.355  35.357  27.808  1.00  0.00     0.059 A 
ATOM    102  F   UNL A   1      46.669  33.792  26.205  1.00  0.00    -0.206 F 
ATOM    103  C   UNL A   1      47.753  35.640  29.113  1.00  0.00     0.060 A 
BRANCH 103 104
ATOM    104  S   UNL A   1      48.167  37.331  29.593  1.00  0.00     0.124 S 
ATOM    105  O   UNL A   1      46.844  37.926  29.748  1.00  0.00    -0.237 OA
ATOM    106  O   UNL A   1      48.919  37.128  30.828  1.00  0.00    -0.237 OA
ATOM    107  O   UNL A   1      48.949  37.825  28.464  1.00  0.00    -0.744 OA
ENDBRANCH 103 104
ENDBRANCH  71  96
ENDBRANCH  45  46
ENDBRANCH  38  40
ENDBRANCH  37  38
ENDBRANCH  36  37
ENDBRANCH  35  36
ENDBRANCH  34  35
ENDBRANCH  33  34
ENDBRANCH   1  33
TORSDOF 26
ENDMDL
MODEL 2
REMARK VINA RESULT:     -10.0      1.512      8.686
REMARK SMILES CCCCN(c1ccccc1C(=O)OCCOCCOCCOC(=O)c1ccc(-c2c3nc(c(-c4c(F)cc(S(=O)(=O)[O-])cc4F)c4ccc([nH]4)c(-c4c(F)cc(S(=O)(=O)[O-])cc4F)c4nc(c(-c5c(F)cc(S(=O)(=O)[O-])cc5F)c5ccc2[nH]5)C=C4)C=C3)cc1)S(=O)(=O)c1ccc2c(c1)oc(=O)n2C
REMARK SMILES IDX 18 1 17 2 16 3 15 4 14 5 12 6 13 7 11 8 6 9 7 10 8 11 10 12
REMARK SMILES IDX 9 13 5 14 4 15 3 16 2 17 1 18 92 19 93 20 94 21 95 22 96 23
REMARK SMILES IDX 100 24 97 25 99 26 98 27 101 28 104 29 102 30 105 31 103 32
REMARK SMILES IDX 19 33 20 34 21 35 22 36 23 37 24 38 25 39 26 40 27 41 91 42
REMARK SMILES IDX 28 43 90 44 29 45 30 46 31 47 84 48 32 49 89 50 83 51 85 52
REMARK SMILES IDX 33 53 88 54 82 55 81 56 34 58 68 59 47 60 67 61 48 62 51 63
REMARK SMILES IDX 66 64 86 65 49 66 50 67 65 69 87 70 52 71 35 72 36 73 45 74
REMARK SMILES IDX 37 75 38 76 44 77 46 78 39 79 40 80 41 81 42 82 43 83 69 84
REMARK SMILES IDX 70 85 79 86 71 87 72 88 78 89 80 90 73 91 74 92 75 93 76 94
REMARK SMILES IDX 77 95 53 96 54 97 63 98 55 99 56 100 62 101 64 102 57 103
REMARK SMILES IDX 58 104 59 105 60 106 61 107
REMARK H PARENT 85 57 51 68
REMARK Flexibility Score: inf
ROOT
ATOM      1  C   UNL A   1      40.891  22.061  26.460  1.00  0.00     0.188 C 
ENDROOT
BRANCH   1   2
ATOM      2  O   UNL A   1      39.496  22.041  26.737  1.00  0.00    -0.376 OA
BRANCH   2   3
ATOM      3  C   UNL A   1      38.610  21.526  25.747  1.00  0.00     0.202 C 
BRANCH   3   4
ATOM      4  C   UNL A   1      37.238  22.189  25.557  1.00  0.00     0.261 C 
BRANCH   4   5
ATOM      5  O   UNL A   1      36.242  21.294  25.023  1.00  0.00    -0.460 OA
BRANCH   5   6
ATOM      6  C   UNL A   1      35.024  21.324  25.604  1.00  0.00     0.340 C 
ATOM      7  O   UNL A   1      34.734  21.919  26.631  1.00  0.00    -0.246 OA
BRANCH   6   8
ATOM      8  C   UNL A   1      33.993  20.642  24.782  1.00  0.00     0.084 A 
ATOM      9  C   UNL A   1      33.029  21.241  23.934  1.00  0.00     0.066 A 
ATOM     10  C   UNL A   1      32.370  20.381  23.032  1.00  0.00     0.028 A 
ATOM     11  C   UNL A   1      32.487  18.986  23.101  1.00  0.00     0.002 A 
ATOM     12  C   UNL A   1      34.115  19.233  24.835  1.00  0.00     0.018 A 
ATOM     13  C   UNL A   1      33.334  18.409  24.032  1.00  0.00     0.001 A 
BRANCH   9  14
ATOM     14  N   UNL A   1      32.658  22.657  23.874  1.00  0.00    -0.265 N 
BRANCH  14  15
ATOM     15  C   UNL A   1      31.239  23.055  24.117  1.00  0.00     0.136 C 
BRANCH  15  16
ATOM     16  C   UNL A   1      30.844  23.339  25.564  1.00  0.00     0.022 C 
BRANCH  16  17
ATOM     17  C   UNL A   1      31.202  24.700  26.164  1.00  0.00    -0.002 C 
ATOM     18  C   UNL A   1      30.125  25.770  26.064  1.00  0.00     0.004 C 
ENDBRANCH  16  17
ENDBRANCH  15  16
ENDBRANCH  14  15
BRANCH  14  19
ATOM     19  S   UNL A   1      33.564  23.775  22.906  1.00  0.00     0.264 S 
ATOM     20  O   UNL A   1      34.905  23.883  23.440  1.00  0.00    -0.201 OA
ATOM     21  O   UNL A   1      33.358  23.360  21.530  1.00  0.00    -0.201 OA
BRANCH  19  22
ATOM     22  C   UNL A   1      32.889  25.424  23.008  1.00  0.00     0.091 A 
ATOM     23  C   UNL A   1      31.799  25.786  22.179  1.00  0.00     0.025 A 
ATOM     24  C   UNL A   1      33.439  26.337  23.908  1.00  0.00     0.071 A 
ATOM     25  C   UNL A   1      31.176  27.030  22.325  1.00  0.00     0.032 A 
ATOM     26  C   UNL A   1      32.769  27.528  24.072  1.00  0.00     0.157 A 
ATOM     27  C   UNL A   1      31.661  27.857  23.314  1.00  0.00     0.090 A 
ATOM     28  O   UNL A   1      33.056  28.471  25.046  1.00  0.00    -0.408 OA
ATOM     29  N   UNL A   1      31.212  29.056  23.812  1.00  0.00    -0.277 N 
ATOM     30  C   UNL A   1      32.017  29.397  24.880  1.00  0.00     0.419 A 
ATOM     31  C   UNL A   1      30.035  29.772  23.415  1.00  0.00     0.157 C 
ATOM     32  O   UNL A   1      31.853  30.355  25.628  1.00  0.00    -0.223 OA
ENDBRANCH  19  22
ENDBRANCH  14  19
ENDBRANCH   9  14
ENDBRANCH   6   8
ENDBRANCH   5   6
ENDBRANCH   4   5
ENDBRANCH   3   4
ENDBRANCH   2   3
ENDBRANCH   1   2
BRANCH   1  33
ATOM     33  C   UNL A   1      41.775  20.959  27.075  1.00  0.00     0.188 C 
BRANCH  33  34
ATOM     34  O   UNL A   1      41.507  19.661  26.601  1.00  0.00    -0.376 OA
BRANCH  34  35
ATOM     35  C   UNL A   1      42.548  18.698  26.600  1.00  0.00     0.202 C 
BRANCH  35  36
ATOM     36  C   UNL A   1      43.580  18.555  25.460  1.00  0.00     0.261 C 
BRANCH  36  37
ATOM     37  O   UNL A   1      43.755  19.653  24.558  1.00  0.00    -0.460 OA
BRANCH  37  38
ATOM     38  C   UNL A   1      45.023  20.073  24.326  1.00  0.00     0.338 C 
ATOM     39  O   UNL A   1      45.860  19.522  23.637  1.00  0.00    -0.246 OA
BRANCH  38  40
ATOM     40  C   UNL A   1      45.134  21.444  24.875  1.00  0.00     0.060 A 
ATOM     41  C   UNL A   1      44.965  22.545  24.020  1.00  0.00     0.016 A 
ATOM     42  C   UNL A   1      45.362  21.637  26.238  1.00  0.00     0.016 A 
ATOM     43  C   UNL A   1      45.043  23.845  24.526  1.00  0.00     0.010 A 
ATOM     44  C   UNL A   1      45.471  22.937  26.736  1.00  0.00     0.010 A 
ATOM     45  C   UNL A   1      45.340  24.046  25.880  1.00  0.00    -0.014 A 
BRANCH  45  46
ATOM     46  C   UNL A   1      45.757  25.380  26.375  1.00  0.00     0.031 A 
ATOM     47  C   UNL A   1      44.679  26.307  26.867  1.00  0.00     0.074 A 
ATOM     48  C   UNL A   1      47.040  25.784  26.350  1.00  0.00     0.049 A 
ATOM     49  N   UNL A   1      44.746  27.574  27.178  1.00  0.00    -0.248 NA
ATOM     50  C   UNL A   1      43.334  25.721  27.007  1.00  0.00     0.031 C 
ATOM     51  C   UNL A   1      48.180  24.964  25.945  1.00  0.00     0.029 A 
ATOM     52  N   UNL A   1      47.593  27.006  26.647  1.00  0.00    -0.354 N 
ATOM     53  C   UNL A   1      43.452  27.942  27.529  1.00  0.00     0.074 A 
ATOM     54  C   UNL A   1      42.617  26.773  27.369  1.00  0.00     0.031 C 
ATOM     55  C   UNL A   1      49.295  25.717  25.992  1.00  0.00     0.029 A 
ATOM     56  C   UNL A   1      48.940  27.081  26.385  1.00  0.00     0.049 A 
ATOM     57  H   UNL A   1      47.072  27.758  27.013  1.00  0.00     0.167 HD
ATOM     58  C   UNL A   1      43.002  29.148  27.947  1.00  0.00     0.037 A 
ATOM     59  C   UNL A   1      49.778  28.138  26.422  1.00  0.00     0.037 A 
ATOM     60  C   UNL A   1      43.841  30.307  28.101  1.00  0.00     0.049 A 
ATOM     61  C   UNL A   1      49.243  29.493  26.821  1.00  0.00     0.074 A 
ATOM     62  C   UNL A   1      43.488  31.573  28.527  1.00  0.00     0.029 A 
ATOM     63  N   UNL A   1      45.201  30.340  27.825  1.00  0.00    -0.354 N 
ATOM     64  N   UNL A   1      48.020  29.832  27.156  1.00  0.00    -0.248 NA
ATOM     65  C   UNL A   1      50.199  30.609  26.846  1.00  0.00     0.031 C 
ATOM     66  C   UNL A   1      44.621  32.389  28.456  1.00  0.00     0.029 A 
ATOM     67  C   UNL A   1      45.697  31.613  28.053  1.00  0.00     0.049 A 
ATOM     68  H   UNL A   1      45.734  29.574  27.514  1.00  0.00     0.167 HD
ATOM     69  C   UNL A   1      48.071  31.188  27.473  1.00  0.00     0.074 A 
ATOM     70  C   UNL A   1      49.444  31.607  27.287  1.00  0.00     0.031 C 
ATOM     71  C   UNL A   1      47.073  32.009  27.889  1.00  0.00     0.037 A 
BRANCH  58  72
ATOM     72  C   UNL A   1      41.532  29.283  28.232  1.00  0.00     0.058 A 
ATOM     73  C   UNL A   1      40.574  29.299  27.205  1.00  0.00     0.135 A 
ATOM     74  C   UNL A   1      41.071  29.373  29.556  1.00  0.00     0.135 A 
ATOM     75  F   UNL A   1      40.959  29.238  25.919  1.00  0.00    -0.206 F 
ATOM     76  C   UNL A   1      39.217  29.427  27.477  1.00  0.00     0.059 A 
ATOM     77  C   UNL A   1      39.715  29.467  29.853  1.00  0.00     0.059 A 
ATOM     78  F   UNL A   1      41.942  29.368  30.576  1.00  0.00    -0.206 F 
ATOM     79  C   UNL A   1      38.796  29.508  28.806  1.00  0.00     0.060 A 
BRANCH  79  80
ATOM     80  S   UNL A   1      37.030  29.660  29.144  1.00  0.00     0.124 S 
ATOM     81  O   UNL A   1      36.916  28.967  30.423  1.00  0.00    -0.237 OA
ATOM     82  O   UNL A   1      36.845  31.107  29.188  1.00  0.00    -0.237 OA
ATOM     83  O   UNL A   1      36.407  28.986  28.009  1.00  0.00    -0.744 OA
ENDBRANCH  79  80
ENDBRANCH  58  72
BRANCH  59  84
ATOM     84  C   UNL A   1      51.213  27.970  26.056  1.00  0.00     0.058 A 
ATOM     85  C   UNL A   1      52.185  27.717  27.036  1.00  0.00     0.135 A 
ATOM     86  C   UNL A   1      51.644  28.070  24.724  1.00  0.00     0.135 A 
ATOM     87  F   UNL A   1      51.829  27.627  28.327  1.00  0.00    -0.206 F 
ATOM     88  C   UNL A   1      53.532  27.585  26.712  1.00  0.00     0.059 A 
ATOM     89  C   UNL A   1      52.981  27.912  24.371  1.00  0.00     0.059 A 
ATOM     90  F   UNL A   1      50.756  28.307  23.746  1.00  0.00    -0.206 F 
ATOM     91  C   UNL A   1      53.920  27.680  25.375  1.00  0.00     0.060 A 
BRANCH  91  92
ATOM     92  S   UNL A   1      55.664  27.458  24.964  1.00  0.00     0.124 S 
ATOM     93  O   UNL A   1      55.970  28.714  24.289  1.00  0.00    -0.237 OA
ATOM     94  O   UNL A   1      56.268  27.278  26.281  1.00  0.00    -0.237 OA
ATOM     95  O   UNL A   1      55.662  26.271  24.115  1.00  0.00    -0.744 OA
ENDBRANCH  91  92
ENDBRANCH  59  84
BRANCH  71  96
ATOM     96  C   UNL A   1      47.429  33.428  28.247  1.00  0.00     0.058 A 
ATOM     97  C   UNL A   1      47.383  34.471  27.310  1.00  0.00     0.135 A 
ATOM     98  C   UNL A   1      47.737  33.759  29.578  1.00  0.00     0.135 A 
ATOM     99  F   UNL A   1      47.099  34.213  26.024  1.00  0.00    -0.206 F 
ATOM    100  C   UNL A   1      47.646  35.789  27.675  1.00  0.00     0.059 A 
ATOM    101  C   UNL A   1      47.972  35.072  29.972  1.00  0.00     0.059 A 
ATOM    102  F   UNL A   1      47.783  32.802  30.519  1.00  0.00    -0.206 F 
ATOM    103  C   UNL A   1      47.932  36.080  29.011  1.00  0.00     0.060 A 
BRANCH 103 104
ATOM    104  S   UNL A   1      48.218  37.799  29.482  1.00  0.00     0.124 S 
ATOM    105  O   UNL A   1      47.131  38.481  28.787  1.00  0.00    -0.237 OA
ATOM    106  O   UNL A   1      48.104  37.747  30.937  1.00  0.00    -0.237 OA
ATOM    107  O   UNL A   1      49.558  38.076  28.973  1.00  0.00    -0.744 OA
ENDBRANCH 103 104
ENDBRANCH  71  96
ENDBRANCH  45  46
ENDBRANCH  38  40
ENDBRANCH  37  38
ENDBRANCH  36  37
ENDBRANCH  35  36
ENDBRANCH  34  35
ENDBRANCH  33  34
ENDBRANCH   1  33
TORSDOF 26
ENDMDL
MODEL 3
REMARK VINA RESULT:     -10.0      3.256      8.950
REMARK SMILES CCCCN(c1ccccc1C(=O)OCCOCCOCCOC(=O)c1ccc(-c2c3nc(c(-c4c(F)cc(S(=O)(=O)[O-])cc4F)c4ccc([nH]4)c(-c4c(F)cc(S(=O)(=O)[O-])cc4F)c4nc(c(-c5c(F)cc(S(=O)(=O)[O-])cc5F)c5ccc2[nH]5)C=C4)C=C3)cc1)S(=O)(=O)c1ccc2c(c1)oc(=O)n2C
REMARK SMILES IDX 18 1 17 2 16 3 15 4 14 5 12 6 13 7 11 8 6 9 7 10 8 11 10 12
REMARK SMILES IDX 9 13 5 14 4 15 3 16 2 17 1 18 92 19 93 20 94 21 95 22 96 23
REMARK SMILES IDX 100 24 97 25 99 26 98 27 101 28 104 29 102 30 105 31 103 32
REMARK SMILES IDX 19 33 20 34 21 35 22 36 23 37 24 38 25 39 26 40 27 41 91 42
REMARK SMILES IDX 28 43 90 44 29 45 30 46 31 47 84 48 32 49 89 50 83 51 85 52
REMARK SMILES IDX 33 53 88 54 82 55 81 56 34 58 68 59 47 60 67 61 48 62 51 63
REMARK SMILES IDX 66 64 86 65 49 66 50 67 65 69 87 70 52 71 35 72 36 73 45 74
REMARK SMILES IDX 37 75 38 76 44 77 46 78 39 79 40 80 41 81 42 82 43 83 69 84
REMARK SMILES IDX 70 85 79 86 71 87 72 88 78 89 80 90 73 91 74 92 75 93 76 94
REMARK SMILES IDX 77 95 53 96 54 97 63 98 55 99 56 100 62 101 64 102 57 103
REMARK SMILES IDX 58 104 59 105 60 106 61 107
REMARK H PARENT 85 57 51 68
REMARK Flexibility Score: inf
ROOT
ATOM      1  C   UNL A   1      30.604  29.089  23.847  1.00  0.00     0.188 C 
ENDROOT
BRANCH   1   2
ATOM      2  O   UNL A   1      29.889  28.366  22.853  1.00  0.00    -0.376 OA
BRANCH   2   3
ATOM      3  C   UNL A   1      29.635  26.980  23.068  1.00  0.00     0.202 C 
BRANCH   3   4
ATOM      4  C   UNL A   1      28.944  26.542  24.368  1.00  0.00     0.261 C 
BRANCH   4   5
ATOM      5  O   UNL A   1      29.785  25.736  25.216  1.00  0.00    -0.460 OA
BRANCH   5   6
ATOM      6  C   UNL A   1      30.648  24.900  24.599  1.00  0.00     0.340 C 
ATOM      7  O   UNL A   1      30.384  24.160  23.665  1.00  0.00    -0.246 OA
BRANCH   6   8
ATOM      8  C   UNL A   1      32.037  25.058  25.100  1.00  0.00     0.084 A 
ATOM      9  C   UNL A   1      33.109  24.141  24.974  1.00  0.00     0.066 A 
ATOM     10  C   UNL A   1      34.397  24.643  25.256  1.00  0.00     0.028 A 
ATOM     11  C   UNL A   1      34.602  25.902  25.836  1.00  0.00     0.002 A 
ATOM     12  C   UNL A   1      32.256  26.334  25.673  1.00  0.00     0.018 A 
ATOM     13  C   UNL A   1      33.523  26.735  26.080  1.00  0.00     0.001 A 
BRANCH   9  14
ATOM     14  N   UNL A   1      33.033  22.737  24.562  1.00  0.00    -0.265 N 
BRANCH  14  15
ATOM     15  C   UNL A   1      32.907  22.404  23.112  1.00  0.00     0.136 C 
BRANCH  15  16
ATOM     16  C   UNL A   1      33.724  23.252  22.140  1.00  0.00     0.022 C 
BRANCH  16  17
ATOM     17  C   UNL A   1      32.986  24.235  21.229  1.00  0.00    -0.002 C 
ATOM     18  C   UNL A   1      32.989  25.687  21.684  1.00  0.00     0.004 C 
ENDBRANCH  16  17
ENDBRANCH  15  16
ENDBRANCH  14  15
BRANCH  14  19
ATOM     19  S   UNL A   1      32.410  21.526  25.635  1.00  0.00     0.264 S 
ATOM     20  O   UNL A   1      32.839  21.825  26.985  1.00  0.00    -0.201 OA
ATOM     21  O   UNL A   1      30.995  21.418  25.327  1.00  0.00    -0.201 OA
BRANCH  19  22
ATOM     22  C   UNL A   1      33.095  19.918  25.275  1.00  0.00     0.091 A 
ATOM     23  C   UNL A   1      34.472  19.798  24.965  1.00  0.00     0.025 A 
ATOM     24  C   UNL A   1      32.267  18.795  25.309  1.00  0.00     0.071 A 
ATOM     25  C   UNL A   1      35.057  18.538  24.798  1.00  0.00     0.032 A 
ATOM     26  C   UNL A   1      32.881  17.568  25.202  1.00  0.00     0.157 A 
ATOM     27  C   UNL A   1      34.238  17.443  24.969  1.00  0.00     0.090 A 
ATOM     28  O   UNL A   1      32.253  16.349  25.398  1.00  0.00    -0.408 OA
ATOM     29  N   UNL A   1      34.501  16.096  25.015  1.00  0.00    -0.277 N 
ATOM     30  C   UNL A   1      33.322  15.447  25.321  1.00  0.00     0.419 A 
ATOM     31  C   UNL A   1      35.783  15.461  24.918  1.00  0.00     0.157 C 
ATOM     32  O   UNL A   1      33.198  14.246  25.540  1.00  0.00    -0.223 OA
ENDBRANCH  19  22
ENDBRANCH  14  19
ENDBRANCH   9  14
ENDBRANCH   6   8
ENDBRANCH   5   6
ENDBRANCH   4   5
ENDBRANCH   3   4
ENDBRANCH   2   3
ENDBRANCH   1   2
BRANCH   1  33
ATOM     33  C   UNL A   1      32.087  29.421  23.586  1.00  0.00     0.188 C 
BRANCH  33  34
ATOM     34  O   UNL A   1      32.845  29.667  24.747  1.00  0.00    -0.376 OA
BRANCH  34  35
ATOM     35  C   UNL A   1      32.204  30.222  25.883  1.00  0.00     0.202 C 
BRANCH  35  36
ATOM     36  C   UNL A   1      32.906  30.428  27.244  1.00  0.00     0.261 C 
BRANCH  36  37
ATOM     37  O   UNL A   1      34.268  30.869  27.249  1.00  0.00    -0.460 OA
BRANCH  37  38
ATOM     38  C   UNL A   1      34.782  31.292  28.430  1.00  0.00     0.338 C 
ATOM     39  O   UNL A   1      34.215  31.956  29.276  1.00  0.00    -0.246 OA
BRANCH  38  40
ATOM     40  C   UNL A   1      36.080  30.602  28.610  1.00  0.00     0.060 A 
ATOM     41  C   UNL A   1      36.491  30.231  29.901  1.00  0.00     0.016 A 
ATOM     42  C   UNL A   1      36.866  30.287  27.501  1.00  0.00     0.016 A 
ATOM     43  C   UNL A   1      37.702  29.559  30.085  1.00  0.00     0.010 A 
ATOM     44  C   UNL A   1      38.091  29.644  27.690  1.00  0.00     0.010 A 
ATOM     45  C   UNL A   1      38.528  29.302  28.983  1.00  0.00    -0.014 A 
BRANCH  45  46
ATOM     46  C   UNL A   1      39.944  28.902  29.173  1.00  0.00     0.031 A 
ATOM     47  C   UNL A   1      40.908  29.960  29.638  1.00  0.00     0.074 A 
ATOM     48  C   UNL A   1      40.379  27.660  28.898  1.00  0.00     0.049 A 
ATOM     49  N   UNL A   1      42.211  29.927  29.709  1.00  0.00    -0.248 NA
ATOM     50  C   UNL A   1      40.312  31.238  30.065  1.00  0.00     0.031 C 
ATOM     51  C   UNL A   1      39.539  26.537  28.490  1.00  0.00     0.029 A 
ATOM     52  N   UNL A   1      41.653  27.146  28.895  1.00  0.00    -0.354 N 
ATOM     53  C   UNL A   1      42.593  31.183  30.165  1.00  0.00     0.074 A 
ATOM     54  C   UNL A   1      41.387  31.962  30.331  1.00  0.00     0.031 C 
ATOM     55  C   UNL A   1      40.324  25.471  28.247  1.00  0.00     0.029 A 
ATOM     56  C   UNL A   1      41.725  25.850  28.439  1.00  0.00     0.049 A 
ATOM     57  H   UNL A   1      42.441  27.657  29.191  1.00  0.00     0.167 HD
ATOM     58  C   UNL A   1      43.839  31.645  30.423  1.00  0.00     0.037 A 
ATOM     59  C   UNL A   1      42.799  25.078  28.172  1.00  0.00     0.037 A 
ATOM     60  C   UNL A   1      45.034  30.862  30.251  1.00  0.00     0.049 A 
ATOM     61  C   UNL A   1      44.184  25.635  28.396  1.00  0.00     0.074 A 
ATOM     62  C   UNL A   1      46.345  31.230  30.492  1.00  0.00     0.029 A 
ATOM     63  N   UNL A   1      45.063  29.554  29.787  1.00  0.00    -0.354 N 
ATOM     64  N   UNL A   1      44.538  26.822  28.833  1.00  0.00    -0.248 NA
ATOM     65  C   UNL A   1      45.318  24.751  28.090  1.00  0.00     0.031 C 
ATOM     66  C   UNL A   1      47.172  30.166  30.121  1.00  0.00     0.029 A 
ATOM     67  C   UNL A   1      46.372  29.108  29.715  1.00  0.00     0.049 A 
ATOM     68  H   UNL A   1      44.272  29.022  29.545  1.00  0.00     0.167 HD
ATOM     69  C   UNL A   1      45.929  26.809  28.895  1.00  0.00     0.074 A 
ATOM     70  C   UNL A   1      46.354  25.499  28.449  1.00  0.00     0.031 C 
ATOM     71  C   UNL A   1      46.778  27.790  29.295  1.00  0.00     0.037 A 
BRANCH  58  72
ATOM     72  C   UNL A   1      43.974  33.070  30.881  1.00  0.00     0.058 A 
ATOM     73  C   UNL A   1      44.092  34.135  29.972  1.00  0.00     0.135 A 
ATOM     74  C   UNL A   1      43.960  33.380  32.251  1.00  0.00     0.135 A 
ATOM     75  F   UNL A   1      44.132  33.896  28.651  1.00  0.00    -0.206 F 
ATOM     76  C   UNL A   1      44.218  35.450  30.405  1.00  0.00     0.059 A 
ATOM     77  C   UNL A   1      44.051  34.691  32.706  1.00  0.00     0.059 A 
ATOM     78  F   UNL A   1      43.856  32.401  33.163  1.00  0.00    -0.206 F 
ATOM     79  C   UNL A   1      44.194  35.719  31.775  1.00  0.00     0.060 A 
BRANCH  79  80
ATOM     80  S   UNL A   1      44.347  37.432  32.320  1.00  0.00     0.124 S 
ATOM     81  O   UNL A   1      45.751  37.491  32.713  1.00  0.00    -0.237 OA
ATOM     82  O   UNL A   1      43.995  38.175  31.114  1.00  0.00    -0.237 OA
ATOM     83  O   UNL A   1      43.386  37.529  33.415  1.00  0.00    -0.744 OA
ENDBRANCH  79  80
ENDBRANCH  58  72
BRANCH  59  84
ATOM     84  C   UNL A   1      42.615  23.696  27.646  1.00  0.00     0.058 A 
ATOM     85  C   UNL A   1      42.631  22.586  28.505  1.00  0.00     0.135 A 
ATOM     86  C   UNL A   1      42.433  23.455  26.275  1.00  0.00     0.135 A 
ATOM     87  F   UNL A   1      42.817  22.760  29.822  1.00  0.00    -0.206 F 
ATOM     88  C   UNL A   1      42.488  21.288  28.024  1.00  0.00     0.059 A 
ATOM     89  C   UNL A   1      42.259  22.168  25.773  1.00  0.00     0.059 A 
ATOM     90  F   UNL A   1      42.406  24.480  25.409  1.00  0.00    -0.206 F 
ATOM     91  C   UNL A   1      42.298  21.089  26.655  1.00  0.00     0.060 A 
BRANCH  91  92
ATOM     92  S   UNL A   1      42.066  19.404  26.051  1.00  0.00     0.124 S 
ATOM     93  O   UNL A   1      42.584  18.617  27.164  1.00  0.00    -0.237 OA
ATOM     94  O   UNL A   1      40.621  19.348  25.849  1.00  0.00    -0.237 OA
ATOM     95  O   UNL A   1      42.865  19.370  24.831  1.00  0.00    -0.744 OA
ENDBRANCH  91  92
ENDBRANCH  59  84
BRANCH  71  96
ATOM     96  C   UNL A   1      48.250  27.474  29.344  1.00  0.00     0.058 A 
ATOM     97  C   UNL A   1      49.125  27.814  28.301  1.00  0.00     0.135 A 
ATOM     98  C   UNL A   1      48.805  26.898  30.500  1.00  0.00     0.135 A 
ATOM     99  F   UNL A   1      48.649  28.364  27.172  1.00  0.00    -0.206 F 
ATOM    100  C   UNL A   1      50.494  27.580  28.394  1.00  0.00     0.059 A 
ATOM    101  C   UNL A   1      50.174  26.683  30.627  1.00  0.00     0.059 A 
ATOM    102  F   UNL A   1      48.016  26.563  31.533  1.00  0.00    -0.206 F 
ATOM    103  C   UNL A   1      51.010  27.020  29.565  1.00  0.00     0.060 A 
BRANCH 103 104
ATOM    104  S   UNL A   1      52.793  26.769  29.694  1.00  0.00     0.124 S 
ATOM    105  O   UNL A   1      53.089  26.099  28.432  1.00  0.00    -0.237 OA
ATOM    106  O   UNL A   1      53.291  28.136  29.817  1.00  0.00    -0.237 OA
ATOM    107  O   UNL A   1      52.937  25.946  30.891  1.00  0.00    -0.744 OA
ENDBRANCH 103 104
ENDBRANCH  71  96
ENDBRANCH  45  46
ENDBRANCH  38  40
ENDBRANCH  37  38
ENDBRANCH  36  37
ENDBRANCH  35  36
ENDBRANCH  34  35
ENDBRANCH  33  34
ENDBRANCH   1  33
TORSDOF 26
ENDMDL
