MODEL 1
REMARK VINA RESULT:      -9.8      0.000      0.000
REMARK SMILES Nc1nonc1C(=O)N1[C@@H]2CC[C@H]1C[C@H](CC(=O)OCCOCCOCCOC(=O)c1ccc(-c3c4nc(c(-c5c(F)cc(S(=O)(=O)[O-])cc5F)c5ccc([nH]5)c(-c5c(F)cc(S(=O)(=O)[O-])cc5F)c5nc(c(-c6c(F)cc(S(=O)(=O)[O-])cc6F)c6ccc3[nH]6)C=C5)C=C4)cc1)C2
REMARK SMILES IDX 23 1 22 2 21 3 20 4 19 5 17 6 18 7 16 8 15 9 9 10 10 11
REMARK SMILES IDX 13 12 11 13 97 14 12 15 14 16 7 17 8 18 6 19 2 20 3 21 4 22
REMARK SMILES IDX 5 23 1 24 24 27 25 28 26 29 27 30 28 31 29 32 30 33 31 34
REMARK SMILES IDX 32 35 96 36 33 37 95 38 34 39 35 40 36 41 89 42 37 43 94 44
REMARK SMILES IDX 88 45 90 46 38 47 93 48 87 49 86 50 39 52 73 53 52 54 72 55
REMARK SMILES IDX 53 56 56 57 71 58 91 59 54 60 55 61 70 63 92 64 57 65 40 66
REMARK SMILES IDX 41 67 50 68 42 69 43 70 49 71 51 72 44 73 45 74 46 75 47 76
REMARK SMILES IDX 48 77 74 78 75 79 84 80 76 81 77 82 83 83 85 84 78 85 79 86
REMARK SMILES IDX 80 87 81 88 82 89 58 90 59 91 68 92 60 93 61 94 67 95 69 96
REMARK SMILES IDX 62 97 63 98 64 99 65 100 66 101
REMARK H PARENT 1 25 1 26 90 51 56 62
REMARK Flexibility Score: inf
ROOT
ATOM      1  C   UNL A   1      46.421  23.435  26.564  1.00  0.00     0.188 C 
ENDROOT
BRANCH   1   2
ATOM      2  O   UNL A   1      46.733  23.318  25.181  1.00  0.00    -0.376 OA
BRANCH   2   3
ATOM      3  C   UNL A   1      45.969  22.381  24.425  1.00  0.00     0.202 C 
BRANCH   3   4
ATOM      4  C   UNL A   1      46.098  20.910  24.838  1.00  0.00     0.261 C 
BRANCH   4   5
ATOM      5  O   UNL A   1      45.147  20.057  24.173  1.00  0.00    -0.463 OA
BRANCH   5   6
ATOM      6  C   UNL A   1      44.557  19.125  24.958  1.00  0.00     0.306 C 
ATOM      7  O   UNL A   1      45.098  18.099  25.360  1.00  0.00    -0.252 OA
BRANCH   6   8
ATOM      8  C   UNL A   1      43.151  19.487  25.391  1.00  0.00     0.126 C 
BRANCH   8   9
ATOM      9  C   UNL A   1      42.883  20.642  26.385  1.00  0.00     0.004 C 
ATOM     10  N   UNL A   1      40.449  22.088  26.531  1.00  0.00    -0.331 N 
ATOM     11  C   UNL A   1      40.769  21.352  27.737  1.00  0.00     0.086 C 
ATOM     12  C   UNL A   1      41.612  22.916  26.262  1.00  0.00     0.086 C 
ATOM     13  C   UNL A   1      41.504  22.356  28.625  1.00  0.00     0.027 C 
ATOM     14  C   UNL A   1      41.679  20.208  27.287  1.00  0.00     0.029 C 
ATOM     15  C   UNL A   1      41.991  23.438  27.658  1.00  0.00     0.027 C 
ATOM     16  C   UNL A   1      42.726  22.026  25.694  1.00  0.00     0.029 C 
BRANCH  10  17
ATOM     17  C   UNL A   1      39.148  22.518  26.282  1.00  0.00     0.280 C 
ATOM     18  O   UNL A   1      38.796  23.660  26.576  1.00  0.00    -0.267 OA
BRANCH  17  19
ATOM     19  C   UNL A   1      38.210  21.520  25.757  1.00  0.00     0.216 A 
ATOM     20  C   UNL A   1      36.789  21.502  25.704  1.00  0.00     0.201 A 
ATOM     21  N   UNL A   1      36.376  20.399  25.085  1.00  0.00    -0.032 NA
ATOM     22  O   UNL A   1      37.533  19.750  24.691  1.00  0.00    -0.242 OA
ATOM     23  N   UNL A   1      38.662  20.432  25.112  1.00  0.00    -0.042 NA
BRANCH  20  24
ATOM     24  N   UNL A   1      35.948  22.447  26.152  1.00  0.00    -0.379 N 
ATOM     25  H   UNL A   1      36.287  23.346  26.365  1.00  0.00     0.158 HD
ATOM     26  H   UNL A   1      34.991  22.240  26.267  1.00  0.00     0.158 HD
ENDBRANCH  20  24
ENDBRANCH  17  19
ENDBRANCH  10  17
ENDBRANCH   8   9
ENDBRANCH   6   8
ENDBRANCH   5   6
ENDBRANCH   4   5
ENDBRANCH   3   4
ENDBRANCH   2   3
ENDBRANCH   1   2
BRANCH   1  27
ATOM     27  C   UNL A   1      45.291  24.399  26.933  1.00  0.00     0.188 C 
BRANCH  27  28
ATOM     28  O   UNL A   1      45.583  25.787  26.816  1.00  0.00    -0.376 OA
BRANCH  28  29
ATOM     29  C   UNL A   1      45.162  26.405  25.593  1.00  0.00     0.202 C 
BRANCH  29  30
ATOM     30  C   UNL A   1      43.818  25.927  25.007  1.00  0.00     0.261 C 
BRANCH  30  31
ATOM     31  O   UNL A   1      42.766  26.915  24.998  1.00  0.00    -0.460 OA
BRANCH  31  32
ATOM     32  C   UNL A   1      41.571  26.584  25.541  1.00  0.00     0.338 C 
ATOM     33  O   UNL A   1      40.800  25.731  25.130  1.00  0.00    -0.246 OA
BRANCH  32  34
ATOM     34  C   UNL A   1      41.486  27.217  26.886  1.00  0.00     0.060 A 
ATOM     35  C   UNL A   1      40.661  26.621  27.853  1.00  0.00     0.016 A 
ATOM     36  C   UNL A   1      42.281  28.314  27.234  1.00  0.00     0.016 A 
ATOM     37  C   UNL A   1      40.610  27.135  29.152  1.00  0.00     0.010 A 
ATOM     38  C   UNL A   1      42.221  28.833  28.532  1.00  0.00     0.010 A 
ATOM     39  C   UNL A   1      41.369  28.262  29.492  1.00  0.00    -0.014 A 
BRANCH  39  40
ATOM     40  C   UNL A   1      41.141  28.966  30.780  1.00  0.00     0.031 A 
ATOM     41  C   UNL A   1      40.032  29.981  30.847  1.00  0.00     0.074 A 
ATOM     42  C   UNL A   1      41.901  28.733  31.866  1.00  0.00     0.049 A 
ATOM     43  N   UNL A   1      39.698  30.785  31.822  1.00  0.00    -0.248 NA
ATOM     44  C   UNL A   1      39.188  30.104  29.647  1.00  0.00     0.031 C 
ATOM     45  C   UNL A   1      42.982  27.755  31.951  1.00  0.00     0.029 A 
ATOM     46  N   UNL A   1      41.884  29.325  33.107  1.00  0.00    -0.354 N 
ATOM     47  C   UNL A   1      38.612  31.513  31.353  1.00  0.00     0.074 A 
ATOM     48  C   UNL A   1      38.360  31.075  29.998  1.00  0.00     0.031 C 
ATOM     49  C   UNL A   1      43.541  27.829  33.174  1.00  0.00     0.029 A 
ATOM     50  C   UNL A   1      42.881  28.883  33.945  1.00  0.00     0.049 A 
ATOM     51  H   UNL A   1      41.220  30.002  33.371  1.00  0.00     0.167 HD
ATOM     52  C   UNL A   1      37.882  32.457  31.995  1.00  0.00     0.037 A 
ATOM     53  C   UNL A   1      43.238  29.303  35.177  1.00  0.00     0.037 A 
ATOM     54  C   UNL A   1      38.136  32.904  33.337  1.00  0.00     0.049 A 
ATOM     55  C   UNL A   1      42.466  30.417  35.842  1.00  0.00     0.074 A 
ATOM     56  C   UNL A   1      37.443  33.851  34.073  1.00  0.00     0.029 A 
ATOM     57  N   UNL A   1      39.170  32.451  34.142  1.00  0.00    -0.354 N 
ATOM     58  N   UNL A   1      41.425  31.080  35.398  1.00  0.00    -0.248 NA
ATOM     59  C   UNL A   1      42.921  30.843  37.175  1.00  0.00     0.031 C 
ATOM     60  C   UNL A   1      38.088  34.005  35.304  1.00  0.00     0.029 A 
ATOM     61  C   UNL A   1      39.152  33.117  35.357  1.00  0.00     0.049 A 
ATOM     62  H   UNL A   1      39.822  31.758  33.888  1.00  0.00     0.167 HD
ATOM     63  C   UNL A   1      41.087  31.982  36.404  1.00  0.00     0.074 A 
ATOM     64  C   UNL A   1      42.028  31.774  37.485  1.00  0.00     0.031 C 
ATOM     65  C   UNL A   1      40.087  32.897  36.431  1.00  0.00     0.037 A 
BRANCH  52  66
ATOM     66  C   UNL A   1      36.753  33.090  31.231  1.00  0.00     0.058 A 
ATOM     67  C   UNL A   1      35.412  32.814  31.537  1.00  0.00     0.135 A 
ATOM     68  C   UNL A   1      37.018  33.991  30.189  1.00  0.00     0.135 A 
ATOM     69  F   UNL A   1      35.104  31.942  32.510  1.00  0.00    -0.206 F 
ATOM     70  C   UNL A   1      34.371  33.388  30.815  1.00  0.00     0.059 A 
ATOM     71  C   UNL A   1      35.993  34.598  29.471  1.00  0.00     0.059 A 
ATOM     72  F   UNL A   1      38.285  34.284  29.854  1.00  0.00    -0.206 F 
ATOM     73  C   UNL A   1      34.672  34.276  29.780  1.00  0.00     0.060 A 
BRANCH  73  74
ATOM     74  S   UNL A   1      33.312  35.001  28.843  1.00  0.00     0.124 S 
ATOM     75  O   UNL A   1      32.328  35.235  29.897  1.00  0.00    -0.237 OA
ATOM     76  O   UNL A   1      33.926  36.197  28.274  1.00  0.00    -0.237 OA
ATOM     77  O   UNL A   1      32.966  33.959  27.883  1.00  0.00    -0.744 OA
ENDBRANCH  73  74
ENDBRANCH  52  66
BRANCH  53  78
ATOM     78  C   UNL A   1      44.411  28.689  35.860  1.00  0.00     0.058 A 
ATOM     79  C   UNL A   1      44.255  27.615  36.749  1.00  0.00     0.135 A 
ATOM     80  C   UNL A   1      45.710  29.177  35.649  1.00  0.00     0.135 A 
ATOM     81  F   UNL A   1      43.032  27.125  37.000  1.00  0.00    -0.206 F 
ATOM     82  C   UNL A   1      45.343  27.052  37.410  1.00  0.00     0.059 A 
ATOM     83  C   UNL A   1      46.816  28.614  36.277  1.00  0.00     0.059 A 
ATOM     84  F   UNL A   1      45.914  30.203  34.807  1.00  0.00    -0.206 F 
ATOM     85  C   UNL A   1      46.621  27.557  37.164  1.00  0.00     0.060 A 
BRANCH  85  86
ATOM     86  S   UNL A   1      48.033  26.783  37.985  1.00  0.00     0.124 S 
ATOM     87  O   UNL A   1      48.916  27.926  38.186  1.00  0.00    -0.237 OA
ATOM     88  O   UNL A   1      47.420  26.229  39.187  1.00  0.00    -0.237 OA
ATOM     89  O   UNL A   1      48.488  25.796  37.010  1.00  0.00    -0.744 OA
ENDBRANCH  85  86
ENDBRANCH  53  78
BRANCH  65  90
ATOM     90  C   UNL A   1      39.925  33.731  37.675  1.00  0.00     0.058 A 
ATOM     91  C   UNL A   1      40.614  34.942  37.848  1.00  0.00     0.135 A 
ATOM     92  C   UNL A   1      39.004  33.356  38.667  1.00  0.00     0.135 A 
ATOM     93  F   UNL A   1      41.510  35.346  36.933  1.00  0.00    -0.206 F 
ATOM     94  C   UNL A   1      40.407  35.744  38.967  1.00  0.00     0.059 A 
ATOM     95  C   UNL A   1      38.761  34.155  39.781  1.00  0.00     0.059 A 
ATOM     96  F   UNL A   1      38.308  32.214  38.546  1.00  0.00    -0.206 F 
ATOM     97  C   UNL A   1      39.473  35.344  39.926  1.00  0.00     0.060 A 
BRANCH  97  98
ATOM     98  S   UNL A   1      39.172  36.421  41.344  1.00  0.00     0.124 S 
ATOM     99  O   UNL A   1      38.858  37.687  40.691  1.00  0.00    -0.237 OA
ATOM    100  O   UNL A   1      38.055  35.757  42.010  1.00  0.00    -0.237 OA
ATOM    101  O   UNL A   1      40.437  36.387  42.072  1.00  0.00    -0.744 OA
ENDBRANCH  97  98
ENDBRANCH  65  90
ENDBRANCH  39  40
ENDBRANCH  32  34
ENDBRANCH  31  32
ENDBRANCH  30  31
ENDBRANCH  29  30
ENDBRANCH  28  29
ENDBRANCH  27  28
ENDBRANCH   1  27
TORSDOF 24
ENDMDL
MODEL 2
REMARK VINA RESULT:      -8.7      6.316     12.907
REMARK SMILES Nc1nonc1C(=O)N1[C@@H]2CC[C@H]1C[C@H](CC(=O)OCCOCCOCCOC(=O)c1ccc(-c3c4nc(c(-c5c(F)cc(S(=O)(=O)[O-])cc5F)c5ccc([nH]5)c(-c5c(F)cc(S(=O)(=O)[O-])cc5F)c5nc(c(-c6c(F)cc(S(=O)(=O)[O-])cc6F)c6ccc3[nH]6)C=C5)C=C4)cc1)C2
REMARK SMILES IDX 23 1 22 2 21 3 20 4 19 5 17 6 18 7 16 8 15 9 9 10 10 11
REMARK SMILES IDX 13 12 11 13 97 14 12 15 14 16 7 17 8 18 6 19 2 20 3 21 4 22
REMARK SMILES IDX 5 23 1 24 24 27 25 28 26 29 27 30 28 31 29 32 30 33 31 34
REMARK SMILES IDX 32 35 96 36 33 37 95 38 34 39 35 40 36 41 89 42 37 43 94 44
REMARK SMILES IDX 88 45 90 46 38 47 93 48 87 49 86 50 39 52 73 53 52 54 72 55
REMARK SMILES IDX 53 56 56 57 71 58 91 59 54 60 55 61 70 63 92 64 57 65 40 66
REMARK SMILES IDX 41 67 50 68 42 69 43 70 49 71 51 72 44 73 45 74 46 75 47 76
REMARK SMILES IDX 48 77 74 78 75 79 84 80 76 81 77 82 83 83 85 84 78 85 79 86
REMARK SMILES IDX 80 87 81 88 82 89 58 90 59 91 68 92 60 93 61 94 67 95 69 96
REMARK SMILES IDX 62 97 63 98 64 99 65 100 66 101
REMARK H PARENT 1 25 1 26 90 51 56 62
REMARK Flexibility Score: inf
ROOT
ATOM      1  C   UNL A   1      44.100  38.952  34.005  1.00  0.00     0.188 C 
ENDROOT
BRANCH   1   2
ATOM      2  O   UNL A   1      42.979  38.186  34.428  1.00  0.00    -0.376 OA
BRANCH   2   3
ATOM      3  C   UNL A   1      43.192  36.792  34.640  1.00  0.00     0.202 C 
BRANCH   3   4
ATOM      4  C   UNL A   1      43.452  35.949  33.385  1.00  0.00     0.261 C 
BRANCH   4   5
ATOM      5  O   UNL A   1      42.318  35.906  32.497  1.00  0.00    -0.463 OA
BRANCH   5   6
ATOM      6  C   UNL A   1      41.933  34.667  32.108  1.00  0.00     0.306 C 
ATOM      7  O   UNL A   1      41.595  33.766  32.867  1.00  0.00    -0.252 OA
BRANCH   6   8
ATOM      8  C   UNL A   1      41.870  34.488  30.605  1.00  0.00     0.126 C 
BRANCH   8   9
ATOM      9  C   UNL A   1      42.455  35.545  29.638  1.00  0.00     0.004 C 
ATOM     10  N   UNL A   1      43.459  34.958  27.052  1.00  0.00    -0.331 N 
ATOM     11  C   UNL A   1      42.311  35.842  27.051  1.00  0.00     0.086 C 
ATOM     12  C   UNL A   1      44.429  35.585  27.934  1.00  0.00     0.086 C 
ATOM     13  C   UNL A   1      42.902  37.252  27.041  1.00  0.00     0.027 C 
ATOM     14  C   UNL A   1      41.563  35.541  28.351  1.00  0.00     0.029 C 
ATOM     15  C   UNL A   1      44.335  37.069  27.547  1.00  0.00     0.027 C 
ATOM     16  C   UNL A   1      43.979  35.372  29.386  1.00  0.00     0.029 C 
BRANCH  10  17
ATOM     17  C   UNL A   1      43.827  34.267  25.901  1.00  0.00     0.280 C 
ATOM     18  O   UNL A   1      43.177  34.384  24.862  1.00  0.00    -0.267 OA
BRANCH  17  19
ATOM     19  C   UNL A   1      44.948  33.329  26.021  1.00  0.00     0.216 A 
ATOM     20  C   UNL A   1      44.981  31.932  26.287  1.00  0.00     0.201 A 
ATOM     21  N   UNL A   1      46.239  31.498  26.252  1.00  0.00    -0.032 NA
ATOM     22  O   UNL A   1      46.995  32.604  25.904  1.00  0.00    -0.242 OA
ATOM     23  N   UNL A   1      46.205  33.733  25.772  1.00  0.00    -0.042 NA
BRANCH  20  24
ATOM     24  N   UNL A   1      43.934  31.122  26.500  1.00  0.00    -0.379 N 
ATOM     25  H   UNL A   1      43.555  31.035  27.405  1.00  0.00     0.158 HD
ATOM     26  H   UNL A   1      43.544  30.614  25.751  1.00  0.00     0.158 HD
ENDBRANCH  20  24
ENDBRANCH  17  19
ENDBRANCH  10  17
ENDBRANCH   8   9
ENDBRANCH   6   8
ENDBRANCH   5   6
ENDBRANCH   4   5
ENDBRANCH   3   4
ENDBRANCH   2   3
ENDBRANCH   1   2
BRANCH   1  27
ATOM     27  C   UNL A   1      45.447  38.608  34.643  1.00  0.00     0.188 C 
BRANCH  27  28
ATOM     28  O   UNL A   1      46.607  39.051  33.946  1.00  0.00    -0.376 OA
BRANCH  28  29
ATOM     29  C   UNL A   1      46.502  39.059  32.517  1.00  0.00     0.202 C 
BRANCH  29  30
ATOM     30  C   UNL A   1      46.427  37.683  31.824  1.00  0.00     0.261 C 
BRANCH  30  31
ATOM     31  O   UNL A   1      47.643  37.256  31.175  1.00  0.00    -0.460 OA
BRANCH  31  32
ATOM     32  C   UNL A   1      48.395  36.307  31.782  1.00  0.00     0.338 C 
ATOM     33  O   UNL A   1      49.107  36.465  32.760  1.00  0.00    -0.246 OA
BRANCH  32  34
ATOM     34  C   UNL A   1      47.981  34.981  31.246  1.00  0.00     0.060 A 
ATOM     35  C   UNL A   1      47.689  34.877  29.877  1.00  0.00     0.016 A 
ATOM     36  C   UNL A   1      47.981  33.832  32.045  1.00  0.00     0.016 A 
ATOM     37  C   UNL A   1      47.372  33.637  29.314  1.00  0.00     0.010 A 
ATOM     38  C   UNL A   1      47.654  32.594  31.482  1.00  0.00     0.010 A 
ATOM     39  C   UNL A   1      47.325  32.492  30.120  1.00  0.00    -0.014 A 
BRANCH  39  40
ATOM     40  C   UNL A   1      46.753  31.224  29.598  1.00  0.00     0.031 A 
ATOM     41  C   UNL A   1      45.306  30.928  29.883  1.00  0.00     0.074 A 
ATOM     42  C   UNL A   1      47.492  30.340  28.901  1.00  0.00     0.049 A 
ATOM     43  N   UNL A   1      44.607  29.856  29.616  1.00  0.00    -0.248 NA
ATOM     44  C   UNL A   1      44.546  31.990  30.565  1.00  0.00     0.031 C 
ATOM     45  C   UNL A   1      48.892  30.515  28.524  1.00  0.00     0.029 A 
ATOM     46  N   UNL A   1      47.160  29.103  28.402  1.00  0.00    -0.354 N 
ATOM     47  C   UNL A   1      43.330  30.110  30.101  1.00  0.00     0.074 A 
ATOM     48  C   UNL A   1      43.357  31.425  30.703  1.00  0.00     0.031 C 
ATOM     49  C   UNL A   1      49.307  29.413  27.871  1.00  0.00     0.029 A 
ATOM     50  C   UNL A   1      48.214  28.442  27.815  1.00  0.00     0.049 A 
ATOM     51  H   UNL A   1      46.253  28.725  28.459  1.00  0.00     0.167 HD
ATOM     52  C   UNL A   1      42.229  29.322  30.045  1.00  0.00     0.037 A 
ATOM     53  C   UNL A   1      48.294  27.190  27.319  1.00  0.00     0.037 A 
ATOM     54  C   UNL A   1      42.201  28.010  29.460  1.00  0.00     0.049 A 
ATOM     55  C   UNL A   1      47.078  26.295  27.344  1.00  0.00     0.074 A 
ATOM     56  C   UNL A   1      41.127  27.141  29.349  1.00  0.00     0.029 A 
ATOM     57  N   UNL A   1      43.294  27.367  28.899  1.00  0.00    -0.354 N 
ATOM     58  N   UNL A   1      45.870  26.555  27.784  1.00  0.00    -0.248 NA
ATOM     59  C   UNL A   1      47.238  24.933  26.809  1.00  0.00     0.031 C 
ATOM     60  C   UNL A   1      41.584  25.955  28.766  1.00  0.00     0.029 A 
ATOM     61  C   UNL A   1      42.929  26.103  28.465  1.00  0.00     0.049 A 
ATOM     62  H   UNL A   1      44.197  27.752  28.821  1.00  0.00     0.167 HD
ATOM     63  C   UNL A   1      45.123  25.401  27.556  1.00  0.00     0.074 A 
ATOM     64  C   UNL A   1      46.012  24.444  26.932  1.00  0.00     0.031 C 
ATOM     65  C   UNL A   1      43.818  25.159  27.837  1.00  0.00     0.037 A 
BRANCH  52  66
ATOM     66  C   UNL A   1      40.969  29.857  30.665  1.00  0.00     0.058 A 
ATOM     67  C   UNL A   1      40.792  29.896  32.057  1.00  0.00     0.135 A 
ATOM     68  C   UNL A   1      39.933  30.348  29.856  1.00  0.00     0.135 A 
ATOM     69  F   UNL A   1      41.743  29.417  32.875  1.00  0.00    -0.206 F 
ATOM     70  C   UNL A   1      39.616  30.374  32.625  1.00  0.00     0.059 A 
ATOM     71  C   UNL A   1      38.760  30.856  30.403  1.00  0.00     0.059 A 
ATOM     72  F   UNL A   1      40.051  30.329  28.519  1.00  0.00    -0.206 F 
ATOM     73  C   UNL A   1      38.603  30.849  31.789  1.00  0.00     0.060 A 
BRANCH  73  74
ATOM     74  S   UNL A   1      37.079  31.454  32.540  1.00  0.00     0.124 S 
ATOM     75  O   UNL A   1      36.137  30.401  32.169  1.00  0.00    -0.237 OA
ATOM     76  O   UNL A   1      37.432  31.519  33.955  1.00  0.00    -0.237 OA
ATOM     77  O   UNL A   1      36.866  32.742  31.889  1.00  0.00    -0.744 OA
ENDBRANCH  73  74
ENDBRANCH  52  66
BRANCH  53  78
ATOM     78  C   UNL A   1      49.588  26.684  26.782  1.00  0.00     0.058 A 
ATOM     79  C   UNL A   1      49.916  26.822  25.425  1.00  0.00     0.135 A 
ATOM     80  C   UNL A   1      50.516  26.038  27.614  1.00  0.00     0.135 A 
ATOM     81  F   UNL A   1      49.054  27.415  24.584  1.00  0.00    -0.206 F 
ATOM     82  C   UNL A   1      51.112  26.332  24.909  1.00  0.00     0.059 A 
ATOM     83  C   UNL A   1      51.730  25.563  27.128  1.00  0.00     0.059 A 
ATOM     84  F   UNL A   1      50.251  25.882  28.921  1.00  0.00    -0.206 F 
ATOM     85  C   UNL A   1      52.015  25.706  25.772  1.00  0.00     0.060 A 
BRANCH  85  86
ATOM     86  S   UNL A   1      53.589  25.121  25.104  1.00  0.00     0.124 S 
ATOM     87  O   UNL A   1      54.543  25.742  26.016  1.00  0.00    -0.237 OA
ATOM     88  O   UNL A   1      53.448  23.674  25.215  1.00  0.00    -0.237 OA
ATOM     89  O   UNL A   1      53.589  25.642  23.740  1.00  0.00    -0.744 OA
ENDBRANCH  85  86
ENDBRANCH  53  78
BRANCH  65  90
ATOM     90  C   UNL A   1      43.248  23.819  27.449  1.00  0.00     0.058 A 
ATOM     91  C   UNL A   1      43.187  22.752  28.359  1.00  0.00     0.135 A 
ATOM     92  C   UNL A   1      42.681  23.629  26.178  1.00  0.00     0.135 A 
ATOM     93  F   UNL A   1      43.718  22.878  29.585  1.00  0.00    -0.206 F 
ATOM     94  C   UNL A   1      42.595  21.539  28.018  1.00  0.00     0.059 A 
ATOM     95  C   UNL A   1      42.061  22.434  25.824  1.00  0.00     0.059 A 
ATOM     96  F   UNL A   1      42.702  24.621  25.274  1.00  0.00    -0.206 F 
ATOM     97  C   UNL A   1      42.029  21.392  26.749  1.00  0.00     0.060 A 
BRANCH  97  98
ATOM     98  S   UNL A   1      41.214  19.833  26.338  1.00  0.00     0.124 S 
ATOM     99  O   UNL A   1      41.253  19.135  27.619  1.00  0.00    -0.237 OA
ATOM    100  O   UNL A   1      39.895  20.276  25.898  1.00  0.00    -0.237 OA
ATOM    101  O   UNL A   1      42.062  19.271  25.292  1.00  0.00    -0.744 OA
ENDBRANCH  97  98
ENDBRANCH  65  90
ENDBRANCH  39  40
ENDBRANCH  32  34
ENDBRANCH  31  32
ENDBRANCH  30  31
ENDBRANCH  29  30
ENDBRANCH  28  29
ENDBRANCH  27  28
ENDBRANCH   1  27
TORSDOF 24
ENDMDL
MODEL 3
REMARK VINA RESULT:      -8.6      4.117      6.880
REMARK SMILES Nc1nonc1C(=O)N1[C@@H]2CC[C@H]1C[C@H](CC(=O)OCCOCCOCCOC(=O)c1ccc(-c3c4nc(c(-c5c(F)cc(S(=O)(=O)[O-])cc5F)c5ccc([nH]5)c(-c5c(F)cc(S(=O)(=O)[O-])cc5F)c5nc(c(-c6c(F)cc(S(=O)(=O)[O-])cc6F)c6ccc3[nH]6)C=C5)C=C4)cc1)C2
REMARK SMILES IDX 23 1 22 2 21 3 20 4 19 5 17 6 18 7 16 8 15 9 9 10 10 11
REMARK SMILES IDX 13 12 11 13 97 14 12 15 14 16 7 17 8 18 6 19 2 20 3 21 4 22
REMARK SMILES IDX 5 23 1 24 24 27 25 28 26 29 27 30 28 31 29 32 30 33 31 34
REMARK SMILES IDX 32 35 96 36 33 37 95 38 34 39 35 40 36 41 89 42 37 43 94 44
REMARK SMILES IDX 88 45 90 46 38 47 93 48 87 49 86 50 39 52 73 53 52 54 72 55
REMARK SMILES IDX 53 56 56 57 71 58 91 59 54 60 55 61 70 63 92 64 57 65 40 66
REMARK SMILES IDX 41 67 50 68 42 69 43 70 49 71 51 72 44 73 45 74 46 75 47 76
REMARK SMILES IDX 48 77 74 78 75 79 84 80 76 81 77 82 83 83 85 84 78 85 79 86
REMARK SMILES IDX 80 87 81 88 82 89 58 90 59 91 68 92 60 93 61 94 67 95 69 96
REMARK SMILES IDX 62 97 63 98 64 99 65 100 66 101
REMARK H PARENT 1 25 1 26 90 51 56 62
REMARK Flexibility Score: inf
ROOT
ATOM      1  C   UNL A   1      38.220  28.763  28.282  1.00  0.00     0.188 C 
ENDROOT
BRANCH   1   2
ATOM      2  O   UNL A   1      37.462  29.706  27.534  1.00  0.00    -0.376 OA
BRANCH   2   3
ATOM      3  C   UNL A   1      36.243  30.162  28.116  1.00  0.00     0.202 C 
BRANCH   3   4
ATOM      4  C   UNL A   1      34.985  29.354  27.772  1.00  0.00     0.261 C 
BRANCH   4   5
ATOM      5  O   UNL A   1      34.192  29.968  26.737  1.00  0.00    -0.463 OA
BRANCH   5   6
ATOM      6  C   UNL A   1      32.861  29.731  26.811  1.00  0.00     0.306 C 
ATOM      7  O   UNL A   1      31.987  30.506  26.434  1.00  0.00    -0.252 OA
BRANCH   6   8
ATOM      8  C   UNL A   1      32.510  28.355  27.338  1.00  0.00     0.126 C 
BRANCH   8   9
ATOM      9  C   UNL A   1      32.236  27.169  26.384  1.00  0.00     0.004 C 
ATOM     10  N   UNL A   1      30.910  27.403  23.889  1.00  0.00    -0.331 N 
ATOM     11  C   UNL A   1      32.281  26.946  23.787  1.00  0.00     0.086 C 
ATOM     12  C   UNL A   1      30.265  26.489  24.816  1.00  0.00     0.086 C 
ATOM     13  C   UNL A   1      32.186  25.421  23.777  1.00  0.00     0.027 C 
ATOM     14  C   UNL A   1      32.981  27.471  25.040  1.00  0.00     0.029 C 
ATOM     15  C   UNL A   1      30.813  25.119  24.382  1.00  0.00     0.027 C 
ATOM     16  C   UNL A   1      30.725  26.832  26.240  1.00  0.00     0.029 C 
BRANCH  10  17
ATOM     17  C   UNL A   1      30.252  27.940  22.785  1.00  0.00     0.280 C 
ATOM     18  O   UNL A   1      30.627  27.678  21.642  1.00  0.00    -0.267 OA
BRANCH  17  19
ATOM     19  C   UNL A   1      29.176  28.898  23.056  1.00  0.00     0.216 A 
ATOM     20  C   UNL A   1      29.192  30.180  23.672  1.00  0.00     0.201 A 
ATOM     21  N   UNL A   1      27.968  30.703  23.652  1.00  0.00    -0.032 NA
ATOM     22  O   UNL A   1      27.192  29.783  22.969  1.00  0.00    -0.242 OA
ATOM     23  N   UNL A   1      27.930  28.668  22.611  1.00  0.00    -0.042 NA
BRANCH  20  24
ATOM     24  N   UNL A   1      30.256  30.827  24.171  1.00  0.00    -0.379 N 
ATOM     25  H   UNL A   1      31.159  30.453  24.054  1.00  0.00     0.158 HD
ATOM     26  H   UNL A   1      30.132  31.676  24.656  1.00  0.00     0.158 HD
ENDBRANCH  20  24
ENDBRANCH  17  19
ENDBRANCH  10  17
ENDBRANCH   8   9
ENDBRANCH   6   8
ENDBRANCH   5   6
ENDBRANCH   4   5
ENDBRANCH   3   4
ENDBRANCH   2   3
ENDBRANCH   1   2
BRANCH   1  27
ATOM     27  C   UNL A   1      39.636  28.468  27.783  1.00  0.00     0.188 C 
BRANCH  27  28
ATOM     28  O   UNL A   1      39.979  29.001  26.509  1.00  0.00    -0.376 OA
BRANCH  28  29
ATOM     29  C   UNL A   1      41.351  28.845  26.124  1.00  0.00     0.202 C 
BRANCH  29  30
ATOM     30  C   UNL A   1      41.846  27.400  25.907  1.00  0.00     0.261 C 
BRANCH  30  31
ATOM     31  O   UNL A   1      43.267  27.209  26.060  1.00  0.00    -0.460 OA
BRANCH  31  32
ATOM     32  C   UNL A   1      43.707  26.485  27.116  1.00  0.00     0.338 C 
ATOM     33  O   UNL A   1      44.376  25.465  27.067  1.00  0.00    -0.246 OA
BRANCH  32  34
ATOM     34  C   UNL A   1      43.495  27.294  28.349  1.00  0.00     0.060 A 
ATOM     35  C   UNL A   1      42.712  26.747  29.378  1.00  0.00     0.016 A 
ATOM     36  C   UNL A   1      44.137  28.521  28.543  1.00  0.00     0.016 A 
ATOM     37  C   UNL A   1      42.550  27.436  30.584  1.00  0.00     0.010 A 
ATOM     38  C   UNL A   1      43.966  29.213  29.746  1.00  0.00     0.010 A 
ATOM     39  C   UNL A   1      43.153  28.687  30.764  1.00  0.00    -0.014 A 
BRANCH  39  40
ATOM     40  C   UNL A   1      42.793  29.538  31.927  1.00  0.00     0.031 A 
ATOM     41  C   UNL A   1      41.548  30.378  31.833  1.00  0.00     0.074 A 
ATOM     42  C   UNL A   1      43.551  29.588  33.039  1.00  0.00     0.049 A 
ATOM     43  N   UNL A   1      41.076  31.264  32.671  1.00  0.00    -0.248 NA
ATOM     44  C   UNL A   1      40.726  30.190  30.626  1.00  0.00     0.031 C 
ATOM     45  C   UNL A   1      44.760  28.804  33.277  1.00  0.00     0.029 A 
ATOM     46  N   UNL A   1      43.417  30.354  34.173  1.00  0.00    -0.354 N 
ATOM     47  C   UNL A   1      39.908  31.743  32.092  1.00  0.00     0.074 A 
ATOM     48  C   UNL A   1      39.757  31.072  30.820  1.00  0.00     0.031 C 
ATOM     49  C   UNL A   1      45.271  29.146  34.475  1.00  0.00     0.029 A 
ATOM     50  C   UNL A   1      44.445  30.197  35.072  1.00  0.00     0.049 A 
ATOM     51  H   UNL A   1      42.655  30.959  34.327  1.00  0.00     0.167 HD
ATOM     52  C   UNL A   1      39.033  32.657  32.577  1.00  0.00     0.037 A 
ATOM     53  C   UNL A   1      44.706  30.848  36.225  1.00  0.00     0.037 A 
ATOM     54  C   UNL A   1      39.186  33.337  33.835  1.00  0.00     0.049 A 
ATOM     55  C   UNL A   1      43.765  31.925  36.707  1.00  0.00     0.074 A 
ATOM     56  C   UNL A   1      38.345  34.272  34.413  1.00  0.00     0.029 A 
ATOM     57  N   UNL A   1      40.254  33.169  34.703  1.00  0.00    -0.354 N 
ATOM     58  N   UNL A   1      42.651  32.353  36.162  1.00  0.00    -0.248 NA
ATOM     59  C   UNL A   1      44.119  32.612  37.959  1.00  0.00     0.031 C 
ATOM     60  C   UNL A   1      38.929  34.706  35.607  1.00  0.00     0.029 A 
ATOM     61  C   UNL A   1      40.108  34.002  35.800  1.00  0.00     0.049 A 
ATOM     62  H   UNL A   1      41.005  32.548  34.561  1.00  0.00     0.167 HD
ATOM     63  C   UNL A   1      42.160  33.338  37.016  1.00  0.00     0.074 A 
ATOM     64  C   UNL A   1      43.093  33.438  38.119  1.00  0.00     0.031 C 
ATOM     65  C   UNL A   1      41.037  34.090  36.898  1.00  0.00     0.037 A 
BRANCH  52  66
ATOM     66  C   UNL A   1      37.845  32.993  31.722  1.00  0.00     0.058 A 
ATOM     67  C   UNL A   1      37.917  33.962  30.709  1.00  0.00     0.135 A 
ATOM     68  C   UNL A   1      36.624  32.328  31.910  1.00  0.00     0.135 A 
ATOM     69  F   UNL A   1      39.055  34.643  30.502  1.00  0.00    -0.206 F 
ATOM     70  C   UNL A   1      36.808  34.282  29.932  1.00  0.00     0.059 A 
ATOM     71  C   UNL A   1      35.510  32.613  31.127  1.00  0.00     0.059 A 
ATOM     72  F   UNL A   1      36.501  31.396  32.869  1.00  0.00    -0.206 F 
ATOM     73  C   UNL A   1      35.608  33.605  30.152  1.00  0.00     0.060 A 
BRANCH  73  74
ATOM     74  S   UNL A   1      34.175  34.041  29.146  1.00  0.00     0.124 S 
ATOM     75  O   UNL A   1      34.755  35.016  28.226  1.00  0.00    -0.237 OA
ATOM     76  O   UNL A   1      33.804  32.758  28.557  1.00  0.00    -0.237 OA
ATOM     77  O   UNL A   1      33.229  34.581  30.116  1.00  0.00    -0.744 OA
ENDBRANCH  73  74
ENDBRANCH  52  66
BRANCH  53  78
ATOM     78  C   UNL A   1      45.938  30.525  36.998  1.00  0.00     0.058 A 
ATOM     79  C   UNL A   1      47.140  31.210  36.771  1.00  0.00     0.135 A 
ATOM     80  C   UNL A   1      45.938  29.514  37.972  1.00  0.00     0.135 A 
ATOM     81  F   UNL A   1      47.198  32.173  35.838  1.00  0.00    -0.206 F 
ATOM     82  C   UNL A   1      48.301  30.899  37.473  1.00  0.00     0.059 A 
ATOM     83  C   UNL A   1      47.078  29.202  38.706  1.00  0.00     0.059 A 
ATOM     84  F   UNL A   1      44.812  28.829  38.230  1.00  0.00    -0.206 F 
ATOM     85  C   UNL A   1      48.258  29.895  38.442  1.00  0.00     0.060 A 
BRANCH  85  86
ATOM     86  S   UNL A   1      49.756  29.536  39.387  1.00  0.00     0.124 S 
ATOM     87  O   UNL A   1      50.092  28.200  38.907  1.00  0.00    -0.237 OA
ATOM     88  O   UNL A   1      50.648  30.610  38.964  1.00  0.00    -0.237 OA
ATOM     89  O   UNL A   1      49.305  29.614  40.773  1.00  0.00    -0.744 OA
ENDBRANCH  85  86
ENDBRANCH  53  78
BRANCH  65  90
ATOM     90  C   UNL A   1      40.724  35.071  37.997  1.00  0.00     0.058 A 
ATOM     91  C   UNL A   1      39.942  34.714  39.106  1.00  0.00     0.135 A 
ATOM     92  C   UNL A   1      41.284  36.359  37.979  1.00  0.00     0.135 A 
ATOM     93  F   UNL A   1      39.378  33.497  39.171  1.00  0.00    -0.206 F 
ATOM     94  C   UNL A   1      39.715  35.603  40.153  1.00  0.00     0.059 A 
ATOM     95  C   UNL A   1      41.093  37.255  39.027  1.00  0.00     0.059 A 
ATOM     96  F   UNL A   1      42.051  36.749  36.948  1.00  0.00    -0.206 F 
ATOM     97  C   UNL A   1      40.300  36.871  40.107  1.00  0.00     0.060 A 
BRANCH  97  98
ATOM     98  S   UNL A   1      40.044  37.994  41.498  1.00  0.00     0.124 S 
ATOM     99  O   UNL A   1      41.379  38.558  41.670  1.00  0.00    -0.237 OA
ATOM    100  O   UNL A   1      39.032  38.909  40.980  1.00  0.00    -0.237 OA
ATOM    101  O   UNL A   1      39.593  37.112  42.569  1.00  0.00    -0.744 OA
ENDBRANCH  97  98
ENDBRANCH  65  90
ENDBRANCH  39  40
ENDBRANCH  32  34
ENDBRANCH  31  32
ENDBRANCH  30  31
ENDBRANCH  29  30
ENDBRANCH  28  29
ENDBRANCH  27  28
ENDBRANCH   1  27
TORSDOF 24
ENDMDL
