MODEL 1
REMARK VINA RESULT:     -11.5      0.000      0.000
REMARK SMILES Cc1cccc(NS(=O)(=O)c2ccc(Br)c(C(=O)OCCOCCOCCOC(=O)c3ccc(-c4c5nc(c(-c6c(F)cc(S(=O)(=O)[O-])cc6F)c6ccc([nH]6)c(-c6c(F)cc(S(=O)(=O)[O-])cc6F)c6nc(c(-c7c(F)cc(S(=O)(=O)[O-])cc7F)c7ccc4[nH]7)C=C6)C=C5)cc3)c2)c1
REMARK SMILES IDX 23 1 22 2 21 3 20 4 19 5 17 6 18 7 16 8 11 9 12 10 97 11
REMARK SMILES IDX 13 12 14 13 15 14 8 15 9 16 10 17 7 18 6 20 1 21 2 22 3 23
REMARK SMILES IDX 98 24 4 25 5 26 24 27 25 28 26 29 27 30 28 31 29 32 30 33
REMARK SMILES IDX 31 34 32 35 96 36 33 37 95 38 34 39 35 40 36 41 89 42 37 43
REMARK SMILES IDX 94 44 88 45 90 46 38 47 93 48 87 49 86 50 39 52 73 53 52 54
REMARK SMILES IDX 72 55 53 56 56 57 71 58 91 59 54 60 55 61 70 63 92 64 57 65
REMARK SMILES IDX 40 66 41 67 50 68 42 69 43 70 49 71 51 72 44 73 45 74 46 75
REMARK SMILES IDX 47 76 48 77 74 78 75 79 84 80 76 81 77 82 83 83 85 84 78 85
REMARK SMILES IDX 79 86 80 87 81 88 82 89 58 90 59 91 68 92 60 93 61 94 67 95
REMARK SMILES IDX 69 96 62 97 63 98 64 99 65 100 66 101
REMARK H PARENT 7 19 90 51 56 62
REMARK Flexibility Score: inf
ROOT
ATOM      1  C   UNL A   1      40.848  20.732  27.371  1.00  0.00     0.188 C 
ENDROOT
BRANCH   1   2
ATOM      2  O   UNL A   1      39.877  21.807  27.448  1.00  0.00    -0.376 OA
BRANCH   2   3
ATOM      3  C   UNL A   1      39.561  22.740  26.380  1.00  0.00     0.202 C 
BRANCH   3   4
ATOM      4  C   UNL A   1      38.218  23.770  26.419  1.00  0.00     0.261 C 
BRANCH   4   5
ATOM      5  O   UNL A   1      36.796  23.748  25.431  1.00  0.00    -0.460 OA
BRANCH   5   6
ATOM      6  C   UNL A   1      36.316  23.227  24.169  1.00  0.00     0.339 C 
ATOM      7  O   UNL A   1      36.921  22.609  23.296  1.00  0.00    -0.246 OA
BRANCH   6   8
ATOM      8  C   UNL A   1      34.904  23.318  23.669  1.00  0.00     0.075 A 
ATOM      9  C   UNL A   1      32.996  24.771  22.936  1.00  0.00     0.088 A 
ATOM     10  C   UNL A   1      32.120  23.728  23.209  1.00  0.00     0.023 A 
ATOM     11  C   UNL A   1      34.371  24.581  23.204  1.00  0.00     0.039 A 
ATOM     12  C   UNL A   1      32.614  22.552  23.801  1.00  0.00     0.018 A 
ATOM     13  C   UNL A   1      33.987  22.348  24.036  1.00  0.00     0.032 A 
ATOM     14  Br  UNL A   1      34.507  20.818  25.027  1.00  0.00    -0.050 Br
BRANCH   9  15
ATOM     15  S   UNL A   1      32.360  26.314  22.254  1.00  0.00     0.261 S 
ATOM     16  O   UNL A   1      31.619  25.979  21.083  1.00  0.00    -0.201 OA
ATOM     17  O   UNL A   1      33.469  27.272  22.199  1.00  0.00    -0.201 OA
BRANCH  15  18
ATOM     18  N   UNL A   1      31.198  26.998  23.285  1.00  0.00    -0.280 N 
ATOM     19  H   UNL A   1      30.275  27.076  22.953  1.00  0.00     0.180 HD
BRANCH  18  20
ATOM     20  C   UNL A   1      31.476  27.462  24.597  1.00  0.00     0.049 A 
ATOM     21  C   UNL A   1      31.767  30.859  26.318  1.00  0.00     0.044 C 
ATOM     22  C   UNL A   1      31.715  29.378  26.085  1.00  0.00    -0.049 A 
ATOM     23  C   UNL A   1      31.767  28.496  27.168  1.00  0.00     0.003 A 
ATOM     24  C   UNL A   1      31.564  28.849  24.796  1.00  0.00     0.030 A 
ATOM     25  C   UNL A   1      31.783  27.115  26.955  1.00  0.00     0.002 A 
ATOM     26  C   UNL A   1      31.686  26.599  25.664  1.00  0.00     0.027 A 
ENDBRANCH  18  20
ENDBRANCH  15  18
ENDBRANCH   9  15
ENDBRANCH   6   8
ENDBRANCH   5   6
ENDBRANCH   4   5
ENDBRANCH   3   4
ENDBRANCH   2   3
ENDBRANCH   1   2
BRANCH   1  27
ATOM     27  C   UNL A   1      41.683  20.443  26.128  1.00  0.00     0.188 C 
BRANCH  27  28
ATOM     28  O   UNL A   1      43.052  20.379  26.477  1.00  0.00    -0.376 OA
BRANCH  28  29
ATOM     29  C   UNL A   1      43.971  20.608  25.432  1.00  0.00     0.202 C 
BRANCH  29  30
ATOM     30  C   UNL A   1      45.071  21.630  25.786  1.00  0.00     0.261 C 
BRANCH  30  31
ATOM     31  O   UNL A   1      44.554  22.981  25.946  1.00  0.00    -0.460 OA
BRANCH  31  32
ATOM     32  C   UNL A   1      43.573  23.440  25.077  1.00  0.00     0.338 C 
ATOM     33  O   UNL A   1      43.408  22.940  23.980  1.00  0.00    -0.246 OA
BRANCH  32  34
ATOM     34  C   UNL A   1      42.636  24.414  25.763  1.00  0.00     0.060 A 
ATOM     35  C   UNL A   1      41.762  25.407  25.280  1.00  0.00     0.016 A 
ATOM     36  C   UNL A   1      42.740  24.419  27.101  1.00  0.00     0.016 A 
ATOM     37  C   UNL A   1      41.120  26.434  26.169  1.00  0.00     0.010 A 
ATOM     38  C   UNL A   1      42.327  25.565  27.779  1.00  0.00     0.010 A 
ATOM     39  C   UNL A   1      41.390  26.553  27.540  1.00  0.00    -0.014 A 
BRANCH  39  40
ATOM     40  C   UNL A   1      41.037  27.667  28.670  1.00  0.00     0.031 A 
ATOM     41  C   UNL A   1      39.908  28.905  28.824  1.00  0.00     0.074 A 
ATOM     42  C   UNL A   1      41.764  27.550  29.806  1.00  0.00     0.049 A 
ATOM     43  N   UNL A   1      40.174  30.125  29.274  1.00  0.00    -0.248 NA
ATOM     44  C   UNL A   1      38.419  28.875  28.615  1.00  0.00     0.031 C 
ATOM     45  C   UNL A   1      41.585  28.243  31.079  1.00  0.00     0.029 A 
ATOM     46  N   UNL A   1      42.919  26.788  30.005  1.00  0.00    -0.354 N 
ATOM     47  C   UNL A   1      38.967  30.866  29.357  1.00  0.00     0.074 A 
ATOM     48  C   UNL A   1      37.950  30.092  28.776  1.00  0.00     0.031 C 
ATOM     49  C   UNL A   1      42.717  28.124  31.793  1.00  0.00     0.029 A 
ATOM     50  C   UNL A   1      43.702  27.454  30.960  1.00  0.00     0.049 A 
ATOM     51  H   UNL A   1      43.144  25.940  29.556  1.00  0.00     0.167 HD
ATOM     52  C   UNL A   1      38.690  31.983  30.088  1.00  0.00     0.037 A 
ATOM     53  C   UNL A   1      44.923  27.928  30.579  1.00  0.00     0.037 A 
ATOM     54  C   UNL A   1      39.753  32.220  31.014  1.00  0.00     0.049 A 
ATOM     55  C   UNL A   1      44.926  29.440  30.474  1.00  0.00     0.074 A 
ATOM     56  C   UNL A   1      40.058  31.698  32.256  1.00  0.00     0.029 A 
ATOM     57  N   UNL A   1      40.920  32.697  30.484  1.00  0.00    -0.354 N 
ATOM     58  N   UNL A   1      44.005  30.223  30.977  1.00  0.00    -0.248 NA
ATOM     59  C   UNL A   1      45.941  30.189  29.732  1.00  0.00     0.031 C 
ATOM     60  C   UNL A   1      41.485  31.703  32.367  1.00  0.00     0.029 A 
ATOM     61  C   UNL A   1      42.009  32.291  31.227  1.00  0.00     0.049 A 
ATOM     62  H   UNL A   1      40.975  33.258  29.677  1.00  0.00     0.167 HD
ATOM     63  C   UNL A   1      44.198  31.493  30.506  1.00  0.00     0.074 A 
ATOM     64  C   UNL A   1      45.457  31.440  29.789  1.00  0.00     0.031 C 
ATOM     65  C   UNL A   1      43.312  32.516  30.636  1.00  0.00     0.037 A 
BRANCH  52  66
ATOM     66  C   UNL A   1      37.299  32.616  30.088  1.00  0.00     0.058 A 
ATOM     67  C   UNL A   1      36.850  33.435  29.042  1.00  0.00     0.135 A 
ATOM     68  C   UNL A   1      36.392  32.483  31.175  1.00  0.00     0.135 A 
ATOM     69  F   UNL A   1      37.591  33.601  27.937  1.00  0.00    -0.206 F 
ATOM     70  C   UNL A   1      35.642  34.149  29.107  1.00  0.00     0.059 A 
ATOM     71  C   UNL A   1      35.211  33.231  31.289  1.00  0.00     0.059 A 
ATOM     72  F   UNL A   1      36.671  31.656  32.198  1.00  0.00    -0.206 F 
ATOM     73  C   UNL A   1      34.842  34.068  30.246  1.00  0.00     0.060 A 
BRANCH  73  74
ATOM     74  S   UNL A   1      33.360  35.102  30.369  1.00  0.00     0.124 S 
ATOM     75  O   UNL A   1      33.901  36.452  30.238  1.00  0.00    -0.237 OA
ATOM     76  O   UNL A   1      32.564  34.626  29.243  1.00  0.00    -0.237 OA
ATOM     77  O   UNL A   1      32.829  34.783  31.694  1.00  0.00    -0.744 OA
ENDBRANCH  73  74
ENDBRANCH  52  66
BRANCH  53  78
ATOM     78  C   UNL A   1      45.657  26.925  29.737  1.00  0.00     0.058 A 
ATOM     79  C   UNL A   1      45.654  27.143  28.340  1.00  0.00     0.135 A 
ATOM     80  C   UNL A   1      46.654  26.074  30.233  1.00  0.00     0.135 A 
ATOM     81  F   UNL A   1      44.712  27.926  27.788  1.00  0.00    -0.206 F 
ATOM     82  C   UNL A   1      46.682  26.699  27.513  1.00  0.00     0.059 A 
ATOM     83  C   UNL A   1      47.687  25.592  29.412  1.00  0.00     0.059 A 
ATOM     84  F   UNL A   1      46.728  25.816  31.547  1.00  0.00    -0.206 F 
ATOM     85  C   UNL A   1      47.731  25.979  28.073  1.00  0.00     0.060 A 
BRANCH  85  86
ATOM     86  S   UNL A   1      49.216  25.747  27.060  1.00  0.00     0.124 S 
ATOM     87  O   UNL A   1      50.086  26.812  27.545  1.00  0.00    -0.237 OA
ATOM     88  O   UNL A   1      49.615  24.386  27.428  1.00  0.00    -0.237 OA
ATOM     89  O   UNL A   1      48.728  25.906  25.698  1.00  0.00    -0.744 OA
ENDBRANCH  85  86
ENDBRANCH  53  78
BRANCH  65  90
ATOM     90  C   UNL A   1      43.661  33.886  30.159  1.00  0.00     0.058 A 
ATOM     91  C   UNL A   1      43.844  34.905  31.099  1.00  0.00     0.135 A 
ATOM     92  C   UNL A   1      43.629  34.251  28.800  1.00  0.00     0.135 A 
ATOM     93  F   UNL A   1      43.882  34.619  32.410  1.00  0.00    -0.206 F 
ATOM     94  C   UNL A   1      43.971  36.232  30.712  1.00  0.00     0.059 A 
ATOM     95  C   UNL A   1      43.697  35.575  28.393  1.00  0.00     0.059 A 
ATOM     96  F   UNL A   1      43.497  33.323  27.838  1.00  0.00    -0.206 F 
ATOM     97  C   UNL A   1      43.879  36.559  29.359  1.00  0.00     0.060 A 
BRANCH  97  98
ATOM     98  S   UNL A   1      43.963  38.285  28.856  1.00  0.00     0.124 S 
ATOM     99  O   UNL A   1      42.641  38.793  29.209  1.00  0.00    -0.237 OA
ATOM    100  O   UNL A   1      45.065  38.770  29.680  1.00  0.00    -0.237 OA
ATOM    101  O   UNL A   1      44.231  38.199  27.424  1.00  0.00    -0.744 OA
ENDBRANCH  97  98
ENDBRANCH  65  90
ENDBRANCH  39  40
ENDBRANCH  32  34
ENDBRANCH  31  32
ENDBRANCH  30  31
ENDBRANCH  29  30
ENDBRANCH  28  29
ENDBRANCH  27  28
ENDBRANCH   1  27
TORSDOF 23
ENDMDL
MODEL 2
REMARK VINA RESULT:     -11.4      3.893     11.040
REMARK SMILES Cc1cccc(NS(=O)(=O)c2ccc(Br)c(C(=O)OCCOCCOCCOC(=O)c3ccc(-c4c5nc(c(-c6c(F)cc(S(=O)(=O)[O-])cc6F)c6ccc([nH]6)c(-c6c(F)cc(S(=O)(=O)[O-])cc6F)c6nc(c(-c7c(F)cc(S(=O)(=O)[O-])cc7F)c7ccc4[nH]7)C=C6)C=C5)cc3)c2)c1
REMARK SMILES IDX 23 1 22 2 21 3 20 4 19 5 17 6 18 7 16 8 11 9 12 10 97 11
REMARK SMILES IDX 13 12 14 13 15 14 8 15 9 16 10 17 7 18 6 20 1 21 2 22 3 23
REMARK SMILES IDX 98 24 4 25 5 26 24 27 25 28 26 29 27 30 28 31 29 32 30 33
REMARK SMILES IDX 31 34 32 35 96 36 33 37 95 38 34 39 35 40 36 41 89 42 37 43
REMARK SMILES IDX 94 44 88 45 90 46 38 47 93 48 87 49 86 50 39 52 73 53 52 54
REMARK SMILES IDX 72 55 53 56 56 57 71 58 91 59 54 60 55 61 70 63 92 64 57 65
REMARK SMILES IDX 40 66 41 67 50 68 42 69 43 70 49 71 51 72 44 73 45 74 46 75
REMARK SMILES IDX 47 76 48 77 74 78 75 79 84 80 76 81 77 82 83 83 85 84 78 85
REMARK SMILES IDX 79 86 80 87 81 88 82 89 58 90 59 91 68 92 60 93 61 94 67 95
REMARK SMILES IDX 69 96 62 97 63 98 64 99 65 100 66 101
REMARK H PARENT 7 19 90 51 56 62
REMARK Flexibility Score: inf
ROOT
ATOM      1  C   UNL A   1      35.810  31.727  27.913  1.00  0.00     0.188 C 
ENDROOT
BRANCH   1   2
ATOM      2  O   UNL A   1      34.365  31.611  27.955  1.00  0.00    -0.376 OA
BRANCH   2   3
ATOM      3  C   UNL A   1      33.601  30.419  27.628  1.00  0.00     0.202 C 
BRANCH   3   4
ATOM      4  C   UNL A   1      32.089  30.469  26.868  1.00  0.00     0.261 C 
BRANCH   4   5
ATOM      5  O   UNL A   1      31.662  29.997  25.258  1.00  0.00    -0.460 OA
BRANCH   5   6
ATOM      6  C   UNL A   1      31.903  28.942  24.298  1.00  0.00     0.339 C 
ATOM      7  O   UNL A   1      32.499  28.980  23.224  1.00  0.00    -0.246 OA
BRANCH   6   8
ATOM      8  C   UNL A   1      31.476  27.511  24.450  1.00  0.00     0.075 A 
ATOM      9  C   UNL A   1      32.143  25.105  24.687  1.00  0.00     0.088 A 
ATOM     10  C   UNL A   1      30.885  24.730  24.234  1.00  0.00     0.023 A 
ATOM     11  C   UNL A   1      32.449  26.484  24.754  1.00  0.00     0.039 A 
ATOM     12  C   UNL A   1      29.988  25.720  23.795  1.00  0.00     0.018 A 
ATOM     13  C   UNL A   1      30.279  27.094  23.893  1.00  0.00     0.032 A 
ATOM     14  Br  UNL A   1      29.084  28.321  23.079  1.00  0.00    -0.050 Br
BRANCH   9  15
ATOM     15  S   UNL A   1      33.331  23.839  25.174  1.00  0.00     0.261 S 
ATOM     16  O   UNL A   1      33.076  22.694  24.362  1.00  0.00    -0.201 OA
ATOM     17  O   UNL A   1      33.316  23.746  26.637  1.00  0.00    -0.201 OA
BRANCH  15  18
ATOM     18  N   UNL A   1      34.909  24.293  24.746  1.00  0.00    -0.280 N 
ATOM     19  H   UNL A   1      35.040  25.179  24.337  1.00  0.00     0.180 HD
BRANCH  18  20
ATOM     20  C   UNL A   1      36.052  23.475  24.944  1.00  0.00     0.049 A 
ATOM     21  C   UNL A   1      39.317  23.727  26.907  1.00  0.00     0.044 C 
ATOM     22  C   UNL A   1      38.207  23.198  26.049  1.00  0.00    -0.049 A 
ATOM     23  C   UNL A   1      38.232  21.872  25.607  1.00  0.00     0.003 A 
ATOM     24  C   UNL A   1      37.104  23.995  25.715  1.00  0.00     0.030 A 
ATOM     25  C   UNL A   1      37.234  21.392  24.755  1.00  0.00     0.002 A 
ATOM     26  C   UNL A   1      36.168  22.210  24.385  1.00  0.00     0.027 A 
ENDBRANCH  18  20
ENDBRANCH  15  18
ENDBRANCH   9  15
ENDBRANCH   6   8
ENDBRANCH   5   6
ENDBRANCH   4   5
ENDBRANCH   3   4
ENDBRANCH   2   3
ENDBRANCH   1   2
BRANCH   1  27
ATOM     27  C   UNL A   1      36.565  32.979  28.346  1.00  0.00     0.188 C 
BRANCH  27  28
ATOM     28  O   UNL A   1      35.652  33.940  28.837  1.00  0.00    -0.376 OA
BRANCH  28  29
ATOM     29  C   UNL A   1      35.722  34.214  30.219  1.00  0.00     0.202 C 
BRANCH  29  30
ATOM     30  C   UNL A   1      34.633  33.500  31.048  1.00  0.00     0.261 C 
BRANCH  30  31
ATOM     31  O   UNL A   1      35.011  32.147  31.426  1.00  0.00    -0.460 OA
BRANCH  31  32
ATOM     32  C   UNL A   1      35.849  31.955  32.517  1.00  0.00     0.338 C 
ATOM     33  O   UNL A   1      35.625  32.478  33.593  1.00  0.00    -0.246 OA
BRANCH  32  34
ATOM     34  C   UNL A   1      36.864  30.861  32.251  1.00  0.00     0.060 A 
ATOM     35  C   UNL A   1      37.255  29.718  32.975  1.00  0.00     0.016 A 
ATOM     36  C   UNL A   1      37.629  31.079  31.171  1.00  0.00     0.016 A 
ATOM     37  C   UNL A   1      38.476  28.912  32.634  1.00  0.00     0.010 A 
ATOM     38  C   UNL A   1      38.869  30.443  31.115  1.00  0.00     0.010 A 
ATOM     39  C   UNL A   1      39.380  29.263  31.622  1.00  0.00    -0.014 A 
BRANCH  39  40
ATOM     40  C   UNL A   1      40.855  28.732  31.189  1.00  0.00     0.031 A 
ATOM     41  C   UNL A   1      41.449  27.511  30.197  1.00  0.00     0.074 A 
ATOM     42  C   UNL A   1      41.874  29.482  31.673  1.00  0.00     0.049 A 
ATOM     43  N   UNL A   1      42.450  26.697  30.508  1.00  0.00    -0.248 NA
ATOM     44  C   UNL A   1      41.083  27.166  28.780  1.00  0.00     0.031 C 
ATOM     45  C   UNL A   1      43.294  29.415  31.338  1.00  0.00     0.029 A 
ATOM     46  N   UNL A   1      41.817  30.452  32.679  1.00  0.00    -0.354 N 
ATOM     47  C   UNL A   1      42.737  25.863  29.398  1.00  0.00     0.074 A 
ATOM     48  C   UNL A   1      41.748  26.088  28.428  1.00  0.00     0.031 C 
ATOM     49  C   UNL A   1      43.989  30.052  32.296  1.00  0.00     0.029 A 
ATOM     50  C   UNL A   1      43.056  30.445  33.339  1.00  0.00     0.049 A 
ATOM     51  H   UNL A   1      41.049  31.032  32.887  1.00  0.00     0.167 HD
ATOM     52  C   UNL A   1      43.873  25.164  29.115  1.00  0.00     0.037 A 
ATOM     53  C   UNL A   1      43.086  30.087  34.654  1.00  0.00     0.037 A 
ATOM     54  C   UNL A   1      44.915  25.571  30.005  1.00  0.00     0.049 A 
ATOM     55  C   UNL A   1      43.712  28.720  34.845  1.00  0.00     0.074 A 
ATOM     56  C   UNL A   1      45.786  26.643  30.013  1.00  0.00     0.029 A 
ATOM     57  N   UNL A   1      44.810  25.134  31.297  1.00  0.00    -0.354 N 
ATOM     58  N   UNL A   1      44.417  28.090  33.940  1.00  0.00    -0.248 NA
ATOM     59  C   UNL A   1      43.534  27.921  36.059  1.00  0.00     0.031 C 
ATOM     60  C   UNL A   1      46.047  26.955  31.385  1.00  0.00     0.029 A 
ATOM     61  C   UNL A   1      45.390  26.026  32.176  1.00  0.00     0.049 A 
ATOM     62  H   UNL A   1      44.378  24.291  31.564  1.00  0.00     0.167 HD
ATOM     63  C   UNL A   1      44.630  26.806  34.358  1.00  0.00     0.074 A 
ATOM     64  C   UNL A   1      44.121  26.764  35.716  1.00  0.00     0.031 C 
ATOM     65  C   UNL A   1      45.128  25.805  33.583  1.00  0.00     0.037 A 
BRANCH  52  66
ATOM     66  C   UNL A   1      44.016  24.352  27.829  1.00  0.00     0.058 A 
ATOM     67  C   UNL A   1      43.413  23.096  27.665  1.00  0.00     0.135 A 
ATOM     68  C   UNL A   1      44.825  24.773  26.738  1.00  0.00     0.135 A 
ATOM     69  F   UNL A   1      42.586  22.609  28.601  1.00  0.00    -0.206 F 
ATOM     70  C   UNL A   1      43.669  22.274  26.556  1.00  0.00     0.059 A 
ATOM     71  C   UNL A   1      45.143  23.946  25.650  1.00  0.00     0.059 A 
ATOM     72  F   UNL A   1      45.386  25.995  26.737  1.00  0.00    -0.206 F 
ATOM     73  C   UNL A   1      44.559  22.691  25.567  1.00  0.00     0.060 A 
BRANCH  73  74
ATOM     74  S   UNL A   1      44.982  21.561  24.215  1.00  0.00     0.124 S 
ATOM     75  O   UNL A   1      44.518  22.288  23.036  1.00  0.00    -0.237 OA
ATOM     76  O   UNL A   1      46.429  21.445  24.359  1.00  0.00    -0.237 OA
ATOM     77  O   UNL A   1      44.220  20.353  24.527  1.00  0.00    -0.744 OA
ENDBRANCH  73  74
ENDBRANCH  52  66
BRANCH  53  78
ATOM     78  C   UNL A   1      41.959  30.721  35.416  1.00  0.00     0.058 A 
ATOM     79  C   UNL A   1      42.124  32.076  35.787  1.00  0.00     0.135 A 
ATOM     80  C   UNL A   1      40.645  30.231  35.414  1.00  0.00     0.135 A 
ATOM     81  F   UNL A   1      43.356  32.609  35.838  1.00  0.00    -0.206 F 
ATOM     82  C   UNL A   1      41.046  32.939  35.962  1.00  0.00     0.059 A 
ATOM     83  C   UNL A   1      39.543  31.079  35.614  1.00  0.00     0.059 A 
ATOM     84  F   UNL A   1      40.402  28.958  35.073  1.00  0.00    -0.206 F 
ATOM     85  C   UNL A   1      39.757  32.443  35.807  1.00  0.00     0.060 A 
BRANCH  85  86
ATOM     86  S   UNL A   1      38.411  33.650  35.668  1.00  0.00     0.124 S 
ATOM     87  O   UNL A   1      37.288  32.923  36.249  1.00  0.00    -0.237 OA
ATOM     88  O   UNL A   1      38.928  34.762  36.467  1.00  0.00    -0.237 OA
ATOM     89  O   UNL A   1      38.324  33.898  34.236  1.00  0.00    -0.744 OA
ENDBRANCH  85  86
ENDBRANCH  53  78
BRANCH  65  90
ATOM     90  C   UNL A   1      45.401  24.459  34.166  1.00  0.00     0.058 A 
ATOM     91  C   UNL A   1      46.726  24.057  34.352  1.00  0.00     0.135 A 
ATOM     92  C   UNL A   1      44.393  23.496  34.362  1.00  0.00     0.135 A 
ATOM     93  F   UNL A   1      47.731  24.930  34.177  1.00  0.00    -0.206 F 
ATOM     94  C   UNL A   1      47.044  22.750  34.698  1.00  0.00     0.059 A 
ATOM     95  C   UNL A   1      44.689  22.173  34.654  1.00  0.00     0.059 A 
ATOM     96  F   UNL A   1      43.095  23.819  34.242  1.00  0.00    -0.206 F 
ATOM     97  C   UNL A   1      46.020  21.812  34.830  1.00  0.00     0.060 A 
BRANCH  97  98
ATOM     98  S   UNL A   1      46.430  20.100  35.203  1.00  0.00     0.124 S 
ATOM     99  O   UNL A   1      47.410  19.767  34.173  1.00  0.00    -0.237 OA
ATOM    100  O   UNL A   1      46.956  20.219  36.558  1.00  0.00    -0.237 OA
ATOM    101  O   UNL A   1      45.146  19.418  35.078  1.00  0.00    -0.744 OA
ENDBRANCH  97  98
ENDBRANCH  65  90
ENDBRANCH  39  40
ENDBRANCH  32  34
ENDBRANCH  31  32
ENDBRANCH  30  31
ENDBRANCH  29  30
ENDBRANCH  28  29
ENDBRANCH  27  28
ENDBRANCH   1  27
TORSDOF 23
ENDMDL
MODEL 3
REMARK VINA RESULT:     -11.3      1.636      2.063
REMARK SMILES Cc1cccc(NS(=O)(=O)c2ccc(Br)c(C(=O)OCCOCCOCCOC(=O)c3ccc(-c4c5nc(c(-c6c(F)cc(S(=O)(=O)[O-])cc6F)c6ccc([nH]6)c(-c6c(F)cc(S(=O)(=O)[O-])cc6F)c6nc(c(-c7c(F)cc(S(=O)(=O)[O-])cc7F)c7ccc4[nH]7)C=C6)C=C5)cc3)c2)c1
REMARK SMILES IDX 23 1 22 2 21 3 20 4 19 5 17 6 18 7 16 8 11 9 12 10 97 11
REMARK SMILES IDX 13 12 14 13 15 14 8 15 9 16 10 17 7 18 6 20 1 21 2 22 3 23
REMARK SMILES IDX 98 24 4 25 5 26 24 27 25 28 26 29 27 30 28 31 29 32 30 33
REMARK SMILES IDX 31 34 32 35 96 36 33 37 95 38 34 39 35 40 36 41 89 42 37 43
REMARK SMILES IDX 94 44 88 45 90 46 38 47 93 48 87 49 86 50 39 52 73 53 52 54
REMARK SMILES IDX 72 55 53 56 56 57 71 58 91 59 54 60 55 61 70 63 92 64 57 65
REMARK SMILES IDX 40 66 41 67 50 68 42 69 43 70 49 71 51 72 44 73 45 74 46 75
REMARK SMILES IDX 47 76 48 77 74 78 75 79 84 80 76 81 77 82 83 83 85 84 78 85
REMARK SMILES IDX 79 86 80 87 81 88 82 89 58 90 59 91 68 92 60 93 61 94 67 95
REMARK SMILES IDX 69 96 62 97 63 98 64 99 65 100 66 101
REMARK H PARENT 7 19 90 51 56 62
REMARK Flexibility Score: inf
ROOT
ATOM      1  C   UNL A   1      40.902  20.674  27.340  1.00  0.00     0.188 C 
ENDROOT
BRANCH   1   2
ATOM      2  O   UNL A   1      40.153  21.916  27.359  1.00  0.00    -0.376 OA
BRANCH   2   3
ATOM      3  C   UNL A   1      39.579  22.576  26.199  1.00  0.00     0.202 C 
BRANCH   3   4
ATOM      4  C   UNL A   1      38.286  23.665  26.299  1.00  0.00     0.261 C 
BRANCH   4   5
ATOM      5  O   UNL A   1      36.848  23.743  25.338  1.00  0.00    -0.460 OA
BRANCH   5   6
ATOM      6  C   UNL A   1      36.301  23.238  24.097  1.00  0.00     0.339 C 
ATOM      7  O   UNL A   1      36.840  22.573  23.216  1.00  0.00    -0.246 OA
BRANCH   6   8
ATOM      8  C   UNL A   1      34.883  23.411  23.635  1.00  0.00     0.075 A 
ATOM      9  C   UNL A   1      33.087  24.956  22.811  1.00  0.00     0.088 A 
ATOM     10  C   UNL A   1      32.132  24.036  23.223  1.00  0.00     0.023 A 
ATOM     11  C   UNL A   1      34.449  24.663  23.054  1.00  0.00     0.039 A 
ATOM     12  C   UNL A   1      32.539  22.887  23.923  1.00  0.00     0.018 A 
ATOM     13  C   UNL A   1      33.897  22.578  24.136  1.00  0.00     0.032 A 
ATOM     14  Br  UNL A   1      34.315  21.117  25.270  1.00  0.00    -0.050 Br
BRANCH   9  15
ATOM     15  S   UNL A   1      32.568  26.472  21.986  1.00  0.00     0.261 S 
ATOM     16  O   UNL A   1      31.499  26.125  21.108  1.00  0.00    -0.201 OA
ATOM     17  O   UNL A   1      33.770  27.145  21.484  1.00  0.00    -0.201 OA
BRANCH  15  18
ATOM     18  N   UNL A   1      31.853  27.546  23.088  1.00  0.00    -0.280 N 
ATOM     19  H   UNL A   1      32.445  28.061  23.682  1.00  0.00     0.180 HD
BRANCH  18  20
ATOM     20  C   UNL A   1      30.453  27.747  23.205  1.00  0.00     0.049 A 
ATOM     21  C   UNL A   1      27.923  30.322  21.959  1.00  0.00     0.044 C 
ATOM     22  C   UNL A   1      28.521  29.109  22.605  1.00  0.00    -0.049 A 
ATOM     23  C   UNL A   1      27.693  28.126  23.154  1.00  0.00     0.003 A 
ATOM     24  C   UNL A   1      29.908  28.908  22.632  1.00  0.00     0.030 A 
ATOM     25  C   UNL A   1      28.244  27.024  23.814  1.00  0.00     0.002 A 
ATOM     26  C   UNL A   1      29.626  26.861  23.882  1.00  0.00     0.027 A 
ENDBRANCH  18  20
ENDBRANCH  15  18
ENDBRANCH   9  15
ENDBRANCH   6   8
ENDBRANCH   5   6
ENDBRANCH   4   5
ENDBRANCH   3   4
ENDBRANCH   2   3
ENDBRANCH   1   2
BRANCH   1  27
ATOM     27  C   UNL A   1      41.821  20.266  26.193  1.00  0.00     0.188 C 
BRANCH  27  28
ATOM     28  O   UNL A   1      43.161  20.572  26.524  1.00  0.00    -0.376 OA
BRANCH  28  29
ATOM     29  C   UNL A   1      44.007  20.903  25.445  1.00  0.00     0.202 C 
BRANCH  29  30
ATOM     30  C   UNL A   1      45.139  21.880  25.821  1.00  0.00     0.261 C 
BRANCH  30  31
ATOM     31  O   UNL A   1      44.776  23.273  25.604  1.00  0.00    -0.460 OA
BRANCH  31  32
ATOM     32  C   UNL A   1      43.589  23.571  24.945  1.00  0.00     0.338 C 
ATOM     33  O   UNL A   1      43.162  22.865  24.052  1.00  0.00    -0.246 OA
BRANCH  32  34
ATOM     34  C   UNL A   1      42.832  24.684  25.643  1.00  0.00     0.060 A 
ATOM     35  C   UNL A   1      42.135  25.812  25.171  1.00  0.00     0.016 A 
ATOM     36  C   UNL A   1      42.943  24.662  26.980  1.00  0.00     0.016 A 
ATOM     37  C   UNL A   1      41.679  26.927  26.069  1.00  0.00     0.010 A 
ATOM     38  C   UNL A   1      42.732  25.857  27.667  1.00  0.00     0.010 A 
ATOM     39  C   UNL A   1      41.972  26.990  27.439  1.00  0.00    -0.014 A 
BRANCH  39  40
ATOM     40  C   UNL A   1      41.816  28.141  28.577  1.00  0.00     0.031 A 
ATOM     41  C   UNL A   1      40.597  29.194  29.060  1.00  0.00     0.074 A 
ATOM     42  C   UNL A   1      42.887  28.252  29.398  1.00  0.00     0.049 A 
ATOM     43  N   UNL A   1      40.771  30.479  29.344  1.00  0.00    -0.248 NA
ATOM     44  C   UNL A   1      39.155  28.910  29.375  1.00  0.00     0.031 C 
ATOM     45  C   UNL A   1      43.017  29.030  30.627  1.00  0.00     0.029 A 
ATOM     46  N   UNL A   1      44.161  27.704  29.219  1.00  0.00    -0.354 N 
ATOM     47  C   UNL A   1      39.547  31.025  29.806  1.00  0.00     0.074 A 
ATOM     48  C   UNL A   1      38.553  30.048  29.640  1.00  0.00     0.031 C 
ATOM     49  C   UNL A   1      44.323  29.161  30.913  1.00  0.00     0.029 A 
ATOM     50  C   UNL A   1      45.082  28.577  29.821  1.00  0.00     0.049 A 
ATOM     51  H   UNL A   1      44.374  26.863  28.753  1.00  0.00     0.167 HD
ATOM     52  C   UNL A   1      39.329  32.152  30.543  1.00  0.00     0.037 A 
ATOM     53  C   UNL A   1      46.000  29.197  29.026  1.00  0.00     0.037 A 
ATOM     54  C   UNL A   1      40.577  32.644  31.039  1.00  0.00     0.049 A 
ATOM     55  C   UNL A   1      45.693  30.672  28.867  1.00  0.00     0.074 A 
ATOM     56  C   UNL A   1      41.365  32.301  32.119  1.00  0.00     0.029 A 
ATOM     57  N   UNL A   1      41.396  33.243  30.122  1.00  0.00    -0.354 N 
ATOM     58  N   UNL A   1      44.864  31.347  29.623  1.00  0.00    -0.248 NA
ATOM     59  C   UNL A   1      46.253  31.495  27.793  1.00  0.00     0.031 C 
ATOM     60  C   UNL A   1      42.722  32.541  31.734  1.00  0.00     0.029 A 
ATOM     61  C   UNL A   1      42.724  33.089  30.462  1.00  0.00     0.049 A 
ATOM     62  H   UNL A   1      41.078  33.723  29.324  1.00  0.00     0.167 HD
ATOM     63  C   UNL A   1      44.657  32.578  29.065  1.00  0.00     0.074 A 
ATOM     64  C   UNL A   1      45.596  32.654  27.963  1.00  0.00     0.031 C 
ATOM     65  C   UNL A   1      43.694  33.457  29.451  1.00  0.00     0.037 A 
BRANCH  52  66
ATOM     66  C   UNL A   1      37.926  32.555  30.995  1.00  0.00     0.058 A 
ATOM     67  C   UNL A   1      37.113  33.411  30.238  1.00  0.00     0.135 A 
ATOM     68  C   UNL A   1      37.374  32.155  32.243  1.00  0.00     0.135 A 
ATOM     69  F   UNL A   1      37.498  33.819  29.020  1.00  0.00    -0.206 F 
ATOM     70  C   UNL A   1      35.893  33.915  30.718  1.00  0.00     0.059 A 
ATOM     71  C   UNL A   1      36.189  32.691  32.769  1.00  0.00     0.059 A 
ATOM     72  F   UNL A   1      38.019  31.268  33.021  1.00  0.00    -0.206 F 
ATOM     73  C   UNL A   1      35.452  33.577  31.996  1.00  0.00     0.060 A 
BRANCH  73  74
ATOM     74  S   UNL A   1      33.947  34.343  32.652  1.00  0.00     0.124 S 
ATOM     75  O   UNL A   1      33.282  33.224  33.315  1.00  0.00    -0.237 OA
ATOM     76  O   UNL A   1      34.489  35.370  33.534  1.00  0.00    -0.237 OA
ATOM     77  O   UNL A   1      33.266  34.837  31.456  1.00  0.00    -0.744 OA
ENDBRANCH  73  74
ENDBRANCH  52  66
BRANCH  53  78
ATOM     78  C   UNL A   1      46.583  28.243  28.023  1.00  0.00     0.058 A 
ATOM     79  C   UNL A   1      45.949  28.180  26.761  1.00  0.00     0.135 A 
ATOM     80  C   UNL A   1      47.895  27.754  28.087  1.00  0.00     0.135 A 
ATOM     81  F   UNL A   1      44.681  28.606  26.628  1.00  0.00    -0.206 F 
ATOM     82  C   UNL A   1      46.631  27.830  25.599  1.00  0.00     0.059 A 
ATOM     83  C   UNL A   1      48.595  27.371  26.931  1.00  0.00     0.059 A 
ATOM     84  F   UNL A   1      48.569  27.779  29.246  1.00  0.00    -0.206 F 
ATOM     85  C   UNL A   1      47.976  27.490  25.686  1.00  0.00     0.060 A 
BRANCH  85  86
ATOM     86  S   UNL A   1      48.918  27.410  24.140  1.00  0.00     0.124 S 
ATOM     87  O   UNL A   1      50.167  28.067  24.508  1.00  0.00    -0.237 OA
ATOM     88  O   UNL A   1      49.002  25.965  23.920  1.00  0.00    -0.237 OA
ATOM     89  O   UNL A   1      48.082  28.137  23.195  1.00  0.00    -0.744 OA
ENDBRANCH  85  86
ENDBRANCH  53  78
BRANCH  65  90
ATOM     90  C   UNL A   1      43.611  34.811  28.830  1.00  0.00     0.058 A 
ATOM     91  C   UNL A   1      43.806  35.938  29.633  1.00  0.00     0.135 A 
ATOM     92  C   UNL A   1      43.158  35.019  27.514  1.00  0.00     0.135 A 
ATOM     93  F   UNL A   1      44.235  35.804  30.899  1.00  0.00    -0.206 F 
ATOM     94  C   UNL A   1      43.544  37.218  29.161  1.00  0.00     0.059 A 
ATOM     95  C   UNL A   1      42.837  36.281  27.038  1.00  0.00     0.059 A 
ATOM     96  F   UNL A   1      42.987  33.988  26.670  1.00  0.00    -0.206 F 
ATOM     97  C   UNL A   1      43.045  37.377  27.868  1.00  0.00     0.060 A 
BRANCH  97  98
ATOM     98  S   UNL A   1      42.630  39.025  27.276  1.00  0.00     0.124 S 
ATOM     99  O   UNL A   1      41.441  38.790  26.461  1.00  0.00    -0.237 OA
ATOM    100  O   UNL A   1      42.402  39.733  28.531  1.00  0.00    -0.237 OA
ATOM    101  O   UNL A   1      43.822  39.419  26.532  1.00  0.00    -0.744 OA
ENDBRANCH  97  98
ENDBRANCH  65  90
ENDBRANCH  39  40
ENDBRANCH  32  34
ENDBRANCH  31  32
ENDBRANCH  30  31
ENDBRANCH  29  30
ENDBRANCH  28  29
ENDBRANCH  27  28
ENDBRANCH   1  27
TORSDOF 23
ENDMDL
