MODEL 1
REMARK VINA RESULT:     -10.8      0.000      0.000
REMARK SMILES C[C@H]1[C@@H](C(=O)OCCOCCOCCOC(=O)c2ccc(-c3c4nc(c(-c5c(F)cc(S(=O)(=O)[O-])cc5F)c5ccc([nH]5)c(-c5c(F)cc(S(=O)(=O)[O-])cc5F)c5nc(c(-c6c(F)cc(S(=O)(=O)[O-])cc6F)c6ccc3[nH]6)C=C5)C=C4)cc2)CC[N@@H+]1Cc1cc(F)c(F)c(F)c1
REMARK SMILES IDX 11 1 10 2 9 3 8 4 7 5 6 6 4 7 5 8 3 9 1 10 2 11 86 12 84 13
REMARK SMILES IDX 85 14 87 16 88 17 89 18 96 19 90 20 94 21 91 22 92 23 95 24
REMARK SMILES IDX 93 25 12 26 13 27 14 28 15 29 16 30 17 31 18 32 19 33 83 34
REMARK SMILES IDX 20 35 82 36 21 37 22 38 23 39 76 40 24 41 81 42 75 43 77 44
REMARK SMILES IDX 25 45 80 46 74 47 73 48 26 50 60 51 39 52 59 53 40 54 43 55
REMARK SMILES IDX 58 56 78 57 41 58 42 59 57 61 79 62 44 63 27 64 28 65 37 66
REMARK SMILES IDX 29 67 30 68 36 69 38 70 31 71 32 72 33 73 34 74 35 75 61 76
REMARK SMILES IDX 62 77 71 78 63 79 64 80 70 81 72 82 65 83 66 84 67 85 68 86
REMARK SMILES IDX 69 87 45 88 46 89 55 90 47 91 48 92 54 93 56 94 49 95 50 96
REMARK SMILES IDX 51 97 52 98 53 99
REMARK H PARENT 86 15 77 49 43 60
REMARK Flexibility Score: inf
ROOT
ATOM      1  C   UNL A   1      43.718  20.930  25.489  1.00  0.00     0.188 C 
ENDROOT
BRANCH   1   2
ATOM      2  C   UNL A   1      42.587  20.090  26.105  1.00  0.00     0.188 C 
BRANCH   2   3
ATOM      3  O   UNL A   1      41.497  20.745  26.722  1.00  0.00    -0.376 OA
BRANCH   3   4
ATOM      4  C   UNL A   1      40.199  20.534  26.185  1.00  0.00     0.202 C 
BRANCH   4   5
ATOM      5  C   UNL A   1      39.255  21.738  26.047  1.00  0.00     0.261 C 
BRANCH   5   6
ATOM      6  O   UNL A   1      37.909  21.382  25.646  1.00  0.00    -0.463 OA
BRANCH   6   7
ATOM      7  C   UNL A   1      36.988  22.378  25.645  1.00  0.00     0.315 C 
ATOM      8  O   UNL A   1      37.286  23.568  25.589  1.00  0.00    -0.252 OA
BRANCH   7   9
ATOM      9  C   UNL A   1      35.523  21.938  25.600  1.00  0.00     0.162 C 
ATOM     10  C   UNL A   1      35.000  23.223  23.367  1.00  0.00     0.076 C 
ATOM     11  C   UNL A   1      34.571  22.210  24.422  1.00  0.00     0.195 C 
ATOM     12  N   UNL A   1      33.282  22.635  25.008  1.00  0.00    -0.328 N 
ATOM     13  C   UNL A   1      34.753  22.334  26.861  1.00  0.00     0.083 C 
ATOM     14  C   UNL A   1      33.511  23.060  26.379  1.00  0.00     0.263 C 
ATOM     15  H   UNL A   1      32.966  23.426  24.446  1.00  0.00     0.348 HD
BRANCH  12  16
ATOM     16  C   UNL A   1      32.126  21.754  24.830  1.00  0.00     0.299 C 
BRANCH  16  17
ATOM     17  C   UNL A   1      32.426  20.324  24.432  1.00  0.00     0.012 A 
ATOM     18  C   UNL A   1      32.779  19.381  25.407  1.00  0.00     0.052 A 
ATOM     19  C   UNL A   1      32.338  19.901  23.094  1.00  0.00     0.052 A 
ATOM     20  C   UNL A   1      32.974  18.047  25.053  1.00  0.00     0.162 A 
ATOM     21  C   UNL A   1      32.497  18.557  22.765  1.00  0.00     0.162 A 
ATOM     22  F   UNL A   1      33.313  17.167  26.006  1.00  0.00    -0.204 F 
ATOM     23  C   UNL A   1      32.811  17.626  23.741  1.00  0.00     0.194 A 
ATOM     24  F   UNL A   1      32.329  18.174  21.492  1.00  0.00    -0.204 F 
ATOM     25  F   UNL A   1      32.960  16.334  23.422  1.00  0.00    -0.200 F 
ENDBRANCH  16  17
ENDBRANCH  12  16
ENDBRANCH   7   9
ENDBRANCH   6   7
ENDBRANCH   5   6
ENDBRANCH   4   5
ENDBRANCH   3   4
ENDBRANCH   2   3
ENDBRANCH   1   2
BRANCH   1  26
ATOM     26  O   UNL A   1      43.478  21.999  24.601  1.00  0.00    -0.376 OA
BRANCH  26  27
ATOM     27  C   UNL A   1      43.745  23.320  25.018  1.00  0.00     0.202 C 
BRANCH  27  28
ATOM     28  C   UNL A   1      43.106  23.878  26.297  1.00  0.00     0.261 C 
BRANCH  28  29
ATOM     29  O   UNL A   1      41.943  24.697  26.109  1.00  0.00    -0.460 OA
BRANCH  29  30
ATOM     30  C   UNL A   1      42.185  26.011  25.879  1.00  0.00     0.338 C 
ATOM     31  O   UNL A   1      42.592  26.520  24.839  1.00  0.00    -0.246 OA
BRANCH  30  32
ATOM     32  C   UNL A   1      41.718  26.802  27.029  1.00  0.00     0.060 A 
ATOM     33  C   UNL A   1      42.346  28.019  27.331  1.00  0.00     0.016 A 
ATOM     34  C   UNL A   1      40.698  26.311  27.839  1.00  0.00     0.016 A 
ATOM     35  C   UNL A   1      41.959  28.752  28.453  1.00  0.00     0.010 A 
ATOM     36  C   UNL A   1      40.329  27.031  28.977  1.00  0.00     0.010 A 
ATOM     37  C   UNL A   1      40.970  28.242  29.301  1.00  0.00    -0.014 A 
BRANCH  37  38
ATOM     38  C   UNL A   1      40.696  28.851  30.624  1.00  0.00     0.031 A 
ATOM     39  C   UNL A   1      39.626  29.902  30.709  1.00  0.00     0.074 A 
ATOM     40  C   UNL A   1      41.428  28.533  31.706  1.00  0.00     0.049 A 
ATOM     41  N   UNL A   1      39.373  30.754  31.666  1.00  0.00    -0.248 NA
ATOM     42  C   UNL A   1      38.728  30.013  29.546  1.00  0.00     0.031 C 
ATOM     43  C   UNL A   1      42.439  27.480  31.765  1.00  0.00     0.029 A 
ATOM     44  N   UNL A   1      41.455  29.099  32.957  1.00  0.00    -0.354 N 
ATOM     45  C   UNL A   1      38.311  31.526  31.210  1.00  0.00     0.074 A 
ATOM     46  C   UNL A   1      37.973  31.046  29.888  1.00  0.00     0.031 C 
ATOM     47  C   UNL A   1      43.015  27.497  32.980  1.00  0.00     0.029 A 
ATOM     48  C   UNL A   1      42.455  28.601  33.760  1.00  0.00     0.049 A 
ATOM     49  H   UNL A   1      40.820  29.791  33.251  1.00  0.00     0.167 HD
ATOM     50  C   UNL A   1      37.686  32.549  31.838  1.00  0.00     0.037 A 
ATOM     51  C   UNL A   1      42.902  29.025  34.960  1.00  0.00     0.037 A 
ATOM     52  C   UNL A   1      38.038  33.013  33.153  1.00  0.00     0.049 A 
ATOM     53  C   UNL A   1      42.251  30.225  35.606  1.00  0.00     0.074 A 
ATOM     54  C   UNL A   1      37.468  34.040  33.884  1.00  0.00     0.029 A 
ATOM     55  N   UNL A   1      39.059  32.485  33.932  1.00  0.00    -0.354 N 
ATOM     56  N   UNL A   1      41.259  30.963  35.165  1.00  0.00    -0.248 NA
ATOM     57  C   UNL A   1      42.783  30.658  36.907  1.00  0.00     0.031 C 
ATOM     58  C   UNL A   1      38.181  34.172  35.078  1.00  0.00     0.029 A 
ATOM     59  C   UNL A   1      39.149  33.180  35.125  1.00  0.00     0.049 A 
ATOM     60  H   UNL A   1      39.633  31.729  33.674  1.00  0.00     0.167 HD
ATOM     61  C   UNL A   1      41.019  31.914  36.153  1.00  0.00     0.074 A 
ATOM     62  C   UNL A   1      41.977  31.667  37.211  1.00  0.00     0.031 C 
ATOM     63  C   UNL A   1      40.086  32.897  36.184  1.00  0.00     0.037 A 
BRANCH  50  64
ATOM     64  C   UNL A   1      36.591  33.263  31.095  1.00  0.00     0.058 A 
ATOM     65  C   UNL A   1      36.859  34.124  30.020  1.00  0.00     0.135 A 
ATOM     66  C   UNL A   1      35.246  33.056  31.446  1.00  0.00     0.135 A 
ATOM     67  F   UNL A   1      38.126  34.375  29.653  1.00  0.00    -0.206 F 
ATOM     68  C   UNL A   1      35.837  34.775  29.336  1.00  0.00     0.059 A 
ATOM     69  C   UNL A   1      34.206  33.671  30.758  1.00  0.00     0.059 A 
ATOM     70  F   UNL A   1      34.932  32.247  32.471  1.00  0.00    -0.206 F 
ATOM     71  C   UNL A   1      34.513  34.540  29.712  1.00  0.00     0.060 A 
BRANCH  71  72
ATOM     72  S   UNL A   1      33.199  35.389  28.813  1.00  0.00     0.124 S 
ATOM     73  O   UNL A   1      32.444  35.996  29.905  1.00  0.00    -0.237 OA
ATOM     74  O   UNL A   1      33.947  36.316  27.971  1.00  0.00    -0.237 OA
ATOM     75  O   UNL A   1      32.518  34.311  28.103  1.00  0.00    -0.744 OA
ENDBRANCH  71  72
ENDBRANCH  50  64
BRANCH  51  76
ATOM     76  C   UNL A   1      44.048  28.337  35.617  1.00  0.00     0.058 A 
ATOM     77  C   UNL A   1      43.838  27.291  36.528  1.00  0.00     0.135 A 
ATOM     78  C   UNL A   1      45.376  28.710  35.349  1.00  0.00     0.135 A 
ATOM     79  F   UNL A   1      42.588  26.906  36.829  1.00  0.00    -0.206 F 
ATOM     80  C   UNL A   1      44.898  26.650  37.160  1.00  0.00     0.059 A 
ATOM     81  C   UNL A   1      46.454  28.065  35.947  1.00  0.00     0.059 A 
ATOM     82  F   UNL A   1      45.635  29.701  34.481  1.00  0.00    -0.206 F 
ATOM     83  C   UNL A   1      46.204  27.040  36.860  1.00  0.00     0.060 A 
BRANCH  83  84
ATOM     84  S   UNL A   1      47.573  26.172  37.656  1.00  0.00     0.124 S 
ATOM     85  O   UNL A   1      46.894  25.015  38.228  1.00  0.00    -0.237 OA
ATOM     86  O   UNL A   1      48.458  25.899  36.528  1.00  0.00    -0.237 OA
ATOM     87  O   UNL A   1      48.076  27.147  38.618  1.00  0.00    -0.744 OA
ENDBRANCH  83  84
ENDBRANCH  51  76
BRANCH  63  88
ATOM     88  C   UNL A   1      39.983  33.743  37.425  1.00  0.00     0.058 A 
ATOM     89  C   UNL A   1      40.679  34.953  37.563  1.00  0.00     0.135 A 
ATOM     90  C   UNL A   1      39.069  33.392  38.434  1.00  0.00     0.135 A 
ATOM     91  F   UNL A   1      41.570  35.331  36.633  1.00  0.00    -0.206 F 
ATOM     92  C   UNL A   1      40.467  35.788  38.656  1.00  0.00     0.059 A 
ATOM     93  C   UNL A   1      38.821  34.225  39.519  1.00  0.00     0.059 A 
ATOM     94  F   UNL A   1      38.372  32.247  38.345  1.00  0.00    -0.206 F 
ATOM     95  C   UNL A   1      39.525  35.424  39.621  1.00  0.00     0.060 A 
BRANCH  95  96
ATOM     96  S   UNL A   1      39.192  36.563  40.981  1.00  0.00     0.124 S 
ATOM     97  O   UNL A   1      40.524  36.745  41.549  1.00  0.00    -0.237 OA
ATOM     98  O   UNL A   1      38.635  37.720  40.288  1.00  0.00    -0.237 OA
ATOM     99  O   UNL A   1      38.249  35.828  41.819  1.00  0.00    -0.744 OA
ENDBRANCH  95  96
ENDBRANCH  63  88
ENDBRANCH  37  38
ENDBRANCH  30  32
ENDBRANCH  29  30
ENDBRANCH  28  29
ENDBRANCH  27  28
ENDBRANCH  26  27
ENDBRANCH   1  26
TORSDOF 22
ENDMDL
MODEL 2
REMARK VINA RESULT:     -10.4      2.629      3.826
REMARK SMILES C[C@H]1[C@@H](C(=O)OCCOCCOCCOC(=O)c2ccc(-c3c4nc(c(-c5c(F)cc(S(=O)(=O)[O-])cc5F)c5ccc([nH]5)c(-c5c(F)cc(S(=O)(=O)[O-])cc5F)c5nc(c(-c6c(F)cc(S(=O)(=O)[O-])cc6F)c6ccc3[nH]6)C=C5)C=C4)cc2)CC[N@@H+]1Cc1cc(F)c(F)c(F)c1
REMARK SMILES IDX 11 1 10 2 9 3 8 4 7 5 6 6 4 7 5 8 3 9 1 10 2 11 86 12 84 13
REMARK SMILES IDX 85 14 87 16 88 17 89 18 96 19 90 20 94 21 91 22 92 23 95 24
REMARK SMILES IDX 93 25 12 26 13 27 14 28 15 29 16 30 17 31 18 32 19 33 83 34
REMARK SMILES IDX 20 35 82 36 21 37 22 38 23 39 76 40 24 41 81 42 75 43 77 44
REMARK SMILES IDX 25 45 80 46 74 47 73 48 26 50 60 51 39 52 59 53 40 54 43 55
REMARK SMILES IDX 58 56 78 57 41 58 42 59 57 61 79 62 44 63 27 64 28 65 37 66
REMARK SMILES IDX 29 67 30 68 36 69 38 70 31 71 32 72 33 73 34 74 35 75 61 76
REMARK SMILES IDX 62 77 71 78 63 79 64 80 70 81 72 82 65 83 66 84 67 85 68 86
REMARK SMILES IDX 69 87 45 88 46 89 55 90 47 91 48 92 54 93 56 94 49 95 50 96
REMARK SMILES IDX 51 97 52 98 53 99
REMARK H PARENT 86 15 77 49 43 60
REMARK Flexibility Score: inf
ROOT
ATOM      1  C   UNL A   1      40.937  21.826  26.295  1.00  0.00     0.188 C 
ENDROOT
BRANCH   1   2
ATOM      2  C   UNL A   1      39.602  21.095  26.073  1.00  0.00     0.188 C 
BRANCH   2   3
ATOM      3  O   UNL A   1      38.445  21.847  25.768  1.00  0.00    -0.376 OA
BRANCH   3   4
ATOM      4  C   UNL A   1      37.530  21.313  24.823  1.00  0.00     0.202 C 
BRANCH   4   5
ATOM      5  C   UNL A   1      36.317  22.161  24.412  1.00  0.00     0.261 C 
BRANCH   5   6
ATOM      6  O   UNL A   1      35.050  21.630  24.874  1.00  0.00    -0.463 OA
BRANCH   6   7
ATOM      7  C   UNL A   1      34.361  22.383  25.768  1.00  0.00     0.315 C 
ATOM      8  O   UNL A   1      34.764  22.612  26.905  1.00  0.00    -0.252 OA
BRANCH   7   9
ATOM      9  C   UNL A   1      33.085  23.046  25.245  1.00  0.00     0.162 C 
ATOM     10  C   UNL A   1      34.161  25.437  25.065  1.00  0.00     0.076 C 
ATOM     11  C   UNL A   1      33.000  24.500  24.751  1.00  0.00     0.195 C 
ATOM     12  N   UNL A   1      31.755  25.067  25.309  1.00  0.00    -0.328 N 
ATOM     13  C   UNL A   1      31.897  22.855  26.190  1.00  0.00     0.083 C 
ATOM     14  C   UNL A   1      31.327  24.242  26.427  1.00  0.00     0.263 C 
ATOM     15  H   UNL A   1      31.994  26.002  25.638  1.00  0.00     0.348 HD
BRANCH  12  16
ATOM     16  C   UNL A   1      30.686  25.424  24.374  1.00  0.00     0.299 C 
BRANCH  16  17
ATOM     17  C   UNL A   1      30.490  26.902  24.110  1.00  0.00     0.012 A 
ATOM     18  C   UNL A   1      29.458  27.337  23.267  1.00  0.00     0.052 A 
ATOM     19  C   UNL A   1      31.313  27.870  24.713  1.00  0.00     0.052 A 
ATOM     20  C   UNL A   1      29.226  28.700  23.089  1.00  0.00     0.162 A 
ATOM     21  C   UNL A   1      31.041  29.227  24.555  1.00  0.00     0.162 A 
ATOM     22  F   UNL A   1      28.233  29.087  22.276  1.00  0.00    -0.204 F 
ATOM     23  C   UNL A   1      29.997  29.646  23.748  1.00  0.00     0.194 A 
ATOM     24  F   UNL A   1      31.796  30.122  25.207  1.00  0.00    -0.204 F 
ATOM     25  F   UNL A   1      29.736  30.952  23.602  1.00  0.00    -0.200 F 
ENDBRANCH  16  17
ENDBRANCH  12  16
ENDBRANCH   7   9
ENDBRANCH   6   7
ENDBRANCH   5   6
ENDBRANCH   4   5
ENDBRANCH   3   4
ENDBRANCH   2   3
ENDBRANCH   1   2
BRANCH   1  26
ATOM     26  O   UNL A   1      42.043  21.674  25.434  1.00  0.00    -0.376 OA
BRANCH  26  27
ATOM     27  C   UNL A   1      43.220  22.413  25.680  1.00  0.00     0.202 C 
BRANCH  27  28
ATOM     28  C   UNL A   1      43.277  23.914  25.365  1.00  0.00     0.261 C 
BRANCH  28  29
ATOM     29  O   UNL A   1      42.761  24.785  26.382  1.00  0.00    -0.460 OA
BRANCH  29  30
ATOM     30  C   UNL A   1      42.387  26.018  25.959  1.00  0.00     0.338 C 
ATOM     31  O   UNL A   1      42.322  26.418  24.801  1.00  0.00    -0.246 OA
BRANCH  30  32
ATOM     32  C   UNL A   1      41.885  26.794  27.104  1.00  0.00     0.060 A 
ATOM     33  C   UNL A   1      42.394  28.079  27.344  1.00  0.00     0.016 A 
ATOM     34  C   UNL A   1      40.953  26.229  27.971  1.00  0.00     0.016 A 
ATOM     35  C   UNL A   1      41.976  28.806  28.461  1.00  0.00     0.010 A 
ATOM     36  C   UNL A   1      40.556  26.944  29.101  1.00  0.00     0.010 A 
ATOM     37  C   UNL A   1      41.080  28.225  29.363  1.00  0.00    -0.014 A 
BRANCH  37  38
ATOM     38  C   UNL A   1      40.796  28.846  30.679  1.00  0.00     0.031 A 
ATOM     39  C   UNL A   1      39.713  29.886  30.749  1.00  0.00     0.074 A 
ATOM     40  C   UNL A   1      41.528  28.549  31.766  1.00  0.00     0.049 A 
ATOM     41  N   UNL A   1      39.448  30.745  31.695  1.00  0.00    -0.248 NA
ATOM     42  C   UNL A   1      38.817  29.973  29.583  1.00  0.00     0.031 C 
ATOM     43  C   UNL A   1      42.551  27.508  31.839  1.00  0.00     0.029 A 
ATOM     44  N   UNL A   1      41.545  29.129  33.010  1.00  0.00    -0.354 N 
ATOM     45  C   UNL A   1      38.378  31.499  31.228  1.00  0.00     0.074 A 
ATOM     46  C   UNL A   1      38.049  31.001  29.911  1.00  0.00     0.031 C 
ATOM     47  C   UNL A   1      43.124  27.547  33.055  1.00  0.00     0.029 A 
ATOM     48  C   UNL A   1      42.549  28.653  33.821  1.00  0.00     0.049 A 
ATOM     49  H   UNL A   1      40.902  29.818  33.295  1.00  0.00     0.167 HD
ATOM     50  C   UNL A   1      37.739  32.522  31.843  1.00  0.00     0.037 A 
ATOM     51  C   UNL A   1      42.988  29.096  35.017  1.00  0.00     0.037 A 
ATOM     52  C   UNL A   1      38.083  33.006  33.153  1.00  0.00     0.049 A 
ATOM     53  C   UNL A   1      42.322  30.296  35.648  1.00  0.00     0.074 A 
ATOM     54  C   UNL A   1      37.500  34.035  33.870  1.00  0.00     0.029 A 
ATOM     55  N   UNL A   1      39.108  32.499  33.940  1.00  0.00    -0.354 N 
ATOM     56  N   UNL A   1      41.323  31.016  35.196  1.00  0.00    -0.248 NA
ATOM     57  C   UNL A   1      42.846  30.750  36.945  1.00  0.00     0.031 C 
ATOM     58  C   UNL A   1      38.208  34.189  35.064  1.00  0.00     0.029 A 
ATOM     59  C   UNL A   1      39.187  33.209  35.125  1.00  0.00     0.049 A 
ATOM     60  H   UNL A   1      39.691  31.747  33.692  1.00  0.00     0.167 HD
ATOM     61  C   UNL A   1      41.070  31.977  36.172  1.00  0.00     0.074 A 
ATOM     62  C   UNL A   1      42.027  31.753  37.235  1.00  0.00     0.031 C 
ATOM     63  C   UNL A   1      40.125  32.949  36.189  1.00  0.00     0.037 A 
BRANCH  50  64
ATOM     64  C   UNL A   1      36.638  33.216  31.088  1.00  0.00     0.058 A 
ATOM     65  C   UNL A   1      36.895  34.020  29.968  1.00  0.00     0.135 A 
ATOM     66  C   UNL A   1      35.299  33.044  31.477  1.00  0.00     0.135 A 
ATOM     67  F   UNL A   1      38.157  34.235  29.564  1.00  0.00    -0.206 F 
ATOM     68  C   UNL A   1      35.867  34.651  29.275  1.00  0.00     0.059 A 
ATOM     69  C   UNL A   1      34.253  33.639  30.781  1.00  0.00     0.059 A 
ATOM     70  F   UNL A   1      34.996  32.289  32.545  1.00  0.00    -0.206 F 
ATOM     71  C   UNL A   1      34.548  34.453  29.689  1.00  0.00     0.060 A 
BRANCH  71  72
ATOM     72  S   UNL A   1      33.226  35.276  28.777  1.00  0.00     0.124 S 
ATOM     73  O   UNL A   1      32.431  35.841  29.863  1.00  0.00    -0.237 OA
ATOM     74  O   UNL A   1      33.962  36.240  27.965  1.00  0.00    -0.237 OA
ATOM     75  O   UNL A   1      32.593  34.190  28.036  1.00  0.00    -0.744 OA
ENDBRANCH  71  72
ENDBRANCH  50  64
BRANCH  51  76
ATOM     76  C   UNL A   1      44.141  28.429  35.685  1.00  0.00     0.058 A 
ATOM     77  C   UNL A   1      45.459  28.837  35.432  1.00  0.00     0.135 A 
ATOM     78  C   UNL A   1      43.949  27.370  36.588  1.00  0.00     0.135 A 
ATOM     79  F   UNL A   1      45.697  29.834  34.565  1.00  0.00    -0.206 F 
ATOM     80  C   UNL A   1      46.545  28.213  36.036  1.00  0.00     0.059 A 
ATOM     81  C   UNL A   1      45.018  26.750  37.228  1.00  0.00     0.059 A 
ATOM     82  F   UNL A   1      42.709  26.943  36.872  1.00  0.00    -0.206 F 
ATOM     83  C   UNL A   1      46.315  27.172  36.937  1.00  0.00     0.060 A 
BRANCH  83  84
ATOM     84  S   UNL A   1      47.731  26.399  37.747  1.00  0.00     0.124 S 
ATOM     85  O   UNL A   1      47.836  27.184  38.972  1.00  0.00    -0.237 OA
ATOM     86  O   UNL A   1      47.276  25.022  37.909  1.00  0.00    -0.237 OA
ATOM     87  O   UNL A   1      48.813  26.586  36.784  1.00  0.00    -0.744 OA
ENDBRANCH  83  84
ENDBRANCH  51  76
BRANCH  63  88
ATOM     88  C   UNL A   1      40.010  33.808  37.420  1.00  0.00     0.058 A 
ATOM     89  C   UNL A   1      40.785  34.962  37.600  1.00  0.00     0.135 A 
ATOM     90  C   UNL A   1      39.010  33.534  38.370  1.00  0.00     0.135 A 
ATOM     91  F   UNL A   1      41.759  35.266  36.727  1.00  0.00    -0.206 F 
ATOM     92  C   UNL A   1      40.569  35.818  38.676  1.00  0.00     0.059 A 
ATOM     93  C   UNL A   1      38.758  34.390  39.436  1.00  0.00     0.059 A 
ATOM     94  F   UNL A   1      38.234  32.445  38.239  1.00  0.00    -0.206 F 
ATOM     95  C   UNL A   1      39.544  35.532  39.581  1.00  0.00     0.060 A 
BRANCH  95  96
ATOM     96  S   UNL A   1      39.214  36.702  40.916  1.00  0.00     0.124 S 
ATOM     97  O   UNL A   1      38.819  37.895  40.174  1.00  0.00    -0.237 OA
ATOM     98  O   UNL A   1      38.147  36.035  41.656  1.00  0.00    -0.237 OA
ATOM     99  O   UNL A   1      40.492  36.792  41.615  1.00  0.00    -0.744 OA
ENDBRANCH  95  96
ENDBRANCH  63  88
ENDBRANCH  37  38
ENDBRANCH  30  32
ENDBRANCH  29  30
ENDBRANCH  28  29
ENDBRANCH  27  28
ENDBRANCH  26  27
ENDBRANCH   1  26
TORSDOF 22
ENDMDL
MODEL 3
REMARK VINA RESULT:     -10.3      6.233     12.307
REMARK SMILES C[C@H]1[C@@H](C(=O)OCCOCCOCCOC(=O)c2ccc(-c3c4nc(c(-c5c(F)cc(S(=O)(=O)[O-])cc5F)c5ccc([nH]5)c(-c5c(F)cc(S(=O)(=O)[O-])cc5F)c5nc(c(-c6c(F)cc(S(=O)(=O)[O-])cc6F)c6ccc3[nH]6)C=C5)C=C4)cc2)CC[N@@H+]1Cc1cc(F)c(F)c(F)c1
REMARK SMILES IDX 11 1 10 2 9 3 8 4 7 5 6 6 4 7 5 8 3 9 1 10 2 11 86 12 84 13
REMARK SMILES IDX 85 14 87 16 88 17 89 18 96 19 90 20 94 21 91 22 92 23 95 24
REMARK SMILES IDX 93 25 12 26 13 27 14 28 15 29 16 30 17 31 18 32 19 33 83 34
REMARK SMILES IDX 20 35 82 36 21 37 22 38 23 39 76 40 24 41 81 42 75 43 77 44
REMARK SMILES IDX 25 45 80 46 74 47 73 48 26 50 60 51 39 52 59 53 40 54 43 55
REMARK SMILES IDX 58 56 78 57 41 58 42 59 57 61 79 62 44 63 27 64 28 65 37 66
REMARK SMILES IDX 29 67 30 68 36 69 38 70 31 71 32 72 33 73 34 74 35 75 61 76
REMARK SMILES IDX 62 77 71 78 63 79 64 80 70 81 72 82 65 83 66 84 67 85 68 86
REMARK SMILES IDX 69 87 45 88 46 89 55 90 47 91 48 92 54 93 56 94 49 95 50 96
REMARK SMILES IDX 51 97 52 98 53 99
REMARK H PARENT 86 15 77 49 43 60
REMARK Flexibility Score: inf
ROOT
ATOM      1  C   UNL A   1      34.603  32.726  28.934  1.00  0.00     0.188 C 
ENDROOT
BRANCH   1   2
ATOM      2  C   UNL A   1      34.929  31.410  28.209  1.00  0.00     0.188 C 
BRANCH   2   3
ATOM      3  O   UNL A   1      34.129  31.008  27.114  1.00  0.00    -0.376 OA
BRANCH   3   4
ATOM      4  C   UNL A   1      33.585  29.697  27.129  1.00  0.00     0.202 C 
BRANCH   4   5
ATOM      5  C   UNL A   1      33.202  29.044  25.792  1.00  0.00     0.261 C 
BRANCH   5   6
ATOM      6  O   UNL A   1      31.824  28.601  25.731  1.00  0.00    -0.463 OA
BRANCH   6   7
ATOM      7  C   UNL A   1      31.520  27.457  26.392  1.00  0.00     0.315 C 
ATOM      8  O   UNL A   1      31.036  27.441  27.521  1.00  0.00    -0.252 OA
BRANCH   7   9
ATOM      9  C   UNL A   1      31.702  26.158  25.604  1.00  0.00     0.162 C 
ATOM     10  C   UNL A   1      29.503  26.468  24.198  1.00  0.00     0.076 C 
ATOM     11  C   UNL A   1      30.816  25.726  24.423  1.00  0.00     0.195 C 
ATOM     12  N   UNL A   1      30.535  24.287  24.607  1.00  0.00    -0.328 N 
ATOM     13  C   UNL A   1      31.814  24.932  26.513  1.00  0.00     0.083 C 
ATOM     14  C   UNL A   1      30.797  23.934  25.992  1.00  0.00     0.263 C 
ATOM     15  H   UNL A   1      29.544  24.165  24.398  1.00  0.00     0.348 HD
BRANCH  12  16
ATOM     16  C   UNL A   1      31.089  23.351  23.626  1.00  0.00     0.299 C 
BRANCH  16  17
ATOM     17  C   UNL A   1      32.305  22.562  24.063  1.00  0.00     0.012 A 
ATOM     18  C   UNL A   1      32.154  21.286  24.623  1.00  0.00     0.052 A 
ATOM     19  C   UNL A   1      33.607  23.070  23.900  1.00  0.00     0.052 A 
ATOM     20  C   UNL A   1      33.276  20.526  24.949  1.00  0.00     0.162 A 
ATOM     21  C   UNL A   1      34.716  22.281  24.194  1.00  0.00     0.162 A 
ATOM     22  F   UNL A   1      33.101  19.310  25.485  1.00  0.00    -0.204 F 
ATOM     23  C   UNL A   1      34.556  21.007  24.715  1.00  0.00     0.194 A 
ATOM     24  F   UNL A   1      35.941  22.765  23.953  1.00  0.00    -0.204 F 
ATOM     25  F   UNL A   1      35.625  20.250  24.993  1.00  0.00    -0.200 F 
ENDBRANCH  16  17
ENDBRANCH  12  16
ENDBRANCH   7   9
ENDBRANCH   6   7
ENDBRANCH   5   6
ENDBRANCH   4   5
ENDBRANCH   3   4
ENDBRANCH   2   3
ENDBRANCH   1   2
BRANCH   1  26
ATOM     26  O   UNL A   1      34.091  32.768  30.247  1.00  0.00    -0.376 OA
BRANCH  26  27
ATOM     27  C   UNL A   1      34.898  33.269  31.291  1.00  0.00     0.202 C 
BRANCH  27  28
ATOM     28  C   UNL A   1      35.819  32.330  32.083  1.00  0.00     0.261 C 
BRANCH  28  29
ATOM     29  O   UNL A   1      36.848  31.679  31.325  1.00  0.00    -0.460 OA
BRANCH  29  30
ATOM     30  C   UNL A   1      37.176  30.429  31.738  1.00  0.00     0.338 C 
ATOM     31  O   UNL A   1      36.555  29.720  32.523  1.00  0.00    -0.246 OA
BRANCH  30  32
ATOM     32  C   UNL A   1      38.331  29.947  30.963  1.00  0.00     0.060 A 
ATOM     33  C   UNL A   1      39.422  29.374  31.634  1.00  0.00     0.016 A 
ATOM     34  C   UNL A   1      38.357  30.114  29.581  1.00  0.00     0.016 A 
ATOM     35  C   UNL A   1      40.552  28.968  30.923  1.00  0.00     0.010 A 
ATOM     36  C   UNL A   1      39.498  29.732  28.874  1.00  0.00     0.010 A 
ATOM     37  C   UNL A   1      40.607  29.178  29.541  1.00  0.00    -0.014 A 
BRANCH  37  38
ATOM     38  C   UNL A   1      41.867  28.994  28.781  1.00  0.00     0.031 A 
ATOM     39  C   UNL A   1      42.188  27.619  28.271  1.00  0.00     0.074 A 
ATOM     40  C   UNL A   1      42.736  30.005  28.613  1.00  0.00     0.049 A 
ATOM     41  N   UNL A   1      43.316  27.145  27.815  1.00  0.00    -0.248 NA
ATOM     42  C   UNL A   1      41.086  26.642  28.292  1.00  0.00     0.031 C 
ATOM     43  C   UNL A   1      42.503  31.396  28.996  1.00  0.00     0.029 A 
ATOM     44  N   UNL A   1      44.012  30.003  28.106  1.00  0.00    -0.354 N 
ATOM     45  C   UNL A   1      43.073  25.808  27.526  1.00  0.00     0.074 A 
ATOM     46  C   UNL A   1      41.692  25.543  27.866  1.00  0.00     0.031 C 
ATOM     47  C   UNL A   1      43.615  32.109  28.745  1.00  0.00     0.029 A 
ATOM     48  C   UNL A   1      44.655  31.213  28.240  1.00  0.00     0.049 A 
ATOM     49  H   UNL A   1      44.427  29.215  27.687  1.00  0.00     0.167 HD
ATOM     50  C   UNL A   1      43.931  24.885  27.033  1.00  0.00     0.037 A 
ATOM     51  C   UNL A   1      45.947  31.541  28.033  1.00  0.00     0.037 A 
ATOM     52  C   UNL A   1      45.302  25.167  26.702  1.00  0.00     0.049 A 
ATOM     53  C   UNL A   1      46.912  30.476  27.568  1.00  0.00     0.074 A 
ATOM     54  C   UNL A   1      46.258  24.305  26.193  1.00  0.00     0.029 A 
ATOM     55  N   UNL A   1      45.916  26.402  26.855  1.00  0.00    -0.354 N 
ATOM     56  N   UNL A   1      46.682  29.209  27.313  1.00  0.00    -0.248 NA
ATOM     57  C   UNL A   1      48.313  30.880  27.371  1.00  0.00     0.031 C 
ATOM     58  C   UNL A   1      47.464  25.004  26.094  1.00  0.00     0.029 A 
ATOM     59  C   UNL A   1      47.243  26.319  26.472  1.00  0.00     0.049 A 
ATOM     60  H   UNL A   1      45.473  27.215  27.187  1.00  0.00     0.167 HD
ATOM     61  C   UNL A   1      47.895  28.678  26.883  1.00  0.00     0.074 A 
ATOM     62  C   UNL A   1      48.860  29.758  26.921  1.00  0.00     0.031 C 
ATOM     63  C   UNL A   1      48.181  27.415  26.484  1.00  0.00     0.037 A 
BRANCH  50  64
ATOM     64  C   UNL A   1      43.427  23.478  26.865  1.00  0.00     0.058 A 
ATOM     65  C   UNL A   1      43.310  22.594  27.948  1.00  0.00     0.135 A 
ATOM     66  C   UNL A   1      43.024  23.018  25.600  1.00  0.00     0.135 A 
ATOM     67  F   UNL A   1      43.700  22.973  29.176  1.00  0.00    -0.206 F 
ATOM     68  C   UNL A   1      42.837  21.296  27.781  1.00  0.00     0.059 A 
ATOM     69  C   UNL A   1      42.518  21.736  25.414  1.00  0.00     0.059 A 
ATOM     70  F   UNL A   1      43.118  23.820  24.527  1.00  0.00    -0.206 F 
ATOM     71  C   UNL A   1      42.442  20.877  26.509  1.00  0.00     0.060 A 
BRANCH  71  72
ATOM     72  S   UNL A   1      41.827  19.193  26.309  1.00  0.00     0.124 S 
ATOM     73  O   UNL A   1      41.913  18.687  27.675  1.00  0.00    -0.237 OA
ATOM     74  O   UNL A   1      40.477  19.413  25.801  1.00  0.00    -0.237 OA
ATOM     75  O   UNL A   1      42.762  18.597  25.360  1.00  0.00    -0.744 OA
ENDBRANCH  71  72
ENDBRANCH  50  64
BRANCH  51  76
ATOM     76  C   UNL A   1      46.417  32.929  28.298  1.00  0.00     0.058 A 
ATOM     77  C   UNL A   1      46.873  33.309  29.569  1.00  0.00     0.135 A 
ATOM     78  C   UNL A   1      46.420  33.905  27.288  1.00  0.00     0.135 A 
ATOM     79  F   UNL A   1      46.878  32.418  30.573  1.00  0.00    -0.206 F 
ATOM     80  C   UNL A   1      47.301  34.605  29.834  1.00  0.00     0.059 A 
ATOM     81  C   UNL A   1      46.870  35.201  27.521  1.00  0.00     0.059 A 
ATOM     82  F   UNL A   1      45.999  33.595  26.051  1.00  0.00    -0.206 F 
ATOM     83  C   UNL A   1      47.301  35.544  28.802  1.00  0.00     0.060 A 
BRANCH  83  84
ATOM     84  S   UNL A   1      47.898  37.213  29.149  1.00  0.00     0.124 S 
ATOM     85  O   UNL A   1      49.039  37.311  28.246  1.00  0.00    -0.237 OA
ATOM     86  O   UNL A   1      46.739  38.030  28.803  1.00  0.00    -0.237 OA
ATOM     87  O   UNL A   1      48.221  37.166  30.572  1.00  0.00    -0.744 OA
ENDBRANCH  83  84
ENDBRANCH  51  76
BRANCH  63  88
ATOM     88  C   UNL A   1      49.569  27.124  25.977  1.00  0.00     0.058 A 
ATOM     89  C   UNL A   1      50.568  26.591  26.803  1.00  0.00     0.135 A 
ATOM     90  C   UNL A   1      49.854  27.265  24.607  1.00  0.00     0.135 A 
ATOM     91  F   UNL A   1      50.351  26.443  28.119  1.00  0.00    -0.206 F 
ATOM     92  C   UNL A   1      51.801  26.201  26.288  1.00  0.00     0.059 A 
ATOM     93  C   UNL A   1      51.068  26.856  24.067  1.00  0.00     0.059 A 
ATOM     94  F   UNL A   1      48.928  27.763  23.772  1.00  0.00    -0.206 F 
ATOM     95  C   UNL A   1      52.036  26.323  24.916  1.00  0.00     0.060 A 
BRANCH  95  96
ATOM     96  S   UNL A   1      53.603  25.723  24.249  1.00  0.00     0.124 S 
ATOM     97  O   UNL A   1      54.566  26.563  24.954  1.00  0.00    -0.237 OA
ATOM     98  O   UNL A   1      53.587  24.316  24.636  1.00  0.00    -0.237 OA
ATOM     99  O   UNL A   1      53.483  25.975  22.816  1.00  0.00    -0.744 OA
ENDBRANCH  95  96
ENDBRANCH  63  88
ENDBRANCH  37  38
ENDBRANCH  30  32
ENDBRANCH  29  30
ENDBRANCH  28  29
ENDBRANCH  27  28
ENDBRANCH  26  27
ENDBRANCH   1  26
TORSDOF 22
ENDMDL
