MODEL 1
REMARK VINA RESULT:      -9.3      0.000      0.000
REMARK SMILES COc1ccc(S(=O)(=O)N2CCC[C@H](C(=O)N3CCC[C@H](C(=O)OCCOCCOCCOC(=O)c4ccc(-c5c6nc(c(-c7c(F)cc(S(=O)(=O)[O-])cc7F)c7ccc([nH]7)c(-c7c(F)cc(S(=O)(=O)[O-])cc7F)c7nc(c(-c8c(F)cc(S(=O)(=O)[O-])cc8F)c8ccc5[nH]8)C=C7)C=C6)cc4)C3)C2)cc1
REMARK SMILES IDX 28 1 27 2 26 3 25 4 24 5 22 6 23 7 21 8 17 9 18 10 102 11
REMARK SMILES IDX 19 12 20 13 15 14 16 15 14 16 10 17 11 18 103 19 12 20 13 21
REMARK SMILES IDX 7 22 8 23 9 24 6 25 3 26 4 27 105 28 5 29 104 30 2 31 1 32
REMARK SMILES IDX 29 33 30 34 31 35 32 36 33 37 34 38 35 39 36 40 37 41 101 42
REMARK SMILES IDX 38 43 100 44 39 45 40 46 41 47 94 48 42 49 99 50 93 51 95 52
REMARK SMILES IDX 43 53 98 54 92 55 91 56 44 58 78 59 57 60 77 61 58 62 61 63
REMARK SMILES IDX 76 64 96 65 59 66 60 67 75 69 97 70 62 71 45 72 46 73 55 74
REMARK SMILES IDX 47 75 48 76 54 77 56 78 49 79 50 80 51 81 52 82 53 83 79 84
REMARK SMILES IDX 80 85 89 86 81 87 82 88 88 89 90 90 83 91 84 92 85 93 86 94
REMARK SMILES IDX 87 95 63 96 64 97 73 98 65 99 66 100 72 101 74 102 67 103
REMARK SMILES IDX 68 104 69 105 70 106 71 107
REMARK H PARENT 95 57 61 68
REMARK Flexibility Score: inf
ROOT
ATOM      1  C   UNL A   1      38.886  21.693  25.850  1.00  0.00     0.188 C 
ENDROOT
BRANCH   1   2
ATOM      2  O   UNL A   1      37.743  22.461  26.203  1.00  0.00    -0.376 OA
BRANCH   2   3
ATOM      3  C   UNL A   1      37.619  23.767  25.629  1.00  0.00     0.202 C 
BRANCH   3   4
ATOM      4  C   UNL A   1      36.347  24.067  24.825  1.00  0.00     0.261 C 
BRANCH   4   5
ATOM      5  O   UNL A   1      35.220  24.388  25.674  1.00  0.00    -0.463 OA
BRANCH   5   6
ATOM      6  C   UNL A   1      34.537  25.519  25.391  1.00  0.00     0.310 C 
ATOM      7  O   UNL A   1      34.709  26.198  24.383  1.00  0.00    -0.252 OA
BRANCH   6   8
ATOM      8  C   UNL A   1      33.556  25.956  26.472  1.00  0.00     0.119 C 
ATOM      9  N   UNL A   1      31.540  25.183  25.327  1.00  0.00    -0.342 N 
ATOM     10  C   UNL A   1      30.899  26.491  25.335  1.00  0.00     0.119 C 
ATOM     11  C   UNL A   1      32.417  24.943  26.466  1.00  0.00     0.134 C 
ATOM     12  C   UNL A   1      31.930  27.613  25.373  1.00  0.00     0.022 C 
ATOM     13  C   UNL A   1      32.981  27.379  26.458  1.00  0.00     0.019 C 
BRANCH   9  14
ATOM     14  C   UNL A   1      31.598  24.481  24.136  1.00  0.00     0.227 C 
ATOM     15  O   UNL A   1      32.004  25.017  23.099  1.00  0.00    -0.275 OA
BRANCH  14  16
ATOM     16  C   UNL A   1      30.936  23.104  24.032  1.00  0.00     0.094 C 
ATOM     17  N   UNL A   1      32.918  21.635  24.240  1.00  0.00    -0.197 NA
ATOM     18  C   UNL A   1      32.849  21.203  22.832  1.00  0.00     0.102 C 
ATOM     19  C   UNL A   1      31.704  22.132  24.911  1.00  0.00     0.116 C 
ATOM     20  C   UNL A   1      31.478  21.372  22.186  1.00  0.00     0.018 C 
ATOM     21  C   UNL A   1      30.585  22.517  22.674  1.00  0.00     0.016 C 
BRANCH  17  22
ATOM     22  S   UNL A   1      34.155  20.982  25.195  1.00  0.00     0.243 S 
ATOM     23  O   UNL A   1      33.950  21.400  26.567  1.00  0.00    -0.207 OA
ATOM     24  O   UNL A   1      35.405  21.222  24.510  1.00  0.00    -0.207 OA
BRANCH  22  25
ATOM     25  C   UNL A   1      33.891  19.222  25.160  1.00  0.00     0.082 A 
ATOM     26  C   UNL A   1      33.461  16.477  24.903  1.00  0.00     0.118 A 
ATOM     27  C   UNL A   1      34.592  17.066  24.331  1.00  0.00     0.048 A 
ATOM     28  C   UNL A   1      32.578  17.252  25.650  1.00  0.00     0.048 A 
ATOM     29  C   UNL A   1      34.806  18.442  24.448  1.00  0.00     0.025 A 
ATOM     30  C   UNL A   1      32.787  18.624  25.770  1.00  0.00     0.025 A 
BRANCH  26  31
ATOM     31  O   UNL A   1      33.304  15.134  24.696  1.00  0.00    -0.497 OA
ATOM     32  C   UNL A   1      32.527  14.480  25.699  1.00  0.00     0.278 C 
ENDBRANCH  26  31
ENDBRANCH  22  25
ENDBRANCH  17  22
ENDBRANCH  14  16
ENDBRANCH   9  14
ENDBRANCH   6   8
ENDBRANCH   5   6
ENDBRANCH   4   5
ENDBRANCH   3   4
ENDBRANCH   2   3
ENDBRANCH   1   2
BRANCH   1  33
ATOM     33  C   UNL A   1      40.123  21.844  26.739  1.00  0.00     0.188 C 
BRANCH  33  34
ATOM     34  O   UNL A   1      41.271  21.218  26.208  1.00  0.00    -0.376 OA
BRANCH  34  35
ATOM     35  C   UNL A   1      42.486  21.941  26.074  1.00  0.00     0.202 C 
BRANCH  35  36
ATOM     36  C   UNL A   1      42.394  23.470  25.922  1.00  0.00     0.261 C 
BRANCH  36  37
ATOM     37  O   UNL A   1      43.105  24.236  26.910  1.00  0.00    -0.460 OA
BRANCH  37  38
ATOM     38  C   UNL A   1      43.425  25.520  26.609  1.00  0.00     0.338 C 
ATOM     39  O   UNL A   1      43.819  25.943  25.537  1.00  0.00    -0.246 OA
BRANCH  38  40
ATOM     40  C   UNL A   1      42.928  26.365  27.726  1.00  0.00     0.060 A 
ATOM     41  C   UNL A   1      43.395  27.683  27.828  1.00  0.00     0.016 A 
ATOM     42  C   UNL A   1      41.923  25.907  28.585  1.00  0.00     0.016 A 
ATOM     43  C   UNL A   1      42.885  28.533  28.815  1.00  0.00     0.010 A 
ATOM     44  C   UNL A   1      41.423  26.752  29.577  1.00  0.00     0.010 A 
ATOM     45  C   UNL A   1      41.923  28.057  29.717  1.00  0.00    -0.014 A 
BRANCH  45  46
ATOM     46  C   UNL A   1      41.615  28.816  30.953  1.00  0.00     0.031 A 
ATOM     47  C   UNL A   1      40.447  29.764  30.910  1.00  0.00     0.074 A 
ATOM     48  C   UNL A   1      42.348  28.693  32.074  1.00  0.00     0.049 A 
ATOM     49  N   UNL A   1      40.017  30.596  31.821  1.00  0.00    -0.248 NA
ATOM     50  C   UNL A   1      39.662  29.774  29.664  1.00  0.00     0.031 C 
ATOM     51  C   UNL A   1      43.483  27.790  32.255  1.00  0.00     0.029 A 
ATOM     52  N   UNL A   1      42.248  29.353  33.275  1.00  0.00    -0.354 N 
ATOM     53  C   UNL A   1      38.914  31.227  31.259  1.00  0.00     0.074 A 
ATOM     54  C   UNL A   1      38.758  30.705  29.920  1.00  0.00     0.031 C 
ATOM     55  C   UNL A   1      43.983  27.962  33.494  1.00  0.00     0.029 A 
ATOM     56  C   UNL A   1      43.222  29.005  34.181  1.00  0.00     0.049 A 
ATOM     57  H   UNL A   1      41.543  30.011  33.469  1.00  0.00     0.167 HD
ATOM     58  C   UNL A   1      38.097  32.154  31.811  1.00  0.00     0.037 A 
ATOM     59  C   UNL A   1      43.479  29.492  35.413  1.00  0.00     0.037 A 
ATOM     60  C   UNL A   1      38.260  32.688  33.134  1.00  0.00     0.049 A 
ATOM     61  C   UNL A   1      42.602  30.583  35.979  1.00  0.00     0.074 A 
ATOM     62  C   UNL A   1      37.486  33.634  33.781  1.00  0.00     0.029 A 
ATOM     63  N   UNL A   1      39.273  32.329  34.009  1.00  0.00    -0.354 N 
ATOM     64  N   UNL A   1      41.551  31.160  35.444  1.00  0.00    -0.248 NA
ATOM     65  C   UNL A   1      42.948  31.091  37.315  1.00  0.00     0.031 C 
ATOM     66  C   UNL A   1      38.054  33.874  35.037  1.00  0.00     0.029 A 
ATOM     67  C   UNL A   1      39.155  33.047  35.187  1.00  0.00     0.049 A 
ATOM     68  H   UNL A   1      39.972  31.661  33.822  1.00  0.00     0.167 HD
ATOM     69  C   UNL A   1      41.096  32.077  36.388  1.00  0.00     0.074 A 
ATOM     70  C   UNL A   1      41.981  31.975  37.529  1.00  0.00     0.031 C 
ATOM     71  C   UNL A   1      40.040  32.925  36.318  1.00  0.00     0.037 A 
BRANCH  58  72
ATOM     72  C   UNL A   1      36.970  32.661  30.960  1.00  0.00     0.058 A 
ATOM     73  C   UNL A   1      35.678  32.120  31.057  1.00  0.00     0.135 A 
ATOM     74  C   UNL A   1      37.182  33.697  30.038  1.00  0.00     0.135 A 
ATOM     75  F   UNL A   1      35.431  31.108  31.904  1.00  0.00    -0.206 F 
ATOM     76  C   UNL A   1      34.641  32.572  30.250  1.00  0.00     0.059 A 
ATOM     77  C   UNL A   1      36.154  34.181  29.237  1.00  0.00     0.059 A 
ATOM     78  F   UNL A   1      38.403  34.240  29.901  1.00  0.00    -0.206 F 
ATOM     79  C   UNL A   1      34.890  33.601  29.341  1.00  0.00     0.060 A 
BRANCH  79  80
ATOM     80  S   UNL A   1      33.535  34.176  28.296  1.00  0.00     0.124 S 
ATOM     81  O   UNL A   1      33.065  32.922  27.715  1.00  0.00    -0.237 OA
ATOM     82  O   UNL A   1      32.638  34.802  29.262  1.00  0.00    -0.237 OA
ATOM     83  O   UNL A   1      34.188  35.093  27.367  1.00  0.00    -0.744 OA
ENDBRANCH  79  80
ENDBRANCH  58  72
BRANCH  59  84
ATOM     84  C   UNL A   1      44.624  28.966  36.203  1.00  0.00     0.058 A 
ATOM     85  C   UNL A   1      44.470  27.858  37.048  1.00  0.00     0.135 A 
ATOM     86  C   UNL A   1      45.889  29.571  36.144  1.00  0.00     0.135 A 
ATOM     87  F   UNL A   1      43.276  27.256  37.153  1.00  0.00    -0.206 F 
ATOM     88  C   UNL A   1      45.525  27.372  37.816  1.00  0.00     0.059 A 
ATOM     89  C   UNL A   1      46.966  29.090  36.884  1.00  0.00     0.059 A 
ATOM     90  F   UNL A   1      46.090  30.634  35.349  1.00  0.00    -0.206 F 
ATOM     91  C   UNL A   1      46.771  27.995  37.725  1.00  0.00     0.060 A 
BRANCH  91  92
ATOM     92  S   UNL A   1      48.148  27.326  38.685  1.00  0.00     0.124 S 
ATOM     93  O   UNL A   1      47.539  26.149  39.292  1.00  0.00    -0.237 OA
ATOM     94  O   UNL A   1      49.146  27.067  37.651  1.00  0.00    -0.237 OA
ATOM     95  O   UNL A   1      48.476  28.414  39.602  1.00  0.00    -0.744 OA
ENDBRANCH  91  92
ENDBRANCH  59  84
BRANCH  71  96
ATOM     96  C   UNL A   1      39.751  33.785  37.517  1.00  0.00     0.058 A 
ATOM     97  C   UNL A   1      38.944  33.333  38.571  1.00  0.00     0.135 A 
ATOM     98  C   UNL A   1      40.351  35.050  37.642  1.00  0.00     0.135 A 
ATOM     99  F   UNL A   1      38.346  32.134  38.499  1.00  0.00    -0.206 F 
ATOM    100  C   UNL A   1      38.728  34.112  39.704  1.00  0.00     0.059 A 
ATOM    101  C   UNL A   1      40.167  35.835  38.775  1.00  0.00     0.059 A 
ATOM    102  F   UNL A   1      41.143  35.522  36.666  1.00  0.00    -0.206 F 
ATOM    103  C   UNL A   1      39.345  35.362  39.798  1.00  0.00     0.060 A 
BRANCH 103 104
ATOM    104  S   UNL A   1      39.094  36.346  41.291  1.00  0.00     0.124 S 
ATOM    105  O   UNL A   1      37.904  35.719  41.858  1.00  0.00    -0.237 OA
ATOM    106  O   UNL A   1      40.337  36.128  42.025  1.00  0.00    -0.237 OA
ATOM    107  O   UNL A   1      38.907  37.699  40.777  1.00  0.00    -0.744 OA
ENDBRANCH 103 104
ENDBRANCH  71  96
ENDBRANCH  45  46
ENDBRANCH  38  40
ENDBRANCH  37  38
ENDBRANCH  36  37
ENDBRANCH  35  36
ENDBRANCH  34  35
ENDBRANCH  33  34
ENDBRANCH   1  33
TORSDOF 25
ENDMDL
MODEL 2
REMARK VINA RESULT:      -9.0      5.123      9.739
REMARK SMILES COc1ccc(S(=O)(=O)N2CCC[C@H](C(=O)N3CCC[C@H](C(=O)OCCOCCOCCOC(=O)c4ccc(-c5c6nc(c(-c7c(F)cc(S(=O)(=O)[O-])cc7F)c7ccc([nH]7)c(-c7c(F)cc(S(=O)(=O)[O-])cc7F)c7nc(c(-c8c(F)cc(S(=O)(=O)[O-])cc8F)c8ccc5[nH]8)C=C7)C=C6)cc4)C3)C2)cc1
REMARK SMILES IDX 28 1 27 2 26 3 25 4 24 5 22 6 23 7 21 8 17 9 18 10 102 11
REMARK SMILES IDX 19 12 20 13 15 14 16 15 14 16 10 17 11 18 103 19 12 20 13 21
REMARK SMILES IDX 7 22 8 23 9 24 6 25 3 26 4 27 105 28 5 29 104 30 2 31 1 32
REMARK SMILES IDX 29 33 30 34 31 35 32 36 33 37 34 38 35 39 36 40 37 41 101 42
REMARK SMILES IDX 38 43 100 44 39 45 40 46 41 47 94 48 42 49 99 50 93 51 95 52
REMARK SMILES IDX 43 53 98 54 92 55 91 56 44 58 78 59 57 60 77 61 58 62 61 63
REMARK SMILES IDX 76 64 96 65 59 66 60 67 75 69 97 70 62 71 45 72 46 73 55 74
REMARK SMILES IDX 47 75 48 76 54 77 56 78 49 79 50 80 51 81 52 82 53 83 79 84
REMARK SMILES IDX 80 85 89 86 81 87 82 88 88 89 90 90 83 91 84 92 85 93 86 94
REMARK SMILES IDX 87 95 63 96 64 97 73 98 65 99 66 100 72 101 74 102 67 103
REMARK SMILES IDX 68 104 69 105 70 106 71 107
REMARK H PARENT 95 57 61 68
REMARK Flexibility Score: inf
ROOT
ATOM      1  C   UNL A   1      44.681  22.601  24.054  1.00  0.00     0.188 C 
ENDROOT
BRANCH   1   2
ATOM      2  O   UNL A   1      45.353  23.850  24.157  1.00  0.00    -0.376 OA
BRANCH   2   3
ATOM      3  C   UNL A   1      46.625  23.865  24.815  1.00  0.00     0.202 C 
BRANCH   3   4
ATOM      4  C   UNL A   1      46.650  24.281  26.292  1.00  0.00     0.261 C 
BRANCH   4   5
ATOM      5  O   UNL A   1      47.034  25.664  26.469  1.00  0.00    -0.463 OA
BRANCH   5   6
ATOM      6  C   UNL A   1      48.333  25.977  26.259  1.00  0.00     0.310 C 
ATOM      7  O   UNL A   1      48.732  26.697  25.347  1.00  0.00    -0.252 OA
BRANCH   6   8
ATOM      8  C   UNL A   1      49.311  25.301  27.210  1.00  0.00     0.119 C 
ATOM      9  N   UNL A   1      49.258  27.042  28.924  1.00  0.00    -0.342 N 
ATOM     10  C   UNL A   1      50.695  27.280  28.886  1.00  0.00     0.119 C 
ATOM     11  C   UNL A   1      48.875  25.668  28.623  1.00  0.00     0.134 C 
ATOM     12  C   UNL A   1      51.279  26.921  27.525  1.00  0.00     0.022 C 
ATOM     13  C   UNL A   1      50.819  25.541  27.057  1.00  0.00     0.019 C 
BRANCH   9  14
ATOM     14  C   UNL A   1      48.404  28.127  28.840  1.00  0.00     0.227 C 
ATOM     15  O   UNL A   1      48.841  29.270  28.665  1.00  0.00    -0.275 OA
BRANCH  14  16
ATOM     16  C   UNL A   1      46.926  27.962  29.202  1.00  0.00     0.094 C 
ATOM     17  N   UNL A   1      45.938  29.838  27.924  1.00  0.00    -0.197 NA
ATOM     18  C   UNL A   1      45.617  30.606  29.141  1.00  0.00     0.102 C 
ATOM     19  C   UNL A   1      46.087  28.374  28.003  1.00  0.00     0.116 C 
ATOM     20  C   UNL A   1      45.519  29.767  30.411  1.00  0.00     0.018 C 
ATOM     21  C   UNL A   1      46.385  28.509  30.514  1.00  0.00     0.016 C 
BRANCH  17  22
ATOM     22  S   UNL A   1      45.509  30.522  26.435  1.00  0.00     0.243 S 
ATOM     23  O   UNL A   1      44.065  30.513  26.320  1.00  0.00    -0.207 OA
ATOM     24  O   UNL A   1      46.352  29.924  25.424  1.00  0.00    -0.207 OA
BRANCH  22  25
ATOM     25  C   UNL A   1      45.995  32.231  26.549  1.00  0.00     0.082 A 
ATOM     26  C   UNL A   1      46.695  34.931  26.535  1.00  0.00     0.118 A 
ATOM     27  C   UNL A   1      45.359  34.552  26.370  1.00  0.00     0.048 A 
ATOM     28  C   UNL A   1      47.668  33.962  26.763  1.00  0.00     0.048 A 
ATOM     29  C   UNL A   1      45.006  33.201  26.366  1.00  0.00     0.025 A 
ATOM     30  C   UNL A   1      47.320  32.614  26.760  1.00  0.00     0.025 A 
BRANCH  26  31
ATOM     31  O   UNL A   1      46.958  36.273  26.475  1.00  0.00    -0.497 OA
ATOM     32  C   UNL A   1      48.346  36.585  26.364  1.00  0.00     0.278 C 
ENDBRANCH  26  31
ENDBRANCH  22  25
ENDBRANCH  17  22
ENDBRANCH  14  16
ENDBRANCH   9  14
ENDBRANCH   6   8
ENDBRANCH   5   6
ENDBRANCH   4   5
ENDBRANCH   3   4
ENDBRANCH   2   3
ENDBRANCH   1   2
BRANCH   1  33
ATOM     33  C   UNL A   1      44.178  21.977  25.358  1.00  0.00     0.188 C 
BRANCH  33  34
ATOM     34  O   UNL A   1      42.866  21.464  25.260  1.00  0.00    -0.376 OA
BRANCH  34  35
ATOM     35  C   UNL A   1      41.772  22.184  25.811  1.00  0.00     0.202 C 
BRANCH  35  36
ATOM     36  C   UNL A   1      42.073  23.532  26.489  1.00  0.00     0.261 C 
BRANCH  36  37
ATOM     37  O   UNL A   1      41.074  24.552  26.313  1.00  0.00    -0.460 OA
BRANCH  37  38
ATOM     38  C   UNL A   1      41.496  25.814  26.049  1.00  0.00     0.338 C 
ATOM     39  O   UNL A   1      41.625  26.329  24.953  1.00  0.00    -0.246 OA
BRANCH  38  40
ATOM     40  C   UNL A   1      41.491  26.553  27.340  1.00  0.00     0.060 A 
ATOM     41  C   UNL A   1      40.826  25.983  28.435  1.00  0.00     0.016 A 
ATOM     42  C   UNL A   1      42.234  27.726  27.502  1.00  0.00     0.016 A 
ATOM     43  C   UNL A   1      40.873  26.607  29.685  1.00  0.00     0.010 A 
ATOM     44  C   UNL A   1      42.272  28.355  28.747  1.00  0.00     0.010 A 
ATOM     45  C   UNL A   1      41.567  27.816  29.836  1.00  0.00    -0.014 A 
BRANCH  45  46
ATOM     46  C   UNL A   1      41.360  28.653  31.043  1.00  0.00     0.031 A 
ATOM     47  C   UNL A   1      40.254  29.673  30.996  1.00  0.00     0.074 A 
ATOM     48  C   UNL A   1      42.129  28.537  32.140  1.00  0.00     0.049 A 
ATOM     49  N   UNL A   1      39.916  30.574  31.879  1.00  0.00    -0.248 NA
ATOM     50  C   UNL A   1      39.421  29.675  29.781  1.00  0.00     0.031 C 
ATOM     51  C   UNL A   1      43.209  27.570  32.324  1.00  0.00     0.029 A 
ATOM     52  N   UNL A   1      42.120  29.259  33.309  1.00  0.00    -0.354 N 
ATOM     53  C   UNL A   1      38.834  31.249  31.327  1.00  0.00     0.074 A 
ATOM     54  C   UNL A   1      38.589  30.674  30.024  1.00  0.00     0.031 C 
ATOM     55  C   UNL A   1      43.769  27.768  33.533  1.00  0.00     0.029 A 
ATOM     56  C   UNL A   1      43.106  28.892  34.194  1.00  0.00     0.049 A 
ATOM     57  H   UNL A   1      41.467  29.971  33.496  1.00  0.00     0.167 HD
ATOM     58  C   UNL A   1      38.101  32.254  31.861  1.00  0.00     0.037 A 
ATOM     59  C   UNL A   1      43.444  29.420  35.389  1.00  0.00     0.037 A 
ATOM     60  C   UNL A   1      38.352  32.840  33.148  1.00  0.00     0.049 A 
ATOM     61  C   UNL A   1      42.662  30.593  35.931  1.00  0.00     0.074 A 
ATOM     62  C   UNL A   1      37.667  33.864  33.775  1.00  0.00     0.029 A 
ATOM     63  N   UNL A   1      39.374  32.457  34.002  1.00  0.00    -0.354 N 
ATOM     64  N   UNL A   1      41.630  31.211  35.407  1.00  0.00    -0.248 NA
ATOM     65  C   UNL A   1      43.095  31.141  37.226  1.00  0.00     0.031 C 
ATOM     66  C   UNL A   1      38.300  34.127  34.994  1.00  0.00     0.029 A 
ATOM     67  C   UNL A   1      39.351  33.238  35.145  1.00  0.00     0.049 A 
ATOM     68  H   UNL A   1      40.021  31.736  33.823  1.00  0.00     0.167 HD
ATOM     69  C   UNL A   1      41.273  32.201  36.320  1.00  0.00     0.074 A 
ATOM     70  C   UNL A   1      42.197  32.096  37.430  1.00  0.00     0.031 C 
ATOM     71  C   UNL A   1      40.272  33.112  36.247  1.00  0.00     0.037 A 
BRANCH  58  72
ATOM     72  C   UNL A   1      36.974  32.792  31.029  1.00  0.00     0.058 A 
ATOM     73  C   UNL A   1      37.185  33.797  30.072  1.00  0.00     0.135 A 
ATOM     74  C   UNL A   1      35.670  32.299  31.191  1.00  0.00     0.135 A 
ATOM     75  F   UNL A   1      38.410  34.320  29.899  1.00  0.00    -0.206 F 
ATOM     76  C   UNL A   1      36.136  34.313  29.320  1.00  0.00     0.059 A 
ATOM     77  C   UNL A   1      34.610  32.785  30.433  1.00  0.00     0.059 A 
ATOM     78  F   UNL A   1      35.416  31.346  32.101  1.00  0.00    -0.206 F 
ATOM     79  C   UNL A   1      34.851  33.803  29.511  1.00  0.00     0.060 A 
BRANCH  79  80
ATOM     80  S   UNL A   1      33.497  34.485  28.532  1.00  0.00     0.124 S 
ATOM     81  O   UNL A   1      34.174  35.558  27.810  1.00  0.00    -0.237 OA
ATOM     82  O   UNL A   1      33.086  33.340  27.725  1.00  0.00    -0.237 OA
ATOM     83  O   UNL A   1      32.534  34.916  29.540  1.00  0.00    -0.744 OA
ENDBRANCH  79  80
ENDBRANCH  58  72
BRANCH  59  84
ATOM     84  C   UNL A   1      44.585  28.858  36.161  1.00  0.00     0.058 A 
ATOM     85  C   UNL A   1      44.405  27.769  37.026  1.00  0.00     0.135 A 
ATOM     86  C   UNL A   1      45.871  29.409  36.065  1.00  0.00     0.135 A 
ATOM     87  F   UNL A   1      43.189  27.219  37.167  1.00  0.00    -0.206 F 
ATOM     88  C   UNL A   1      45.456  27.251  37.778  1.00  0.00     0.059 A 
ATOM     89  C   UNL A   1      46.944  28.896  36.788  1.00  0.00     0.059 A 
ATOM     90  F   UNL A   1      46.098  30.452  35.249  1.00  0.00    -0.206 F 
ATOM     91  C   UNL A   1      46.725  27.821  37.649  1.00  0.00     0.060 A 
BRANCH  91  92
ATOM     92  S   UNL A   1      48.094  27.110  38.588  1.00  0.00     0.124 S 
ATOM     93  O   UNL A   1      49.027  28.229  38.640  1.00  0.00    -0.237 OA
ATOM     94  O   UNL A   1      47.450  26.756  39.850  1.00  0.00    -0.237 OA
ATOM     95  O   UNL A   1      48.509  25.977  37.768  1.00  0.00    -0.744 OA
ENDBRANCH  91  92
ENDBRANCH  59  84
BRANCH  71  96
ATOM     96  C   UNL A   1      40.088  34.046  37.410  1.00  0.00     0.058 A 
ATOM     97  C   UNL A   1      40.734  35.291  37.465  1.00  0.00     0.135 A 
ATOM     98  C   UNL A   1      39.198  33.721  38.448  1.00  0.00     0.135 A 
ATOM     99  F   UNL A   1      41.596  35.648  36.501  1.00  0.00    -0.206 F 
ATOM    100  C   UNL A   1      40.515  36.175  38.517  1.00  0.00     0.059 A 
ATOM    101  C   UNL A   1      38.946  34.600  39.496  1.00  0.00     0.059 A 
ATOM    102  F   UNL A   1      38.545  32.548  38.434  1.00  0.00    -0.206 F 
ATOM    103  C   UNL A   1      39.618  35.822  39.527  1.00  0.00     0.060 A 
BRANCH 103 104
ATOM    104  S   UNL A   1      39.308  36.995  40.864  1.00  0.00     0.124 S 
ATOM    105  O   UNL A   1      38.654  36.145  41.854  1.00  0.00    -0.237 OA
ATOM    106  O   UNL A   1      40.654  37.446  41.206  1.00  0.00    -0.237 OA
ATOM    107  O   UNL A   1      38.456  38.003  40.241  1.00  0.00    -0.744 OA
ENDBRANCH 103 104
ENDBRANCH  71  96
ENDBRANCH  45  46
ENDBRANCH  38  40
ENDBRANCH  37  38
ENDBRANCH  36  37
ENDBRANCH  35  36
ENDBRANCH  34  35
ENDBRANCH  33  34
ENDBRANCH   1  33
TORSDOF 25
ENDMDL
MODEL 3
REMARK VINA RESULT:      -8.7      5.872     13.779
REMARK SMILES COc1ccc(S(=O)(=O)N2CCC[C@H](C(=O)N3CCC[C@H](C(=O)OCCOCCOCCOC(=O)c4ccc(-c5c6nc(c(-c7c(F)cc(S(=O)(=O)[O-])cc7F)c7ccc([nH]7)c(-c7c(F)cc(S(=O)(=O)[O-])cc7F)c7nc(c(-c8c(F)cc(S(=O)(=O)[O-])cc8F)c8ccc5[nH]8)C=C7)C=C6)cc4)C3)C2)cc1
REMARK SMILES IDX 28 1 27 2 26 3 25 4 24 5 22 6 23 7 21 8 17 9 18 10 102 11
REMARK SMILES IDX 19 12 20 13 15 14 16 15 14 16 10 17 11 18 103 19 12 20 13 21
REMARK SMILES IDX 7 22 8 23 9 24 6 25 3 26 4 27 105 28 5 29 104 30 2 31 1 32
REMARK SMILES IDX 29 33 30 34 31 35 32 36 33 37 34 38 35 39 36 40 37 41 101 42
REMARK SMILES IDX 38 43 100 44 39 45 40 46 41 47 94 48 42 49 99 50 93 51 95 52
REMARK SMILES IDX 43 53 98 54 92 55 91 56 44 58 78 59 57 60 77 61 58 62 61 63
REMARK SMILES IDX 76 64 96 65 59 66 60 67 75 69 97 70 62 71 45 72 46 73 55 74
REMARK SMILES IDX 47 75 48 76 54 77 56 78 49 79 50 80 51 81 52 82 53 83 79 84
REMARK SMILES IDX 80 85 89 86 81 87 82 88 88 89 90 90 83 91 84 92 85 93 86 94
REMARK SMILES IDX 87 95 63 96 64 97 73 98 65 99 66 100 72 101 74 102 67 103
REMARK SMILES IDX 68 104 69 105 70 106 71 107
REMARK H PARENT 95 57 61 68
REMARK Flexibility Score: inf
ROOT
ATOM      1  C   UNL A   1      51.699  25.032  41.958  1.00  0.00     0.188 C 
ENDROOT
BRANCH   1   2
ATOM      2  O   UNL A   1      52.043  23.705  41.581  1.00  0.00    -0.376 OA
BRANCH   2   3
ATOM      3  C   UNL A   1      52.316  23.460  40.197  1.00  0.00     0.202 C 
BRANCH   3   4
ATOM      4  C   UNL A   1      51.406  22.465  39.463  1.00  0.00     0.261 C 
BRANCH   4   5
ATOM      5  O   UNL A   1      51.534  22.557  38.025  1.00  0.00    -0.463 OA
BRANCH   5   6
ATOM      6  C   UNL A   1      51.401  21.413  37.318  1.00  0.00     0.310 C 
ATOM      7  O   UNL A   1      50.619  20.510  37.604  1.00  0.00    -0.252 OA
BRANCH   6   8
ATOM      8  C   UNL A   1      52.364  21.274  36.146  1.00  0.00     0.119 C 
ATOM      9  N   UNL A   1      50.735  21.803  34.403  1.00  0.00    -0.342 N 
ATOM     10  C   UNL A   1      50.933  20.552  33.682  1.00  0.00     0.119 C 
ATOM     11  C   UNL A   1      51.923  22.285  35.094  1.00  0.00     0.134 C 
ATOM     12  C   UNL A   1      51.410  19.446  34.615  1.00  0.00     0.022 C 
ATOM     13  C   UNL A   1      52.578  19.905  35.487  1.00  0.00     0.019 C 
BRANCH   9  14
ATOM     14  C   UNL A   1      49.443  22.198  34.703  1.00  0.00     0.227 C 
ATOM     15  O   UNL A   1      48.470  21.544  34.311  1.00  0.00    -0.275 OA
BRANCH  14  16
ATOM     16  C   UNL A   1      49.193  23.577  35.318  1.00  0.00     0.094 C 
ATOM     17  N   UNL A   1      46.726  23.534  35.530  1.00  0.00    -0.197 NA
ATOM     18  C   UNL A   1      46.535  24.542  34.472  1.00  0.00     0.102 C 
ATOM     19  C   UNL A   1      48.005  23.477  36.260  1.00  0.00     0.116 C 
ATOM     20  C   UNL A   1      47.753  25.420  34.206  1.00  0.00     0.018 C 
ATOM     21  C   UNL A   1      49.142  24.817  34.439  1.00  0.00     0.016 C 
BRANCH  17  22
ATOM     22  S   UNL A   1      45.339  22.930  36.291  1.00  0.00     0.243 S 
ATOM     23  O   UNL A   1      44.417  22.468  35.273  1.00  0.00    -0.207 OA
ATOM     24  O   UNL A   1      44.939  23.894  37.292  1.00  0.00    -0.207 OA
BRANCH  22  25
ATOM     25  C   UNL A   1      45.882  21.483  37.174  1.00  0.00     0.082 A 
ATOM     26  C   UNL A   1      46.545  19.141  38.537  1.00  0.00     0.118 A 
ATOM     27  C   UNL A   1      46.153  19.085  37.196  1.00  0.00     0.048 A 
ATOM     28  C   UNL A   1      46.659  20.373  39.175  1.00  0.00     0.048 A 
ATOM     29  C   UNL A   1      45.810  20.254  36.513  1.00  0.00     0.025 A 
ATOM     30  C   UNL A   1      46.319  21.541  38.498  1.00  0.00     0.025 A 
BRANCH  26  31
ATOM     31  O   UNL A   1      46.813  17.944  39.143  1.00  0.00    -0.497 OA
ATOM     32  C   UNL A   1      45.777  17.491  40.013  1.00  0.00     0.278 C 
ENDBRANCH  26  31
ENDBRANCH  22  25
ENDBRANCH  17  22
ENDBRANCH  14  16
ENDBRANCH   9  14
ENDBRANCH   6   8
ENDBRANCH   5   6
ENDBRANCH   4   5
ENDBRANCH   3   4
ENDBRANCH   2   3
ENDBRANCH   1   2
BRANCH   1  33
ATOM     33  C   UNL A   1      51.704  26.088  40.850  1.00  0.00     0.188 C 
BRANCH  33  34
ATOM     34  O   UNL A   1      50.436  26.671  40.631  1.00  0.00    -0.376 OA
BRANCH  34  35
ATOM     35  C   UNL A   1      49.289  25.852  40.458  1.00  0.00     0.202 C 
BRANCH  35  36
ATOM     36  C   UNL A   1      47.956  26.547  40.133  1.00  0.00     0.261 C 
BRANCH  36  37
ATOM     37  O   UNL A   1      47.413  26.271  38.830  1.00  0.00    -0.460 OA
BRANCH  37  38
ATOM     38  C   UNL A   1      47.941  26.931  37.769  1.00  0.00     0.338 C 
ATOM     39  O   UNL A   1      49.052  26.782  37.294  1.00  0.00    -0.246 OA
BRANCH  38  40
ATOM     40  C   UNL A   1      46.823  27.654  37.107  1.00  0.00     0.060 A 
ATOM     41  C   UNL A   1      45.525  27.138  37.230  1.00  0.00     0.016 A 
ATOM     42  C   UNL A   1      47.033  28.887  36.480  1.00  0.00     0.016 A 
ATOM     43  C   UNL A   1      44.440  27.838  36.694  1.00  0.00     0.010 A 
ATOM     44  C   UNL A   1      45.952  29.579  35.935  1.00  0.00     0.010 A 
ATOM     45  C   UNL A   1      44.655  29.044  36.011  1.00  0.00    -0.014 A 
BRANCH  45  46
ATOM     46  C   UNL A   1      43.586  29.624  35.162  1.00  0.00     0.031 A 
ATOM     47  C   UNL A   1      42.679  30.645  35.795  1.00  0.00     0.074 A 
ATOM     48  C   UNL A   1      43.404  29.255  33.882  1.00  0.00     0.049 A 
ATOM     49  N   UNL A   1      41.628  31.243  35.300  1.00  0.00    -0.248 NA
ATOM     50  C   UNL A   1      43.003  31.037  37.178  1.00  0.00     0.031 C 
ATOM     51  C   UNL A   1      44.231  28.303  33.144  1.00  0.00     0.029 A 
ATOM     52  N   UNL A   1      42.442  29.637  32.978  1.00  0.00    -0.354 N 
ATOM     53  C   UNL A   1      41.166  32.080  36.309  1.00  0.00     0.074 A 
ATOM     54  C   UNL A   1      42.032  31.892  37.451  1.00  0.00     0.031 C 
ATOM     55  C   UNL A   1      43.732  28.165  31.901  1.00  0.00     0.029 A 
ATOM     56  C   UNL A   1      42.536  28.997  31.765  1.00  0.00     0.049 A 
ATOM     57  H   UNL A   1      41.751  30.308  33.180  1.00  0.00     0.167 HD
ATOM     58  C   UNL A   1      40.119  32.937  36.285  1.00  0.00     0.037 A 
ATOM     59  C   UNL A   1      41.734  29.061  30.682  1.00  0.00     0.037 A 
ATOM     60  C   UNL A   1      39.246  33.113  35.158  1.00  0.00     0.049 A 
ATOM     61  C   UNL A   1      40.525  29.965  30.706  1.00  0.00     0.074 A 
ATOM     62  C   UNL A   1      38.156  33.954  35.039  1.00  0.00     0.029 A 
ATOM     63  N   UNL A   1      39.361  32.428  33.959  1.00  0.00    -0.354 N 
ATOM     64  N   UNL A   1      40.109  30.765  31.660  1.00  0.00    -0.248 NA
ATOM     65  C   UNL A   1      39.674  29.973  29.505  1.00  0.00     0.031 C 
ATOM     66  C   UNL A   1      37.586  33.750  33.777  1.00  0.00     0.029 A 
ATOM     67  C   UNL A   1      38.348  32.814  33.098  1.00  0.00     0.049 A 
ATOM     68  H   UNL A   1      40.059  31.765  33.750  1.00  0.00     0.167 HD
ATOM     69  C   UNL A   1      38.967  31.390  31.164  1.00  0.00     0.074 A 
ATOM     70  C   UNL A   1      38.760  30.879  29.825  1.00  0.00     0.031 C 
ATOM     71  C   UNL A   1      38.164  32.304  31.762  1.00  0.00     0.037 A 
BRANCH  58  72
ATOM     72  C   UNL A   1      39.856  33.726  37.534  1.00  0.00     0.058 A 
ATOM     73  C   UNL A   1      38.886  33.323  38.465  1.00  0.00     0.135 A 
ATOM     74  C   UNL A   1      40.580  34.897  37.803  1.00  0.00     0.135 A 
ATOM     75  F   UNL A   1      38.147  32.224  38.239  1.00  0.00    -0.206 F 
ATOM     76  C   UNL A   1      38.624  34.069  39.608  1.00  0.00     0.059 A 
ATOM     77  C   UNL A   1      40.351  35.646  38.952  1.00  0.00     0.059 A 
ATOM     78  F   UNL A   1      41.511  35.330  36.938  1.00  0.00    -0.206 F 
ATOM     79  C   UNL A   1      39.361  35.231  39.841  1.00  0.00     0.060 A 
BRANCH  79  80
ATOM     80  S   UNL A   1      39.008  36.193  41.327  1.00  0.00     0.124 S 
ATOM     81  O   UNL A   1      40.256  36.048  42.070  1.00  0.00    -0.237 OA
ATOM     82  O   UNL A   1      38.745  37.523  40.784  1.00  0.00    -0.237 OA
ATOM     83  O   UNL A   1      37.851  35.516  41.903  1.00  0.00    -0.744 OA
ENDBRANCH  79  80
ENDBRANCH  58  72
BRANCH  59  84
ATOM     84  C   UNL A   1      42.033  28.240  29.478  1.00  0.00     0.058 A 
ATOM     85  C   UNL A   1      41.294  27.084  29.190  1.00  0.00     0.135 A 
ATOM     86  C   UNL A   1      43.075  28.584  28.603  1.00  0.00     0.135 A 
ATOM     87  F   UNL A   1      40.300  26.703  30.007  1.00  0.00    -0.206 F 
ATOM     88  C   UNL A   1      41.582  26.289  28.083  1.00  0.00     0.059 A 
ATOM     89  C   UNL A   1      43.368  27.819  27.478  1.00  0.00     0.059 A 
ATOM     90  F   UNL A   1      43.811  29.683  28.833  1.00  0.00    -0.206 F 
ATOM     91  C   UNL A   1      42.621  26.667  27.231  1.00  0.00     0.060 A 
BRANCH  91  92
ATOM     92  S   UNL A   1      42.954  25.660  25.769  1.00  0.00     0.124 S 
ATOM     93  O   UNL A   1      42.491  26.534  24.698  1.00  0.00    -0.237 OA
ATOM     94  O   UNL A   1      44.399  25.463  25.854  1.00  0.00    -0.237 OA
ATOM     95  O   UNL A   1      42.153  24.462  25.999  1.00  0.00    -0.744 OA
ENDBRANCH  91  92
ENDBRANCH  59  84
BRANCH  71  96
ATOM     96  C   UNL A   1      37.008  32.847  30.969  1.00  0.00     0.058 A 
ATOM     97  C   UNL A   1      35.711  32.332  31.109  1.00  0.00     0.135 A 
ATOM     98  C   UNL A   1      37.191  33.945  30.111  1.00  0.00     0.135 A 
ATOM     99  F   UNL A   1      35.484  31.282  31.913  1.00  0.00    -0.206 F 
ATOM    100  C   UNL A   1      34.636  32.878  30.414  1.00  0.00     0.059 A 
ATOM    101  C   UNL A   1      36.127  34.521  29.425  1.00  0.00     0.059 A 
ATOM    102  F   UNL A   1      38.411  34.483  29.953  1.00  0.00    -0.206 F 
ATOM    103  C   UNL A   1      34.853  33.973  29.576  1.00  0.00     0.060 A 
BRANCH 103 104
ATOM    104  S   UNL A   1      33.443  34.700  28.712  1.00  0.00     0.124 S 
ATOM    105  O   UNL A   1      34.043  35.895  28.127  1.00  0.00    -0.237 OA
ATOM    106  O   UNL A   1      33.075  33.648  27.769  1.00  0.00    -0.237 OA
ATOM    107  O   UNL A   1      32.478  34.941  29.781  1.00  0.00    -0.744 OA
ENDBRANCH 103 104
ENDBRANCH  71  96
ENDBRANCH  45  46
ENDBRANCH  38  40
ENDBRANCH  37  38
ENDBRANCH  36  37
ENDBRANCH  35  36
ENDBRANCH  34  35
ENDBRANCH  33  34
ENDBRANCH   1  33
TORSDOF 25
ENDMDL
