MODEL 1
REMARK VINA RESULT:     -11.0      0.000      0.000
REMARK SMILES Cc1ccccc1OC1(C(=O)OCCOCCOCCOC(=O)c2ccc(-c3c4nc(c(-c5c(F)cc(S(=O)(=O)[O-])cc5F)c5ccc([nH]5)c(-c5c(F)cc(S(=O)(=O)[O-])cc5F)c5nc(c(-c6c(F)cc(S(=O)(=O)[O-])cc6F)c6ccc3[nH]6)C=C5)C=C4)cc2)CCN(C(=O)[C@H]2CCCCO2)CC1
REMARK SMILES IDX 17 1 16 2 15 3 14 4 13 5 12 6 10 7 11 8 9 9 90 10 102 11
REMARK SMILES IDX 91 12 101 13 92 14 93 15 94 16 8 17 7 18 1 19 2 20 3 21 4 22
REMARK SMILES IDX 6 23 5 24 95 25 96 26 100 27 97 28 99 29 98 30 18 31 19 32
REMARK SMILES IDX 20 33 21 34 22 35 23 36 24 37 25 38 89 39 26 40 88 41 27 42
REMARK SMILES IDX 28 43 29 44 82 45 30 46 87 47 81 48 83 49 31 50 86 51 80 52
REMARK SMILES IDX 79 53 32 55 66 56 45 57 65 58 46 59 49 60 64 61 84 62 47 63
REMARK SMILES IDX 48 64 63 66 85 67 50 68 33 69 34 70 43 71 35 72 36 73 42 74
REMARK SMILES IDX 44 75 37 76 38 77 39 78 40 79 41 80 67 81 68 82 77 83 69 84
REMARK SMILES IDX 70 85 76 86 78 87 71 88 72 89 73 90 74 91 75 92 51 93 52 94
REMARK SMILES IDX 61 95 53 96 54 97 60 98 62 99 55 100 56 101 57 102 58 103
REMARK SMILES IDX 59 104
REMARK H PARENT 83 54 49 65
REMARK Flexibility Score: inf
ROOT
ATOM      1  C   UNL A   1      38.241  29.317  28.727  1.00  0.00     0.188 C 
ENDROOT
BRANCH   1   2
ATOM      2  C   UNL A   1      38.641  27.834  28.750  1.00  0.00     0.188 C 
BRANCH   2   3
ATOM      3  O   UNL A   1      39.317  27.166  27.661  1.00  0.00    -0.376 OA
BRANCH   3   4
ATOM      4  C   UNL A   1      39.637  25.764  27.587  1.00  0.00     0.202 C 
BRANCH   4   5
ATOM      5  C   UNL A   1      38.661  24.398  27.098  1.00  0.00     0.261 C 
BRANCH   5   6
ATOM      6  O   UNL A   1      37.167  24.228  26.128  1.00  0.00    -0.460 OA
BRANCH   6   7
ATOM      7  C   UNL A   1      36.478  23.317  25.154  1.00  0.00     0.350 C 
ATOM      8  O   UNL A   1      36.964  22.800  24.138  1.00  0.00    -0.247 OA
BRANCH   7   9
ATOM      9  C   UNL A   1      34.967  23.039  25.221  1.00  0.00     0.209 C 
ATOM     10  C   UNL A   1      34.403  23.349  23.863  1.00  0.00     0.082 C 
ATOM     11  C   UNL A   1      34.891  21.593  25.772  1.00  0.00     0.082 C 
ATOM     12  C   UNL A   1      33.360  22.387  23.389  1.00  0.00     0.124 C 
ATOM     13  C   UNL A   1      34.528  20.575  24.722  1.00  0.00     0.124 C 
ATOM     14  N   UNL A   1      33.470  21.001  23.813  1.00  0.00    -0.340 N 
ATOM     15  C   UNL A   1      32.535  20.143  23.237  1.00  0.00     0.251 C 
ATOM     16  O   UNL A   1      31.805  20.538  22.320  1.00  0.00    -0.272 OA
BRANCH   9  17
ATOM     17  O   UNL A   1      34.465  24.026  26.189  1.00  0.00    -0.475 OA
BRANCH  17  18
ATOM     18  C   UNL A   1      33.296  24.746  26.233  1.00  0.00     0.123 A 
ATOM     19  C   UNL A   1      31.519  22.909  26.651  1.00  0.00     0.048 C 
ATOM     20  C   UNL A   1      31.968  24.299  26.351  1.00  0.00    -0.009 A 
ATOM     21  C   UNL A   1      30.896  25.195  26.088  1.00  0.00     0.007 A 
ATOM     22  C   UNL A   1      31.109  26.524  25.746  1.00  0.00     0.001 A 
ATOM     23  C   UNL A   1      33.481  26.111  25.925  1.00  0.00     0.047 A 
ATOM     24  C   UNL A   1      32.410  26.990  25.686  1.00  0.00     0.004 A 
ENDBRANCH  17  18
ENDBRANCH   9  17
BRANCH  15  25
ATOM     25  C   UNL A   1      32.352  18.747  23.851  1.00  0.00     0.207 C 
ATOM     26  C   UNL A   1      33.369  17.823  23.161  1.00  0.00     0.042 C 
ATOM     27  O   UNL A   1      32.600  18.839  25.257  1.00  0.00    -0.368 OA
ATOM     28  C   UNL A   1      33.534  16.492  23.879  1.00  0.00     0.006 C 
ATOM     29  C   UNL A   1      32.567  17.574  25.902  1.00  0.00     0.161 C 
ATOM     30  C   UNL A   1      33.700  16.710  25.376  1.00  0.00     0.029 C 
ENDBRANCH  15  25
ENDBRANCH   7   9
ENDBRANCH   6   7
ENDBRANCH   5   6
ENDBRANCH   4   5
ENDBRANCH   3   4
ENDBRANCH   2   3
ENDBRANCH   1   2
BRANCH   1  31
ATOM     31  O   UNL A   1      36.985  29.527  29.344  1.00  0.00    -0.376 OA
BRANCH  31  32
ATOM     32  C   UNL A   1      35.945  30.031  28.523  1.00  0.00     0.202 C 
BRANCH  32  33
ATOM     33  C   UNL A   1      35.583  31.520  28.736  1.00  0.00     0.261 C 
BRANCH  33  34
ATOM     34  O   UNL A   1      35.265  31.882  30.108  1.00  0.00    -0.460 OA
BRANCH  34  35
ATOM     35  C   UNL A   1      35.690  33.116  30.604  1.00  0.00     0.338 C 
ATOM     36  O   UNL A   1      34.927  33.922  31.052  1.00  0.00    -0.246 OA
BRANCH  35  37
ATOM     37  C   UNL A   1      37.191  33.145  30.731  1.00  0.00     0.060 A 
ATOM     38  C   UNL A   1      38.167  33.932  30.105  1.00  0.00     0.016 A 
ATOM     39  C   UNL A   1      37.677  32.194  31.542  1.00  0.00     0.016 A 
ATOM     40  C   UNL A   1      39.601  33.591  30.119  1.00  0.00     0.010 A 
ATOM     41  C   UNL A   1      38.979  31.785  31.323  1.00  0.00     0.010 A 
ATOM     42  C   UNL A   1      40.095  32.413  30.690  1.00  0.00    -0.014 A 
BRANCH  42  43
ATOM     43  C   UNL A   1      41.743  31.833  30.702  1.00  0.00     0.031 A 
ATOM     44  C   UNL A   1      42.573  30.502  29.829  1.00  0.00     0.074 A 
ATOM     45  C   UNL A   1      42.526  32.338  31.677  1.00  0.00     0.049 A 
ATOM     46  N   UNL A   1      43.652  29.854  30.239  1.00  0.00    -0.248 NA
ATOM     47  C   UNL A   1      42.172  29.762  28.543  1.00  0.00     0.031 C 
ATOM     48  C   UNL A   1      43.967  32.183  31.837  1.00  0.00     0.029 A 
ATOM     49  N   UNL A   1      42.116  32.994  32.843  1.00  0.00    -0.354 N 
ATOM     50  C   UNL A   1      44.005  28.877  29.278  1.00  0.00     0.074 A 
ATOM     51  C   UNL A   1      42.897  28.672  28.466  1.00  0.00     0.031 C 
ATOM     52  C   UNL A   1      44.282  32.438  33.116  1.00  0.00     0.029 A 
ATOM     53  C   UNL A   1      43.033  32.618  33.834  1.00  0.00     0.049 A 
ATOM     54  H   UNL A   1      41.343  33.594  32.946  1.00  0.00     0.167 HD
ATOM     55  C   UNL A   1      45.245  28.358  29.072  1.00  0.00     0.037 A 
ATOM     56  C   UNL A   1      42.631  31.916  34.929  1.00  0.00     0.037 A 
ATOM     57  C   UNL A   1      45.968  28.527  30.300  1.00  0.00     0.049 A 
ATOM     58  C   UNL A   1      43.377  30.610  35.090  1.00  0.00     0.074 A 
ATOM     59  C   UNL A   1      46.808  29.515  30.766  1.00  0.00     0.029 A 
ATOM     60  N   UNL A   1      45.480  27.845  31.407  1.00  0.00    -0.354 N 
ATOM     61  N   UNL A   1      44.078  30.032  34.147  1.00  0.00    -0.248 NA
ATOM     62  C   UNL A   1      43.424  29.867  36.346  1.00  0.00     0.031 C 
ATOM     63  C   UNL A   1      46.666  29.537  32.183  1.00  0.00     0.029 A 
ATOM     64  C   UNL A   1      45.817  28.509  32.566  1.00  0.00     0.049 A 
ATOM     65  H   UNL A   1      44.967  27.005  31.368  1.00  0.00     0.167 HD
ATOM     66  C   UNL A   1      44.612  28.862  34.619  1.00  0.00     0.074 A 
ATOM     67  C   UNL A   1      44.205  28.825  36.012  1.00  0.00     0.031 C 
ATOM     68  C   UNL A   1      45.333  27.998  33.841  1.00  0.00     0.037 A 
BRANCH  55  69
ATOM     69  C   UNL A   1      45.804  27.841  27.712  1.00  0.00     0.058 A 
ATOM     70  C   UNL A   1      46.420  26.570  27.657  1.00  0.00     0.135 A 
ATOM     71  C   UNL A   1      45.919  28.552  26.477  1.00  0.00     0.135 A 
ATOM     72  F   UNL A   1      46.424  25.769  28.732  1.00  0.00    -0.206 F 
ATOM     73  C   UNL A   1      47.106  26.078  26.524  1.00  0.00     0.059 A 
ATOM     74  C   UNL A   1      46.558  28.064  25.327  1.00  0.00     0.059 A 
ATOM     75  F   UNL A   1      45.486  29.800  26.289  1.00  0.00    -0.206 F 
ATOM     76  C   UNL A   1      47.179  26.837  25.363  1.00  0.00     0.060 A 
BRANCH  76  77
ATOM     77  S   UNL A   1      48.131  26.265  23.938  1.00  0.00     0.124 S 
ATOM     78  O   UNL A   1      49.495  26.282  24.456  1.00  0.00    -0.237 OA
ATOM     79  O   UNL A   1      47.556  24.948  23.689  1.00  0.00    -0.237 OA
ATOM     80  O   UNL A   1      47.850  27.267  22.912  1.00  0.00    -0.744 OA
ENDBRANCH  76  77
ENDBRANCH  55  69
BRANCH  56  81
ATOM     81  C   UNL A   1      41.253  32.271  35.397  1.00  0.00     0.058 A 
ATOM     82  C   UNL A   1      40.240  31.300  35.208  1.00  0.00     0.135 A 
ATOM     83  C   UNL A   1      40.965  33.305  36.298  1.00  0.00     0.135 A 
ATOM     84  F   UNL A   1      40.433  30.292  34.341  1.00  0.00    -0.206 F 
ATOM     85  C   UNL A   1      39.082  31.262  35.978  1.00  0.00     0.059 A 
ATOM     86  C   UNL A   1      39.784  33.303  37.068  1.00  0.00     0.059 A 
ATOM     87  F   UNL A   1      41.871  34.261  36.542  1.00  0.00    -0.206 F 
ATOM     88  C   UNL A   1      38.883  32.242  36.942  1.00  0.00     0.060 A 
BRANCH  88  89
ATOM     89  S   UNL A   1      37.520  31.985  38.111  1.00  0.00     0.124 S 
ATOM     90  O   UNL A   1      37.192  30.581  37.897  1.00  0.00    -0.237 OA
ATOM     91  O   UNL A   1      38.163  32.290  39.388  1.00  0.00    -0.237 OA
ATOM     92  O   UNL A   1      36.513  32.943  37.666  1.00  0.00    -0.744 OA
ENDBRANCH  88  89
ENDBRANCH  56  81
BRANCH  68  93
ATOM     93  C   UNL A   1      45.681  26.574  34.222  1.00  0.00     0.058 A 
ATOM     94  C   UNL A   1      44.860  25.467  33.946  1.00  0.00     0.135 A 
ATOM     95  C   UNL A   1      46.959  26.266  34.751  1.00  0.00     0.135 A 
ATOM     96  F   UNL A   1      43.685  25.606  33.315  1.00  0.00    -0.206 F 
ATOM     97  C   UNL A   1      45.233  24.161  34.266  1.00  0.00     0.059 A 
ATOM     98  C   UNL A   1      47.380  24.965  35.007  1.00  0.00     0.059 A 
ATOM     99  F   UNL A   1      47.856  27.226  35.024  1.00  0.00    -0.206 F 
ATOM    100  C   UNL A   1      46.492  23.920  34.803  1.00  0.00     0.060 A 
BRANCH 100 101
ATOM    101  S   UNL A   1      46.998  22.244  35.219  1.00  0.00     0.124 S 
ATOM    102  O   UNL A   1      46.114  21.458  34.364  1.00  0.00    -0.237 OA
ATOM    103  O   UNL A   1      48.411  22.224  34.851  1.00  0.00    -0.237 OA
ATOM    104  O   UNL A   1      46.731  22.169  36.651  1.00  0.00    -0.744 OA
ENDBRANCH 100 101
ENDBRANCH  68  93
ENDBRANCH  42  43
ENDBRANCH  35  37
ENDBRANCH  34  35
ENDBRANCH  33  34
ENDBRANCH  32  33
ENDBRANCH  31  32
ENDBRANCH   1  31
TORSDOF 23
ENDMDL
MODEL 2
REMARK VINA RESULT:     -10.9      1.380      2.203
REMARK SMILES Cc1ccccc1OC1(C(=O)OCCOCCOCCOC(=O)c2ccc(-c3c4nc(c(-c5c(F)cc(S(=O)(=O)[O-])cc5F)c5ccc([nH]5)c(-c5c(F)cc(S(=O)(=O)[O-])cc5F)c5nc(c(-c6c(F)cc(S(=O)(=O)[O-])cc6F)c6ccc3[nH]6)C=C5)C=C4)cc2)CCN(C(=O)[C@H]2CCCCO2)CC1
REMARK SMILES IDX 17 1 16 2 15 3 14 4 13 5 12 6 10 7 11 8 9 9 90 10 102 11
REMARK SMILES IDX 91 12 101 13 92 14 93 15 94 16 8 17 7 18 1 19 2 20 3 21 4 22
REMARK SMILES IDX 6 23 5 24 95 25 96 26 100 27 97 28 99 29 98 30 18 31 19 32
REMARK SMILES IDX 20 33 21 34 22 35 23 36 24 37 25 38 89 39 26 40 88 41 27 42
REMARK SMILES IDX 28 43 29 44 82 45 30 46 87 47 81 48 83 49 31 50 86 51 80 52
REMARK SMILES IDX 79 53 32 55 66 56 45 57 65 58 46 59 49 60 64 61 84 62 47 63
REMARK SMILES IDX 48 64 63 66 85 67 50 68 33 69 34 70 43 71 35 72 36 73 42 74
REMARK SMILES IDX 44 75 37 76 38 77 39 78 40 79 41 80 67 81 68 82 77 83 69 84
REMARK SMILES IDX 70 85 76 86 78 87 71 88 72 89 73 90 74 91 75 92 51 93 52 94
REMARK SMILES IDX 61 95 53 96 54 97 60 98 62 99 55 100 56 101 57 102 58 103
REMARK SMILES IDX 59 104
REMARK H PARENT 83 54 49 65
REMARK Flexibility Score: inf
ROOT
ATOM      1  C   UNL A   1      38.200  28.792  28.215  1.00  0.00     0.188 C 
ENDROOT
BRANCH   1   2
ATOM      2  C   UNL A   1      39.191  27.971  29.054  1.00  0.00     0.188 C 
BRANCH   2   3
ATOM      3  O   UNL A   1      39.961  26.863  28.535  1.00  0.00    -0.376 OA
BRANCH   3   4
ATOM      4  C   UNL A   1      39.779  26.221  27.259  1.00  0.00     0.202 C 
BRANCH   4   5
ATOM      5  C   UNL A   1      39.038  24.691  26.850  1.00  0.00     0.261 C 
BRANCH   5   6
ATOM      6  O   UNL A   1      37.368  24.193  26.445  1.00  0.00    -0.460 OA
BRANCH   6   7
ATOM      7  C   UNL A   1      36.529  23.644  25.328  1.00  0.00     0.350 C 
ATOM      8  O   UNL A   1      36.761  23.711  24.112  1.00  0.00    -0.247 OA
BRANCH   7   9
ATOM      9  C   UNL A   1      35.131  23.049  25.569  1.00  0.00     0.209 C 
ATOM     10  C   UNL A   1      34.448  22.977  24.233  1.00  0.00     0.082 C 
ATOM     11  C   UNL A   1      35.425  21.746  26.354  1.00  0.00     0.082 C 
ATOM     12  C   UNL A   1      33.641  21.736  24.014  1.00  0.00     0.124 C 
ATOM     13  C   UNL A   1      35.265  20.501  25.519  1.00  0.00     0.124 C 
ATOM     14  N   UNL A   1      34.095  20.509  24.648  1.00  0.00    -0.340 N 
ATOM     15  C   UNL A   1      33.364  19.374  24.303  1.00  0.00     0.251 C 
ATOM     16  O   UNL A   1      32.520  19.425  23.401  1.00  0.00    -0.272 OA
BRANCH   9  17
ATOM     17  O   UNL A   1      34.456  24.056  26.403  1.00  0.00    -0.475 OA
BRANCH  17  18
ATOM     18  C   UNL A   1      33.334  24.817  26.182  1.00  0.00     0.123 A 
ATOM     19  C   UNL A   1      31.416  23.175  26.758  1.00  0.00     0.048 C 
ATOM     20  C   UNL A   1      31.976  24.457  26.243  1.00  0.00    -0.009 A 
ATOM     21  C   UNL A   1      30.990  25.326  25.698  1.00  0.00     0.007 A 
ATOM     22  C   UNL A   1      31.316  26.550  25.130  1.00  0.00     0.001 A 
ATOM     23  C   UNL A   1      33.631  26.085  25.636  1.00  0.00     0.047 A 
ATOM     24  C   UNL A   1      32.643  26.941  25.119  1.00  0.00     0.004 A 
ENDBRANCH  17  18
ENDBRANCH   9  17
BRANCH  15  25
ATOM     25  C   UNL A   1      33.545  18.105  25.150  1.00  0.00     0.207 C 
ATOM     26  C   UNL A   1      32.221  17.327  25.069  1.00  0.00     0.042 C 
ATOM     27  O   UNL A   1      34.629  17.351  24.602  1.00  0.00    -0.368 OA
ATOM     28  C   UNL A   1      32.346  15.902  25.586  1.00  0.00     0.006 C 
ATOM     29  C   UNL A   1      34.805  16.098  25.248  1.00  0.00     0.161 C 
ATOM     30  C   UNL A   1      33.582  15.229  25.006  1.00  0.00     0.029 C 
ENDBRANCH  15  25
ENDBRANCH   7   9
ENDBRANCH   6   7
ENDBRANCH   5   6
ENDBRANCH   4   5
ENDBRANCH   3   4
ENDBRANCH   2   3
ENDBRANCH   1   2
BRANCH   1  31
ATOM     31  O   UNL A   1      38.199  30.154  28.596  1.00  0.00    -0.376 OA
BRANCH  31  32
ATOM     32  C   UNL A   1      37.047  30.911  28.262  1.00  0.00     0.202 C 
BRANCH  32  33
ATOM     33  C   UNL A   1      35.905  30.891  29.304  1.00  0.00     0.261 C 
BRANCH  33  34
ATOM     34  O   UNL A   1      36.312  31.199  30.665  1.00  0.00    -0.460 OA
BRANCH  34  35
ATOM     35  C   UNL A   1      36.848  32.457  30.949  1.00  0.00     0.338 C 
ATOM     36  O   UNL A   1      36.159  33.416  31.146  1.00  0.00    -0.246 OA
BRANCH  35  37
ATOM     37  C   UNL A   1      38.325  32.351  31.225  1.00  0.00     0.060 A 
ATOM     38  C   UNL A   1      39.401  33.180  30.883  1.00  0.00     0.016 A 
ATOM     39  C   UNL A   1      38.671  31.220  31.855  1.00  0.00     0.016 A 
ATOM     40  C   UNL A   1      40.807  32.742  30.963  1.00  0.00     0.010 A 
ATOM     41  C   UNL A   1      39.968  30.773  31.682  1.00  0.00     0.010 A 
ATOM     42  C   UNL A   1      41.176  31.438  31.312  1.00  0.00    -0.014 A 
BRANCH  42  43
ATOM     43  C   UNL A   1      42.783  30.752  31.360  1.00  0.00     0.031 A 
ATOM     44  C   UNL A   1      43.606  29.508  30.363  1.00  0.00     0.074 A 
ATOM     45  C   UNL A   1      43.508  31.058  32.454  1.00  0.00     0.049 A 
ATOM     46  N   UNL A   1      44.609  28.736  30.750  1.00  0.00    -0.248 NA
ATOM     47  C   UNL A   1      43.273  28.990  28.954  1.00  0.00     0.031 C 
ATOM     48  C   UNL A   1      44.920  30.784  32.697  1.00  0.00     0.029 A 
ATOM     49  N   UNL A   1      43.040  31.564  33.671  1.00  0.00    -0.354 N 
ATOM     50  C   UNL A   1      44.986  27.886  29.684  1.00  0.00     0.074 A 
ATOM     51  C   UNL A   1      43.940  27.876  28.770  1.00  0.00     0.031 C 
ATOM     52  C   UNL A   1      45.141  30.830  34.019  1.00  0.00     0.029 A 
ATOM     53  C   UNL A   1      43.848  30.988  34.661  1.00  0.00     0.049 A 
ATOM     54  H   UNL A   1      42.296  32.195  33.805  1.00  0.00     0.167 HD
ATOM     55  C   UNL A   1      46.208  27.319  29.495  1.00  0.00     0.037 A 
ATOM     56  C   UNL A   1      43.318  30.165  35.606  1.00  0.00     0.037 A 
ATOM     57  C   UNL A   1      46.834  27.260  30.784  1.00  0.00     0.049 A 
ATOM     58  C   UNL A   1      43.973  28.801  35.625  1.00  0.00     0.074 A 
ATOM     59  C   UNL A   1      47.686  28.111  31.454  1.00  0.00     0.029 A 
ATOM     60  N   UNL A   1      46.218  26.460  31.738  1.00  0.00    -0.354 N 
ATOM     61  N   UNL A   1      44.717  28.320  34.662  1.00  0.00    -0.248 NA
ATOM     62  C   UNL A   1      43.874  27.884  36.757  1.00  0.00     0.031 C 
ATOM     63  C   UNL A   1      47.428  27.939  32.844  1.00  0.00     0.029 A 
ATOM     64  C   UNL A   1      46.494  26.926  33.005  1.00  0.00     0.049 A 
ATOM     65  H   UNL A   1      45.663  25.671  31.536  1.00  0.00     0.167 HD
ATOM     66  C   UNL A   1      45.144  27.060  34.992  1.00  0.00     0.074 A 
ATOM     67  C   UNL A   1      44.620  26.851  36.330  1.00  0.00     0.031 C 
ATOM     68  C   UNL A   1      45.877  26.271  34.150  1.00  0.00     0.037 A 
BRANCH  55  69
ATOM     69  C   UNL A   1      46.848  26.967  28.118  1.00  0.00     0.058 A 
ATOM     70  C   UNL A   1      47.628  27.939  27.451  1.00  0.00     0.135 A 
ATOM     71  C   UNL A   1      46.641  25.799  27.320  1.00  0.00     0.135 A 
ATOM     72  F   UNL A   1      47.910  29.109  28.042  1.00  0.00    -0.206 F 
ATOM     73  C   UNL A   1      48.111  27.788  26.132  1.00  0.00     0.059 A 
ATOM     74  C   UNL A   1      47.148  25.610  26.027  1.00  0.00     0.059 A 
ATOM     75  F   UNL A   1      45.881  24.766  27.690  1.00  0.00    -0.206 F 
ATOM     76  C   UNL A   1      47.858  26.622  25.421  1.00  0.00     0.060 A 
BRANCH  76  77
ATOM     77  S   UNL A   1      48.388  26.448  23.702  1.00  0.00     0.124 S 
ATOM     78  O   UNL A   1      47.982  25.080  23.395  1.00  0.00    -0.237 OA
ATOM     79  O   UNL A   1      47.634  27.504  23.037  1.00  0.00    -0.237 OA
ATOM     80  O   UNL A   1      49.832  26.662  23.763  1.00  0.00    -0.744 OA
ENDBRANCH  76  77
ENDBRANCH  55  69
BRANCH  56  81
ATOM     81  C   UNL A   1      41.927  30.541  36.018  1.00  0.00     0.058 A 
ATOM     82  C   UNL A   1      41.794  31.632  36.911  1.00  0.00     0.135 A 
ATOM     83  C   UNL A   1      40.767  30.147  35.338  1.00  0.00     0.135 A 
ATOM     84  F   UNL A   1      42.857  32.052  37.617  1.00  0.00    -0.206 F 
ATOM     85  C   UNL A   1      40.629  32.386  37.007  1.00  0.00     0.059 A 
ATOM     86  C   UNL A   1      39.567  30.879  35.443  1.00  0.00     0.059 A 
ATOM     87  F   UNL A   1      40.807  29.128  34.468  1.00  0.00    -0.206 F 
ATOM     88  C   UNL A   1      39.532  32.032  36.232  1.00  0.00     0.060 A 
BRANCH  88  89
ATOM     89  S   UNL A   1      38.152  33.207  36.169  1.00  0.00     0.124 S 
ATOM     90  O   UNL A   1      38.075  33.667  37.551  1.00  0.00    -0.237 OA
ATOM     91  O   UNL A   1      38.647  34.193  35.209  1.00  0.00    -0.237 OA
ATOM     92  O   UNL A   1      37.035  32.387  35.714  1.00  0.00    -0.744 OA
ENDBRANCH  88  89
ENDBRANCH  56  81
BRANCH  68  93
ATOM     93  C   UNL A   1      46.112  24.787  34.339  1.00  0.00     0.058 A 
ATOM     94  C   UNL A   1      47.261  24.245  34.940  1.00  0.00     0.135 A 
ATOM     95  C   UNL A   1      45.082  23.856  34.051  1.00  0.00     0.135 A 
ATOM     96  F   UNL A   1      48.251  25.030  35.391  1.00  0.00    -0.206 F 
ATOM     97  C   UNL A   1      47.424  22.875  35.144  1.00  0.00     0.059 A 
ATOM     98  C   UNL A   1      45.193  22.495  34.317  1.00  0.00     0.059 A 
ATOM     99  F   UNL A   1      43.916  24.244  33.512  1.00  0.00    -0.206 F 
ATOM    100  C   UNL A   1      46.388  22.006  34.823  1.00  0.00     0.060 A 
BRANCH 100 101
ATOM    101  S   UNL A   1      46.572  20.235  35.083  1.00  0.00     0.124 S 
ATOM    102  O   UNL A   1      47.199  20.203  36.400  1.00  0.00    -0.237 OA
ATOM    103  O   UNL A   1      45.196  19.748  35.029  1.00  0.00    -0.237 OA
ATOM    104  O   UNL A   1      47.417  19.828  33.966  1.00  0.00    -0.744 OA
ENDBRANCH 100 101
ENDBRANCH  68  93
ENDBRANCH  42  43
ENDBRANCH  35  37
ENDBRANCH  34  35
ENDBRANCH  33  34
ENDBRANCH  32  33
ENDBRANCH  31  32
ENDBRANCH   1  31
TORSDOF 23
ENDMDL
MODEL 3
REMARK VINA RESULT:     -10.7      2.004      4.026
REMARK SMILES Cc1ccccc1OC1(C(=O)OCCOCCOCCOC(=O)c2ccc(-c3c4nc(c(-c5c(F)cc(S(=O)(=O)[O-])cc5F)c5ccc([nH]5)c(-c5c(F)cc(S(=O)(=O)[O-])cc5F)c5nc(c(-c6c(F)cc(S(=O)(=O)[O-])cc6F)c6ccc3[nH]6)C=C5)C=C4)cc2)CCN(C(=O)[C@H]2CCCCO2)CC1
REMARK SMILES IDX 17 1 16 2 15 3 14 4 13 5 12 6 10 7 11 8 9 9 90 10 102 11
REMARK SMILES IDX 91 12 101 13 92 14 93 15 94 16 8 17 7 18 1 19 2 20 3 21 4 22
REMARK SMILES IDX 6 23 5 24 95 25 96 26 100 27 97 28 99 29 98 30 18 31 19 32
REMARK SMILES IDX 20 33 21 34 22 35 23 36 24 37 25 38 89 39 26 40 88 41 27 42
REMARK SMILES IDX 28 43 29 44 82 45 30 46 87 47 81 48 83 49 31 50 86 51 80 52
REMARK SMILES IDX 79 53 32 55 66 56 45 57 65 58 46 59 49 60 64 61 84 62 47 63
REMARK SMILES IDX 48 64 63 66 85 67 50 68 33 69 34 70 43 71 35 72 36 73 42 74
REMARK SMILES IDX 44 75 37 76 38 77 39 78 40 79 41 80 67 81 68 82 77 83 69 84
REMARK SMILES IDX 70 85 76 86 78 87 71 88 72 89 73 90 74 91 75 92 51 93 52 94
REMARK SMILES IDX 61 95 53 96 54 97 60 98 62 99 55 100 56 101 57 102 58 103
REMARK SMILES IDX 59 104
REMARK H PARENT 83 54 49 65
REMARK Flexibility Score: inf
ROOT
ATOM      1  C   UNL A   1      38.557  28.955  28.848  1.00  0.00     0.188 C 
ENDROOT
BRANCH   1   2
ATOM      2  C   UNL A   1      39.149  27.537  28.819  1.00  0.00     0.188 C 
BRANCH   2   3
ATOM      3  O   UNL A   1      39.659  26.902  27.625  1.00  0.00    -0.376 OA
BRANCH   3   4
ATOM      4  C   UNL A   1      40.169  25.559  27.524  1.00  0.00     0.202 C 
BRANCH   4   5
ATOM      5  C   UNL A   1      39.336  24.042  27.280  1.00  0.00     0.261 C 
BRANCH   5   6
ATOM      6  O   UNL A   1      37.901  23.556  26.327  1.00  0.00    -0.460 OA
BRANCH   6   7
ATOM      7  C   UNL A   1      37.210  22.358  25.745  1.00  0.00     0.350 C 
ATOM      8  O   UNL A   1      37.725  21.277  25.424  1.00  0.00    -0.247 OA
BRANCH   7   9
ATOM      9  C   UNL A   1      35.736  22.394  25.306  1.00  0.00     0.209 C 
ATOM     10  C   UNL A   1      34.905  22.292  26.553  1.00  0.00     0.082 C 
ATOM     11  C   UNL A   1      35.654  23.670  24.430  1.00  0.00     0.082 C 
ATOM     12  C   UNL A   1      33.692  23.169  26.565  1.00  0.00     0.124 C 
ATOM     13  C   UNL A   1      34.961  24.819  25.116  1.00  0.00     0.124 C 
ATOM     14  N   UNL A   1      33.766  24.440  25.861  1.00  0.00    -0.340 N 
ATOM     15  C   UNL A   1      32.645  25.253  26.017  1.00  0.00     0.251 C 
ATOM     16  O   UNL A   1      31.763  24.953  26.829  1.00  0.00    -0.272 OA
BRANCH   9  17
ATOM     17  O   UNL A   1      35.571  21.167  24.512  1.00  0.00    -0.475 OA
BRANCH  17  18
ATOM     18  C   UNL A   1      34.488  20.344  24.324  1.00  0.00     0.123 A 
ATOM     19  C   UNL A   1      32.697  21.972  23.403  1.00  0.00     0.048 C 
ATOM     20  C   UNL A   1      33.178  20.658  23.918  1.00  0.00    -0.009 A 
ATOM     21  C   UNL A   1      32.143  19.694  24.065  1.00  0.00     0.007 A 
ATOM     22  C   UNL A   1      32.382  18.424  24.570  1.00  0.00     0.001 A 
ATOM     23  C   UNL A   1      34.708  19.031  24.795  1.00  0.00     0.047 A 
ATOM     24  C   UNL A   1      33.678  18.083  24.916  1.00  0.00     0.004 A 
ENDBRANCH  17  18
ENDBRANCH   9  17
BRANCH  15  25
ATOM     25  C   UNL A   1      32.478  26.452  25.070  1.00  0.00     0.207 C 
ATOM     26  C   UNL A   1      31.333  26.098  24.107  1.00  0.00     0.042 C 
ATOM     27  O   UNL A   1      32.161  27.603  25.857  1.00  0.00    -0.368 OA
ATOM     28  C   UNL A   1      30.833  27.301  23.322  1.00  0.00     0.006 C 
ATOM     29  C   UNL A   1      31.873  28.745  25.063  1.00  0.00     0.161 C 
ATOM     30  C   UNL A   1      30.617  28.490  24.247  1.00  0.00     0.029 C 
ENDBRANCH  15  25
ENDBRANCH   7   9
ENDBRANCH   6   7
ENDBRANCH   5   6
ENDBRANCH   4   5
ENDBRANCH   3   4
ENDBRANCH   2   3
ENDBRANCH   1   2
BRANCH   1  31
ATOM     31  O   UNL A   1      37.524  29.068  29.809  1.00  0.00    -0.376 OA
BRANCH  31  32
ATOM     32  C   UNL A   1      36.315  29.670  29.380  1.00  0.00     0.202 C 
BRANCH  32  33
ATOM     33  C   UNL A   1      36.106  31.140  29.814  1.00  0.00     0.261 C 
BRANCH  33  34
ATOM     34  O   UNL A   1      36.213  31.378  31.244  1.00  0.00    -0.460 OA
BRANCH  34  35
ATOM     35  C   UNL A   1      36.867  32.525  31.698  1.00  0.00     0.338 C 
ATOM     36  O   UNL A   1      36.278  33.446  32.185  1.00  0.00    -0.246 OA
BRANCH  35  37
ATOM     37  C   UNL A   1      38.357  32.304  31.730  1.00  0.00     0.060 A 
ATOM     38  C   UNL A   1      39.405  32.900  31.015  1.00  0.00     0.016 A 
ATOM     39  C   UNL A   1      38.733  31.308  32.544  1.00  0.00     0.016 A 
ATOM     40  C   UNL A   1      40.761  32.324  30.952  1.00  0.00     0.010 A 
ATOM     41  C   UNL A   1      39.931  30.680  32.260  1.00  0.00     0.010 A 
ATOM     42  C   UNL A   1      41.090  31.095  31.536  1.00  0.00    -0.014 A 
BRANCH  42  43
ATOM     43  C   UNL A   1      42.617  30.247  31.466  1.00  0.00     0.031 A 
ATOM     44  C   UNL A   1      43.098  28.659  30.784  1.00  0.00     0.074 A 
ATOM     45  C   UNL A   1      43.603  30.772  32.220  1.00  0.00     0.049 A 
ATOM     46  N   UNL A   1      44.118  27.915  31.183  1.00  0.00    -0.248 NA
ATOM     47  C   UNL A   1      42.403  27.784  29.728  1.00  0.00     0.031 C 
ATOM     48  C   UNL A   1      45.013  30.399  32.236  1.00  0.00     0.029 A 
ATOM     49  N   UNL A   1      43.475  31.685  33.273  1.00  0.00    -0.354 N 
ATOM     50  C   UNL A   1      44.173  26.737  30.401  1.00  0.00     0.074 A 
ATOM     51  C   UNL A   1      42.938  26.589  29.783  1.00  0.00     0.031 C 
ATOM     52  C   UNL A   1      45.551  30.817  33.392  1.00  0.00     0.029 A 
ATOM     53  C   UNL A   1      44.464  31.336  34.203  1.00  0.00     0.049 A 
ATOM     54  H   UNL A   1      42.824  32.420  33.346  1.00  0.00     0.167 HD
ATOM     55  C   UNL A   1      45.277  25.981  30.156  1.00  0.00     0.037 A 
ATOM     56  C   UNL A   1      44.132  30.921  35.456  1.00  0.00     0.037 A 
ATOM     57  C   UNL A   1      46.193  26.235  31.230  1.00  0.00     0.049 A 
ATOM     58  C   UNL A   1      44.690  29.553  35.783  1.00  0.00     0.074 A 
ATOM     59  C   UNL A   1      47.231  27.128  31.387  1.00  0.00     0.029 A 
ATOM     60  N   UNL A   1      45.781  25.856  32.501  1.00  0.00    -0.354 N 
ATOM     61  N   UNL A   1      45.148  28.704  34.898  1.00  0.00    -0.248 NA
ATOM     62  C   UNL A   1      44.815  29.048  37.147  1.00  0.00     0.031 C 
ATOM     63  C   UNL A   1      47.308  27.425  32.778  1.00  0.00     0.029 A 
ATOM     64  C   UNL A   1      46.383  26.646  33.456  1.00  0.00     0.049 A 
ATOM     65  H   UNL A   1      45.148  25.125  32.692  1.00  0.00     0.167 HD
ATOM     66  C   UNL A   1      45.567  27.561  35.526  1.00  0.00     0.074 A 
ATOM     67  C   UNL A   1      45.372  27.843  36.937  1.00  0.00     0.031 C 
ATOM     68  C   UNL A   1      46.025  26.461  34.855  1.00  0.00     0.037 A 
BRANCH  55  69
ATOM     69  C   UNL A   1      45.542  25.142  28.869  1.00  0.00     0.058 A 
ATOM     70  C   UNL A   1      46.223  25.739  27.784  1.00  0.00     0.135 A 
ATOM     71  C   UNL A   1      45.052  23.837  28.549  1.00  0.00     0.135 A 
ATOM     72  F   UNL A   1      46.736  26.972  27.898  1.00  0.00    -0.206 F 
ATOM     73  C   UNL A   1      46.366  25.130  26.517  1.00  0.00     0.059 A 
ATOM     74  C   UNL A   1      45.222  23.198  27.312  1.00  0.00     0.059 A 
ATOM     75  F   UNL A   1      44.314  23.091  29.374  1.00  0.00    -0.206 F 
ATOM     76  C   UNL A   1      45.854  23.861  26.285  1.00  0.00     0.060 A 
BRANCH  76  77
ATOM     77  S   UNL A   1      45.946  23.106  24.646  1.00  0.00     0.124 S 
ATOM     78  O   UNL A   1      46.517  21.797  24.946  1.00  0.00    -0.237 OA
ATOM     79  O   UNL A   1      44.550  23.114  24.221  1.00  0.00    -0.237 OA
ATOM     80  O   UNL A   1      46.826  24.005  23.902  1.00  0.00    -0.744 OA
ENDBRANCH  76  77
ENDBRANCH  55  69
BRANCH  56  81
ATOM     81  C   UNL A   1      42.908  31.588  36.004  1.00  0.00     0.058 A 
ATOM     82  C   UNL A   1      43.040  32.935  36.417  1.00  0.00     0.135 A 
ATOM     83  C   UNL A   1      41.600  31.119  35.817  1.00  0.00     0.135 A 
ATOM     84  F   UNL A   1      44.262  33.449  36.641  1.00  0.00    -0.206 F 
ATOM     85  C   UNL A   1      41.961  33.810  36.486  1.00  0.00     0.059 A 
ATOM     86  C   UNL A   1      40.489  31.980  35.911  1.00  0.00     0.059 A 
ATOM     87  F   UNL A   1      41.385  29.858  35.419  1.00  0.00    -0.206 F 
ATOM     88  C   UNL A   1      40.691  33.336  36.184  1.00  0.00     0.060 A 
BRANCH  88  89
ATOM     89  S   UNL A   1      39.372  34.568  36.000  1.00  0.00     0.124 S 
ATOM     90  O   UNL A   1      38.724  34.523  37.306  1.00  0.00    -0.237 OA
ATOM     91  O   UNL A   1      40.138  35.782  35.724  1.00  0.00    -0.237 OA
ATOM     92  O   UNL A   1      38.584  34.050  34.887  1.00  0.00    -0.744 OA
ENDBRANCH  88  89
ENDBRANCH  56  81
BRANCH  68  93
ATOM     93  C   UNL A   1      46.211  25.088  35.468  1.00  0.00     0.058 A 
ATOM     94  C   UNL A   1      45.163  24.173  35.672  1.00  0.00     0.135 A 
ATOM     95  C   UNL A   1      47.511  24.589  35.729  1.00  0.00     0.135 A 
ATOM     96  F   UNL A   1      43.900  24.468  35.332  1.00  0.00    -0.206 F 
ATOM     97  C   UNL A   1      45.375  22.897  36.194  1.00  0.00     0.059 A 
ATOM     98  C   UNL A   1      47.752  23.294  36.176  1.00  0.00     0.059 A 
ATOM     99  F   UNL A   1      48.604  25.345  35.538  1.00  0.00    -0.206 F 
ATOM    100  C   UNL A   1      46.672  22.468  36.450  1.00  0.00     0.060 A 
BRANCH 100 101
ATOM    101  S   UNL A   1      46.971  20.824  37.117  1.00  0.00     0.124 S 
ATOM    102  O   UNL A   1      47.796  20.234  36.067  1.00  0.00    -0.237 OA
ATOM    103  O   UNL A   1      47.658  21.098  38.376  1.00  0.00    -0.237 OA
ATOM    104  O   UNL A   1      45.626  20.277  37.252  1.00  0.00    -0.744 OA
ENDBRANCH 100 101
ENDBRANCH  68  93
ENDBRANCH  42  43
ENDBRANCH  35  37
ENDBRANCH  34  35
ENDBRANCH  33  34
ENDBRANCH  32  33
ENDBRANCH  31  32
ENDBRANCH   1  31
TORSDOF 23
ENDMDL
