MODEL 1
REMARK VINA RESULT:      -9.8      0.000      0.000
REMARK SMILES CC(C)[C@@H](CCNC(=O)N1C[C@@H](C)[C@H](C)C1)CCC(=O)OCCOCCOCCOC(=O)c1ccc(-c2c3nc(c(-c4c(F)cc(S(=O)(=O)[O-])cc4F)c4ccc([nH]4)c(-c4c(F)cc(S(=O)(=O)[O-])cc4F)c4nc(c(-c5c(F)cc(S(=O)(=O)[O-])cc5F)c5ccc2[nH]5)C=C4)C=C3)cc1
REMARK SMILES IDX 25 1 24 2 23 3 22 4 21 5 19 6 20 7 18 8 17 9 4 10 2 11 1 12
REMARK SMILES IDX 3 13 5 14 6 15 7 16 8 17 9 19 10 20 11 21 16 22 12 23 14 24
REMARK SMILES IDX 13 25 15 26 26 27 27 28 28 29 29 30 30 31 31 32 32 33 33 34
REMARK SMILES IDX 34 35 98 36 35 37 97 38 36 39 37 40 38 41 91 42 39 43 96 44
REMARK SMILES IDX 90 45 92 46 40 47 95 48 89 49 88 50 41 52 75 53 54 54 74 55
REMARK SMILES IDX 55 56 58 57 73 58 93 59 56 60 57 61 72 63 94 64 59 65 42 66
REMARK SMILES IDX 43 67 52 68 44 69 45 70 51 71 53 72 46 73 47 74 48 75 49 76
REMARK SMILES IDX 50 77 76 78 77 79 86 80 78 81 79 82 85 83 87 84 80 85 81 86
REMARK SMILES IDX 82 87 83 88 84 89 60 90 61 91 70 92 62 93 63 94 69 95 71 96
REMARK SMILES IDX 64 97 65 98 66 99 67 100 68 101
REMARK H PARENT 7 18 92 51 58 62
REMARK Flexibility Score: inf
ROOT
ATOM      1  C   UNL A   1      40.336  22.660  26.871  1.00  0.00     0.188 C 
ENDROOT
BRANCH   1   2
ATOM      2  O   UNL A   1      39.018  22.781  26.339  1.00  0.00    -0.376 OA
BRANCH   2   3
ATOM      3  C   UNL A   1      38.407  21.643  25.737  1.00  0.00     0.202 C 
BRANCH   3   4
ATOM      4  C   UNL A   1      37.409  21.883  24.595  1.00  0.00     0.261 C 
BRANCH   4   5
ATOM      5  O   UNL A   1      37.068  23.271  24.431  1.00  0.00    -0.463 OA
BRANCH   5   6
ATOM      6  C   UNL A   1      35.802  23.552  24.045  1.00  0.00     0.305 C 
ATOM      7  O   UNL A   1      35.388  23.423  22.898  1.00  0.00    -0.252 OA
BRANCH   6   8
ATOM      8  C   UNL A   1      34.878  23.911  25.200  1.00  0.00     0.123 C 
BRANCH   8   9
ATOM      9  C   UNL A   1      33.687  23.049  25.662  1.00  0.00     0.015 C 
BRANCH   9  10
ATOM     10  C   UNL A   1      32.432  22.851  24.781  1.00  0.00    -0.006 C 
BRANCH  10  11
ATOM     11  C   UNL A   1      32.313  21.425  24.163  1.00  0.00    -0.014 C 
ATOM     12  C   UNL A   1      32.160  21.481  22.637  1.00  0.00     0.007 C 
ATOM     13  C   UNL A   1      33.506  20.522  24.483  1.00  0.00     0.007 C 
ENDBRANCH  10  11
BRANCH  10  14
ATOM     14  C   UNL A   1      31.149  23.274  25.574  1.00  0.00     0.025 C 
BRANCH  14  15
ATOM     15  C   UNL A   1      30.503  24.629  25.237  1.00  0.00     0.118 C 
BRANCH  15  16
ATOM     16  N   UNL A   1      31.224  25.354  24.207  1.00  0.00    -0.338 N 
ATOM     17  C   UNL A   1      31.260  26.687  23.958  1.00  0.00     0.317 C 
ATOM     18  H   UNL A   1      31.765  24.798  23.601  1.00  0.00     0.165 HD
ATOM     19  O   UNL A   1      31.361  27.034  22.783  1.00  0.00    -0.249 OA
ATOM     20  N   UNL A   1      31.209  27.574  24.994  1.00  0.00    -0.324 N 
ATOM     21  C   UNL A   1      31.011  28.991  24.751  1.00  0.00     0.125 C 
ATOM     22  C   UNL A   1      31.710  27.352  26.339  1.00  0.00     0.125 C 
ATOM     23  C   UNL A   1      32.026  29.677  25.659  1.00  0.00     0.010 C 
ATOM     24  C   UNL A   1      32.146  28.728  26.866  1.00  0.00     0.010 C 
ATOM     25  C   UNL A   1      31.595  31.083  26.057  1.00  0.00     0.010 C 
ATOM     26  C   UNL A   1      33.560  28.702  27.437  1.00  0.00     0.010 C 
ENDBRANCH  15  16
ENDBRANCH  14  15
ENDBRANCH  10  14
ENDBRANCH   9  10
ENDBRANCH   8   9
ENDBRANCH   6   8
ENDBRANCH   5   6
ENDBRANCH   4   5
ENDBRANCH   3   4
ENDBRANCH   2   3
ENDBRANCH   1   2
BRANCH   1  27
ATOM     27  C   UNL A   1      41.381  21.827  26.103  1.00  0.00     0.188 C 
BRANCH  27  28
ATOM     28  O   UNL A   1      42.680  22.386  26.112  1.00  0.00    -0.376 OA
BRANCH  28  29
ATOM     29  C   UNL A   1      42.789  23.753  26.463  1.00  0.00     0.202 C 
BRANCH  29  30
ATOM     30  C   UNL A   1      42.862  24.745  25.291  1.00  0.00     0.261 C 
BRANCH  30  31
ATOM     31  O   UNL A   1      41.856  25.772  25.273  1.00  0.00    -0.460 OA
BRANCH  31  32
ATOM     32  C   UNL A   1      42.280  27.057  25.343  1.00  0.00     0.338 C 
ATOM     33  O   UNL A   1      42.532  27.791  24.401  1.00  0.00    -0.246 OA
BRANCH  32  34
ATOM     34  C   UNL A   1      42.154  27.485  26.757  1.00  0.00     0.060 A 
ATOM     35  C   UNL A   1      41.158  26.918  27.566  1.00  0.00     0.016 A 
ATOM     36  C   UNL A   1      43.046  28.418  27.292  1.00  0.00     0.016 A 
ATOM     37  C   UNL A   1      41.036  27.303  28.905  1.00  0.00     0.010 A 
ATOM     38  C   UNL A   1      42.908  28.818  28.624  1.00  0.00     0.010 A 
ATOM     39  C   UNL A   1      41.884  28.287  29.430  1.00  0.00    -0.014 A 
BRANCH  39  40
ATOM     40  C   UNL A   1      41.576  28.941  30.729  1.00  0.00     0.031 A 
ATOM     41  C   UNL A   1      40.417  29.901  30.771  1.00  0.00     0.074 A 
ATOM     42  C   UNL A   1      42.308  28.720  31.838  1.00  0.00     0.049 A 
ATOM     43  N   UNL A   1      40.030  30.701  31.728  1.00  0.00    -0.248 NA
ATOM     44  C   UNL A   1      39.586  29.971  29.556  1.00  0.00     0.031 C 
ATOM     45  C   UNL A   1      43.422  27.781  31.949  1.00  0.00     0.029 A 
ATOM     46  N   UNL A   1      42.227  29.293  33.085  1.00  0.00    -0.354 N 
ATOM     47  C   UNL A   1      38.921  31.376  31.231  1.00  0.00     0.074 A 
ATOM     48  C   UNL A   1      38.716  30.916  29.876  1.00  0.00     0.031 C 
ATOM     49  C   UNL A   1      43.933  27.857  33.191  1.00  0.00     0.029 A 
ATOM     50  C   UNL A   1      43.211  28.878  33.951  1.00  0.00     0.049 A 
ATOM     51  H   UNL A   1      41.529  29.942  33.334  1.00  0.00     0.167 HD
ATOM     52  C   UNL A   1      38.138  32.292  31.849  1.00  0.00     0.037 A 
ATOM     53  C   UNL A   1      43.510  29.296  35.199  1.00  0.00     0.037 A 
ATOM     54  C   UNL A   1      38.344  32.749  33.197  1.00  0.00     0.049 A 
ATOM     55  C   UNL A   1      42.675  30.383  35.838  1.00  0.00     0.074 A 
ATOM     56  C   UNL A   1      37.607  33.676  33.912  1.00  0.00     0.029 A 
ATOM     57  N   UNL A   1      39.361  32.314  34.035  1.00  0.00    -0.354 N 
ATOM     58  N   UNL A   1      41.629  31.014  35.359  1.00  0.00    -0.248 NA
ATOM     59  C   UNL A   1      43.062  30.814  37.190  1.00  0.00     0.031 C 
ATOM     60  C   UNL A   1      38.206  33.839  35.164  1.00  0.00     0.029 A 
ATOM     61  C   UNL A   1      39.279  32.967  35.253  1.00  0.00     0.049 A 
ATOM     62  H   UNL A   1      40.040  31.641  33.798  1.00  0.00     0.167 HD
ATOM     63  C   UNL A   1      41.209  31.879  36.365  1.00  0.00     0.074 A 
ATOM     64  C   UNL A   1      42.112  31.693  37.481  1.00  0.00     0.031 C 
ATOM     65  C   UNL A   1      40.167  32.749  36.368  1.00  0.00     0.037 A 
BRANCH  52  66
ATOM     66  C   UNL A   1      36.996  32.876  31.065  1.00  0.00     0.058 A 
ATOM     67  C   UNL A   1      35.688  32.384  31.189  1.00  0.00     0.135 A 
ATOM     68  C   UNL A   1      37.206  33.969  30.209  1.00  0.00     0.135 A 
ATOM     69  F   UNL A   1      35.435  31.325  31.975  1.00  0.00    -0.206 F 
ATOM     70  C   UNL A   1      34.629  32.943  30.480  1.00  0.00     0.059 A 
ATOM     71  C   UNL A   1      36.157  34.564  29.514  1.00  0.00     0.059 A 
ATOM     72  F   UNL A   1      38.439  34.476  30.048  1.00  0.00    -0.206 F 
ATOM     73  C   UNL A   1      34.874  34.036  29.648  1.00  0.00     0.060 A 
BRANCH  73  74
ATOM     74  S   UNL A   1      33.486  34.764  28.754  1.00  0.00     0.124 S 
ATOM     75  O   UNL A   1      33.115  33.677  27.854  1.00  0.00    -0.237 OA
ATOM     76  O   UNL A   1      32.540  35.049  29.828  1.00  0.00    -0.237 OA
ATOM     77  O   UNL A   1      34.072  35.936  28.111  1.00  0.00    -0.744 OA
ENDBRANCH  73  74
ENDBRANCH  52  66
BRANCH  53  78
ATOM     78  C   UNL A   1      44.667  28.712  35.937  1.00  0.00     0.058 A 
ATOM     79  C   UNL A   1      44.493  27.630  36.816  1.00  0.00     0.135 A 
ATOM     80  C   UNL A   1      45.958  29.248  35.814  1.00  0.00     0.135 A 
ATOM     81  F   UNL A   1      43.276  27.091  36.982  1.00  0.00    -0.206 F 
ATOM     82  C   UNL A   1      45.548  27.121  37.567  1.00  0.00     0.059 A 
ATOM     83  C   UNL A   1      47.036  28.736  36.532  1.00  0.00     0.059 A 
ATOM     84  F   UNL A   1      46.183  30.279  34.986  1.00  0.00    -0.206 F 
ATOM     85  C   UNL A   1      46.818  27.681  37.418  1.00  0.00     0.060 A 
BRANCH  85  86
ATOM     86  S   UNL A   1      48.184  27.000  38.382  1.00  0.00     0.124 S 
ATOM     87  O   UNL A   1      49.205  28.028  38.216  1.00  0.00    -0.237 OA
ATOM     88  O   UNL A   1      47.595  26.894  39.714  1.00  0.00    -0.237 OA
ATOM     89  O   UNL A   1      48.458  25.727  37.723  1.00  0.00    -0.744 OA
ENDBRANCH  85  86
ENDBRANCH  53  78
BRANCH  65  90
ATOM     90  C   UNL A   1      39.892  33.519  37.633  1.00  0.00     0.058 A 
ATOM     91  C   UNL A   1      40.543  34.726  37.931  1.00  0.00     0.135 A 
ATOM     92  C   UNL A   1      38.902  33.074  38.526  1.00  0.00     0.135 A 
ATOM     93  F   UNL A   1      41.500  35.196  37.114  1.00  0.00    -0.206 F 
ATOM     94  C   UNL A   1      40.238  35.453  39.078  1.00  0.00     0.059 A 
ATOM     95  C   UNL A   1      38.559  33.800  39.664  1.00  0.00     0.059 A 
ATOM     96  F   UNL A   1      38.237  31.932  38.285  1.00  0.00    -0.206 F 
ATOM     97  C   UNL A   1      39.242  34.984  39.936  1.00  0.00     0.060 A 
BRANCH  97  98
ATOM     98  S   UNL A   1      38.824  35.961  41.396  1.00  0.00     0.124 S 
ATOM     99  O   UNL A   1      37.542  35.381  41.782  1.00  0.00    -0.237 OA
ATOM    100  O   UNL A   1      39.942  35.677  42.291  1.00  0.00    -0.237 OA
ATOM    101  O   UNL A   1      38.766  37.328  40.889  1.00  0.00    -0.744 OA
ENDBRANCH  97  98
ENDBRANCH  65  90
ENDBRANCH  39  40
ENDBRANCH  32  34
ENDBRANCH  31  32
ENDBRANCH  30  31
ENDBRANCH  29  30
ENDBRANCH  28  29
ENDBRANCH  27  28
ENDBRANCH   1  27
TORSDOF 26
ENDMDL
MODEL 2
REMARK VINA RESULT:      -9.7      6.045     10.970
REMARK SMILES CC(C)[C@@H](CCNC(=O)N1C[C@@H](C)[C@H](C)C1)CCC(=O)OCCOCCOCCOC(=O)c1ccc(-c2c3nc(c(-c4c(F)cc(S(=O)(=O)[O-])cc4F)c4ccc([nH]4)c(-c4c(F)cc(S(=O)(=O)[O-])cc4F)c4nc(c(-c5c(F)cc(S(=O)(=O)[O-])cc5F)c5ccc2[nH]5)C=C4)C=C3)cc1
REMARK SMILES IDX 25 1 24 2 23 3 22 4 21 5 19 6 20 7 18 8 17 9 4 10 2 11 1 12
REMARK SMILES IDX 3 13 5 14 6 15 7 16 8 17 9 19 10 20 11 21 16 22 12 23 14 24
REMARK SMILES IDX 13 25 15 26 26 27 27 28 28 29 29 30 30 31 31 32 32 33 33 34
REMARK SMILES IDX 34 35 98 36 35 37 97 38 36 39 37 40 38 41 91 42 39 43 96 44
REMARK SMILES IDX 90 45 92 46 40 47 95 48 89 49 88 50 41 52 75 53 54 54 74 55
REMARK SMILES IDX 55 56 58 57 73 58 93 59 56 60 57 61 72 63 94 64 59 65 42 66
REMARK SMILES IDX 43 67 52 68 44 69 45 70 51 71 53 72 46 73 47 74 48 75 49 76
REMARK SMILES IDX 50 77 76 78 77 79 86 80 78 81 79 82 85 83 87 84 80 85 81 86
REMARK SMILES IDX 82 87 83 88 84 89 60 90 61 91 70 92 62 93 63 94 69 95 71 96
REMARK SMILES IDX 64 97 65 98 66 99 67 100 68 101
REMARK H PARENT 7 18 92 51 58 62
REMARK Flexibility Score: inf
ROOT
ATOM      1  C   UNL A   1      40.381  21.745  26.973  1.00  0.00     0.188 C 
ENDROOT
BRANCH   1   2
ATOM      2  O   UNL A   1      39.261  21.205  26.275  1.00  0.00    -0.376 OA
BRANCH   2   3
ATOM      3  C   UNL A   1      38.334  22.095  25.658  1.00  0.00     0.202 C 
BRANCH   3   4
ATOM      4  C   UNL A   1      36.839  21.755  25.751  1.00  0.00     0.261 C 
BRANCH   4   5
ATOM      5  O   UNL A   1      36.173  21.810  24.477  1.00  0.00    -0.463 OA
BRANCH   5   6
ATOM      6  C   UNL A   1      36.193  22.995  23.823  1.00  0.00     0.305 C 
ATOM      7  O   UNL A   1      36.703  23.163  22.721  1.00  0.00    -0.252 OA
BRANCH   6   8
ATOM      8  C   UNL A   1      35.393  24.088  24.518  1.00  0.00     0.123 C 
BRANCH   8   9
ATOM      9  C   UNL A   1      34.016  24.592  24.045  1.00  0.00     0.015 C 
BRANCH   9  10
ATOM     10  C   UNL A   1      32.700  24.095  24.686  1.00  0.00    -0.006 C 
BRANCH  10  11
ATOM     11  C   UNL A   1      31.798  25.239  25.241  1.00  0.00    -0.014 C 
ATOM     12  C   UNL A   1      30.635  24.686  26.077  1.00  0.00     0.007 C 
ATOM     13  C   UNL A   1      32.557  26.249  26.102  1.00  0.00     0.007 C 
ENDBRANCH  10  11
BRANCH  10  14
ATOM     14  C   UNL A   1      31.940  23.155  23.690  1.00  0.00     0.025 C 
BRANCH  14  15
ATOM     15  C   UNL A   1      32.381  21.684  23.604  1.00  0.00     0.118 C 
BRANCH  15  16
ATOM     16  N   UNL A   1      33.241  21.290  24.704  1.00  0.00    -0.338 N 
ATOM     17  C   UNL A   1      33.194  20.176  25.476  1.00  0.00     0.317 C 
ATOM     18  H   UNL A   1      33.963  21.923  24.922  1.00  0.00     0.165 HD
ATOM     19  O   UNL A   1      33.529  20.296  26.654  1.00  0.00    -0.249 OA
ATOM     20  N   UNL A   1      32.812  18.985  24.930  1.00  0.00    -0.324 N 
ATOM     21  C   UNL A   1      32.529  17.836  25.771  1.00  0.00     0.125 C 
ATOM     22  C   UNL A   1      33.007  18.571  23.551  1.00  0.00     0.125 C 
ATOM     23  C   UNL A   1      33.229  16.674  25.074  1.00  0.00     0.010 C 
ATOM     24  C   UNL A   1      33.164  17.043  23.581  1.00  0.00     0.010 C 
ATOM     25  C   UNL A   1      32.573  15.333  25.378  1.00  0.00     0.010 C 
ATOM     26  C   UNL A   1      34.401  16.578  22.821  1.00  0.00     0.010 C 
ENDBRANCH  15  16
ENDBRANCH  14  15
ENDBRANCH  10  14
ENDBRANCH   9  10
ENDBRANCH   8   9
ENDBRANCH   6   8
ENDBRANCH   5   6
ENDBRANCH   4   5
ENDBRANCH   3   4
ENDBRANCH   2   3
ENDBRANCH   1   2
BRANCH   1  27
ATOM     27  C   UNL A   1      41.648  20.884  27.135  1.00  0.00     0.188 C 
BRANCH  27  28
ATOM     28  O   UNL A   1      41.665  19.726  26.323  1.00  0.00    -0.376 OA
BRANCH  28  29
ATOM     29  C   UNL A   1      42.624  18.734  26.637  1.00  0.00     0.202 C 
BRANCH  29  30
ATOM     30  C   UNL A   1      43.453  18.202  25.458  1.00  0.00     0.261 C 
BRANCH  30  31
ATOM     31  O   UNL A   1      44.684  18.894  25.190  1.00  0.00    -0.460 OA
BRANCH  31  32
ATOM     32  C   UNL A   1      44.686  19.785  24.169  1.00  0.00     0.338 C 
ATOM     33  O   UNL A   1      44.536  19.534  22.986  1.00  0.00    -0.246 OA
BRANCH  32  34
ATOM     34  C   UNL A   1      44.664  21.141  24.771  1.00  0.00     0.060 A 
ATOM     35  C   UNL A   1      44.051  22.196  24.078  1.00  0.00     0.016 A 
ATOM     36  C   UNL A   1      45.218  21.359  26.035  1.00  0.00     0.016 A 
ATOM     37  C   UNL A   1      44.012  23.477  24.639  1.00  0.00     0.010 A 
ATOM     38  C   UNL A   1      45.198  22.644  26.584  1.00  0.00     0.010 A 
ATOM     39  C   UNL A   1      44.623  23.717  25.877  1.00  0.00    -0.014 A 
BRANCH  39  40
ATOM     40  C   UNL A   1      44.880  25.106  26.340  1.00  0.00     0.031 A 
ATOM     41  C   UNL A   1      46.225  25.709  26.029  1.00  0.00     0.074 A 
ATOM     42  C   UNL A   1      43.970  25.812  27.038  1.00  0.00     0.049 A 
ATOM     43  N   UNL A   1      46.749  26.834  26.437  1.00  0.00    -0.248 NA
ATOM     44  C   UNL A   1      47.099  24.925  25.140  1.00  0.00     0.031 C 
ATOM     45  C   UNL A   1      42.616  25.369  27.364  1.00  0.00     0.029 A 
ATOM     46  N   UNL A   1      44.064  27.057  27.615  1.00  0.00    -0.354 N 
ATOM     47  C   UNL A   1      48.015  26.889  25.865  1.00  0.00     0.074 A 
ATOM     48  C   UNL A   1      48.193  25.670  25.109  1.00  0.00     0.031 C 
ATOM     49  C   UNL A   1      42.012  26.319  28.100  1.00  0.00     0.029 A 
ATOM     50  C   UNL A   1      42.948  27.420  28.333  1.00  0.00     0.049 A 
ATOM     51  H   UNL A   1      44.856  27.634  27.523  1.00  0.00     0.167 HD
ATOM     52  C   UNL A   1      48.944  27.869  25.955  1.00  0.00     0.037 A 
ATOM     53  C   UNL A   1      42.723  28.500  29.111  1.00  0.00     0.037 A 
ATOM     54  C   UNL A   1      48.765  29.082  26.708  1.00  0.00     0.049 A 
ATOM     55  C   UNL A   1      43.808  29.541  29.268  1.00  0.00     0.074 A 
ATOM     56  C   UNL A   1      49.649  30.135  26.863  1.00  0.00     0.029 A 
ATOM     57  N   UNL A   1      47.627  29.404  27.433  1.00  0.00    -0.354 N 
ATOM     58  N   UNL A   1      45.001  29.583  28.723  1.00  0.00    -0.248 NA
ATOM     59  C   UNL A   1      43.515  30.684  30.146  1.00  0.00     0.031 C 
ATOM     60  C   UNL A   1      49.065  31.072  27.721  1.00  0.00     0.029 A 
ATOM     61  C   UNL A   1      47.793  30.632  28.050  1.00  0.00     0.049 A 
ATOM     62  H   UNL A   1      46.821  28.842  27.499  1.00  0.00     0.167 HD
ATOM     63  C   UNL A   1      45.579  30.773  29.155  1.00  0.00     0.074 A 
ATOM     64  C   UNL A   1      44.607  31.425  30.006  1.00  0.00     0.031 C 
ATOM     65  C   UNL A   1      46.804  31.285  28.871  1.00  0.00     0.037 A 
BRANCH  52  66
ATOM     66  C   UNL A   1      50.248  27.664  25.235  1.00  0.00     0.058 A 
ATOM     67  C   UNL A   1      51.420  27.305  25.918  1.00  0.00     0.135 A 
ATOM     68  C   UNL A   1      50.315  27.787  23.838  1.00  0.00     0.135 A 
ATOM     69  F   UNL A   1      51.418  27.197  27.256  1.00  0.00    -0.206 F 
ATOM     70  C   UNL A   1      52.618  27.092  25.244  1.00  0.00     0.059 A 
ATOM     71  C   UNL A   1      51.496  27.548  23.140  1.00  0.00     0.059 A 
ATOM     72  F   UNL A   1      49.225  28.134  23.135  1.00  0.00    -0.206 F 
ATOM     73  C   UNL A   1      52.645  27.212  23.854  1.00  0.00     0.060 A 
BRANCH  73  74
ATOM     74  S   UNL A   1      54.202  26.909  22.994  1.00  0.00     0.124 S 
ATOM     75  O   UNL A   1      54.776  28.250  22.947  1.00  0.00    -0.237 OA
ATOM     76  O   UNL A   1      54.870  25.964  23.883  1.00  0.00    -0.237 OA
ATOM     77  O   UNL A   1      53.780  26.363  21.707  1.00  0.00    -0.744 OA
ENDBRANCH  73  74
ENDBRANCH  52  66
BRANCH  53  78
ATOM     78  C   UNL A   1      41.427  28.658  29.830  1.00  0.00     0.058 A 
ATOM     79  C   UNL A   1      40.301  29.194  29.184  1.00  0.00     0.135 A 
ATOM     80  C   UNL A   1      41.297  28.321  31.187  1.00  0.00     0.135 A 
ATOM     81  F   UNL A   1      40.375  29.548  27.892  1.00  0.00    -0.206 F 
ATOM     82  C   UNL A   1      39.105  29.416  29.861  1.00  0.00     0.059 A 
ATOM     83  C   UNL A   1      40.103  28.505  31.878  1.00  0.00     0.059 A 
ATOM     84  F   UNL A   1      42.339  27.801  31.853  1.00  0.00    -0.206 F 
ATOM     85  C   UNL A   1      39.016  29.068  31.210  1.00  0.00     0.060 A 
BRANCH  85  86
ATOM     86  S   UNL A   1      37.454  29.343  32.073  1.00  0.00     0.124 S 
ATOM     87  O   UNL A   1      36.500  29.322  30.971  1.00  0.00    -0.237 OA
ATOM     88  O   UNL A   1      37.404  28.203  32.984  1.00  0.00    -0.237 OA
ATOM     89  O   UNL A   1      37.648  30.640  32.714  1.00  0.00    -0.744 OA
ENDBRANCH  85  86
ENDBRANCH  53  78
BRANCH  65  90
ATOM     90  C   UNL A   1      47.147  32.644  29.420  1.00  0.00     0.058 A 
ATOM     91  C   UNL A   1      47.913  32.810  30.584  1.00  0.00     0.135 A 
ATOM     92  C   UNL A   1      46.762  33.803  28.723  1.00  0.00     0.135 A 
ATOM     93  F   UNL A   1      48.306  31.738  31.291  1.00  0.00    -0.206 F 
ATOM     94  C   UNL A   1      48.268  34.074  31.048  1.00  0.00     0.059 A 
ATOM     95  C   UNL A   1      47.131  35.075  29.152  1.00  0.00     0.059 A 
ATOM     96  F   UNL A   1      46.039  33.704  27.595  1.00  0.00    -0.206 F 
ATOM     97  C   UNL A   1      47.876  35.199  30.323  1.00  0.00     0.060 A 
BRANCH  97  98
ATOM     98  S   UNL A   1      48.381  36.830  30.911  1.00  0.00     0.124 S 
ATOM     99  O   UNL A   1      47.093  37.454  31.194  1.00  0.00    -0.237 OA
ATOM    100  O   UNL A   1      49.196  36.502  32.077  1.00  0.00    -0.237 OA
ATOM    101  O   UNL A   1      49.114  37.390  29.780  1.00  0.00    -0.744 OA
ENDBRANCH  97  98
ENDBRANCH  65  90
ENDBRANCH  39  40
ENDBRANCH  32  34
ENDBRANCH  31  32
ENDBRANCH  30  31
ENDBRANCH  29  30
ENDBRANCH  28  29
ENDBRANCH  27  28
ENDBRANCH   1  27
TORSDOF 26
ENDMDL
MODEL 3
REMARK VINA RESULT:      -8.8      3.286      8.810
REMARK SMILES CC(C)[C@@H](CCNC(=O)N1C[C@@H](C)[C@H](C)C1)CCC(=O)OCCOCCOCCOC(=O)c1ccc(-c2c3nc(c(-c4c(F)cc(S(=O)(=O)[O-])cc4F)c4ccc([nH]4)c(-c4c(F)cc(S(=O)(=O)[O-])cc4F)c4nc(c(-c5c(F)cc(S(=O)(=O)[O-])cc5F)c5ccc2[nH]5)C=C4)C=C3)cc1
REMARK SMILES IDX 25 1 24 2 23 3 22 4 21 5 19 6 20 7 18 8 17 9 4 10 2 11 1 12
REMARK SMILES IDX 3 13 5 14 6 15 7 16 8 17 9 19 10 20 11 21 16 22 12 23 14 24
REMARK SMILES IDX 13 25 15 26 26 27 27 28 28 29 29 30 30 31 31 32 32 33 33 34
REMARK SMILES IDX 34 35 98 36 35 37 97 38 36 39 37 40 38 41 91 42 39 43 96 44
REMARK SMILES IDX 90 45 92 46 40 47 95 48 89 49 88 50 41 52 75 53 54 54 74 55
REMARK SMILES IDX 55 56 58 57 73 58 93 59 56 60 57 61 72 63 94 64 59 65 42 66
REMARK SMILES IDX 43 67 52 68 44 69 45 70 51 71 53 72 46 73 47 74 48 75 49 76
REMARK SMILES IDX 50 77 76 78 77 79 86 80 78 81 79 82 85 83 87 84 80 85 81 86
REMARK SMILES IDX 82 87 83 88 84 89 60 90 61 91 70 92 62 93 63 94 69 95 71 96
REMARK SMILES IDX 64 97 65 98 66 99 67 100 68 101
REMARK H PARENT 7 18 92 51 58 62
REMARK Flexibility Score: inf
ROOT
ATOM      1  C   UNL A   1      30.947  24.811  26.181  1.00  0.00     0.188 C 
ENDROOT
BRANCH   1   2
ATOM      2  O   UNL A   1      31.377  24.004  27.275  1.00  0.00    -0.376 OA
BRANCH   2   3
ATOM      3  C   UNL A   1      31.970  22.736  27.010  1.00  0.00     0.202 C 
BRANCH   3   4
ATOM      4  C   UNL A   1      32.902  22.141  28.075  1.00  0.00     0.261 C 
BRANCH   4   5
ATOM      5  O   UNL A   1      34.158  21.693  27.534  1.00  0.00    -0.463 OA
BRANCH   5   6
ATOM      6  C   UNL A   1      34.874  22.591  26.818  1.00  0.00     0.305 C 
ATOM      7  O   UNL A   1      34.804  23.805  26.972  1.00  0.00    -0.252 OA
BRANCH   6   8
ATOM      8  C   UNL A   1      35.897  21.953  25.889  1.00  0.00     0.123 C 
BRANCH   8   9
ATOM      9  C   UNL A   1      35.652  21.659  24.396  1.00  0.00     0.015 C 
BRANCH   9  10
ATOM     10  C   UNL A   1      34.373  20.945  23.904  1.00  0.00    -0.006 C 
BRANCH  10  11
ATOM     11  C   UNL A   1      33.899  19.787  24.833  1.00  0.00    -0.014 C 
ATOM     12  C   UNL A   1      32.373  19.617  24.793  1.00  0.00     0.007 C 
ATOM     13  C   UNL A   1      34.531  18.436  24.494  1.00  0.00     0.007 C 
ENDBRANCH  10  11
BRANCH  10  14
ATOM     14  C   UNL A   1      33.246  21.997  23.626  1.00  0.00     0.025 C 
BRANCH  14  15
ATOM     15  C   UNL A   1      33.623  23.488  23.661  1.00  0.00     0.118 C 
BRANCH  15  16
ATOM     16  N   UNL A   1      33.737  24.069  22.336  1.00  0.00    -0.338 N 
ATOM     17  C   UNL A   1      32.957  25.004  21.737  1.00  0.00     0.317 C 
ATOM     18  H   UNL A   1      34.487  23.737  21.793  1.00  0.00     0.165 HD
ATOM     19  O   UNL A   1      32.798  24.905  20.521  1.00  0.00    -0.249 OA
ATOM     20  N   UNL A   1      32.409  26.010  22.479  1.00  0.00    -0.324 N 
ATOM     21  C   UNL A   1      31.392  26.880  21.918  1.00  0.00     0.125 C 
ATOM     22  C   UNL A   1      32.977  26.597  23.680  1.00  0.00     0.125 C 
ATOM     23  C   UNL A   1      31.814  28.282  22.347  1.00  0.00     0.010 C 
ATOM     24  C   UNL A   1      32.512  28.062  23.702  1.00  0.00     0.010 C 
ATOM     25  C   UNL A   1      30.635  29.241  22.442  1.00  0.00     0.010 C 
ATOM     26  C   UNL A   1      33.671  29.029  23.914  1.00  0.00     0.010 C 
ENDBRANCH  15  16
ENDBRANCH  14  15
ENDBRANCH  10  14
ENDBRANCH   9  10
ENDBRANCH   8   9
ENDBRANCH   6   8
ENDBRANCH   5   6
ENDBRANCH   4   5
ENDBRANCH   3   4
ENDBRANCH   2   3
ENDBRANCH   1   2
BRANCH   1  27
ATOM     27  C   UNL A   1      30.739  26.322  26.400  1.00  0.00     0.188 C 
BRANCH  27  28
ATOM     28  O   UNL A   1      31.850  26.977  26.981  1.00  0.00    -0.376 OA
BRANCH  28  29
ATOM     29  C   UNL A   1      31.595  28.183  27.674  1.00  0.00     0.202 C 
BRANCH  29  30
ATOM     30  C   UNL A   1      32.387  29.413  27.202  1.00  0.00     0.261 C 
BRANCH  30  31
ATOM     31  O   UNL A   1      33.799  29.392  27.469  1.00  0.00    -0.460 OA
BRANCH  31  32
ATOM     32  C   UNL A   1      34.432  30.587  27.553  1.00  0.00     0.338 C 
ATOM     33  O   UNL A   1      33.975  31.675  27.245  1.00  0.00    -0.246 OA
BRANCH  32  34
ATOM     34  C   UNL A   1      35.690  30.365  28.309  1.00  0.00     0.060 A 
ATOM     35  C   UNL A   1      36.853  31.056  27.935  1.00  0.00     0.016 A 
ATOM     36  C   UNL A   1      35.707  29.504  29.409  1.00  0.00     0.016 A 
ATOM     37  C   UNL A   1      38.042  30.866  28.647  1.00  0.00     0.010 A 
ATOM     38  C   UNL A   1      36.902  29.298  30.104  1.00  0.00     0.010 A 
ATOM     39  C   UNL A   1      38.083  29.953  29.709  1.00  0.00    -0.014 A 
BRANCH  39  40
ATOM     40  C   UNL A   1      39.382  29.494  30.266  1.00  0.00     0.031 A 
ATOM     41  C   UNL A   1      39.950  30.255  31.435  1.00  0.00     0.074 A 
ATOM     42  C   UNL A   1      40.061  28.453  29.747  1.00  0.00     0.049 A 
ATOM     43  N   UNL A   1      41.118  30.151  32.010  1.00  0.00    -0.248 NA
ATOM     44  C   UNL A   1      39.076  31.281  32.029  1.00  0.00     0.031 C 
ATOM     45  C   UNL A   1      39.604  27.601  28.651  1.00  0.00     0.029 A 
ATOM     46  N   UNL A   1      41.299  27.949  30.070  1.00  0.00    -0.354 N 
ATOM     47  C   UNL A   1      41.126  31.103  33.023  1.00  0.00     0.074 A 
ATOM     48  C   UNL A   1      39.858  31.796  32.965  1.00  0.00     0.031 C 
ATOM     49  C   UNL A   1      40.558  26.692  28.380  1.00  0.00     0.029 A 
ATOM     50  C   UNL A   1      41.709  26.921  29.253  1.00  0.00     0.049 A 
ATOM     51  H   UNL A   1      41.841  28.293  30.817  1.00  0.00     0.167 HD
ATOM     52  C   UNL A   1      42.097  31.372  33.928  1.00  0.00     0.037 A 
ATOM     53  C   UNL A   1      42.888  26.266  29.199  1.00  0.00     0.037 A 
ATOM     54  C   UNL A   1      43.357  30.681  33.985  1.00  0.00     0.049 A 
ATOM     55  C   UNL A   1      43.992  26.641  30.163  1.00  0.00     0.074 A 
ATOM     56  C   UNL A   1      44.407  30.881  34.863  1.00  0.00     0.029 A 
ATOM     57  N   UNL A   1      43.739  29.657  33.131  1.00  0.00    -0.354 N 
ATOM     58  N   UNL A   1      43.987  27.543  31.117  1.00  0.00    -0.248 NA
ATOM     59  C   UNL A   1      45.262  25.909  30.042  1.00  0.00     0.031 C 
ATOM     60  C   UNL A   1      45.444  30.013  34.509  1.00  0.00     0.029 A 
ATOM     61  C   UNL A   1      45.016  29.228  33.451  1.00  0.00     0.049 A 
ATOM     62  H   UNL A   1      43.184  29.290  32.404  1.00  0.00     0.167 HD
ATOM     63  C   UNL A   1      45.231  27.452  31.735  1.00  0.00     0.074 A 
ATOM     64  C   UNL A   1      45.964  26.409  31.050  1.00  0.00     0.031 C 
ATOM     65  C   UNL A   1      45.723  28.166  32.779  1.00  0.00     0.037 A 
BRANCH  52  66
ATOM     66  C   UNL A   1      41.842  32.473  34.919  1.00  0.00     0.058 A 
ATOM     67  C   UNL A   1      42.150  33.811  34.632  1.00  0.00     0.135 A 
ATOM     68  C   UNL A   1      41.242  32.190  36.158  1.00  0.00     0.135 A 
ATOM     69  F   UNL A   1      42.747  34.134  33.473  1.00  0.00    -0.206 F 
ATOM     70  C   UNL A   1      41.890  34.829  35.543  1.00  0.00     0.059 A 
ATOM     71  C   UNL A   1      40.945  33.197  37.071  1.00  0.00     0.059 A 
ATOM     72  F   UNL A   1      40.932  30.926  36.486  1.00  0.00    -0.206 F 
ATOM     73  C   UNL A   1      41.283  34.512  36.759  1.00  0.00     0.060 A 
BRANCH  73  74
ATOM     74  S   UNL A   1      40.930  35.848  37.919  1.00  0.00     0.124 S 
ATOM     75  O   UNL A   1      40.357  35.115  39.044  1.00  0.00    -0.237 OA
ATOM     76  O   UNL A   1      42.254  36.421  38.145  1.00  0.00    -0.237 OA
ATOM     77  O   UNL A   1      39.998  36.700  37.187  1.00  0.00    -0.744 OA
ENDBRANCH  73  74
ENDBRANCH  52  66
BRANCH  53  78
ATOM     78  C   UNL A   1      43.114  25.196  28.186  1.00  0.00     0.058 A 
ATOM     79  C   UNL A   1      42.928  23.842  28.509  1.00  0.00     0.135 A 
ATOM     80  C   UNL A   1      43.563  25.499  26.890  1.00  0.00     0.135 A 
ATOM     81  F   UNL A   1      42.516  23.497  29.738  1.00  0.00    -0.206 F 
ATOM     82  C   UNL A   1      43.204  22.827  27.597  1.00  0.00     0.059 A 
ATOM     83  C   UNL A   1      43.817  24.503  25.951  1.00  0.00     0.059 A 
ATOM     84  F   UNL A   1      43.754  26.775  26.526  1.00  0.00    -0.206 F 
ATOM     85  C   UNL A   1      43.649  23.169  26.319  1.00  0.00     0.060 A 
BRANCH  85  86
ATOM     86  S   UNL A   1      43.987  21.845  25.137  1.00  0.00     0.124 S 
ATOM     87  O   UNL A   1      45.330  21.434  25.530  1.00  0.00    -0.237 OA
ATOM     88  O   UNL A   1      42.917  20.895  25.428  1.00  0.00    -0.237 OA
ATOM     89  O   UNL A   1      43.886  22.515  23.844  1.00  0.00    -0.744 OA
ENDBRANCH  85  86
ENDBRANCH  53  78
BRANCH  65  90
ATOM     90  C   UNL A   1      47.089  27.806  33.301  1.00  0.00     0.058 A 
ATOM     91  C   UNL A   1      47.280  26.819  34.280  1.00  0.00     0.135 A 
ATOM     92  C   UNL A   1      48.234  28.411  32.752  1.00  0.00     0.135 A 
ATOM     93  F   UNL A   1      46.222  26.211  34.840  1.00  0.00    -0.206 F 
ATOM     94  C   UNL A   1      48.554  26.459  34.712  1.00  0.00     0.059 A 
ATOM     95  C   UNL A   1      49.518  28.045  33.147  1.00  0.00     0.059 A 
ATOM     96  F   UNL A   1      48.112  29.352  31.802  1.00  0.00    -0.206 F 
ATOM     97  C   UNL A   1      49.667  27.075  34.136  1.00  0.00     0.060 A 
BRANCH  97  98
ATOM     98  S   UNL A   1      51.314  26.566  34.673  1.00  0.00     0.124 S 
ATOM     99  O   UNL A   1      51.039  25.264  35.272  1.00  0.00    -0.237 OA
ATOM    100  O   UNL A   1      52.057  26.541  33.417  1.00  0.00    -0.237 OA
ATOM    101  O   UNL A   1      51.709  27.615  35.607  1.00  0.00    -0.744 OA
ENDBRANCH  97  98
ENDBRANCH  65  90
ENDBRANCH  39  40
ENDBRANCH  32  34
ENDBRANCH  31  32
ENDBRANCH  30  31
ENDBRANCH  29  30
ENDBRANCH  28  29
ENDBRANCH  27  28
ENDBRANCH   1  27
TORSDOF 26
ENDMDL
