MODEL 1
REMARK VINA RESULT:     -11.3      0.000      0.000
REMARK SMILES Cc1cc(C(=O)OCCOCCOCCOC(=O)c2ccc(-c3c4nc(c(-c5c(F)cc(S(=O)(=O)[O-])cc5F)c5ccc([nH]5)c(-c5c(F)cc(S(=O)(=O)[O-])cc5F)c5nc(c(-c6c(F)cc(S(=O)(=O)[O-])cc6F)c6ccc3[nH]6)C=C5)C=C4)cc2)ccc1NC(=O)c1ccc(=O)n(CCOc2ccccc2)n1
REMARK SMILES IDX 10 1 9 2 8 3 7 4 5 5 6 6 4 7 1 8 2 9 3 10 87 11 86 12 85 13
REMARK SMILES IDX 88 14 89 15 90 17 91 18 92 19 106 20 93 21 96 22 94 23 95 24
REMARK SMILES IDX 97 25 98 26 99 27 100 28 101 29 105 30 102 31 104 32 103 33
REMARK SMILES IDX 11 34 12 35 13 36 14 37 15 38 16 39 17 40 18 41 19 42 20 43
REMARK SMILES IDX 84 44 21 45 83 46 22 47 23 48 24 49 77 50 25 51 82 52 76 53
REMARK SMILES IDX 78 54 26 55 81 56 75 57 74 58 27 60 61 61 40 62 60 63 41 64
REMARK SMILES IDX 44 65 59 66 79 67 42 68 43 69 58 71 80 72 45 73 28 74 29 75
REMARK SMILES IDX 38 76 30 77 31 78 37 79 39 80 32 81 33 82 34 83 35 84 36 85
REMARK SMILES IDX 62 86 63 87 72 88 64 89 65 90 71 91 73 92 66 93 67 94 68 95
REMARK SMILES IDX 69 96 70 97 46 98 47 99 56 100 48 101 49 102 55 103 57 104
REMARK SMILES IDX 50 105 51 106 52 107 53 108 54 109
REMARK H PARENT 88 16 78 59 44 70
REMARK Flexibility Score: inf
ROOT
ATOM      1  O   UNL A   1      35.426  34.237  31.463  1.00  0.00    -0.376 OA
ENDROOT
BRANCH   1   2
ATOM      2  C   UNL A   1      36.788  34.040  31.872  1.00  0.00     0.202 C 
BRANCH   2   3
ATOM      3  C   UNL A   1      38.090  33.090  31.272  1.00  0.00     0.261 C 
BRANCH   3   4
ATOM      4  O   UNL A   1      39.690  33.542  30.736  1.00  0.00    -0.460 OA
BRANCH   4   5
ATOM      5  C   UNL A   1      40.955  34.246  30.834  1.00  0.00     0.338 C 
ATOM      6  O   UNL A   1      41.251  34.780  31.908  1.00  0.00    -0.246 OA
BRANCH   5   7
ATOM      7  C   UNL A   1      42.033  34.628  29.788  1.00  0.00     0.060 A 
ATOM      8  C   UNL A   1      42.915  36.861  26.706  1.00  0.00     0.046 C 
ATOM      9  C   UNL A   1      42.742  35.675  27.628  1.00  0.00    -0.027 A 
ATOM     10  C   UNL A   1      41.997  35.717  28.851  1.00  0.00     0.021 A 
ATOM     11  C   UNL A   1      43.386  34.474  27.340  1.00  0.00     0.044 A 
ATOM     12  C   UNL A   1      43.742  33.645  28.392  1.00  0.00     0.027 A 
ATOM     13  C   UNL A   1      43.011  33.667  29.574  1.00  0.00     0.018 A 
BRANCH  11  14
ATOM     14  N   UNL A   1      43.403  33.961  26.017  1.00  0.00    -0.320 N 
ATOM     15  C   UNL A   1      44.565  33.793  25.255  1.00  0.00     0.276 C 
ATOM     16  H   UNL A   1      42.543  33.707  25.610  1.00  0.00     0.170 HD
ATOM     17  O   UNL A   1      44.557  33.344  24.114  1.00  0.00    -0.267 OA
BRANCH  15  18
ATOM     18  C   UNL A   1      45.906  34.173  25.888  1.00  0.00     0.149 A 
ATOM     19  C   UNL A   1      46.120  35.620  26.086  1.00  0.00     0.042 A 
ATOM     20  N   UNL A   1      46.730  33.244  26.270  1.00  0.00    -0.164 NA
ATOM     21  C   UNL A   1      47.001  35.948  27.032  1.00  0.00     0.076 A 
ATOM     22  N   UNL A   1      47.774  33.650  27.107  1.00  0.00    -0.226 N 
ATOM     23  C   UNL A   1      47.831  34.911  27.695  1.00  0.00     0.266 A 
ATOM     24  O   UNL A   1      48.521  35.250  28.651  1.00  0.00    -0.268 OA
BRANCH  22  25
ATOM     25  C   UNL A   1      48.803  32.658  27.430  1.00  0.00     0.190 C 
BRANCH  25  26
ATOM     26  C   UNL A   1      50.056  32.825  26.553  1.00  0.00     0.253 C 
BRANCH  26  27
ATOM     27  O   UNL A   1      49.864  33.632  25.381  1.00  0.00    -0.492 OA
BRANCH  27  28
ATOM     28  C   UNL A   1      50.724  34.650  25.087  1.00  0.00     0.119 A 
ATOM     29  C   UNL A   1      50.634  35.762  25.929  1.00  0.00     0.046 A 
ATOM     30  C   UNL A   1      51.620  34.695  24.024  1.00  0.00     0.046 A 
ATOM     31  C   UNL A   1      51.369  36.924  25.665  1.00  0.00     0.004 A 
ATOM     32  C   UNL A   1      52.307  35.876  23.717  1.00  0.00     0.004 A 
ATOM     33  C   UNL A   1      52.177  36.993  24.534  1.00  0.00     0.000 A 
ENDBRANCH  27  28
ENDBRANCH  26  27
ENDBRANCH  25  26
ENDBRANCH  22  25
ENDBRANCH  15  18
ENDBRANCH  11  14
ENDBRANCH   5   7
ENDBRANCH   4   5
ENDBRANCH   3   4
ENDBRANCH   2   3
ENDBRANCH   1   2
BRANCH   1  34
ATOM     34  C   UNL A   1      34.876  35.016  30.409  1.00  0.00     0.188 C 
BRANCH  34  35
ATOM     35  C   UNL A   1      33.410  34.969  30.092  1.00  0.00     0.188 C 
BRANCH  35  36
ATOM     36  O   UNL A   1      33.209  34.005  29.080  1.00  0.00    -0.376 OA
BRANCH  36  37
ATOM     37  C   UNL A   1      34.297  33.842  28.202  1.00  0.00     0.202 C 
BRANCH  37  38
ATOM     38  C   UNL A   1      34.574  32.376  27.852  1.00  0.00     0.261 C 
BRANCH  38  39
ATOM     39  O   UNL A   1      35.884  31.923  28.273  1.00  0.00    -0.460 OA
BRANCH  39  40
ATOM     40  C   UNL A   1      36.010  31.264  29.487  1.00  0.00     0.338 C 
ATOM     41  O   UNL A   1      35.204  31.394  30.378  1.00  0.00    -0.246 OA
BRANCH  40  42
ATOM     42  C   UNL A   1      37.020  30.164  29.387  1.00  0.00     0.060 A 
ATOM     43  C   UNL A   1      37.414  29.179  30.289  1.00  0.00     0.016 A 
ATOM     44  C   UNL A   1      37.635  30.071  28.201  1.00  0.00     0.016 A 
ATOM     45  C   UNL A   1      38.652  28.390  30.135  1.00  0.00     0.010 A 
ATOM     46  C   UNL A   1      38.796  29.294  28.117  1.00  0.00     0.010 A 
ATOM     47  C   UNL A   1      39.542  28.536  29.069  1.00  0.00    -0.014 A 
BRANCH  47  48
ATOM     48  C   UNL A   1      41.169  27.962  29.033  1.00  0.00     0.031 A 
ATOM     49  C   UNL A   1      41.933  26.668  28.338  1.00  0.00     0.074 A 
ATOM     50  C   UNL A   1      42.143  28.709  29.609  1.00  0.00     0.049 A 
ATOM     51  N   UNL A   1      42.352  25.605  28.991  1.00  0.00    -0.248 NA
ATOM     52  C   UNL A   1      42.279  26.469  26.884  1.00  0.00     0.031 C 
ATOM     53  C   UNL A   1      43.598  28.493  29.579  1.00  0.00     0.029 A 
ATOM     54  N   UNL A   1      42.001  29.846  30.404  1.00  0.00    -0.354 N 
ATOM     55  C   UNL A   1      42.748  24.634  28.037  1.00  0.00     0.074 A 
ATOM     56  C   UNL A   1      42.436  25.154  26.747  1.00  0.00     0.031 C 
ATOM     57  C   UNL A   1      44.160  29.233  30.550  1.00  0.00     0.029 A 
ATOM     58  C   UNL A   1      43.081  29.863  31.291  1.00  0.00     0.049 A 
ATOM     59  H   UNL A   1      41.277  30.511  30.350  1.00  0.00     0.167 HD
ATOM     60  C   UNL A   1      43.666  23.633  28.198  1.00  0.00     0.037 A 
ATOM     61  C   UNL A   1      42.823  29.732  32.620  1.00  0.00     0.037 A 
ATOM     62  C   UNL A   1      44.567  24.062  29.234  1.00  0.00     0.049 A 
ATOM     63  C   UNL A   1      43.379  28.421  33.128  1.00  0.00     0.074 A 
ATOM     64  C   UNL A   1      45.657  24.913  29.137  1.00  0.00     0.029 A 
ATOM     65  N   UNL A   1      44.130  24.091  30.540  1.00  0.00    -0.354 N 
ATOM     66  N   UNL A   1      43.608  27.368  32.381  1.00  0.00    -0.248 NA
ATOM     67  C   UNL A   1      43.821  28.242  34.504  1.00  0.00     0.031 C 
ATOM     68  C   UNL A   1      45.760  25.598  30.371  1.00  0.00     0.029 A 
ATOM     69  C   UNL A   1      44.827  25.058  31.241  1.00  0.00     0.049 A 
ATOM     70  H   UNL A   1      43.428  23.513  30.917  1.00  0.00     0.167 HD
ATOM     71  C   UNL A   1      44.222  26.405  33.139  1.00  0.00     0.074 A 
ATOM     72  C   UNL A   1      44.337  27.004  34.456  1.00  0.00     0.031 C 
ATOM     73  C   UNL A   1      44.632  25.193  32.666  1.00  0.00     0.037 A 
BRANCH  60  74
ATOM     74  C   UNL A   1      43.980  22.623  27.089  1.00  0.00     0.058 A 
ATOM     75  C   UNL A   1      43.120  21.566  26.730  1.00  0.00     0.135 A 
ATOM     76  C   UNL A   1      45.185  22.683  26.345  1.00  0.00     0.135 A 
ATOM     77  F   UNL A   1      41.919  21.427  27.308  1.00  0.00    -0.206 F 
ATOM     78  C   UNL A   1      43.473  20.585  25.786  1.00  0.00     0.059 A 
ATOM     79  C   UNL A   1      45.569  21.704  25.411  1.00  0.00     0.059 A 
ATOM     80  F   UNL A   1      46.044  23.698  26.535  1.00  0.00    -0.206 F 
ATOM     81  C   UNL A   1      44.711  20.640  25.152  1.00  0.00     0.060 A 
BRANCH  81  82
ATOM     82  S   UNL A   1      45.197  19.277  24.059  1.00  0.00     0.124 S 
ATOM     83  O   UNL A   1      44.555  19.646  22.799  1.00  0.00    -0.237 OA
ATOM     84  O   UNL A   1      46.653  19.368  24.073  1.00  0.00    -0.237 OA
ATOM     85  O   UNL A   1      44.637  18.094  24.708  1.00  0.00    -0.744 OA
ENDBRANCH  81  82
ENDBRANCH  60  74
BRANCH  61  86
ATOM     86  C   UNL A   1      41.596  30.486  33.051  1.00  0.00     0.058 A 
ATOM     87  C   UNL A   1      40.422  29.718  33.257  1.00  0.00     0.135 A 
ATOM     88  C   UNL A   1      41.601  31.771  33.614  1.00  0.00     0.135 A 
ATOM     89  F   UNL A   1      40.332  28.481  32.739  1.00  0.00    -0.206 F 
ATOM     90  C   UNL A   1      39.390  30.124  34.099  1.00  0.00     0.059 A 
ATOM     91  C   UNL A   1      40.550  32.217  34.446  1.00  0.00     0.059 A 
ATOM     92  F   UNL A   1      42.686  32.552  33.502  1.00  0.00    -0.206 F 
ATOM     93  C   UNL A   1      39.478  31.359  34.726  1.00  0.00     0.060 A 
BRANCH  93  94
ATOM     94  S   UNL A   1      38.262  31.703  36.034  1.00  0.00     0.124 S 
ATOM     95  O   UNL A   1      38.071  30.390  36.636  1.00  0.00    -0.237 OA
ATOM     96  O   UNL A   1      38.988  32.671  36.859  1.00  0.00    -0.237 OA
ATOM     97  O   UNL A   1      37.123  32.234  35.295  1.00  0.00    -0.744 OA
ENDBRANCH  93  94
ENDBRANCH  61  86
BRANCH  73  98
ATOM     98  C   UNL A   1      45.003  24.010  33.525  1.00  0.00     0.058 A 
ATOM     99  C   UNL A   1      44.104  22.976  33.818  1.00  0.00     0.135 A 
ATOM    100  C   UNL A   1      46.346  23.797  33.932  1.00  0.00     0.135 A 
ATOM    101  F   UNL A   1      42.838  23.004  33.375  1.00  0.00    -0.206 F 
ATOM    102  C   UNL A   1      44.480  21.855  34.550  1.00  0.00     0.059 A 
ATOM    103  C   UNL A   1      46.759  22.648  34.591  1.00  0.00     0.059 A 
ATOM    104  F   UNL A   1      47.311  24.698  33.692  1.00  0.00    -0.206 F 
ATOM    105  C   UNL A   1      45.807  21.702  34.936  1.00  0.00     0.060 A 
BRANCH 105 106
ATOM    106  S   UNL A   1      46.303  20.262  35.888  1.00  0.00     0.124 S 
ATOM    107  O   UNL A   1      45.721  19.183  35.094  1.00  0.00    -0.237 OA
ATOM    108  O   UNL A   1      47.760  20.342  35.866  1.00  0.00    -0.237 OA
ATOM    109  O   UNL A   1      45.687  20.495  37.190  1.00  0.00    -0.744 OA
ENDBRANCH 105 106
ENDBRANCH  73  98
ENDBRANCH  47  48
ENDBRANCH  40  42
ENDBRANCH  39  40
ENDBRANCH  38  39
ENDBRANCH  37  38
ENDBRANCH  36  37
ENDBRANCH  35  36
ENDBRANCH  34  35
ENDBRANCH   1  34
TORSDOF 26
ENDMDL
MODEL 2
REMARK VINA RESULT:     -10.8      5.773     14.498
REMARK SMILES Cc1cc(C(=O)OCCOCCOCCOC(=O)c2ccc(-c3c4nc(c(-c5c(F)cc(S(=O)(=O)[O-])cc5F)c5ccc([nH]5)c(-c5c(F)cc(S(=O)(=O)[O-])cc5F)c5nc(c(-c6c(F)cc(S(=O)(=O)[O-])cc6F)c6ccc3[nH]6)C=C5)C=C4)cc2)ccc1NC(=O)c1ccc(=O)n(CCOc2ccccc2)n1
REMARK SMILES IDX 10 1 9 2 8 3 7 4 5 5 6 6 4 7 1 8 2 9 3 10 87 11 86 12 85 13
REMARK SMILES IDX 88 14 89 15 90 17 91 18 92 19 106 20 93 21 96 22 94 23 95 24
REMARK SMILES IDX 97 25 98 26 99 27 100 28 101 29 105 30 102 31 104 32 103 33
REMARK SMILES IDX 11 34 12 35 13 36 14 37 15 38 16 39 17 40 18 41 19 42 20 43
REMARK SMILES IDX 84 44 21 45 83 46 22 47 23 48 24 49 77 50 25 51 82 52 76 53
REMARK SMILES IDX 78 54 26 55 81 56 75 57 74 58 27 60 61 61 40 62 60 63 41 64
REMARK SMILES IDX 44 65 59 66 79 67 42 68 43 69 58 71 80 72 45 73 28 74 29 75
REMARK SMILES IDX 38 76 30 77 31 78 37 79 39 80 32 81 33 82 34 83 35 84 36 85
REMARK SMILES IDX 62 86 63 87 72 88 64 89 65 90 71 91 73 92 66 93 67 94 68 95
REMARK SMILES IDX 69 96 70 97 46 98 47 99 56 100 48 101 49 102 55 103 57 104
REMARK SMILES IDX 50 105 51 106 52 107 53 108 54 109
REMARK H PARENT 88 16 78 59 44 70
REMARK Flexibility Score: inf
ROOT
ATOM      1  O   UNL A   1      38.780  21.633  26.129  1.00  0.00    -0.376 OA
ENDROOT
BRANCH   1   2
ATOM      2  C   UNL A   1      37.742  22.478  25.609  1.00  0.00     0.202 C 
BRANCH   2   3
ATOM      3  C   UNL A   1      37.090  23.998  26.082  1.00  0.00     0.261 C 
BRANCH   3   4
ATOM      4  O   UNL A   1      35.630  24.824  25.591  1.00  0.00    -0.460 OA
BRANCH   4   5
ATOM      5  C   UNL A   1      34.393  25.546  25.820  1.00  0.00     0.338 C 
ATOM      6  O   UNL A   1      33.356  24.899  25.999  1.00  0.00    -0.246 OA
BRANCH   5   7
ATOM      7  C   UNL A   1      34.021  27.049  25.749  1.00  0.00     0.060 A 
ATOM      8  C   UNL A   1      31.812  29.916  27.221  1.00  0.00     0.046 C 
ATOM      9  C   UNL A   1      32.509  28.977  26.262  1.00  0.00    -0.027 A 
ATOM     10  C   UNL A   1      33.206  27.793  26.670  1.00  0.00     0.021 A 
ATOM     11  C   UNL A   1      32.555  29.282  24.904  1.00  0.00     0.044 A 
ATOM     12  C   UNL A   1      33.631  28.826  24.160  1.00  0.00     0.027 A 
ATOM     13  C   UNL A   1      34.300  27.668  24.539  1.00  0.00     0.018 A 
BRANCH  11  14
ATOM     14  N   UNL A   1      31.404  29.768  24.232  1.00  0.00    -0.320 N 
ATOM     15  C   UNL A   1      30.488  28.953  23.556  1.00  0.00     0.276 C 
ATOM     16  H   UNL A   1      31.239  30.738  24.241  1.00  0.00     0.170 HD
ATOM     17  O   UNL A   1      29.497  29.393  22.984  1.00  0.00    -0.267 OA
BRANCH  15  18
ATOM     18  C   UNL A   1      30.730  27.442  23.550  1.00  0.00     0.149 A 
ATOM     19  C   UNL A   1      29.983  26.682  24.572  1.00  0.00     0.042 A 
ATOM     20  N   UNL A   1      31.493  26.910  22.643  1.00  0.00    -0.164 NA
ATOM     21  C   UNL A   1      29.786  25.391  24.300  1.00  0.00     0.076 A 
ATOM     22  N   UNL A   1      31.420  25.519  22.511  1.00  0.00    -0.226 N 
ATOM     23  C   UNL A   1      30.443  24.747  23.134  1.00  0.00     0.266 A 
ATOM     24  O   UNL A   1      30.118  23.598  22.853  1.00  0.00    -0.268 OA
BRANCH  22  25
ATOM     25  C   UNL A   1      32.377  24.878  21.606  1.00  0.00     0.190 C 
BRANCH  25  26
ATOM     26  C   UNL A   1      32.642  23.414  21.996  1.00  0.00     0.253 C 
BRANCH  26  27
ATOM     27  O   UNL A   1      33.526  23.242  23.115  1.00  0.00    -0.492 OA
BRANCH  27  28
ATOM     28  C   UNL A   1      33.438  22.136  23.909  1.00  0.00     0.119 A 
ATOM     29  C   UNL A   1      34.662  21.563  24.264  1.00  0.00     0.046 A 
ATOM     30  C   UNL A   1      32.268  21.519  24.341  1.00  0.00     0.046 A 
ATOM     31  C   UNL A   1      34.712  20.356  24.969  1.00  0.00     0.004 A 
ATOM     32  C   UNL A   1      32.311  20.278  24.988  1.00  0.00     0.004 A 
ATOM     33  C   UNL A   1      33.534  19.693  25.297  1.00  0.00     0.000 A 
ENDBRANCH  27  28
ENDBRANCH  26  27
ENDBRANCH  25  26
ENDBRANCH  22  25
ENDBRANCH  15  18
ENDBRANCH  11  14
ENDBRANCH   5   7
ENDBRANCH   4   5
ENDBRANCH   3   4
ENDBRANCH   2   3
ENDBRANCH   1   2
BRANCH   1  34
ATOM     34  C   UNL A   1      40.162  21.885  26.346  1.00  0.00     0.188 C 
BRANCH  34  35
ATOM     35  C   UNL A   1      41.006  20.941  27.151  1.00  0.00     0.188 C 
BRANCH  35  36
ATOM     36  O   UNL A   1      42.120  20.569  26.367  1.00  0.00    -0.376 OA
BRANCH  36  37
ATOM     37  C   UNL A   1      43.147  21.530  26.315  1.00  0.00     0.202 C 
BRANCH  37  38
ATOM     38  C   UNL A   1      43.240  22.382  27.586  1.00  0.00     0.261 C 
BRANCH  38  39
ATOM     39  O   UNL A   1      43.639  23.751  27.332  1.00  0.00    -0.460 OA
BRANCH  39  40
ATOM     40  C   UNL A   1      43.029  24.449  26.300  1.00  0.00     0.338 C 
ATOM     41  O   UNL A   1      42.869  23.968  25.202  1.00  0.00    -0.246 OA
BRANCH  40  42
ATOM     42  C   UNL A   1      42.318  25.655  26.828  1.00  0.00     0.060 A 
ATOM     43  C   UNL A   1      42.113  26.924  26.290  1.00  0.00     0.016 A 
ATOM     44  C   UNL A   1      41.728  25.485  28.019  1.00  0.00     0.016 A 
ATOM     45  C   UNL A   1      41.675  28.082  27.094  1.00  0.00     0.010 A 
ATOM     46  C   UNL A   1      41.321  26.623  28.724  1.00  0.00     0.010 A 
ATOM     47  C   UNL A   1      41.405  28.024  28.463  1.00  0.00    -0.014 A 
BRANCH  47  48
ATOM     48  C   UNL A   1      41.292  29.381  29.522  1.00  0.00     0.031 A 
ATOM     49  C   UNL A   1      40.080  30.420  29.959  1.00  0.00     0.074 A 
ATOM     50  C   UNL A   1      42.364  29.713  30.283  1.00  0.00     0.049 A 
ATOM     51  N   UNL A   1      39.976  31.666  29.549  1.00  0.00    -0.248 NA
ATOM     52  C   UNL A   1      38.911  30.147  30.872  1.00  0.00     0.031 C 
ATOM     53  C   UNL A   1      42.452  30.728  31.344  1.00  0.00     0.029 A 
ATOM     54  N   UNL A   1      43.659  29.199  30.219  1.00  0.00    -0.354 N 
ATOM     55  C   UNL A   1      38.708  32.155  29.953  1.00  0.00     0.074 A 
ATOM     56  C   UNL A   1      38.005  31.070  30.552  1.00  0.00     0.031 C 
ATOM     57  C   UNL A   1      43.750  30.981  31.586  1.00  0.00     0.029 A 
ATOM     58  C   UNL A   1      44.525  30.218  30.625  1.00  0.00     0.049 A 
ATOM     59  H   UNL A   1      43.915  28.289  29.942  1.00  0.00     0.167 HD
ATOM     60  C   UNL A   1      38.355  33.454  30.198  1.00  0.00     0.037 A 
ATOM     61  C   UNL A   1      45.406  30.713  29.715  1.00  0.00     0.037 A 
ATOM     62  C   UNL A   1      39.563  34.150  30.552  1.00  0.00     0.049 A 
ATOM     63  C   UNL A   1      45.059  32.147  29.387  1.00  0.00     0.074 A 
ATOM     64  C   UNL A   1      40.210  34.197  31.776  1.00  0.00     0.029 A 
ATOM     65  N   UNL A   1      40.498  34.420  29.575  1.00  0.00    -0.354 N 
ATOM     66  N   UNL A   1      43.869  32.679  29.527  1.00  0.00    -0.248 NA
ATOM     67  C   UNL A   1      46.065  33.119  28.978  1.00  0.00     0.031 C 
ATOM     68  C   UNL A   1      41.595  34.322  31.510  1.00  0.00     0.029 A 
ATOM     69  C   UNL A   1      41.756  34.488  30.144  1.00  0.00     0.049 A 
ATOM     70  H   UNL A   1      40.300  34.543  28.619  1.00  0.00     0.167 HD
ATOM     71  C   UNL A   1      43.941  34.020  29.255  1.00  0.00     0.074 A 
ATOM     72  C   UNL A   1      45.336  34.245  28.923  1.00  0.00     0.031 C 
ATOM     73  C   UNL A   1      42.888  34.883  29.338  1.00  0.00     0.037 A 
BRANCH  60  74
ATOM     74  C   UNL A   1      36.932  33.854  30.600  1.00  0.00     0.058 A 
ATOM     75  C   UNL A   1      35.890  34.064  29.677  1.00  0.00     0.135 A 
ATOM     76  C   UNL A   1      36.567  34.050  31.957  1.00  0.00     0.135 A 
ATOM     77  F   UNL A   1      36.075  33.852  28.367  1.00  0.00    -0.206 F 
ATOM     78  C   UNL A   1      34.620  34.536  30.055  1.00  0.00     0.059 A 
ATOM     79  C   UNL A   1      35.312  34.541  32.358  1.00  0.00     0.059 A 
ATOM     80  F   UNL A   1      37.450  33.794  32.935  1.00  0.00    -0.206 F 
ATOM     81  C   UNL A   1      34.346  34.803  31.393  1.00  0.00     0.060 A 
BRANCH  81  82
ATOM     82  S   UNL A   1      32.754  35.558  31.828  1.00  0.00     0.124 S 
ATOM     83  O   UNL A   1      32.040  35.529  30.553  1.00  0.00    -0.237 OA
ATOM     84  O   UNL A   1      32.247  34.651  32.852  1.00  0.00    -0.237 OA
ATOM     85  O   UNL A   1      33.117  36.892  32.297  1.00  0.00    -0.744 OA
ENDBRANCH  81  82
ENDBRANCH  60  74
BRANCH  61  86
ATOM     86  C   UNL A   1      46.000  29.645  28.840  1.00  0.00     0.058 A 
ATOM     87  C   UNL A   1      47.090  28.918  29.381  1.00  0.00     0.135 A 
ATOM     88  C   UNL A   1      45.359  29.065  27.734  1.00  0.00     0.135 A 
ATOM     89  F   UNL A   1      47.767  29.411  30.433  1.00  0.00    -0.206 F 
ATOM     90  C   UNL A   1      47.423  27.631  28.967  1.00  0.00     0.059 A 
ATOM     91  C   UNL A   1      45.701  27.773  27.276  1.00  0.00     0.059 A 
ATOM     92  F   UNL A   1      44.292  29.663  27.183  1.00  0.00    -0.206 F 
ATOM     93  C   UNL A   1      46.696  27.044  27.940  1.00  0.00     0.060 A 
BRANCH  93  94
ATOM     94  S   UNL A   1      46.973  25.271  27.648  1.00  0.00     0.124 S 
ATOM     95  O   UNL A   1      46.408  24.665  28.846  1.00  0.00    -0.237 OA
ATOM     96  O   UNL A   1      46.209  25.055  26.417  1.00  0.00    -0.237 OA
ATOM     97  O   UNL A   1      48.422  25.180  27.515  1.00  0.00    -0.744 OA
ENDBRANCH  93  94
ENDBRANCH  61  86
BRANCH  73  98
ATOM     98  C   UNL A   1      42.857  36.268  28.742  1.00  0.00     0.058 A 
ATOM     99  C   UNL A   1      43.474  37.369  29.352  1.00  0.00     0.135 A 
ATOM    100  C   UNL A   1      42.351  36.488  27.434  1.00  0.00     0.135 A 
ATOM    101  F   UNL A   1      44.100  37.253  30.532  1.00  0.00    -0.206 F 
ATOM    102  C   UNL A   1      43.501  38.625  28.756  1.00  0.00     0.059 A 
ATOM    103  C   UNL A   1      42.441  37.713  26.789  1.00  0.00     0.059 A 
ATOM    104  F   UNL A   1      41.758  35.512  26.730  1.00  0.00    -0.206 F 
ATOM    105  C   UNL A   1      42.978  38.789  27.478  1.00  0.00     0.060 A 
BRANCH 105 106
ATOM    106  S   UNL A   1      43.002  40.408  26.701  1.00  0.00     0.124 S 
ATOM    107  O   UNL A   1      43.991  40.203  25.647  1.00  0.00    -0.237 OA
ATOM    108  O   UNL A   1      41.624  40.572  26.246  1.00  0.00    -0.237 OA
ATOM    109  O   UNL A   1      43.405  41.294  27.788  1.00  0.00    -0.744 OA
ENDBRANCH 105 106
ENDBRANCH  73  98
ENDBRANCH  47  48
ENDBRANCH  40  42
ENDBRANCH  39  40
ENDBRANCH  38  39
ENDBRANCH  37  38
ENDBRANCH  36  37
ENDBRANCH  35  36
ENDBRANCH  34  35
ENDBRANCH   1  34
TORSDOF 26
ENDMDL
MODEL 3
REMARK VINA RESULT:     -10.7      7.272     13.143
REMARK SMILES Cc1cc(C(=O)OCCOCCOCCOC(=O)c2ccc(-c3c4nc(c(-c5c(F)cc(S(=O)(=O)[O-])cc5F)c5ccc([nH]5)c(-c5c(F)cc(S(=O)(=O)[O-])cc5F)c5nc(c(-c6c(F)cc(S(=O)(=O)[O-])cc6F)c6ccc3[nH]6)C=C5)C=C4)cc2)ccc1NC(=O)c1ccc(=O)n(CCOc2ccccc2)n1
REMARK SMILES IDX 10 1 9 2 8 3 7 4 5 5 6 6 4 7 1 8 2 9 3 10 87 11 86 12 85 13
REMARK SMILES IDX 88 14 89 15 90 17 91 18 92 19 106 20 93 21 96 22 94 23 95 24
REMARK SMILES IDX 97 25 98 26 99 27 100 28 101 29 105 30 102 31 104 32 103 33
REMARK SMILES IDX 11 34 12 35 13 36 14 37 15 38 16 39 17 40 18 41 19 42 20 43
REMARK SMILES IDX 84 44 21 45 83 46 22 47 23 48 24 49 77 50 25 51 82 52 76 53
REMARK SMILES IDX 78 54 26 55 81 56 75 57 74 58 27 60 61 61 40 62 60 63 41 64
REMARK SMILES IDX 44 65 59 66 79 67 42 68 43 69 58 71 80 72 45 73 28 74 29 75
REMARK SMILES IDX 38 76 30 77 31 78 37 79 39 80 32 81 33 82 34 83 35 84 36 85
REMARK SMILES IDX 62 86 63 87 72 88 64 89 65 90 71 91 73 92 66 93 67 94 68 95
REMARK SMILES IDX 69 96 70 97 46 98 47 99 56 100 48 101 49 102 55 103 57 104
REMARK SMILES IDX 50 105 51 106 52 107 53 108 54 109
REMARK H PARENT 88 16 78 59 44 70
REMARK Flexibility Score: inf
ROOT
ATOM      1  O   UNL A   1      37.396  21.464  24.167  1.00  0.00    -0.376 OA
ENDROOT
BRANCH   1   2
ATOM      2  C   UNL A   1      36.646  22.588  23.683  1.00  0.00     0.202 C 
BRANCH   2   3
ATOM      3  C   UNL A   1      35.040  22.792  23.101  1.00  0.00     0.261 C 
BRANCH   3   4
ATOM      4  O   UNL A   1      34.286  24.119  22.250  1.00  0.00    -0.460 OA
BRANCH   4   5
ATOM      5  C   UNL A   1      33.187  24.797  21.589  1.00  0.00     0.338 C 
ATOM      6  O   UNL A   1      33.159  24.810  20.354  1.00  0.00    -0.246 OA
BRANCH   5   7
ATOM      7  C   UNL A   1      32.032  25.688  22.111  1.00  0.00     0.060 A 
ATOM      8  C   UNL A   1      30.886  29.313  23.014  1.00  0.00     0.046 C 
ATOM      9  C   UNL A   1      31.152  27.825  23.073  1.00  0.00    -0.027 A 
ATOM     10  C   UNL A   1      31.976  27.124  22.133  1.00  0.00     0.021 A 
ATOM     11  C   UNL A   1      30.524  27.047  24.043  1.00  0.00     0.044 A 
ATOM     12  C   UNL A   1      30.262  25.716  23.756  1.00  0.00     0.027 A 
ATOM     13  C   UNL A   1      31.069  25.026  22.859  1.00  0.00     0.018 A 
BRANCH  11  14
ATOM     14  N   UNL A   1      30.434  27.496  25.385  1.00  0.00    -0.320 N 
ATOM     15  C   UNL A   1      31.156  26.941  26.449  1.00  0.00     0.276 C 
ATOM     16  H   UNL A   1      29.826  28.245  25.581  1.00  0.00     0.170 HD
ATOM     17  O   UNL A   1      31.065  27.348  27.602  1.00  0.00    -0.267 OA
BRANCH  15  18
ATOM     18  C   UNL A   1      32.114  25.786  26.148  1.00  0.00     0.149 A 
ATOM     19  C   UNL A   1      33.437  26.186  25.630  1.00  0.00     0.042 A 
ATOM     20  N   UNL A   1      31.762  24.564  26.416  1.00  0.00    -0.164 NA
ATOM     21  C   UNL A   1      34.419  25.303  25.817  1.00  0.00     0.076 A 
ATOM     22  N   UNL A   1      32.785  23.611  26.408  1.00  0.00    -0.226 N 
ATOM     23  C   UNL A   1      34.135  23.945  26.344  1.00  0.00     0.266 A 
ATOM     24  O   UNL A   1      35.089  23.226  26.626  1.00  0.00    -0.268 OA
BRANCH  22  25
ATOM     25  C   UNL A   1      32.397  22.206  26.555  1.00  0.00     0.190 C 
BRANCH  25  26
ATOM     26  C   UNL A   1      32.436  21.456  25.212  1.00  0.00     0.253 C 
BRANCH  26  27
ATOM     27  O   UNL A   1      32.090  20.065  25.292  1.00  0.00    -0.492 OA
BRANCH  27  28
ATOM     28  C   UNL A   1      32.939  19.108  24.817  1.00  0.00     0.119 A 
ATOM     29  C   UNL A   1      32.330  17.905  24.450  1.00  0.00     0.046 A 
ATOM     30  C   UNL A   1      34.323  19.206  24.718  1.00  0.00     0.046 A 
ATOM     31  C   UNL A   1      33.096  16.799  24.066  1.00  0.00     0.004 A 
ATOM     32  C   UNL A   1      35.099  18.084  24.399  1.00  0.00     0.004 A 
ATOM     33  C   UNL A   1      34.485  16.878  24.080  1.00  0.00     0.000 A 
ENDBRANCH  27  28
ENDBRANCH  26  27
ENDBRANCH  25  26
ENDBRANCH  22  25
ENDBRANCH  15  18
ENDBRANCH  11  14
ENDBRANCH   5   7
ENDBRANCH   4   5
ENDBRANCH   3   4
ENDBRANCH   2   3
ENDBRANCH   1   2
BRANCH   1  34
ATOM     34  C   UNL A   1      37.845  21.141  25.477  1.00  0.00     0.188 C 
BRANCH  34  35
ATOM     35  C   UNL A   1      39.255  21.420  25.906  1.00  0.00     0.188 C 
BRANCH  35  36
ATOM     36  O   UNL A   1      39.944  20.190  25.982  1.00  0.00    -0.376 OA
BRANCH  36  37
ATOM     37  C   UNL A   1      41.071  20.200  26.826  1.00  0.00     0.202 C 
BRANCH  37  38
ATOM     38  C   UNL A   1      42.380  19.906  26.085  1.00  0.00     0.261 C 
BRANCH  38  39
ATOM     39  O   UNL A   1      42.991  21.086  25.509  1.00  0.00    -0.460 OA
BRANCH  39  40
ATOM     40  C   UNL A   1      44.240  20.976  24.917  1.00  0.00     0.338 C 
ATOM     41  O   UNL A   1      44.558  20.016  24.255  1.00  0.00    -0.246 OA
BRANCH  40  42
ATOM     42  C   UNL A   1      44.940  22.299  24.914  1.00  0.00     0.060 A 
ATOM     43  C   UNL A   1      45.856  22.865  24.031  1.00  0.00     0.016 A 
ATOM     44  C   UNL A   1      44.599  23.118  25.918  1.00  0.00     0.016 A 
ATOM     45  C   UNL A   1      46.683  24.041  24.367  1.00  0.00     0.010 A 
ATOM     46  C   UNL A   1      45.417  24.224  26.175  1.00  0.00     0.010 A 
ATOM     47  C   UNL A   1      46.622  24.713  25.588  1.00  0.00    -0.014 A 
BRANCH  47  48
ATOM     48  C   UNL A   1      47.813  25.807  26.193  1.00  0.00     0.031 A 
ATOM     49  C   UNL A   1      49.450  25.966  26.008  1.00  0.00     0.074 A 
ATOM     50  C   UNL A   1      47.414  26.867  26.938  1.00  0.00     0.049 A 
ATOM     51  N   UNL A   1      50.342  25.650  26.921  1.00  0.00    -0.248 NA
ATOM     52  C   UNL A   1      50.200  26.482  24.805  1.00  0.00     0.031 C 
ATOM     53  C   UNL A   1      48.223  27.991  27.435  1.00  0.00     0.029 A 
ATOM     54  N   UNL A   1      46.144  27.132  27.450  1.00  0.00    -0.354 N 
ATOM     55  C   UNL A   1      51.625  25.716  26.321  1.00  0.00     0.074 A 
ATOM     56  C   UNL A   1      51.432  25.995  24.938  1.00  0.00     0.031 C 
ATOM     57  C   UNL A   1      47.537  28.613  28.409  1.00  0.00     0.029 A 
ATOM     58  C   UNL A   1      46.322  27.852  28.635  1.00  0.00     0.049 A 
ATOM     59  H   UNL A   1      45.284  26.863  27.052  1.00  0.00     0.167 HD
ATOM     60  C   UNL A   1      52.822  25.958  26.938  1.00  0.00     0.037 A 
ATOM     61  C   UNL A   1      45.929  27.276  29.803  1.00  0.00     0.037 A 
ATOM     62  C   UNL A   1      52.527  26.699  28.135  1.00  0.00     0.049 A 
ATOM     63  C   UNL A   1      47.134  26.985  30.667  1.00  0.00     0.074 A 
ATOM     64  C   UNL A   1      52.289  28.056  28.279  1.00  0.00     0.029 A 
ATOM     65  N   UNL A   1      51.928  26.056  29.196  1.00  0.00    -0.354 N 
ATOM     66  N   UNL A   1      48.355  26.824  30.216  1.00  0.00    -0.248 NA
ATOM     67  C   UNL A   1      47.064  26.963  32.122  1.00  0.00     0.031 C 
ATOM     68  C   UNL A   1      51.378  28.207  29.352  1.00  0.00     0.029 A 
ATOM     69  C   UNL A   1      51.187  26.963  29.929  1.00  0.00     0.049 A 
ATOM     70  H   UNL A   1      52.014  25.096  29.401  1.00  0.00     0.167 HD
ATOM     71  C   UNL A   1      49.212  26.697  31.277  1.00  0.00     0.074 A 
ATOM     72  C   UNL A   1      48.356  26.798  32.445  1.00  0.00     0.031 C 
ATOM     73  C   UNL A   1      50.564  26.550  31.166  1.00  0.00     0.037 A 
BRANCH  60  74
ATOM     74  C   UNL A   1      54.149  25.970  26.172  1.00  0.00     0.058 A 
ATOM     75  C   UNL A   1      54.981  24.842  26.035  1.00  0.00     0.135 A 
ATOM     76  C   UNL A   1      54.639  27.145  25.547  1.00  0.00     0.135 A 
ATOM     77  F   UNL A   1      54.612  23.649  26.521  1.00  0.00    -0.206 F 
ATOM     78  C   UNL A   1      56.246  24.898  25.424  1.00  0.00     0.059 A 
ATOM     79  C   UNL A   1      55.909  27.232  24.947  1.00  0.00     0.059 A 
ATOM     80  F   UNL A   1      53.893  28.261  25.532  1.00  0.00    -0.206 F 
ATOM     81  C   UNL A   1      56.719  26.103  24.909  1.00  0.00     0.060 A 
BRANCH  81  82
ATOM     82  S   UNL A   1      58.415  26.176  24.268  1.00  0.00     0.124 S 
ATOM     83  O   UNL A   1      59.198  25.709  25.410  1.00  0.00    -0.237 OA
ATOM     84  O   UNL A   1      58.359  25.264  23.130  1.00  0.00    -0.237 OA
ATOM     85  O   UNL A   1      58.600  27.585  23.933  1.00  0.00    -0.744 OA
ENDBRANCH  81  82
ENDBRANCH  60  74
BRANCH  61  86
ATOM     86  C   UNL A   1      44.636  26.520  29.671  1.00  0.00     0.058 A 
ATOM     87  C   UNL A   1      43.465  27.297  29.482  1.00  0.00     0.135 A 
ATOM     88  C   UNL A   1      44.532  25.158  29.350  1.00  0.00     0.135 A 
ATOM     89  F   UNL A   1      43.478  28.608  29.779  1.00  0.00    -0.206 F 
ATOM     90  C   UNL A   1      42.320  26.803  28.863  1.00  0.00     0.059 A 
ATOM     91  C   UNL A   1      43.369  24.627  28.750  1.00  0.00     0.059 A 
ATOM     92  F   UNL A   1      45.602  24.356  29.460  1.00  0.00    -0.206 F 
ATOM     93  C   UNL A   1      42.292  25.475  28.459  1.00  0.00     0.060 A 
BRANCH  93  94
ATOM     94  S   UNL A   1      40.904  24.970  27.398  1.00  0.00     0.124 S 
ATOM     95  O   UNL A   1      41.429  23.778  26.744  1.00  0.00    -0.237 OA
ATOM     96  O   UNL A   1      39.852  24.729  28.389  1.00  0.00    -0.237 OA
ATOM     97  O   UNL A   1      40.706  26.131  26.538  1.00  0.00    -0.744 OA
ENDBRANCH  93  94
ENDBRANCH  61  86
BRANCH  73  98
ATOM     98  C   UNL A   1      51.477  26.088  32.274  1.00  0.00     0.058 A 
ATOM     99  C   UNL A   1      51.661  24.736  32.589  1.00  0.00     0.135 A 
ATOM    100  C   UNL A   1      52.339  27.001  32.937  1.00  0.00     0.135 A 
ATOM    101  F   UNL A   1      50.996  23.770  31.938  1.00  0.00    -0.206 F 
ATOM    102  C   UNL A   1      52.562  24.319  33.564  1.00  0.00     0.059 A 
ATOM    103  C   UNL A   1      53.300  26.598  33.853  1.00  0.00     0.059 A 
ATOM    104  F   UNL A   1      52.284  28.322  32.708  1.00  0.00    -0.206 F 
ATOM    105  C   UNL A   1      53.373  25.257  34.193  1.00  0.00     0.060 A 
BRANCH 105 106
ATOM    106  S   UNL A   1      54.534  24.732  35.459  1.00  0.00     0.124 S 
ATOM    107  O   UNL A   1      55.810  25.022  34.811  1.00  0.00    -0.237 OA
ATOM    108  O   UNL A   1      54.194  25.589  36.590  1.00  0.00    -0.237 OA
ATOM    109  O   UNL A   1      54.218  23.318  35.635  1.00  0.00    -0.744 OA
ENDBRANCH 105 106
ENDBRANCH  73  98
ENDBRANCH  47  48
ENDBRANCH  40  42
ENDBRANCH  39  40
ENDBRANCH  38  39
ENDBRANCH  37  38
ENDBRANCH  36  37
ENDBRANCH  35  36
ENDBRANCH  34  35
ENDBRANCH   1  34
TORSDOF 26
ENDMDL
