MODEL 1
REMARK VINA RESULT:     -10.1      0.000      0.000
REMARK SMILES O=C(OCCOCCOCCOC(=O)[C@H]1CCCN(C(=O)C2CC[NH+](Cc3ccco3)CC2)C1)c1ccc(-c2c3nc(c(-c4c(F)cc(S(=O)(=O)[O-])cc4F)c4ccc([nH]4)c(-c4c(F)cc(S(=O)(=O)[O-])cc4F)c4nc(c(-c5c(F)cc(S(=O)(=O)[O-])cc5F)c5ccc2[nH]5)C=C4)C=C3)cc1
REMARK SMILES IDX 8 1 7 2 6 3 5 4 4 5 3 6 2 7 1 8 35 9 36 10 100 11 37 12
REMARK SMILES IDX 99 13 38 14 39 15 40 16 93 17 41 18 98 19 92 20 94 21 42 22
REMARK SMILES IDX 97 23 91 24 90 25 43 27 77 28 56 29 76 30 57 31 60 32 75 33
REMARK SMILES IDX 95 34 58 35 59 36 74 38 96 39 61 40 44 41 45 42 54 43 46 44
REMARK SMILES IDX 47 45 53 46 55 47 48 48 49 49 50 50 51 51 52 52 78 53 79 54
REMARK SMILES IDX 88 55 80 56 81 57 87 58 89 59 82 60 83 61 84 62 85 63 86 64
REMARK SMILES IDX 62 65 63 66 72 67 64 68 65 69 71 70 73 71 66 72 67 73 68 74
REMARK SMILES IDX 69 75 70 76 9 77 10 78 11 79 12 80 13 81 14 82 15 83 16 84
REMARK SMILES IDX 34 85 17 86 19 87 18 88 20 89 21 90 22 91 23 92 33 93 24 94
REMARK SMILES IDX 32 95 25 96 26 98 27 99 28 100 31 101 29 102 30 103
REMARK H PARENT 94 26 60 37 25 97
REMARK Flexibility Score: inf
ROOT
ATOM      1  C   UNL A   1      34.694  34.576  28.564  1.00  0.00     0.188 C 
ENDROOT
BRANCH   1   2
ATOM      2  C   UNL A   1      33.397  35.316  28.925  1.00  0.00     0.188 C 
BRANCH   2   3
ATOM      3  O   UNL A   1      32.943  35.153  30.273  1.00  0.00    -0.376 OA
BRANCH   3   4
ATOM      4  C   UNL A   1      33.754  35.837  31.229  1.00  0.00     0.202 C 
BRANCH   4   5
ATOM      5  C   UNL A   1      34.192  34.985  32.432  1.00  0.00     0.261 C 
BRANCH   5   6
ATOM      6  O   UNL A   1      35.281  34.087  32.159  1.00  0.00    -0.460 OA
BRANCH   6   7
ATOM      7  C   UNL A   1      35.275  32.842  31.622  1.00  0.00     0.338 C 
ATOM      8  O   UNL A   1      34.175  32.350  31.364  1.00  0.00    -0.246 OA
BRANCH   7   9
ATOM      9  C   UNL A   1      36.496  32.028  31.290  1.00  0.00     0.060 A 
ATOM     10  C   UNL A   1      37.484  31.604  32.181  1.00  0.00     0.016 A 
ATOM     11  C   UNL A   1      36.668  31.683  29.933  1.00  0.00     0.016 A 
ATOM     12  C   UNL A   1      38.645  30.961  31.739  1.00  0.00     0.010 A 
ATOM     13  C   UNL A   1      37.812  31.010  29.485  1.00  0.00     0.010 A 
ATOM     14  C   UNL A   1      38.836  30.691  30.385  1.00  0.00    -0.014 A 
BRANCH  14  15
ATOM     15  C   UNL A   1      40.170  30.265  29.904  1.00  0.00     0.031 A 
ATOM     16  C   UNL A   1      41.271  31.278  29.877  1.00  0.00     0.074 A 
ATOM     17  C   UNL A   1      40.463  28.981  29.625  1.00  0.00     0.049 A 
ATOM     18  N   UNL A   1      42.528  31.107  29.569  1.00  0.00    -0.248 NA
ATOM     19  C   UNL A   1      40.934  32.634  30.338  1.00  0.00     0.031 C 
ATOM     20  C   UNL A   1      39.575  27.860  29.874  1.00  0.00     0.029 A 
ATOM     21  N   UNL A   1      41.587  28.395  29.095  1.00  0.00    -0.354 N 
ATOM     22  C   UNL A   1      43.147  32.309  29.864  1.00  0.00     0.074 A 
ATOM     23  C   UNL A   1      42.119  33.225  30.310  1.00  0.00     0.031 C 
ATOM     24  C   UNL A   1      40.143  26.737  29.411  1.00  0.00     0.029 A 
ATOM     25  C   UNL A   1      41.433  27.052  28.834  1.00  0.00     0.049 A 
ATOM     26  H   UNL A   1      42.421  28.888  28.919  1.00  0.00     0.167 HD
ATOM     27  C   UNL A   1      44.464  32.605  29.803  1.00  0.00     0.037 A 
ATOM     28  C   UNL A   1      42.238  26.177  28.202  1.00  0.00     0.037 A 
ATOM     29  C   UNL A   1      45.472  31.707  29.309  1.00  0.00     0.049 A 
ATOM     30  C   UNL A   1      43.619  26.624  27.865  1.00  0.00     0.074 A 
ATOM     31  C   UNL A   1      46.827  31.932  29.155  1.00  0.00     0.029 A 
ATOM     32  N   UNL A   1      45.226  30.417  28.860  1.00  0.00    -0.354 N 
ATOM     33  N   UNL A   1      44.178  27.782  28.098  1.00  0.00    -0.248 NA
ATOM     34  C   UNL A   1      44.501  25.620  27.258  1.00  0.00     0.031 C 
ATOM     35  C   UNL A   1      47.393  30.800  28.557  1.00  0.00     0.029 A 
ATOM     36  C   UNL A   1      46.398  29.852  28.381  1.00  0.00     0.049 A 
ATOM     37  H   UNL A   1      44.350  29.970  28.878  1.00  0.00     0.167 HD
ATOM     38  C   UNL A   1      45.499  27.636  27.717  1.00  0.00     0.074 A 
ATOM     39  C   UNL A   1      45.645  26.286  27.207  1.00  0.00     0.031 C 
ATOM     40  C   UNL A   1      46.509  28.528  27.828  1.00  0.00     0.037 A 
BRANCH  27  41
ATOM     41  C   UNL A   1      44.850  33.985  30.236  1.00  0.00     0.058 A 
ATOM     42  C   UNL A   1      44.885  35.059  29.330  1.00  0.00     0.135 A 
ATOM     43  C   UNL A   1      45.256  34.218  31.556  1.00  0.00     0.135 A 
ATOM     44  F   UNL A   1      44.537  34.874  28.046  1.00  0.00    -0.206 F 
ATOM     45  C   UNL A   1      45.342  36.312  29.716  1.00  0.00     0.059 A 
ATOM     46  C   UNL A   1      45.701  35.468  31.968  1.00  0.00     0.059 A 
ATOM     47  F   UNL A   1      45.259  33.215  32.449  1.00  0.00    -0.206 F 
ATOM     48  C   UNL A   1      45.759  36.503  31.035  1.00  0.00     0.060 A 
BRANCH  48  49
ATOM     49  S   UNL A   1      46.400  38.121  31.516  1.00  0.00     0.124 S 
ATOM     50  O   UNL A   1      45.654  38.373  32.746  1.00  0.00    -0.237 OA
ATOM     51  O   UNL A   1      47.825  37.857  31.683  1.00  0.00    -0.237 OA
ATOM     52  O   UNL A   1      46.051  38.971  30.383  1.00  0.00    -0.744 OA
ENDBRANCH  48  49
ENDBRANCH  27  41
BRANCH  28  53
ATOM     53  C   UNL A   1      41.802  24.806  27.830  1.00  0.00     0.058 A 
ATOM     54  C   UNL A   1      40.984  24.553  26.722  1.00  0.00     0.135 A 
ATOM     55  C   UNL A   1      42.188  23.711  28.624  1.00  0.00     0.135 A 
ATOM     56  F   UNL A   1      40.577  25.567  25.944  1.00  0.00    -0.206 F 
ATOM     57  C   UNL A   1      40.599  23.256  26.383  1.00  0.00     0.059 A 
ATOM     58  C   UNL A   1      41.806  22.408  28.312  1.00  0.00     0.059 A 
ATOM     59  F   UNL A   1      42.982  23.903  29.689  1.00  0.00    -0.206 F 
ATOM     60  C   UNL A   1      41.022  22.186  27.178  1.00  0.00     0.060 A 
BRANCH  60  61
ATOM     61  S   UNL A   1      40.771  20.487  26.591  1.00  0.00     0.124 S 
ATOM     62  O   UNL A   1      40.781  19.734  27.837  1.00  0.00    -0.237 OA
ATOM     63  O   UNL A   1      39.487  20.575  25.902  1.00  0.00    -0.237 OA
ATOM     64  O   UNL A   1      41.917  20.278  25.709  1.00  0.00    -0.744 OA
ENDBRANCH  60  61
ENDBRANCH  28  53
BRANCH  40  65
ATOM     65  C   UNL A   1      47.853  28.044  27.388  1.00  0.00     0.058 A 
ATOM     66  C   UNL A   1      48.201  27.989  26.031  1.00  0.00     0.135 A 
ATOM     67  C   UNL A   1      48.781  27.589  28.335  1.00  0.00     0.135 A 
ATOM     68  F   UNL A   1      47.327  28.386  25.091  1.00  0.00    -0.206 F 
ATOM     69  C   UNL A   1      49.421  27.471  25.623  1.00  0.00     0.059 A 
ATOM     70  C   UNL A   1      50.018  27.090  27.951  1.00  0.00     0.059 A 
ATOM     71  F   UNL A   1      48.482  27.612  29.644  1.00  0.00    -0.206 F 
ATOM     72  C   UNL A   1      50.322  27.021  26.591  1.00  0.00     0.060 A 
BRANCH  72  73
ATOM     73  S   UNL A   1      51.912  26.364  26.053  1.00  0.00     0.124 S 
ATOM     74  O   UNL A   1      51.882  26.660  24.625  1.00  0.00    -0.237 OA
ATOM     75  O   UNL A   1      52.858  27.146  26.844  1.00  0.00    -0.237 OA
ATOM     76  O   UNL A   1      51.829  24.950  26.405  1.00  0.00    -0.744 OA
ENDBRANCH  72  73
ENDBRANCH  40  65
ENDBRANCH  14  15
ENDBRANCH   7   9
ENDBRANCH   6   7
ENDBRANCH   5   6
ENDBRANCH   4   5
ENDBRANCH   3   4
ENDBRANCH   2   3
ENDBRANCH   1   2
BRANCH   1  77
ATOM     77  O   UNL A   1      34.494  33.430  27.738  1.00  0.00    -0.376 OA
BRANCH  77  78
ATOM     78  C   UNL A   1      33.281  32.722  28.019  1.00  0.00     0.202 C 
BRANCH  78  79
ATOM     79  C   UNL A   1      32.849  31.802  26.878  1.00  0.00     0.261 C 
BRANCH  79  80
ATOM     80  O   UNL A   1      32.649  30.459  27.322  1.00  0.00    -0.463 OA
BRANCH  80  81
ATOM     81  C   UNL A   1      33.559  29.484  27.034  1.00  0.00     0.310 C 
ATOM     82  O   UNL A   1      34.620  29.337  27.615  1.00  0.00    -0.252 OA
BRANCH  81  83
ATOM     83  C   UNL A   1      32.956  28.553  25.982  1.00  0.00     0.119 C 
ATOM     84  C   UNL A   1      33.934  28.550  24.777  1.00  0.00     0.019 C 
ATOM     85  C   UNL A   1      32.553  27.167  26.582  1.00  0.00     0.134 C 
ATOM     86  C   UNL A   1      33.904  27.287  23.987  1.00  0.00     0.022 C 
ATOM     87  N   UNL A   1      32.786  26.038  25.671  1.00  0.00    -0.342 N 
ATOM     88  C   UNL A   1      34.015  26.180  24.981  1.00  0.00     0.119 C 
BRANCH  87  89
ATOM     89  C   UNL A   1      31.957  24.935  25.552  1.00  0.00     0.226 C 
ATOM     90  O   UNL A   1      32.287  23.870  26.096  1.00  0.00    -0.275 OA
BRANCH  89  91
ATOM     91  C   UNL A   1      30.613  24.944  24.725  1.00  0.00     0.090 C 
ATOM     92  C   UNL A   1      30.803  24.760  23.215  1.00  0.00     0.075 C 
ATOM     93  C   UNL A   1      29.510  25.991  24.990  1.00  0.00     0.075 C 
ATOM     94  C   UNL A   1      31.123  26.048  22.461  1.00  0.00     0.263 C 
ATOM     95  C   UNL A   1      29.351  27.083  23.892  1.00  0.00     0.263 C 
ATOM     96  N   UNL A   1      30.532  27.220  23.059  1.00  0.00    -0.329 N 
ATOM     97  H   UNL A   1      31.131  27.315  23.879  1.00  0.00     0.348 HD
BRANCH  96  98
ATOM     98  C   UNL A   1      30.812  28.489  22.407  1.00  0.00     0.338 C 
BRANCH  98  99
ATOM     99  C   UNL A   1      29.694  29.486  22.474  1.00  0.00     0.157 A 
ATOM    100  C   UNL A   1      29.235  30.336  23.461  1.00  0.00     0.052 A 
ATOM    101  O   UNL A   1      28.952  29.678  21.340  1.00  0.00    -0.463 OA
ATOM    102  C   UNL A   1      28.168  31.081  22.898  1.00  0.00     0.042 A 
ATOM    103  C   UNL A   1      28.051  30.658  21.596  1.00  0.00     0.195 A 
ENDBRANCH  98  99
ENDBRANCH  96  98
ENDBRANCH  89  91
ENDBRANCH  87  89
ENDBRANCH  81  83
ENDBRANCH  80  81
ENDBRANCH  79  80
ENDBRANCH  78  79
ENDBRANCH  77  78
ENDBRANCH   1  77
TORSDOF 24
ENDMDL
MODEL 2
REMARK VINA RESULT:      -9.9      1.928      3.693
REMARK SMILES O=C(OCCOCCOCCOC(=O)[C@H]1CCCN(C(=O)C2CC[NH+](Cc3ccco3)CC2)C1)c1ccc(-c2c3nc(c(-c4c(F)cc(S(=O)(=O)[O-])cc4F)c4ccc([nH]4)c(-c4c(F)cc(S(=O)(=O)[O-])cc4F)c4nc(c(-c5c(F)cc(S(=O)(=O)[O-])cc5F)c5ccc2[nH]5)C=C4)C=C3)cc1
REMARK SMILES IDX 8 1 7 2 6 3 5 4 4 5 3 6 2 7 1 8 35 9 36 10 100 11 37 12
REMARK SMILES IDX 99 13 38 14 39 15 40 16 93 17 41 18 98 19 92 20 94 21 42 22
REMARK SMILES IDX 97 23 91 24 90 25 43 27 77 28 56 29 76 30 57 31 60 32 75 33
REMARK SMILES IDX 95 34 58 35 59 36 74 38 96 39 61 40 44 41 45 42 54 43 46 44
REMARK SMILES IDX 47 45 53 46 55 47 48 48 49 49 50 50 51 51 52 52 78 53 79 54
REMARK SMILES IDX 88 55 80 56 81 57 87 58 89 59 82 60 83 61 84 62 85 63 86 64
REMARK SMILES IDX 62 65 63 66 72 67 64 68 65 69 71 70 73 71 66 72 67 73 68 74
REMARK SMILES IDX 69 75 70 76 9 77 10 78 11 79 12 80 13 81 14 82 15 83 16 84
REMARK SMILES IDX 34 85 17 86 19 87 18 88 20 89 21 90 22 91 23 92 33 93 24 94
REMARK SMILES IDX 32 95 25 96 26 98 27 99 28 100 31 101 29 102 30 103
REMARK H PARENT 94 26 60 37 25 97
REMARK Flexibility Score: inf
ROOT
ATOM      1  C   UNL A   1      35.182  34.274  28.493  1.00  0.00     0.188 C 
ENDROOT
BRANCH   1   2
ATOM      2  C   UNL A   1      33.894  34.793  29.148  1.00  0.00     0.188 C 
BRANCH   2   3
ATOM      3  O   UNL A   1      33.546  34.191  30.398  1.00  0.00    -0.376 OA
BRANCH   3   4
ATOM      4  C   UNL A   1      34.680  33.838  31.191  1.00  0.00     0.202 C 
BRANCH   4   5
ATOM      5  C   UNL A   1      34.941  32.327  31.310  1.00  0.00     0.261 C 
BRANCH   5   6
ATOM      6  O   UNL A   1      36.249  31.987  31.797  1.00  0.00    -0.460 OA
BRANCH   6   7
ATOM      7  C   UNL A   1      36.969  30.847  31.651  1.00  0.00     0.338 C 
ATOM      8  O   UNL A   1      36.471  29.811  32.094  1.00  0.00    -0.246 OA
BRANCH   7   9
ATOM      9  C   UNL A   1      38.306  30.740  30.969  1.00  0.00     0.060 A 
ATOM     10  C   UNL A   1      38.551  30.807  29.596  1.00  0.00     0.016 A 
ATOM     11  C   UNL A   1      39.420  30.524  31.807  1.00  0.00     0.016 A 
ATOM     12  C   UNL A   1      39.821  30.565  29.064  1.00  0.00     0.010 A 
ATOM     13  C   UNL A   1      40.703  30.313  31.285  1.00  0.00     0.010 A 
ATOM     14  C   UNL A   1      40.899  30.280  29.899  1.00  0.00    -0.014 A 
BRANCH  14  15
ATOM     15  C   UNL A   1      42.159  29.761  29.319  1.00  0.00     0.031 A 
ATOM     16  C   UNL A   1      43.307  30.707  29.156  1.00  0.00     0.074 A 
ATOM     17  C   UNL A   1      42.355  28.455  29.064  1.00  0.00     0.049 A 
ATOM     18  N   UNL A   1      44.519  30.454  28.745  1.00  0.00    -0.248 NA
ATOM     19  C   UNL A   1      43.088  32.096  29.593  1.00  0.00     0.031 C 
ATOM     20  C   UNL A   1      41.433  27.396  29.434  1.00  0.00     0.029 A 
ATOM     21  N   UNL A   1      43.392  27.787  28.460  1.00  0.00    -0.354 N 
ATOM     22  C   UNL A   1      45.228  31.627  28.938  1.00  0.00     0.074 A 
ATOM     23  C   UNL A   1      44.296  32.616  29.438  1.00  0.00     0.031 C 
ATOM     24  C   UNL A   1      41.894  26.226  28.966  1.00  0.00     0.029 A 
ATOM     25  C   UNL A   1      43.142  26.447  28.265  1.00  0.00     0.049 A 
ATOM     26  H   UNL A   1      44.233  28.224  28.192  1.00  0.00     0.167 HD
ATOM     27  C   UNL A   1      46.548  31.844  28.750  1.00  0.00     0.037 A 
ATOM     28  C   UNL A   1      43.838  25.507  27.599  1.00  0.00     0.037 A 
ATOM     29  C   UNL A   1      47.456  30.874  28.203  1.00  0.00     0.049 A 
ATOM     30  C   UNL A   1      45.205  25.861  27.124  1.00  0.00     0.074 A 
ATOM     31  C   UNL A   1      48.803  31.014  27.922  1.00  0.00     0.029 A 
ATOM     32  N   UNL A   1      47.101  29.586  27.828  1.00  0.00    -0.354 N 
ATOM     33  N   UNL A   1      45.845  26.992  27.263  1.00  0.00    -0.248 NA
ATOM     34  C   UNL A   1      45.973  24.789  26.480  1.00  0.00     0.031 C 
ATOM     35  C   UNL A   1      49.249  29.832  27.320  1.00  0.00     0.029 A 
ATOM     36  C   UNL A   1      48.192  28.938  27.270  1.00  0.00     0.049 A 
ATOM     37  H   UNL A   1      46.206  29.191  27.940  1.00  0.00     0.167 HD
ATOM     38  C   UNL A   1      47.117  26.758  26.772  1.00  0.00     0.074 A 
ATOM     39  C   UNL A   1      47.143  25.384  26.303  1.00  0.00     0.031 C 
ATOM     40  C   UNL A   1      48.180  27.592  26.759  1.00  0.00     0.037 A 
BRANCH  27  41
ATOM     41  C   UNL A   1      47.046  33.213  29.093  1.00  0.00     0.058 A 
ATOM     42  C   UNL A   1      47.059  34.252  28.147  1.00  0.00     0.135 A 
ATOM     43  C   UNL A   1      47.580  33.466  30.364  1.00  0.00     0.135 A 
ATOM     44  F   UNL A   1      46.590  34.045  26.907  1.00  0.00    -0.206 F 
ATOM     45  C   UNL A   1      47.618  35.489  28.444  1.00  0.00     0.059 A 
ATOM     46  C   UNL A   1      48.128  34.702  30.687  1.00  0.00     0.059 A 
ATOM     47  F   UNL A   1      47.606  32.496  31.291  1.00  0.00    -0.206 F 
ATOM     48  C   UNL A   1      48.160  35.699  29.714  1.00  0.00     0.060 A 
BRANCH  48  49
ATOM     49  S   UNL A   1      48.929  37.292  30.074  1.00  0.00     0.124 S 
ATOM     50  O   UNL A   1      49.746  37.494  28.880  1.00  0.00    -0.237 OA
ATOM     51  O   UNL A   1      47.775  38.175  30.208  1.00  0.00    -0.237 OA
ATOM     52  O   UNL A   1      49.669  37.039  31.305  1.00  0.00    -0.744 OA
ENDBRANCH  48  49
ENDBRANCH  27  41
BRANCH  28  53
ATOM     53  C   UNL A   1      43.296  24.151  27.320  1.00  0.00     0.058 A 
ATOM     54  C   UNL A   1      43.344  23.115  28.261  1.00  0.00     0.135 A 
ATOM     55  C   UNL A   1      42.737  23.868  26.061  1.00  0.00     0.135 A 
ATOM     56  F   UNL A   1      43.881  23.332  29.470  1.00  0.00    -0.206 F 
ATOM     57  C   UNL A   1      42.815  21.855  27.983  1.00  0.00     0.059 A 
ATOM     58  C   UNL A   1      42.214  22.614  25.755  1.00  0.00     0.059 A 
ATOM     59  F   UNL A   1      42.658  24.833  25.131  1.00  0.00    -0.206 F 
ATOM     60  C   UNL A   1      42.242  21.614  26.730  1.00  0.00     0.060 A 
BRANCH  60  61
ATOM     61  S   UNL A   1      41.303  20.084  26.460  1.00  0.00     0.124 S 
ATOM     62  O   UNL A   1      41.385  19.447  27.766  1.00  0.00    -0.237 OA
ATOM     63  O   UNL A   1      39.988  20.584  26.068  1.00  0.00    -0.237 OA
ATOM     64  O   UNL A   1      42.047  19.435  25.384  1.00  0.00    -0.744 OA
ENDBRANCH  60  61
ENDBRANCH  28  53
BRANCH  40  65
ATOM     65  C   UNL A   1      49.450  27.016  26.222  1.00  0.00     0.058 A 
ATOM     66  C   UNL A   1      50.394  26.415  27.068  1.00  0.00     0.135 A 
ATOM     67  C   UNL A   1      49.741  27.109  24.854  1.00  0.00     0.135 A 
ATOM     68  F   UNL A   1      50.166  26.336  28.389  1.00  0.00    -0.206 F 
ATOM     69  C   UNL A   1      51.604  25.947  26.576  1.00  0.00     0.059 A 
ATOM     70  C   UNL A   1      50.934  26.625  24.336  1.00  0.00     0.059 A 
ATOM     71  F   UNL A   1      48.871  27.689  24.013  1.00  0.00    -0.206 F 
ATOM     72  C   UNL A   1      51.865  26.059  25.208  1.00  0.00     0.060 A 
BRANCH  72  73
ATOM     73  S   UNL A   1      53.433  25.433  24.574  1.00  0.00     0.124 S 
ATOM     74  O   UNL A   1      53.302  25.707  23.148  1.00  0.00    -0.237 OA
ATOM     75  O   UNL A   1      54.409  26.250  25.291  1.00  0.00    -0.237 OA
ATOM     76  O   UNL A   1      53.409  24.023  24.951  1.00  0.00    -0.744 OA
ENDBRANCH  72  73
ENDBRANCH  40  65
ENDBRANCH  14  15
ENDBRANCH   7   9
ENDBRANCH   6   7
ENDBRANCH   5   6
ENDBRANCH   4   5
ENDBRANCH   3   4
ENDBRANCH   2   3
ENDBRANCH   1   2
BRANCH   1  77
ATOM     77  O   UNL A   1      34.959  33.342  27.436  1.00  0.00    -0.376 OA
BRANCH  77  78
ATOM     78  C   UNL A   1      35.251  31.986  27.793  1.00  0.00     0.202 C 
BRANCH  78  79
ATOM     79  C   UNL A   1      33.996  31.131  27.967  1.00  0.00     0.261 C 
BRANCH  79  80
ATOM     80  O   UNL A   1      33.470  30.693  26.712  1.00  0.00    -0.463 OA
BRANCH  80  81
ATOM     81  C   UNL A   1      32.142  30.821  26.427  1.00  0.00     0.310 C 
ATOM     82  O   UNL A   1      31.488  31.831  26.619  1.00  0.00    -0.252 OA
BRANCH  81  83
ATOM     83  C   UNL A   1      31.676  29.552  25.712  1.00  0.00     0.119 C 
ATOM     84  C   UNL A   1      30.675  30.001  24.614  1.00  0.00     0.019 C 
ATOM     85  C   UNL A   1      32.873  28.652  25.266  1.00  0.00     0.134 C 
ATOM     86  C   UNL A   1      30.625  29.085  23.441  1.00  0.00     0.022 C 
ATOM     87  N   UNL A   1      32.663  27.983  23.975  1.00  0.00    -0.342 N 
ATOM     88  C   UNL A   1      32.044  28.853  23.042  1.00  0.00     0.119 C 
BRANCH  87  89
ATOM     89  C   UNL A   1      33.079  26.698  23.674  1.00  0.00     0.226 C 
ATOM     90  O   UNL A   1      34.081  26.239  24.243  1.00  0.00    -0.275 OA
BRANCH  89  91
ATOM     91  C   UNL A   1      32.363  25.780  22.608  1.00  0.00     0.090 C 
ATOM     92  C   UNL A   1      31.122  25.053  23.139  1.00  0.00     0.075 C 
ATOM     93  C   UNL A   1      33.165  24.839  21.685  1.00  0.00     0.075 C 
ATOM     94  C   UNL A   1      31.423  23.747  23.870  1.00  0.00     0.263 C 
ATOM     95  C   UNL A   1      33.044  23.322  22.012  1.00  0.00     0.263 C 
ATOM     96  N   UNL A   1      32.597  23.073  23.370  1.00  0.00    -0.329 N 
ATOM     97  H   UNL A   1      33.320  23.684  23.748  1.00  0.00     0.348 HD
BRANCH  96  98
ATOM     98  C   UNL A   1      32.959  21.831  24.033  1.00  0.00     0.338 C 
BRANCH  98  99
ATOM     99  C   UNL A   1      33.602  22.004  25.377  1.00  0.00     0.157 A 
ATOM    100  C   UNL A   1      34.688  22.729  25.826  1.00  0.00     0.052 A 
ATOM    101  O   UNL A   1      33.018  21.370  26.440  1.00  0.00    -0.463 OA
ATOM    102  C   UNL A   1      34.764  22.528  27.228  1.00  0.00     0.042 A 
ATOM    103  C   UNL A   1      33.710  21.711  27.555  1.00  0.00     0.195 A 
ENDBRANCH  98  99
ENDBRANCH  96  98
ENDBRANCH  89  91
ENDBRANCH  87  89
ENDBRANCH  81  83
ENDBRANCH  80  81
ENDBRANCH  79  80
ENDBRANCH  78  79
ENDBRANCH  77  78
ENDBRANCH   1  77
TORSDOF 24
ENDMDL
MODEL 3
REMARK VINA RESULT:      -9.8      1.715      3.417
REMARK SMILES O=C(OCCOCCOCCOC(=O)[C@H]1CCCN(C(=O)C2CC[NH+](Cc3ccco3)CC2)C1)c1ccc(-c2c3nc(c(-c4c(F)cc(S(=O)(=O)[O-])cc4F)c4ccc([nH]4)c(-c4c(F)cc(S(=O)(=O)[O-])cc4F)c4nc(c(-c5c(F)cc(S(=O)(=O)[O-])cc5F)c5ccc2[nH]5)C=C4)C=C3)cc1
REMARK SMILES IDX 8 1 7 2 6 3 5 4 4 5 3 6 2 7 1 8 35 9 36 10 100 11 37 12
REMARK SMILES IDX 99 13 38 14 39 15 40 16 93 17 41 18 98 19 92 20 94 21 42 22
REMARK SMILES IDX 97 23 91 24 90 25 43 27 77 28 56 29 76 30 57 31 60 32 75 33
REMARK SMILES IDX 95 34 58 35 59 36 74 38 96 39 61 40 44 41 45 42 54 43 46 44
REMARK SMILES IDX 47 45 53 46 55 47 48 48 49 49 50 50 51 51 52 52 78 53 79 54
REMARK SMILES IDX 88 55 80 56 81 57 87 58 89 59 82 60 83 61 84 62 85 63 86 64
REMARK SMILES IDX 62 65 63 66 72 67 64 68 65 69 71 70 73 71 66 72 67 73 68 74
REMARK SMILES IDX 69 75 70 76 9 77 10 78 11 79 12 80 13 81 14 82 15 83 16 84
REMARK SMILES IDX 34 85 17 86 19 87 18 88 20 89 21 90 22 91 23 92 33 93 24 94
REMARK SMILES IDX 32 95 25 96 26 98 27 99 28 100 31 101 29 102 30 103
REMARK H PARENT 94 26 60 37 25 97
REMARK Flexibility Score: inf
ROOT
ATOM      1  C   UNL A   1      34.360  35.047  28.378  1.00  0.00     0.188 C 
ENDROOT
BRANCH   1   2
ATOM      2  C   UNL A   1      33.272  36.097  28.642  1.00  0.00     0.188 C 
BRANCH   2   3
ATOM      3  O   UNL A   1      32.493  35.902  29.827  1.00  0.00    -0.376 OA
BRANCH   3   4
ATOM      4  C   UNL A   1      33.033  36.560  30.973  1.00  0.00     0.202 C 
BRANCH   4   5
ATOM      5  C   UNL A   1      33.667  35.625  32.017  1.00  0.00     0.261 C 
BRANCH   5   6
ATOM      6  O   UNL A   1      33.688  34.239  31.639  1.00  0.00    -0.460 OA
BRANCH   6   7
ATOM      7  C   UNL A   1      34.240  33.170  32.262  1.00  0.00     0.338 C 
ATOM      8  O   UNL A   1      33.625  32.703  33.223  1.00  0.00    -0.246 OA
BRANCH   7   9
ATOM      9  C   UNL A   1      35.523  32.492  31.863  1.00  0.00     0.060 A 
ATOM     10  C   UNL A   1      36.413  31.825  32.708  1.00  0.00     0.016 A 
ATOM     11  C   UNL A   1      35.868  32.562  30.497  1.00  0.00     0.016 A 
ATOM     12  C   UNL A   1      37.642  31.343  32.246  1.00  0.00     0.010 A 
ATOM     13  C   UNL A   1      37.083  32.052  30.019  1.00  0.00     0.010 A 
ATOM     14  C   UNL A   1      38.003  31.484  30.908  1.00  0.00    -0.014 A 
BRANCH  14  15
ATOM     15  C   UNL A   1      39.401  31.220  30.495  1.00  0.00     0.031 A 
ATOM     16  C   UNL A   1      40.397  32.330  30.615  1.00  0.00     0.074 A 
ATOM     17  C   UNL A   1      39.835  29.994  30.149  1.00  0.00     0.049 A 
ATOM     18  N   UNL A   1      41.682  32.300  30.385  1.00  0.00    -0.248 NA
ATOM     19  C   UNL A   1      39.901  33.611  31.142  1.00  0.00     0.031 C 
ATOM     20  C   UNL A   1      39.046  28.780  30.258  1.00  0.00     0.029 A 
ATOM     21  N   UNL A   1      41.042  29.556  29.662  1.00  0.00    -0.354 N 
ATOM     22  C   UNL A   1      42.161  33.529  30.805  1.00  0.00     0.074 A 
ATOM     23  C   UNL A   1      41.022  34.310  31.239  1.00  0.00     0.031 C 
ATOM     24  C   UNL A   1      39.749  27.752  29.761  1.00  0.00     0.029 A 
ATOM     25  C   UNL A   1      41.037  28.228  29.299  1.00  0.00     0.049 A 
ATOM     26  H   UNL A   1      41.834  30.135  29.579  1.00  0.00     0.167 HD
ATOM     27  C   UNL A   1      43.444  33.949  30.858  1.00  0.00     0.037 A 
ATOM     28  C   UNL A   1      41.962  27.481  28.668  1.00  0.00     0.037 A 
ATOM     29  C   UNL A   1      44.564  33.188  30.376  1.00  0.00     0.049 A 
ATOM     30  C   UNL A   1      43.312  28.077  28.460  1.00  0.00     0.074 A 
ATOM     31  C   UNL A   1      45.898  33.549  30.334  1.00  0.00     0.029 A 
ATOM     32  N   UNL A   1      44.475  31.919  29.824  1.00  0.00    -0.354 N 
ATOM     33  N   UNL A   1      43.739  29.262  28.811  1.00  0.00    -0.248 NA
ATOM     34  C   UNL A   1      44.325  27.208  27.850  1.00  0.00     0.031 C 
ATOM     35  C   UNL A   1      46.608  32.522  29.701  1.00  0.00     0.029 A 
ATOM     36  C   UNL A   1      45.724  31.501  29.392  1.00  0.00     0.049 A 
ATOM     37  H   UNL A   1      43.646  31.391  29.749  1.00  0.00     0.167 HD
ATOM     38  C   UNL A   1      45.089  29.268  28.515  1.00  0.00     0.074 A 
ATOM     39  C   UNL A   1      45.399  27.979  27.926  1.00  0.00     0.031 C 
ATOM     40  C   UNL A   1      45.999  30.239  28.758  1.00  0.00     0.037 A 
BRANCH  27  41
ATOM     41  C   UNL A   1      43.665  35.323  31.410  1.00  0.00     0.058 A 
ATOM     42  C   UNL A   1      43.755  36.448  30.573  1.00  0.00     0.135 A 
ATOM     43  C   UNL A   1      43.857  35.503  32.786  1.00  0.00     0.135 A 
ATOM     44  F   UNL A   1      43.612  36.318  29.244  1.00  0.00    -0.206 F 
ATOM     45  C   UNL A   1      44.062  37.703  31.084  1.00  0.00     0.059 A 
ATOM     46  C   UNL A   1      44.148  36.752  33.319  1.00  0.00     0.059 A 
ATOM     47  F   UNL A   1      43.800  34.452  33.619  1.00  0.00    -0.206 F 
ATOM     48  C   UNL A   1      44.268  37.842  32.458  1.00  0.00     0.060 A 
BRANCH  48  49
ATOM     49  S   UNL A   1      44.717  39.465  33.107  1.00  0.00     0.124 S 
ATOM     50  O   UNL A   1      44.801  39.190  34.539  1.00  0.00    -0.237 OA
ATOM     51  O   UNL A   1      45.987  39.730  32.438  1.00  0.00    -0.237 OA
ATOM     52  O   UNL A   1      43.605  40.313  32.693  1.00  0.00    -0.744 OA
ENDBRANCH  48  49
ENDBRANCH  27  41
BRANCH  28  53
ATOM     53  C   UNL A   1      41.687  26.107  28.173  1.00  0.00     0.058 A 
ATOM     54  C   UNL A   1      42.192  24.965  28.809  1.00  0.00     0.135 A 
ATOM     55  C   UNL A   1      40.918  25.924  27.010  1.00  0.00     0.135 A 
ATOM     56  F   UNL A   1      42.943  25.089  29.913  1.00  0.00    -0.206 F 
ATOM     57  C   UNL A   1      41.908  23.684  28.336  1.00  0.00     0.059 A 
ATOM     58  C   UNL A   1      40.632  24.655  26.511  1.00  0.00     0.059 A 
ATOM     59  F   UNL A   1      40.404  26.988  26.374  1.00  0.00    -0.206 F 
ATOM     60  C   UNL A   1      41.118  23.536  27.190  1.00  0.00     0.060 A 
BRANCH  60  61
ATOM     61  S   UNL A   1      40.509  21.888  26.736  1.00  0.00     0.124 S 
ATOM     62  O   UNL A   1      41.459  21.490  25.706  1.00  0.00    -0.237 OA
ATOM     63  O   UNL A   1      40.588  21.160  27.999  1.00  0.00    -0.237 OA
ATOM     64  O   UNL A   1      39.149  22.161  26.280  1.00  0.00    -0.744 OA
ENDBRANCH  60  61
ENDBRANCH  28  53
BRANCH  40  65
ATOM     65  C   UNL A   1      47.409  29.915  28.383  1.00  0.00     0.058 A 
ATOM     66  C   UNL A   1      47.878  30.108  27.075  1.00  0.00     0.135 A 
ATOM     67  C   UNL A   1      48.281  29.366  29.333  1.00  0.00     0.135 A 
ATOM     68  F   UNL A   1      47.064  30.602  26.129  1.00  0.00    -0.206 F 
ATOM     69  C   UNL A   1      49.165  29.738  26.713  1.00  0.00     0.059 A 
ATOM     70  C   UNL A   1      49.581  29.013  28.998  1.00  0.00     0.059 A 
ATOM     71  F   UNL A   1      47.867  29.154  30.592  1.00  0.00    -0.206 F 
ATOM     72  C   UNL A   1      50.009  29.189  27.682  1.00  0.00     0.060 A 
BRANCH  72  73
ATOM     73  S   UNL A   1      51.685  28.727  27.207  1.00  0.00     0.124 S 
ATOM     74  O   UNL A   1      52.449  29.879  27.672  1.00  0.00    -0.237 OA
ATOM     75  O   UNL A   1      51.891  27.486  27.949  1.00  0.00    -0.237 OA
ATOM     76  O   UNL A   1      51.594  28.575  25.758  1.00  0.00    -0.744 OA
ENDBRANCH  72  73
ENDBRANCH  40  65
ENDBRANCH  14  15
ENDBRANCH   7   9
ENDBRANCH   6   7
ENDBRANCH   5   6
ENDBRANCH   4   5
ENDBRANCH   3   4
ENDBRANCH   2   3
ENDBRANCH   1   2
BRANCH   1  77
ATOM     77  O   UNL A   1      34.062  34.167  27.295  1.00  0.00    -0.376 OA
BRANCH  77  78
ATOM     78  C   UNL A   1      33.223  33.065  27.663  1.00  0.00     0.202 C 
BRANCH  78  79
ATOM     79  C   UNL A   1      34.011  31.794  27.979  1.00  0.00     0.261 C 
BRANCH  79  80
ATOM     80  O   UNL A   1      33.865  30.808  26.955  1.00  0.00    -0.463 OA
BRANCH  80  81
ATOM     81  C   UNL A   1      34.529  29.619  27.031  1.00  0.00     0.310 C 
ATOM     82  O   UNL A   1      35.526  29.425  27.704  1.00  0.00    -0.252 OA
BRANCH  81  83
ATOM     83  C   UNL A   1      33.733  28.568  26.254  1.00  0.00     0.119 C 
ATOM     84  C   UNL A   1      32.607  28.074  27.199  1.00  0.00     0.019 C 
ATOM     85  C   UNL A   1      33.310  29.078  24.838  1.00  0.00     0.134 C 
ATOM     86  C   UNL A   1      31.391  27.597  26.481  1.00  0.00     0.022 C 
ATOM     87  N   UNL A   1      31.980  28.617  24.416  1.00  0.00    -0.342 N 
ATOM     88  C   UNL A   1      31.057  28.661  25.491  1.00  0.00     0.119 C 
BRANCH  87  89
ATOM     89  C   UNL A   1      31.642  28.256  23.123  1.00  0.00     0.226 C 
ATOM     90  O   UNL A   1      30.872  28.982  22.476  1.00  0.00    -0.275 OA
BRANCH  89  91
ATOM     91  C   UNL A   1      32.161  26.940  22.425  1.00  0.00     0.090 C 
ATOM     92  C   UNL A   1      31.296  25.703  22.695  1.00  0.00     0.075 C 
ATOM     93  C   UNL A   1      33.654  26.549  22.447  1.00  0.00     0.075 C 
ATOM     94  C   UNL A   1      31.622  24.982  24.001  1.00  0.00     0.263 C 
ATOM     95  C   UNL A   1      34.015  25.345  23.365  1.00  0.00     0.263 C 
ATOM     96  N   UNL A   1      33.010  25.091  24.381  1.00  0.00    -0.329 N 
ATOM     97  H   UNL A   1      33.029  26.066  24.680  1.00  0.00     0.348 HD
BRANCH  96  98
ATOM     98  C   UNL A   1      33.390  24.447  25.627  1.00  0.00     0.338 C 
BRANCH  98  99
ATOM     99  C   UNL A   1      34.012  23.092  25.466  1.00  0.00     0.157 A 
ATOM    100  C   UNL A   1      34.004  22.156  24.451  1.00  0.00     0.052 A 
ATOM    101  O   UNL A   1      34.803  22.637  26.486  1.00  0.00    -0.463 OA
ATOM    102  C   UNL A   1      34.832  21.085  24.874  1.00  0.00     0.042 A 
ATOM    103  C   UNL A   1      35.313  21.438  26.111  1.00  0.00     0.195 A 
ENDBRANCH  98  99
ENDBRANCH  96  98
ENDBRANCH  89  91
ENDBRANCH  87  89
ENDBRANCH  81  83
ENDBRANCH  80  81
ENDBRANCH  79  80
ENDBRANCH  78  79
ENDBRANCH  77  78
ENDBRANCH   1  77
TORSDOF 24
ENDMDL
