MODEL 1
REMARK VINA RESULT:     -10.9      0.000      0.000
REMARK SMILES Cc1nn([C@H]2CCS(=O)(=O)C2)c(C)c1[C@@H]([NH3+])C(=O)OCCOCCOCCOC(=O)c1ccc(-c2c3nc(c(-c4c(F)cc(S(=O)(=O)[O-])cc4F)c4ccc([nH]4)c(-c4c(F)cc(S(=O)(=O)[O-])cc4F)c4nc(c(-c5c(F)cc(S(=O)(=O)[O-])cc5F)c5ccc2[nH]5)C=C4)C=C3)cc1
REMARK SMILES IDX 24 1 23 2 22 3 21 4 20 5 19 6 17 7 18 8 15 9 14 10 1 11 2 12
REMARK SMILES IDX 3 13 4 14 12 15 13 16 5 17 6 18 11 19 7 20 8 21 9 22 10 23
REMARK SMILES IDX 16 24 25 28 26 29 27 30 28 31 29 32 30 33 31 34 32 35 96 36
REMARK SMILES IDX 33 37 95 38 34 39 35 40 36 41 89 42 37 43 94 44 88 45 90 46
REMARK SMILES IDX 38 47 93 48 87 49 86 50 39 52 73 53 52 54 72 55 53 56 56 57
REMARK SMILES IDX 71 58 91 59 54 60 55 61 70 63 92 64 57 65 40 66 41 67 50 68
REMARK SMILES IDX 42 69 43 70 49 71 51 72 44 73 45 74 46 75 47 76 48 77 74 78
REMARK SMILES IDX 75 79 84 80 76 81 77 82 83 83 85 84 78 85 79 86 80 87 81 88
REMARK SMILES IDX 82 89 58 90 59 91 68 92 60 93 61 94 67 95 69 96 62 97 63 98
REMARK SMILES IDX 64 99 65 100 66 101
REMARK H PARENT 16 25 16 26 16 27 90 51 56 62
REMARK Flexibility Score: inf
ROOT
ATOM      1  C   UNL A   1      42.372  18.807  26.598  1.00  0.00     0.188 C 
ENDROOT
BRANCH   1   2
ATOM      2  C   UNL A   1      41.449  20.018  26.340  1.00  0.00     0.188 C 
BRANCH   2   3
ATOM      3  O   UNL A   1      41.286  20.994  27.363  1.00  0.00    -0.376 OA
BRANCH   3   4
ATOM      4  C   UNL A   1      40.197  21.909  27.254  1.00  0.00     0.202 C 
BRANCH   4   5
ATOM      5  C   UNL A   1      39.387  21.923  25.943  1.00  0.00     0.261 C 
BRANCH   5   6
ATOM      6  O   UNL A   1      37.984  22.203  26.127  1.00  0.00    -0.459 OA
BRANCH   6   7
ATOM      7  C   UNL A   1      37.115  21.605  25.272  1.00  0.00     0.369 C 
ATOM      8  O   UNL A   1      37.446  21.161  24.173  1.00  0.00    -0.245 OA
BRANCH   7   9
ATOM      9  C   UNL A   1      35.683  21.398  25.843  1.00  0.00     0.326 C 
BRANCH   9  10
ATOM     10  C   UNL A   1      34.676  22.511  25.719  1.00  0.00     0.065 A 
ATOM     11  C   UNL A   1      33.545  22.368  28.089  1.00  0.00     0.069 C 
ATOM     12  C   UNL A   1      33.744  22.915  26.721  1.00  0.00     0.069 A 
ATOM     13  N   UNL A   1      33.006  23.951  26.324  1.00  0.00    -0.177 NA
ATOM     14  N   UNL A   1      33.487  24.285  25.112  1.00  0.00    -0.265 N 
ATOM     15  C   UNL A   1      34.417  23.371  24.654  1.00  0.00     0.046 A 
ATOM     16  C   UNL A   1      35.043  23.364  23.308  1.00  0.00     0.067 C 
BRANCH  14  17
ATOM     17  C   UNL A   1      32.922  25.495  24.519  1.00  0.00     0.123 C 
ATOM     18  C   UNL A   1      31.378  25.542  24.632  1.00  0.00     0.044 C 
ATOM     19  C   UNL A   1      33.406  26.814  25.096  1.00  0.00     0.164 C 
ATOM     20  C   UNL A   1      30.899  26.933  24.234  1.00  0.00     0.139 C 
ATOM     21  S   UNL A   1      32.278  28.028  24.483  1.00  0.00     0.152 S 
ATOM     22  O   UNL A   1      32.763  28.470  23.189  1.00  0.00    -0.229 OA
ATOM     23  O   UNL A   1      31.985  28.957  25.553  1.00  0.00    -0.229 OA
ENDBRANCH  14  17
ENDBRANCH   9  10
BRANCH   9  24
ATOM     24  N   UNL A   1      35.080  20.199  25.224  1.00  0.00    -0.342 N 
ATOM     25  H   UNL A   1      34.246  19.930  25.746  1.00  0.00     0.345 HD
ATOM     26  H   UNL A   1      35.753  19.433  25.240  1.00  0.00     0.345 HD
ATOM     27  H   UNL A   1      34.825  20.407  24.258  1.00  0.00     0.345 HD
ENDBRANCH   9  24
ENDBRANCH   7   9
ENDBRANCH   6   7
ENDBRANCH   5   6
ENDBRANCH   4   5
ENDBRANCH   3   4
ENDBRANCH   2   3
ENDBRANCH   1   2
BRANCH   1  28
ATOM     28  O   UNL A   1      43.072  18.324  25.470  1.00  0.00    -0.376 OA
BRANCH  28  29
ATOM     29  C   UNL A   1      44.459  18.541  25.294  1.00  0.00     0.202 C 
BRANCH  29  30
ATOM     30  C   UNL A   1      45.016  19.493  24.244  1.00  0.00     0.261 C 
BRANCH  30  31
ATOM     31  O   UNL A   1      44.325  20.716  24.130  1.00  0.00    -0.460 OA
BRANCH  31  32
ATOM     32  C   UNL A   1      44.984  21.803  24.580  1.00  0.00     0.338 C 
ATOM     33  O   UNL A   1      46.095  22.173  24.254  1.00  0.00    -0.246 OA
BRANCH  32  34
ATOM     34  C   UNL A   1      44.095  22.475  25.542  1.00  0.00     0.060 A 
ATOM     35  C   UNL A   1      43.101  23.301  25.018  1.00  0.00     0.016 A 
ATOM     36  C   UNL A   1      44.430  22.479  26.908  1.00  0.00     0.016 A 
ATOM     37  C   UNL A   1      42.650  24.334  25.804  1.00  0.00     0.010 A 
ATOM     38  C   UNL A   1      43.992  23.519  27.687  1.00  0.00     0.010 A 
ATOM     39  C   UNL A   1      43.212  24.494  27.075  1.00  0.00    -0.014 A 
BRANCH  39  40
ATOM     40  C   UNL A   1      43.113  25.806  27.672  1.00  0.00     0.031 A 
ATOM     41  C   UNL A   1      44.243  26.708  27.406  1.00  0.00     0.074 A 
ATOM     42  C   UNL A   1      42.009  26.156  28.360  1.00  0.00     0.049 A 
ATOM     43  N   UNL A   1      45.070  27.222  28.251  1.00  0.00    -0.248 NA
ATOM     44  C   UNL A   1      44.552  26.989  25.996  1.00  0.00     0.031 C 
ATOM     45  C   UNL A   1      40.723  25.444  28.397  1.00  0.00     0.029 A 
ATOM     46  N   UNL A   1      41.761  27.285  29.074  1.00  0.00    -0.354 N 
ATOM     47  C   UNL A   1      45.867  28.076  27.502  1.00  0.00     0.074 A 
ATOM     48  C   UNL A   1      45.627  27.766  26.116  1.00  0.00     0.031 C 
ATOM     49  C   UNL A   1      39.780  26.265  28.907  1.00  0.00     0.029 A 
ATOM     50  C   UNL A   1      40.417  27.497  29.339  1.00  0.00     0.049 A 
ATOM     51  H   UNL A   1      42.471  27.896  29.377  1.00  0.00     0.167 HD
ATOM     52  C   UNL A   1      46.466  29.159  28.058  1.00  0.00     0.037 A 
ATOM     53  C   UNL A   1      39.856  28.647  29.781  1.00  0.00     0.037 A 
ATOM     54  C   UNL A   1      46.563  29.054  29.489  1.00  0.00     0.049 A 
ATOM     55  C   UNL A   1      40.931  29.473  30.389  1.00  0.00     0.074 A 
ATOM     56  C   UNL A   1      47.171  28.168  30.356  1.00  0.00     0.029 A 
ATOM     57  N   UNL A   1      45.683  29.788  30.244  1.00  0.00    -0.354 N 
ATOM     58  N   UNL A   1      41.578  29.164  31.480  1.00  0.00    -0.248 NA
ATOM     59  C   UNL A   1      41.568  30.490  29.562  1.00  0.00     0.031 C 
ATOM     60  C   UNL A   1      46.341  28.135  31.512  1.00  0.00     0.029 A 
ATOM     61  C   UNL A   1      45.275  29.011  31.299  1.00  0.00     0.049 A 
ATOM     62  H   UNL A   1      45.393  30.711  30.060  1.00  0.00     0.167 HD
ATOM     63  C   UNL A   1      42.867  29.643  31.285  1.00  0.00     0.074 A 
ATOM     64  C   UNL A   1      42.762  30.555  30.154  1.00  0.00     0.031 C 
ATOM     65  C   UNL A   1      43.944  29.046  31.873  1.00  0.00     0.037 A 
BRANCH  52  66
ATOM     66  C   UNL A   1      46.615  30.461  27.321  1.00  0.00     0.058 A 
ATOM     67  C   UNL A   1      47.882  31.061  27.213  1.00  0.00     0.135 A 
ATOM     68  C   UNL A   1      45.513  31.269  26.953  1.00  0.00     0.135 A 
ATOM     69  F   UNL A   1      48.988  30.388  27.566  1.00  0.00    -0.206 F 
ATOM     70  C   UNL A   1      48.039  32.389  26.813  1.00  0.00     0.059 A 
ATOM     71  C   UNL A   1      45.651  32.570  26.494  1.00  0.00     0.059 A 
ATOM     72  F   UNL A   1      44.247  30.865  27.122  1.00  0.00    -0.206 F 
ATOM     73  C   UNL A   1      46.914  33.137  26.472  1.00  0.00     0.060 A 
BRANCH  73  74
ATOM     74  S   UNL A   1      47.090  34.885  26.081  1.00  0.00     0.124 S 
ATOM     75  O   UNL A   1      47.095  35.475  27.416  1.00  0.00    -0.237 OA
ATOM     76  O   UNL A   1      48.359  34.914  25.363  1.00  0.00    -0.237 OA
ATOM     77  O   UNL A   1      45.910  35.165  25.269  1.00  0.00    -0.744 OA
ENDBRANCH  73  74
ENDBRANCH  52  66
BRANCH  53  78
ATOM     78  C   UNL A   1      38.532  29.189  29.387  1.00  0.00     0.058 A 
ATOM     79  C   UNL A   1      37.542  29.476  30.339  1.00  0.00     0.135 A 
ATOM     80  C   UNL A   1      38.291  29.657  28.077  1.00  0.00     0.135 A 
ATOM     81  F   UNL A   1      37.709  29.103  31.617  1.00  0.00    -0.206 F 
ATOM     82  C   UNL A   1      36.389  30.199  30.016  1.00  0.00     0.059 A 
ATOM     83  C   UNL A   1      37.143  30.362  27.726  1.00  0.00     0.059 A 
ATOM     84  F   UNL A   1      39.210  29.516  27.110  1.00  0.00    -0.206 F 
ATOM     85  C   UNL A   1      36.203  30.646  28.707  1.00  0.00     0.060 A 
BRANCH  85  86
ATOM     86  S   UNL A   1      34.778  31.685  28.313  1.00  0.00     0.124 S 
ATOM     87  O   UNL A   1      35.372  32.693  27.442  1.00  0.00    -0.237 OA
ATOM     88  O   UNL A   1      33.877  30.736  27.669  1.00  0.00    -0.237 OA
ATOM     89  O   UNL A   1      34.340  32.170  29.620  1.00  0.00    -0.744 OA
ENDBRANCH  85  86
ENDBRANCH  53  78
BRANCH  65  90
ATOM     90  C   UNL A   1      43.699  28.137  33.050  1.00  0.00     0.058 A 
ATOM     91  C   UNL A   1      43.478  28.592  34.360  1.00  0.00     0.135 A 
ATOM     92  C   UNL A   1      43.501  26.769  32.800  1.00  0.00     0.135 A 
ATOM     93  F   UNL A   1      43.552  29.897  34.658  1.00  0.00    -0.206 F 
ATOM     94  C   UNL A   1      43.098  27.719  35.383  1.00  0.00     0.059 A 
ATOM     95  C   UNL A   1      43.095  25.887  33.799  1.00  0.00     0.059 A 
ATOM     96  F   UNL A   1      43.640  26.287  31.554  1.00  0.00    -0.206 F 
ATOM     97  C   UNL A   1      42.900  26.370  35.091  1.00  0.00     0.060 A 
BRANCH  97  98
ATOM     98  S   UNL A   1      42.280  25.269  36.383  1.00  0.00     0.124 S 
ATOM     99  O   UNL A   1      42.051  24.030  35.648  1.00  0.00    -0.237 OA
ATOM    100  O   UNL A   1      43.384  25.245  37.339  1.00  0.00    -0.237 OA
ATOM    101  O   UNL A   1      41.076  25.947  36.858  1.00  0.00    -0.744 OA
ENDBRANCH  97  98
ENDBRANCH  65  90
ENDBRANCH  39  40
ENDBRANCH  32  34
ENDBRANCH  31  32
ENDBRANCH  30  31
ENDBRANCH  29  30
ENDBRANCH  28  29
ENDBRANCH   1  28
TORSDOF 23
ENDMDL
MODEL 2
REMARK VINA RESULT:     -10.6      2.545      3.878
REMARK SMILES Cc1nn([C@H]2CCS(=O)(=O)C2)c(C)c1[C@@H]([NH3+])C(=O)OCCOCCOCCOC(=O)c1ccc(-c2c3nc(c(-c4c(F)cc(S(=O)(=O)[O-])cc4F)c4ccc([nH]4)c(-c4c(F)cc(S(=O)(=O)[O-])cc4F)c4nc(c(-c5c(F)cc(S(=O)(=O)[O-])cc5F)c5ccc2[nH]5)C=C4)C=C3)cc1
REMARK SMILES IDX 24 1 23 2 22 3 21 4 20 5 19 6 17 7 18 8 15 9 14 10 1 11 2 12
REMARK SMILES IDX 3 13 4 14 12 15 13 16 5 17 6 18 11 19 7 20 8 21 9 22 10 23
REMARK SMILES IDX 16 24 25 28 26 29 27 30 28 31 29 32 30 33 31 34 32 35 96 36
REMARK SMILES IDX 33 37 95 38 34 39 35 40 36 41 89 42 37 43 94 44 88 45 90 46
REMARK SMILES IDX 38 47 93 48 87 49 86 50 39 52 73 53 52 54 72 55 53 56 56 57
REMARK SMILES IDX 71 58 91 59 54 60 55 61 70 63 92 64 57 65 40 66 41 67 50 68
REMARK SMILES IDX 42 69 43 70 49 71 51 72 44 73 45 74 46 75 47 76 48 77 74 78
REMARK SMILES IDX 75 79 84 80 76 81 77 82 83 83 85 84 78 85 79 86 80 87 81 88
REMARK SMILES IDX 82 89 58 90 59 91 68 92 60 93 61 94 67 95 69 96 62 97 63 98
REMARK SMILES IDX 64 99 65 100 66 101
REMARK H PARENT 16 25 16 26 16 27 90 51 56 62
REMARK Flexibility Score: inf
ROOT
ATOM      1  C   UNL A   1      41.681  19.466  26.294  1.00  0.00     0.188 C 
ENDROOT
BRANCH   1   2
ATOM      2  C   UNL A   1      40.379  20.287  26.185  1.00  0.00     0.188 C 
BRANCH   2   3
ATOM      3  O   UNL A   1      40.461  21.703  26.070  1.00  0.00    -0.376 OA
BRANCH   3   4
ATOM      4  C   UNL A   1      39.293  22.472  26.354  1.00  0.00     0.202 C 
BRANCH   4   5
ATOM      5  C   UNL A   1      37.981  22.092  25.641  1.00  0.00     0.261 C 
BRANCH   5   6
ATOM      6  O   UNL A   1      37.114  23.215  25.379  1.00  0.00    -0.459 OA
BRANCH   6   7
ATOM      7  C   UNL A   1      36.153  23.048  24.435  1.00  0.00     0.369 C 
ATOM      8  O   UNL A   1      36.399  22.774  23.260  1.00  0.00    -0.245 OA
BRANCH   7   9
ATOM      9  C   UNL A   1      34.696  23.097  24.976  1.00  0.00     0.326 C 
BRANCH   9  10
ATOM     10  C   UNL A   1      33.881  21.830  25.002  1.00  0.00     0.065 A 
ATOM     11  C   UNL A   1      31.457  22.849  25.068  1.00  0.00     0.069 C 
ATOM     12  C   UNL A   1      32.457  21.749  25.046  1.00  0.00     0.069 A 
ATOM     13  N   UNL A   1      32.031  20.486  25.029  1.00  0.00    -0.177 NA
ATOM     14  N   UNL A   1      33.143  19.739  24.897  1.00  0.00    -0.265 N 
ATOM     15  C   UNL A   1      34.293  20.499  24.994  1.00  0.00     0.046 A 
ATOM     16  C   UNL A   1      35.682  19.978  25.026  1.00  0.00     0.067 C 
BRANCH  14  17
ATOM     17  C   UNL A   1      32.923  18.306  24.715  1.00  0.00     0.123 C 
ATOM     18  C   UNL A   1      33.485  17.788  23.368  1.00  0.00     0.044 C 
ATOM     19  C   UNL A   1      33.519  17.395  25.774  1.00  0.00     0.164 C 
ATOM     20  C   UNL A   1      33.450  16.265  23.374  1.00  0.00     0.139 C 
ATOM     21  S   UNL A   1      33.443  15.771  25.083  1.00  0.00     0.152 S 
ATOM     22  O   UNL A   1      32.144  15.213  25.403  1.00  0.00    -0.229 OA
ATOM     23  O   UNL A   1      34.675  15.084  25.404  1.00  0.00    -0.229 OA
ENDBRANCH  14  17
ENDBRANCH   9  10
BRANCH   9  24
ATOM     24  N   UNL A   1      34.705  23.633  26.353  1.00  0.00    -0.342 N 
ATOM     25  H   UNL A   1      35.666  23.692  26.689  1.00  0.00     0.345 HD
ATOM     26  H   UNL A   1      34.170  23.015  26.963  1.00  0.00     0.345 HD
ATOM     27  H   UNL A   1      34.285  24.562  26.358  1.00  0.00     0.345 HD
ENDBRANCH   9  24
ENDBRANCH   7   9
ENDBRANCH   6   7
ENDBRANCH   5   6
ENDBRANCH   4   5
ENDBRANCH   3   4
ENDBRANCH   2   3
ENDBRANCH   1   2
BRANCH   1  28
ATOM     28  O   UNL A   1      42.552  19.555  25.185  1.00  0.00    -0.376 OA
BRANCH  28  29
ATOM     29  C   UNL A   1      43.888  20.003  25.310  1.00  0.00     0.202 C 
BRANCH  29  30
ATOM     30  C   UNL A   1      44.331  21.398  24.886  1.00  0.00     0.261 C 
BRANCH  30  31
ATOM     31  O   UNL A   1      43.303  22.362  24.864  1.00  0.00    -0.460 OA
BRANCH  31  32
ATOM     32  C   UNL A   1      43.703  23.645  24.977  1.00  0.00     0.338 C 
ATOM     33  O   UNL A   1      44.640  24.172  24.409  1.00  0.00    -0.246 OA
BRANCH  32  34
ATOM     34  C   UNL A   1      42.780  24.301  25.916  1.00  0.00     0.060 A 
ATOM     35  C   UNL A   1      41.946  25.292  25.399  1.00  0.00     0.016 A 
ATOM     36  C   UNL A   1      42.947  24.109  27.299  1.00  0.00     0.016 A 
ATOM     37  C   UNL A   1      41.514  26.274  26.258  1.00  0.00     0.010 A 
ATOM     38  C   UNL A   1      42.529  25.096  28.154  1.00  0.00     0.010 A 
ATOM     39  C   UNL A   1      41.933  26.220  27.592  1.00  0.00    -0.014 A 
BRANCH  39  40
ATOM     40  C   UNL A   1      41.899  27.457  28.337  1.00  0.00     0.031 A 
ATOM     41  C   UNL A   1      43.115  28.278  28.254  1.00  0.00     0.074 A 
ATOM     42  C   UNL A   1      40.780  27.823  28.992  1.00  0.00     0.049 A 
ATOM     43  N   UNL A   1      43.918  28.614  29.205  1.00  0.00    -0.248 NA
ATOM     44  C   UNL A   1      43.547  28.692  26.910  1.00  0.00     0.031 C 
ATOM     45  C   UNL A   1      39.440  27.230  28.862  1.00  0.00     0.029 A 
ATOM     46  N   UNL A   1      40.574  28.879  29.822  1.00  0.00    -0.354 N 
ATOM     47  C   UNL A   1      44.835  29.474  28.617  1.00  0.00     0.074 A 
ATOM     48  C   UNL A   1      44.671  29.350  27.192  1.00  0.00     0.031 C 
ATOM     49  C   UNL A   1      38.534  28.068  29.409  1.00  0.00     0.029 A 
ATOM     50  C   UNL A   1      39.237  29.180  30.027  1.00  0.00     0.049 A 
ATOM     51  H   UNL A   1      41.308  29.385  30.241  1.00  0.00     0.167 HD
ATOM     52  C   UNL A   1      45.479  30.427  29.338  1.00  0.00     0.037 A 
ATOM     53  C   UNL A   1      38.742  30.316  30.570  1.00  0.00     0.037 A 
ATOM     54  C   UNL A   1      45.463  30.147  30.747  1.00  0.00     0.049 A 
ATOM     55  C   UNL A   1      39.834  30.965  31.340  1.00  0.00     0.074 A 
ATOM     56  C   UNL A   1      45.931  29.115  31.536  1.00  0.00     0.029 A 
ATOM     57  N   UNL A   1      44.593  30.865  31.530  1.00  0.00    -0.354 N 
ATOM     58  N   UNL A   1      40.372  30.474  32.423  1.00  0.00    -0.248 NA
ATOM     59  C   UNL A   1      40.610  32.010  30.684  1.00  0.00     0.031 C 
ATOM     60  C   UNL A   1      45.020  29.024  32.626  1.00  0.00     0.029 A 
ATOM     61  C   UNL A   1      44.048  30.010  32.456  1.00  0.00     0.049 A 
ATOM     62  H   UNL A   1      44.394  31.826  31.443  1.00  0.00     0.167 HD
ATOM     63  C   UNL A   1      41.707  30.854  32.368  1.00  0.00     0.074 A 
ATOM     64  C   UNL A   1      41.760  31.898  31.353  1.00  0.00     0.031 C 
ATOM     65  C   UNL A   1      42.685  30.098  32.946  1.00  0.00     0.037 A 
BRANCH  52  66
ATOM     66  C   UNL A   1      45.788  31.787  28.776  1.00  0.00     0.058 A 
ATOM     67  C   UNL A   1      44.737  32.637  28.388  1.00  0.00     0.135 A 
ATOM     68  C   UNL A   1      47.083  32.172  28.357  1.00  0.00     0.135 A 
ATOM     69  F   UNL A   1      43.468  32.343  28.710  1.00  0.00    -0.206 F 
ATOM     70  C   UNL A   1      44.954  33.765  27.597  1.00  0.00     0.059 A 
ATOM     71  C   UNL A   1      47.328  33.322  27.623  1.00  0.00     0.059 A 
ATOM     72  F   UNL A   1      48.155  31.393  28.554  1.00  0.00    -0.206 F 
ATOM     73  C   UNL A   1      46.252  34.087  27.208  1.00  0.00     0.060 A 
BRANCH  73  74
ATOM     74  S   UNL A   1      46.530  35.464  26.081  1.00  0.00     0.124 S 
ATOM     75  O   UNL A   1      46.606  34.770  24.800  1.00  0.00    -0.237 OA
ATOM     76  O   UNL A   1      45.343  36.283  26.297  1.00  0.00    -0.237 OA
ATOM     77  O   UNL A   1      47.781  36.042  26.564  1.00  0.00    -0.744 OA
ENDBRANCH  73  74
ENDBRANCH  52  66
BRANCH  53  78
ATOM     78  C   UNL A   1      37.498  31.017  30.164  1.00  0.00     0.058 A 
ATOM     79  C   UNL A   1      36.632  31.587  31.109  1.00  0.00     0.135 A 
ATOM     80  C   UNL A   1      37.250  31.346  28.813  1.00  0.00     0.135 A 
ATOM     81  F   UNL A   1      36.821  31.359  32.418  1.00  0.00    -0.206 F 
ATOM     82  C   UNL A   1      35.591  32.446  30.740  1.00  0.00     0.059 A 
ATOM     83  C   UNL A   1      36.209  32.182  28.419  1.00  0.00     0.059 A 
ATOM     84  F   UNL A   1      38.069  30.929  27.835  1.00  0.00    -0.206 F 
ATOM     85  C   UNL A   1      35.394  32.744  29.391  1.00  0.00     0.060 A 
BRANCH  85  86
ATOM     86  S   UNL A   1      34.132  33.949  28.920  1.00  0.00     0.124 S 
ATOM     87  O   UNL A   1      33.506  34.247  30.203  1.00  0.00    -0.237 OA
ATOM     88  O   UNL A   1      34.933  35.018  28.335  1.00  0.00    -0.237 OA
ATOM     89  O   UNL A   1      33.295  33.212  27.975  1.00  0.00    -0.744 OA
ENDBRANCH  85  86
ENDBRANCH  53  78
BRANCH  65  90
ATOM     90  C   UNL A   1      42.282  29.085  33.985  1.00  0.00     0.058 A 
ATOM     91  C   UNL A   1      41.838  27.787  33.686  1.00  0.00     0.135 A 
ATOM     92  C   UNL A   1      42.532  29.387  35.334  1.00  0.00     0.135 A 
ATOM     93  F   UNL A   1      41.670  27.393  32.417  1.00  0.00    -0.206 F 
ATOM     94  C   UNL A   1      41.630  26.836  34.689  1.00  0.00     0.059 A 
ATOM     95  C   UNL A   1      42.358  28.445  36.346  1.00  0.00     0.059 A 
ATOM     96  F   UNL A   1      43.015  30.594  35.675  1.00  0.00    -0.206 F 
ATOM     97  C   UNL A   1      41.902  27.172  36.015  1.00  0.00     0.060 A 
BRANCH  97  98
ATOM     98  S   UNL A   1      41.760  25.901  37.293  1.00  0.00     0.124 S 
ATOM     99  O   UNL A   1      42.063  24.683  36.549  1.00  0.00    -0.237 OA
ATOM    100  O   UNL A   1      42.766  26.315  38.268  1.00  0.00    -0.237 OA
ATOM    101  O   UNL A   1      40.378  26.029  37.748  1.00  0.00    -0.744 OA
ENDBRANCH  97  98
ENDBRANCH  65  90
ENDBRANCH  39  40
ENDBRANCH  32  34
ENDBRANCH  31  32
ENDBRANCH  30  31
ENDBRANCH  29  30
ENDBRANCH  28  29
ENDBRANCH   1  28
TORSDOF 23
ENDMDL
MODEL 3
REMARK VINA RESULT:     -10.2      2.444      3.926
REMARK SMILES Cc1nn([C@H]2CCS(=O)(=O)C2)c(C)c1[C@@H]([NH3+])C(=O)OCCOCCOCCOC(=O)c1ccc(-c2c3nc(c(-c4c(F)cc(S(=O)(=O)[O-])cc4F)c4ccc([nH]4)c(-c4c(F)cc(S(=O)(=O)[O-])cc4F)c4nc(c(-c5c(F)cc(S(=O)(=O)[O-])cc5F)c5ccc2[nH]5)C=C4)C=C3)cc1
REMARK SMILES IDX 24 1 23 2 22 3 21 4 20 5 19 6 17 7 18 8 15 9 14 10 1 11 2 12
REMARK SMILES IDX 3 13 4 14 12 15 13 16 5 17 6 18 11 19 7 20 8 21 9 22 10 23
REMARK SMILES IDX 16 24 25 28 26 29 27 30 28 31 29 32 30 33 31 34 32 35 96 36
REMARK SMILES IDX 33 37 95 38 34 39 35 40 36 41 89 42 37 43 94 44 88 45 90 46
REMARK SMILES IDX 38 47 93 48 87 49 86 50 39 52 73 53 52 54 72 55 53 56 56 57
REMARK SMILES IDX 71 58 91 59 54 60 55 61 70 63 92 64 57 65 40 66 41 67 50 68
REMARK SMILES IDX 42 69 43 70 49 71 51 72 44 73 45 74 46 75 47 76 48 77 74 78
REMARK SMILES IDX 75 79 84 80 76 81 77 82 83 83 85 84 78 85 79 86 80 87 81 88
REMARK SMILES IDX 82 89 58 90 59 91 68 92 60 93 61 94 67 95 69 96 62 97 63 98
REMARK SMILES IDX 64 99 65 100 66 101
REMARK H PARENT 16 25 16 26 16 27 90 51 56 62
REMARK Flexibility Score: inf
ROOT
ATOM      1  C   UNL A   1      38.821  21.117  25.586  1.00  0.00     0.188 C 
ENDROOT
BRANCH   1   2
ATOM      2  C   UNL A   1      38.046  22.449  25.496  1.00  0.00     0.188 C 
BRANCH   2   3
ATOM      3  O   UNL A   1      36.645  22.419  25.246  1.00  0.00    -0.376 OA
BRANCH   3   4
ATOM      4  C   UNL A   1      36.157  23.057  24.067  1.00  0.00     0.202 C 
BRANCH   4   5
ATOM      5  C   UNL A   1      35.154  24.215  24.229  1.00  0.00     0.261 C 
BRANCH   5   6
ATOM      6  O   UNL A   1      34.580  24.309  25.550  1.00  0.00    -0.459 OA
BRANCH   6   7
ATOM      7  C   UNL A   1      33.242  24.526  25.630  1.00  0.00     0.369 C 
ATOM      8  O   UNL A   1      32.751  25.552  26.100  1.00  0.00    -0.245 OA
BRANCH   7   9
ATOM      9  C   UNL A   1      32.365  23.432  24.958  1.00  0.00     0.326 C 
BRANCH   9  10
ATOM     10  C   UNL A   1      32.687  21.981  25.203  1.00  0.00     0.065 A 
ATOM     11  C   UNL A   1      33.511  22.112  27.697  1.00  0.00     0.069 C 
ATOM     12  C   UNL A   1      33.193  21.426  26.416  1.00  0.00     0.069 A 
ATOM     13  N   UNL A   1      33.348  20.105  26.333  1.00  0.00    -0.177 NA
ATOM     14  N   UNL A   1      32.880  19.771  25.116  1.00  0.00    -0.265 N 
ATOM     15  C   UNL A   1      32.579  20.882  24.353  1.00  0.00     0.046 A 
ATOM     16  C   UNL A   1      32.170  20.875  22.926  1.00  0.00     0.067 C 
BRANCH  14  17
ATOM     17  C   UNL A   1      32.816  18.338  24.836  1.00  0.00     0.123 C 
ATOM     18  C   UNL A   1      33.466  17.972  23.479  1.00  0.00     0.044 C 
ATOM     19  C   UNL A   1      33.476  17.424  25.854  1.00  0.00     0.164 C 
ATOM     20  C   UNL A   1      33.591  16.456  23.386  1.00  0.00     0.139 C 
ATOM     21  S   UNL A   1      33.590  15.851  25.058  1.00  0.00     0.152 S 
ATOM     22  O   UNL A   1      32.348  15.142  25.298  1.00  0.00    -0.229 OA
ATOM     23  O   UNL A   1      34.878  15.275  25.376  1.00  0.00    -0.229 OA
ENDBRANCH  14  17
ENDBRANCH   9  10
BRANCH   9  24
ATOM     24  N   UNL A   1      30.953  23.632  25.343  1.00  0.00    -0.342 N 
ATOM     25  H   UNL A   1      30.513  22.726  25.504  1.00  0.00     0.345 HD
ATOM     26  H   UNL A   1      30.462  24.119  24.594  1.00  0.00     0.345 HD
ATOM     27  H   UNL A   1      30.910  24.188  26.196  1.00  0.00     0.345 HD
ENDBRANCH   9  24
ENDBRANCH   7   9
ENDBRANCH   6   7
ENDBRANCH   5   6
ENDBRANCH   4   5
ENDBRANCH   3   4
ENDBRANCH   2   3
ENDBRANCH   1   2
BRANCH   1  28
ATOM     28  O   UNL A   1      39.964  21.133  26.416  1.00  0.00    -0.376 OA
BRANCH  28  29
ATOM     29  C   UNL A   1      40.607  19.945  26.836  1.00  0.00     0.202 C 
BRANCH  29  30
ATOM     30  C   UNL A   1      42.084  19.675  26.583  1.00  0.00     0.261 C 
BRANCH  30  31
ATOM     31  O   UNL A   1      42.590  20.230  25.390  1.00  0.00    -0.460 OA
BRANCH  31  32
ATOM     32  C   UNL A   1      43.934  20.246  25.277  1.00  0.00     0.338 C 
ATOM     33  O   UNL A   1      44.678  19.285  25.253  1.00  0.00    -0.246 OA
BRANCH  32  34
ATOM     34  C   UNL A   1      44.338  21.657  25.173  1.00  0.00     0.060 A 
ATOM     35  C   UNL A   1      45.464  22.051  25.895  1.00  0.00     0.016 A 
ATOM     36  C   UNL A   1      43.458  22.588  24.591  1.00  0.00     0.016 A 
ATOM     37  C   UNL A   1      45.546  23.367  26.283  1.00  0.00     0.010 A 
ATOM     38  C   UNL A   1      43.531  23.898  24.990  1.00  0.00     0.010 A 
ATOM     39  C   UNL A   1      44.501  24.228  25.931  1.00  0.00    -0.014 A 
BRANCH  39  40
ATOM     40  C   UNL A   1      44.346  25.424  26.726  1.00  0.00     0.031 A 
ATOM     41  C   UNL A   1      45.414  26.423  26.580  1.00  0.00     0.074 A 
ATOM     42  C   UNL A   1      43.244  25.596  27.482  1.00  0.00     0.049 A 
ATOM     43  N   UNL A   1      46.236  26.850  27.478  1.00  0.00    -0.248 NA
ATOM     44  C   UNL A   1      45.665  26.935  25.225  1.00  0.00     0.031 C 
ATOM     45  C   UNL A   1      42.002  24.811  27.436  1.00  0.00     0.029 A 
ATOM     46  N   UNL A   1      42.954  26.585  28.368  1.00  0.00    -0.354 N 
ATOM     47  C   UNL A   1      46.961  27.855  26.854  1.00  0.00     0.074 A 
ATOM     48  C   UNL A   1      46.697  27.748  25.442  1.00  0.00     0.031 C 
ATOM     49  C   UNL A   1      41.030  25.484  28.086  1.00  0.00     0.029 A 
ATOM     50  C   UNL A   1      41.609  26.672  28.690  1.00  0.00     0.049 A 
ATOM     51  H   UNL A   1      43.637  27.184  28.748  1.00  0.00     0.167 HD
ATOM     52  C   UNL A   1      47.514  28.875  27.560  1.00  0.00     0.037 A 
ATOM     53  C   UNL A   1      40.997  27.705  29.318  1.00  0.00     0.037 A 
ATOM     54  C   UNL A   1      47.659  28.557  28.954  1.00  0.00     0.049 A 
ATOM     55  C   UNL A   1      42.041  28.491  30.023  1.00  0.00     0.074 A 
ATOM     56  C   UNL A   1      48.341  27.586  29.660  1.00  0.00     0.029 A 
ATOM     57  N   UNL A   1      46.761  29.111  29.832  1.00  0.00    -0.354 N 
ATOM     58  N   UNL A   1      42.737  28.057  31.040  1.00  0.00    -0.248 NA
ATOM     59  C   UNL A   1      42.594  29.659  29.352  1.00  0.00     0.031 C 
ATOM     60  C   UNL A   1      47.549  27.326  30.814  1.00  0.00     0.029 A 
ATOM     61  C   UNL A   1      46.429  28.158  30.762  1.00  0.00     0.049 A 
ATOM     62  H   UNL A   1      46.414  30.033  29.800  1.00  0.00     0.167 HD
ATOM     63  C   UNL A   1      43.990  28.637  30.895  1.00  0.00     0.074 A 
ATOM     64  C   UNL A   1      43.800  29.705  29.922  1.00  0.00     0.031 C 
ATOM     65  C   UNL A   1      45.116  28.023  31.361  1.00  0.00     0.037 A 
BRANCH  52  66
ATOM     66  C   UNL A   1      47.567  30.281  27.030  1.00  0.00     0.058 A 
ATOM     67  C   UNL A   1      48.777  30.995  27.064  1.00  0.00     0.135 A 
ATOM     68  C   UNL A   1      46.408  31.040  26.741  1.00  0.00     0.135 A 
ATOM     69  F   UNL A   1      49.928  30.371  27.359  1.00  0.00    -0.206 F 
ATOM     70  C   UNL A   1      48.826  32.376  26.873  1.00  0.00     0.059 A 
ATOM     71  C   UNL A   1      46.442  32.402  26.487  1.00  0.00     0.059 A 
ATOM     72  F   UNL A   1      45.178  30.511  26.796  1.00  0.00    -0.206 F 
ATOM     73  C   UNL A   1      47.649  33.070  26.601  1.00  0.00     0.060 A 
BRANCH  73  74
ATOM     74  S   UNL A   1      47.680  34.866  26.482  1.00  0.00     0.124 S 
ATOM     75  O   UNL A   1      48.861  35.074  25.650  1.00  0.00    -0.237 OA
ATOM     76  O   UNL A   1      46.396  35.155  25.855  1.00  0.00    -0.237 OA
ATOM     77  O   UNL A   1      47.802  35.290  27.873  1.00  0.00    -0.744 OA
ENDBRANCH  73  74
ENDBRANCH  52  66
BRANCH  53  78
ATOM     78  C   UNL A   1      39.633  28.219  29.040  1.00  0.00     0.058 A 
ATOM     79  C   UNL A   1      38.660  28.306  30.047  1.00  0.00     0.135 A 
ATOM     80  C   UNL A   1      39.325  28.857  27.818  1.00  0.00     0.135 A 
ATOM     81  F   UNL A   1      38.889  27.763  31.252  1.00  0.00    -0.206 F 
ATOM     82  C   UNL A   1      37.460  29.000  29.862  1.00  0.00     0.059 A 
ATOM     83  C   UNL A   1      38.129  29.537  27.603  1.00  0.00     0.059 A 
ATOM     84  F   UNL A   1      40.218  28.912  26.819  1.00  0.00    -0.206 F 
ATOM     85  C   UNL A   1      37.208  29.620  28.637  1.00  0.00     0.060 A 
BRANCH  85  86
ATOM     86  S   UNL A   1      35.716  30.621  28.435  1.00  0.00     0.124 S 
ATOM     87  O   UNL A   1      34.831  29.703  27.728  1.00  0.00    -0.237 OA
ATOM     88  O   UNL A   1      35.357  30.917  29.818  1.00  0.00    -0.237 OA
ATOM     89  O   UNL A   1      36.179  31.766  27.655  1.00  0.00    -0.744 OA
ENDBRANCH  85  86
ENDBRANCH  53  78
BRANCH  65  90
ATOM     90  C   UNL A   1      44.958  26.932  32.388  1.00  0.00     0.058 A 
ATOM     91  C   UNL A   1      44.812  27.164  33.765  1.00  0.00     0.135 A 
ATOM     92  C   UNL A   1      44.766  25.617  31.932  1.00  0.00     0.135 A 
ATOM     93  F   UNL A   1      44.884  28.405  34.265  1.00  0.00    -0.206 F 
ATOM     94  C   UNL A   1      44.508  26.129  34.653  1.00  0.00     0.059 A 
ATOM     95  C   UNL A   1      44.435  24.576  32.796  1.00  0.00     0.059 A 
ATOM     96  F   UNL A   1      44.834  25.345  30.617  1.00  0.00    -0.206 F 
ATOM     97  C   UNL A   1      44.313  24.839  34.158  1.00  0.00     0.060 A 
BRANCH  97  98
ATOM     98  S   UNL A   1      43.791  23.530  35.289  1.00  0.00     0.124 S 
ATOM     99  O   UNL A   1      44.531  23.861  36.503  1.00  0.00    -0.237 OA
ATOM    100  O   UNL A   1      42.344  23.724  35.356  1.00  0.00    -0.237 OA
ATOM    101  O   UNL A   1      44.213  22.307  34.612  1.00  0.00    -0.744 OA
ENDBRANCH  97  98
ENDBRANCH  65  90
ENDBRANCH  39  40
ENDBRANCH  32  34
ENDBRANCH  31  32
ENDBRANCH  30  31
ENDBRANCH  29  30
ENDBRANCH  28  29
ENDBRANCH   1  28
TORSDOF 23
ENDMDL
