MODEL 1
REMARK VINA RESULT:     -10.8      0.000      0.000
REMARK SMILES CCc1ccnc(C(=O)c2[nH]c3ccc(OC(F)(F)F)cc3c2CC(=O)OCCOCCOCCOC(=O)c2ccc(-c3c4nc(c(-c5c(F)cc(S(=O)(=O)[O-])cc5F)c5ccc([nH]5)c(-c5c(F)cc(S(=O)(=O)[O-])cc5F)c5nc(c(-c6c(F)cc(S(=O)(=O)[O-])cc6F)c6ccc3[nH]6)C=C5)C=C4)cc2)c1
REMARK SMILES IDX 31 1 30 2 29 3 28 4 27 5 25 6 26 7 24 8 23 9 10 10 11 11
REMARK SMILES IDX 12 12 22 14 13 15 21 16 14 17 15 18 8 19 9 20 7 21 3 22 4 23
REMARK SMILES IDX 105 24 5 25 6 26 2 27 1 28 16 29 17 30 18 31 19 32 20 33
REMARK SMILES IDX 32 34 33 35 34 36 35 37 36 38 37 39 38 40 39 41 40 42 104 43
REMARK SMILES IDX 41 44 103 45 42 46 43 47 44 48 97 49 45 50 102 51 96 52
REMARK SMILES IDX 98 53 46 54 101 55 95 56 94 57 47 59 81 60 60 61 80 62 61 63
REMARK SMILES IDX 64 64 79 65 99 66 62 67 63 68 78 70 100 71 65 72 48 73 49 74
REMARK SMILES IDX 58 75 50 76 51 77 57 78 59 79 52 80 53 81 54 82 55 83 56 84
REMARK SMILES IDX 82 85 83 86 92 87 84 88 85 89 91 90 93 91 86 92 87 93 88 94
REMARK SMILES IDX 89 95 90 96 66 97 67 98 76 99 68 100 69 101 75 102 77 103
REMARK SMILES IDX 70 104 71 105 72 106 73 107 74 108
REMARK H PARENT 11 13 98 58 64 69
REMARK Flexibility Score: inf
ROOT
ATOM      1  C   UNL A   1      40.416  21.049  26.619  1.00  0.00     0.188 C 
ENDROOT
BRANCH   1   2
ATOM      2  O   UNL A   1      39.651  22.124  26.084  1.00  0.00    -0.376 OA
BRANCH   2   3
ATOM      3  C   UNL A   1      38.296  21.863  25.749  1.00  0.00     0.202 C 
BRANCH   3   4
ATOM      4  C   UNL A   1      37.463  23.091  25.383  1.00  0.00     0.261 C 
BRANCH   4   5
ATOM      5  O   UNL A   1      36.773  22.933  24.120  1.00  0.00    -0.463 OA
BRANCH   5   6
ATOM      6  C   UNL A   1      35.644  23.673  23.986  1.00  0.00     0.310 C 
ATOM      7  O   UNL A   1      34.981  23.703  22.949  1.00  0.00    -0.252 OA
BRANCH   6   8
ATOM      8  C   UNL A   1      35.198  24.459  25.203  1.00  0.00     0.161 C 
BRANCH   8   9
ATOM      9  C   UNL A   1      33.787  24.333  25.736  1.00  0.00     0.000 A 
ATOM     10  C   UNL A   1      33.145  23.173  26.189  1.00  0.00     0.093 A 
ATOM     11  N   UNL A   1      31.877  23.539  26.582  1.00  0.00    -0.352 N 
ATOM     12  C   UNL A   1      31.571  24.783  26.090  1.00  0.00     0.046 A 
ATOM     13  H   UNL A   1      31.277  22.989  27.136  1.00  0.00     0.167 HD
ATOM     14  C   UNL A   1      32.751  25.316  25.579  1.00  0.00     0.008 A 
ATOM     15  C   UNL A   1      30.345  25.450  26.035  1.00  0.00     0.030 A 
ATOM     16  C   UNL A   1      32.692  26.580  24.960  1.00  0.00     0.057 A 
ATOM     17  C   UNL A   1      30.305  26.674  25.359  1.00  0.00     0.049 A 
ATOM     18  C   UNL A   1      31.457  27.227  24.803  1.00  0.00     0.130 A 
BRANCH  10  19
ATOM     19  C   UNL A   1      33.663  21.818  26.264  1.00  0.00     0.227 C 
ATOM     20  O   UNL A   1      34.396  21.443  27.177  1.00  0.00    -0.285 OA
BRANCH  19  21
ATOM     21  C   UNL A   1      33.313  20.835  25.194  1.00  0.00     0.113 A 
ATOM     22  C   UNL A   1      33.055  18.602  24.383  1.00  0.00    -0.044 A 
ATOM     23  C   UNL A   1      32.298  19.120  23.328  1.00  0.00     0.024 A 
ATOM     24  C   UNL A   1      33.558  19.478  25.353  1.00  0.00     0.036 A 
ATOM     25  C   UNL A   1      32.155  20.490  23.230  1.00  0.00     0.112 A 
ATOM     26  N   UNL A   1      32.682  21.358  24.118  1.00  0.00    -0.253 NA
BRANCH  22  27
ATOM     27  C   UNL A   1      33.361  17.127  24.420  1.00  0.00     0.032 C 
ATOM     28  C   UNL A   1      34.066  16.715  23.134  1.00  0.00     0.009 C 
ENDBRANCH  22  27
ENDBRANCH  19  21
ENDBRANCH  10  19
BRANCH  18  29
ATOM     29  O   UNL A   1      31.521  28.379  24.068  1.00  0.00    -0.406 OA
BRANCH  29  30
ATOM     30  C   UNL A   1      30.812  28.408  22.843  1.00  0.00     0.573 C 
ATOM     31  F   UNL A   1      29.487  28.598  23.031  1.00  0.00    -0.132 F 
ATOM     32  F   UNL A   1      31.293  29.376  22.033  1.00  0.00    -0.132 F 
ATOM     33  F   UNL A   1      30.978  27.221  22.218  1.00  0.00    -0.132 F 
ENDBRANCH  29  30
ENDBRANCH  18  29
ENDBRANCH   8   9
ENDBRANCH   6   8
ENDBRANCH   5   6
ENDBRANCH   4   5
ENDBRANCH   3   4
ENDBRANCH   2   3
ENDBRANCH   1   2
BRANCH   1  34
ATOM     34  C   UNL A   1      41.906  20.945  26.228  1.00  0.00     0.188 C 
BRANCH  34  35
ATOM     35  O   UNL A   1      42.487  21.990  25.455  1.00  0.00    -0.376 OA
BRANCH  35  36
ATOM     36  C   UNL A   1      43.688  22.566  25.955  1.00  0.00     0.202 C 
BRANCH  36  37
ATOM     37  C   UNL A   1      43.465  23.669  26.984  1.00  0.00     0.261 C 
BRANCH  37  38
ATOM     38  O   UNL A   1      42.198  24.313  26.763  1.00  0.00    -0.460 OA
BRANCH  38  39
ATOM     39  C   UNL A   1      42.300  25.571  26.279  1.00  0.00     0.338 C 
ATOM     40  O   UNL A   1      42.848  25.905  25.241  1.00  0.00    -0.246 OA
BRANCH  39  41
ATOM     41  C   UNL A   1      41.656  26.550  27.178  1.00  0.00     0.060 A 
ATOM     42  C   UNL A   1      42.224  27.802  27.390  1.00  0.00     0.016 A 
ATOM     43  C   UNL A   1      40.629  26.110  28.010  1.00  0.00     0.016 A 
ATOM     44  C   UNL A   1      41.896  28.537  28.532  1.00  0.00     0.010 A 
ATOM     45  C   UNL A   1      40.226  26.899  29.092  1.00  0.00     0.010 A 
ATOM     46  C   UNL A   1      40.906  28.087  29.413  1.00  0.00    -0.014 A 
BRANCH  46  47
ATOM     47  C   UNL A   1      40.634  28.784  30.704  1.00  0.00     0.031 A 
ATOM     48  C   UNL A   1      39.547  29.833  30.781  1.00  0.00     0.074 A 
ATOM     49  C   UNL A   1      41.336  28.488  31.815  1.00  0.00     0.049 A 
ATOM     50  N   UNL A   1      39.298  30.708  31.722  1.00  0.00    -0.248 NA
ATOM     51  C   UNL A   1      38.612  29.903  29.646  1.00  0.00     0.031 C 
ATOM     52  C   UNL A   1      42.336  27.426  31.933  1.00  0.00     0.029 A 
ATOM     53  N   UNL A   1      41.320  29.064  33.064  1.00  0.00    -0.354 N 
ATOM     54  C   UNL A   1      38.212  31.456  31.276  1.00  0.00     0.074 A 
ATOM     55  C   UNL A   1      37.848  30.935  29.977  1.00  0.00     0.031 C 
ATOM     56  C   UNL A   1      42.829  27.419  33.179  1.00  0.00     0.029 A 
ATOM     57  C   UNL A   1      42.264  28.543  33.917  1.00  0.00     0.049 A 
ATOM     58  H   UNL A   1      40.695  29.780  33.321  1.00  0.00     0.167 HD
ATOM     59  C   UNL A   1      37.585  32.492  31.888  1.00  0.00     0.037 A 
ATOM     60  C   UNL A   1      42.689  28.960  35.125  1.00  0.00     0.037 A 
ATOM     61  C   UNL A   1      37.960  33.009  33.180  1.00  0.00     0.049 A 
ATOM     62  C   UNL A   1      42.083  30.197  35.726  1.00  0.00     0.074 A 
ATOM     63  C   UNL A   1      37.419  34.079  33.872  1.00  0.00     0.029 A 
ATOM     64  N   UNL A   1      38.978  32.496  33.973  1.00  0.00    -0.354 N 
ATOM     65  N   UNL A   1      41.112  30.947  35.263  1.00  0.00    -0.248 NA
ATOM     66  C   UNL A   1      42.650  30.662  36.999  1.00  0.00     0.031 C 
ATOM     67  C   UNL A   1      38.148  34.249  35.055  1.00  0.00     0.029 A 
ATOM     68  C   UNL A   1      39.104  33.249  35.129  1.00  0.00     0.049 A 
ATOM     69  H   UNL A   1      39.529  31.713  33.746  1.00  0.00     0.167 HD
ATOM     70  C   UNL A   1      40.941  31.965  36.195  1.00  0.00     0.074 A 
ATOM     71  C   UNL A   1      41.901  31.726  37.253  1.00  0.00     0.031 C 
ATOM     72  C   UNL A   1      40.068  33.002  36.174  1.00  0.00     0.037 A 
BRANCH  59  73
ATOM     73  C   UNL A   1      36.476  33.177  31.136  1.00  0.00     0.058 A 
ATOM     74  C   UNL A   1      36.718  33.981  30.010  1.00  0.00     0.135 A 
ATOM     75  C   UNL A   1      35.141  33.018  31.548  1.00  0.00     0.135 A 
ATOM     76  F   UNL A   1      37.974  34.186  29.583  1.00  0.00    -0.206 F 
ATOM     77  C   UNL A   1      35.681  34.629  29.342  1.00  0.00     0.059 A 
ATOM     78  C   UNL A   1      34.088  33.636  30.880  1.00  0.00     0.059 A 
ATOM     79  F   UNL A   1      34.850  32.261  32.618  1.00  0.00    -0.206 F 
ATOM     80  C   UNL A   1      34.369  34.455  29.789  1.00  0.00     0.060 A 
BRANCH  80  81
ATOM     81  S   UNL A   1      33.041  35.332  28.936  1.00  0.00     0.124 S 
ATOM     82  O   UNL A   1      32.155  35.666  30.047  1.00  0.00    -0.237 OA
ATOM     83  O   UNL A   1      33.748  36.457  28.332  1.00  0.00    -0.237 OA
ATOM     84  O   UNL A   1      32.525  34.341  27.998  1.00  0.00    -0.744 OA
ENDBRANCH  80  81
ENDBRANCH  59  73
BRANCH  60  85
ATOM     85  C   UNL A   1      43.797  28.235  35.804  1.00  0.00     0.058 A 
ATOM     86  C   UNL A   1      45.133  28.617  35.622  1.00  0.00     0.135 A 
ATOM     87  C   UNL A   1      43.535  27.172  36.685  1.00  0.00     0.135 A 
ATOM     88  F   UNL A   1      45.436  29.614  34.777  1.00  0.00    -0.206 F 
ATOM     89  C   UNL A   1      46.170  27.979  36.296  1.00  0.00     0.059 A 
ATOM     90  C   UNL A   1      44.550  26.539  37.393  1.00  0.00     0.059 A 
ATOM     91  F   UNL A   1      42.273  26.768  36.897  1.00  0.00    -0.206 F 
ATOM     92  C   UNL A   1      45.867  26.947  37.188  1.00  0.00     0.060 A 
BRANCH  92  93
ATOM     93  S   UNL A   1      47.212  26.179  38.117  1.00  0.00     0.124 S 
ATOM     94  O   UNL A   1      47.698  25.187  37.164  1.00  0.00    -0.237 OA
ATOM     95  O   UNL A   1      48.098  27.311  38.368  1.00  0.00    -0.237 OA
ATOM     96  O   UNL A   1      46.540  25.644  39.297  1.00  0.00    -0.744 OA
ENDBRANCH  92  93
ENDBRANCH  60  85
BRANCH  72  97
ATOM     97  C   UNL A   1      40.088  33.942  37.347  1.00  0.00     0.058 A 
ATOM     98  C   UNL A   1      39.280  33.733  38.475  1.00  0.00     0.135 A 
ATOM     99  C   UNL A   1      40.956  35.046  37.355  1.00  0.00     0.135 A 
ATOM    100  F   UNL A   1      38.427  32.697  38.513  1.00  0.00    -0.206 F 
ATOM    101  C   UNL A   1      39.316  34.599  39.564  1.00  0.00     0.059 A 
ATOM    102  C   UNL A   1      41.027  35.909  38.443  1.00  0.00     0.059 A 
ATOM    103  F   UNL A   1      41.756  35.286  36.304  1.00  0.00    -0.206 F 
ATOM    104  C   UNL A   1      40.194  35.685  39.538  1.00  0.00     0.060 A 
BRANCH 104 105
ATOM    105  S   UNL A   1      40.253  36.786  40.968  1.00  0.00     0.124 S 
ATOM    106  O   UNL A   1      39.004  37.524  40.823  1.00  0.00    -0.237 OA
ATOM    107  O   UNL A   1      40.309  35.845  42.084  1.00  0.00    -0.237 OA
ATOM    108  O   UNL A   1      41.471  37.561  40.749  1.00  0.00    -0.744 OA
ENDBRANCH 104 105
ENDBRANCH  72  97
ENDBRANCH  46  47
ENDBRANCH  39  41
ENDBRANCH  38  39
ENDBRANCH  37  38
ENDBRANCH  36  37
ENDBRANCH  35  36
ENDBRANCH  34  35
ENDBRANCH   1  34
TORSDOF 26
ENDMDL
MODEL 2
REMARK VINA RESULT:     -10.7      2.243      4.286
REMARK SMILES CCc1ccnc(C(=O)c2[nH]c3ccc(OC(F)(F)F)cc3c2CC(=O)OCCOCCOCCOC(=O)c2ccc(-c3c4nc(c(-c5c(F)cc(S(=O)(=O)[O-])cc5F)c5ccc([nH]5)c(-c5c(F)cc(S(=O)(=O)[O-])cc5F)c5nc(c(-c6c(F)cc(S(=O)(=O)[O-])cc6F)c6ccc3[nH]6)C=C5)C=C4)cc2)c1
REMARK SMILES IDX 31 1 30 2 29 3 28 4 27 5 25 6 26 7 24 8 23 9 10 10 11 11
REMARK SMILES IDX 12 12 22 14 13 15 21 16 14 17 15 18 8 19 9 20 7 21 3 22 4 23
REMARK SMILES IDX 105 24 5 25 6 26 2 27 1 28 16 29 17 30 18 31 19 32 20 33
REMARK SMILES IDX 32 34 33 35 34 36 35 37 36 38 37 39 38 40 39 41 40 42 104 43
REMARK SMILES IDX 41 44 103 45 42 46 43 47 44 48 97 49 45 50 102 51 96 52
REMARK SMILES IDX 98 53 46 54 101 55 95 56 94 57 47 59 81 60 60 61 80 62 61 63
REMARK SMILES IDX 64 64 79 65 99 66 62 67 63 68 78 70 100 71 65 72 48 73 49 74
REMARK SMILES IDX 58 75 50 76 51 77 57 78 59 79 52 80 53 81 54 82 55 83 56 84
REMARK SMILES IDX 82 85 83 86 92 87 84 88 85 89 91 90 93 91 86 92 87 93 88 94
REMARK SMILES IDX 89 95 90 96 66 97 67 98 76 99 68 100 69 101 75 102 77 103
REMARK SMILES IDX 70 104 71 105 72 106 73 107 74 108
REMARK H PARENT 11 13 98 58 64 69
REMARK Flexibility Score: inf
ROOT
ATOM      1  C   UNL A   1      38.272  21.712  26.009  1.00  0.00     0.188 C 
ENDROOT
BRANCH   1   2
ATOM      2  O   UNL A   1      37.745  22.275  24.813  1.00  0.00    -0.376 OA
BRANCH   2   3
ATOM      3  C   UNL A   1      37.030  23.497  24.922  1.00  0.00     0.202 C 
BRANCH   3   4
ATOM      4  C   UNL A   1      36.003  23.558  26.052  1.00  0.00     0.261 C 
BRANCH   4   5
ATOM      5  O   UNL A   1      35.032  22.488  25.973  1.00  0.00    -0.463 OA
BRANCH   5   6
ATOM      6  C   UNL A   1      33.968  22.615  26.806  1.00  0.00     0.310 C 
ATOM      7  O   UNL A   1      34.062  22.530  28.031  1.00  0.00    -0.252 OA
BRANCH   6   8
ATOM      8  C   UNL A   1      32.629  22.905  26.158  1.00  0.00     0.161 C 
BRANCH   8   9
ATOM      9  C   UNL A   1      32.373  22.551  24.709  1.00  0.00     0.000 A 
ATOM     10  C   UNL A   1      31.703  23.318  23.748  1.00  0.00     0.093 A 
ATOM     11  N   UNL A   1      31.717  22.599  22.573  1.00  0.00    -0.352 N 
ATOM     12  C   UNL A   1      32.053  21.293  22.824  1.00  0.00     0.046 A 
ATOM     13  H   UNL A   1      31.516  22.968  21.683  1.00  0.00     0.167 HD
ATOM     14  C   UNL A   1      32.493  21.236  24.143  1.00  0.00     0.008 A 
ATOM     15  C   UNL A   1      31.970  20.170  21.998  1.00  0.00     0.030 A 
ATOM     16  C   UNL A   1      32.850  19.978  24.668  1.00  0.00     0.057 A 
ATOM     17  C   UNL A   1      32.271  18.926  22.564  1.00  0.00     0.049 A 
ATOM     18  C   UNL A   1      32.683  18.821  23.892  1.00  0.00     0.130 A 
BRANCH  10  19
ATOM     19  C   UNL A   1      31.095  24.630  23.893  1.00  0.00     0.227 C 
ATOM     20  O   UNL A   1      29.881  24.804  23.814  1.00  0.00    -0.285 OA
BRANCH  19  21
ATOM     21  C   UNL A   1      31.963  25.822  24.135  1.00  0.00     0.113 A 
ATOM     22  C   UNL A   1      33.059  27.375  25.583  1.00  0.00    -0.044 A 
ATOM     23  C   UNL A   1      33.852  27.760  24.498  1.00  0.00     0.024 A 
ATOM     24  C   UNL A   1      32.103  26.366  25.404  1.00  0.00     0.036 A 
ATOM     25  C   UNL A   1      33.598  27.195  23.264  1.00  0.00     0.112 A 
ATOM     26  N   UNL A   1      32.643  26.266  23.053  1.00  0.00    -0.253 NA
BRANCH  22  27
ATOM     27  C   UNL A   1      33.206  28.093  26.900  1.00  0.00     0.032 C 
ATOM     28  C   UNL A   1      31.897  28.786  27.258  1.00  0.00     0.009 C 
ENDBRANCH  22  27
ENDBRANCH  19  21
ENDBRANCH  10  19
BRANCH  18  29
ATOM     29  O   UNL A   1      32.938  17.657  24.564  1.00  0.00    -0.406 OA
BRANCH  29  30
ATOM     30  C   UNL A   1      34.136  16.974  24.248  1.00  0.00     0.573 C 
ATOM     31  F   UNL A   1      34.613  16.275  25.302  1.00  0.00    -0.132 F 
ATOM     32  F   UNL A   1      33.951  16.138  23.203  1.00  0.00    -0.132 F 
ATOM     33  F   UNL A   1      35.073  17.882  23.894  1.00  0.00    -0.132 F 
ENDBRANCH  29  30
ENDBRANCH  18  29
ENDBRANCH   8   9
ENDBRANCH   6   8
ENDBRANCH   5   6
ENDBRANCH   4   5
ENDBRANCH   3   4
ENDBRANCH   2   3
ENDBRANCH   1   2
BRANCH   1  34
ATOM     34  C   UNL A   1      39.798  21.498  26.108  1.00  0.00     0.188 C 
BRANCH  34  35
ATOM     35  O   UNL A   1      40.370  21.212  27.380  1.00  0.00    -0.376 OA
BRANCH  35  36
ATOM     36  C   UNL A   1      41.360  22.115  27.856  1.00  0.00     0.202 C 
BRANCH  36  37
ATOM     37  C   UNL A   1      41.946  23.018  26.777  1.00  0.00     0.261 C 
BRANCH  37  38
ATOM     38  O   UNL A   1      42.597  24.154  27.371  1.00  0.00    -0.460 OA
BRANCH  38  39
ATOM     39  C   UNL A   1      42.446  25.301  26.671  1.00  0.00     0.338 C 
ATOM     40  O   UNL A   1      42.760  25.484  25.506  1.00  0.00    -0.246 OA
BRANCH  39  41
ATOM     41  C   UNL A   1      41.844  26.364  27.499  1.00  0.00     0.060 A 
ATOM     42  C   UNL A   1      42.522  27.557  27.731  1.00  0.00     0.016 A 
ATOM     43  C   UNL A   1      40.717  26.055  28.258  1.00  0.00     0.016 A 
ATOM     44  C   UNL A   1      42.188  28.353  28.829  1.00  0.00     0.010 A 
ATOM     45  C   UNL A   1      40.318  26.911  29.290  1.00  0.00     0.010 A 
ATOM     46  C   UNL A   1      41.094  28.031  29.640  1.00  0.00    -0.014 A 
BRANCH  46  47
ATOM     47  C   UNL A   1      40.800  28.787  30.893  1.00  0.00     0.031 A 
ATOM     48  C   UNL A   1      39.715  29.840  30.902  1.00  0.00     0.074 A 
ATOM     49  C   UNL A   1      41.480  28.539  32.029  1.00  0.00     0.049 A 
ATOM     50  N   UNL A   1      39.452  30.758  31.797  1.00  0.00    -0.248 NA
ATOM     51  C   UNL A   1      38.802  29.861  29.747  1.00  0.00     0.031 C 
ATOM     52  C   UNL A   1      42.475  27.481  32.213  1.00  0.00     0.029 A 
ATOM     53  N   UNL A   1      41.444  29.172  33.250  1.00  0.00    -0.354 N 
ATOM     54  C   UNL A   1      38.377  31.488  31.298  1.00  0.00     0.074 A 
ATOM     55  C   UNL A   1      38.035  30.908  30.017  1.00  0.00     0.031 C 
ATOM     56  C   UNL A   1      42.945  27.530  33.467  1.00  0.00     0.029 A 
ATOM     57  C   UNL A   1      42.371  28.688  34.143  1.00  0.00     0.049 A 
ATOM     58  H   UNL A   1      40.817  29.900  33.463  1.00  0.00     0.167 HD
ATOM     59  C   UNL A   1      37.742  32.551  31.851  1.00  0.00     0.037 A 
ATOM     60  C   UNL A   1      42.774  29.158  35.339  1.00  0.00     0.037 A 
ATOM     61  C   UNL A   1      38.096  33.126  33.125  1.00  0.00     0.049 A 
ATOM     62  C   UNL A   1      42.162  30.423  35.871  1.00  0.00     0.074 A 
ATOM     63  C   UNL A   1      37.545  34.228  33.757  1.00  0.00     0.029 A 
ATOM     64  N   UNL A   1      39.097  32.647  33.958  1.00  0.00    -0.354 N 
ATOM     65  N   UNL A   1      41.202  31.154  35.357  1.00  0.00    -0.248 NA
ATOM     66  C   UNL A   1      42.707  30.943  37.132  1.00  0.00     0.031 C 
ATOM     67  C   UNL A   1      38.253  34.450  34.945  1.00  0.00     0.029 A 
ATOM     68  C   UNL A   1      39.204  33.452  35.081  1.00  0.00     0.049 A 
ATOM     69  H   UNL A   1      39.649  31.853  33.777  1.00  0.00     0.167 HD
ATOM     70  C   UNL A   1      41.018  32.213  36.238  1.00  0.00     0.074 A 
ATOM     71  C   UNL A   1      41.958  32.020  37.324  1.00  0.00     0.031 C 
ATOM     72  C   UNL A   1      40.148  33.251  36.154  1.00  0.00     0.037 A 
BRANCH  59  73
ATOM     73  C   UNL A   1      36.649  33.205  31.048  1.00  0.00     0.058 A 
ATOM     74  C   UNL A   1      36.921  34.076  29.981  1.00  0.00     0.135 A 
ATOM     75  C   UNL A   1      35.301  32.945  31.350  1.00  0.00     0.135 A 
ATOM     76  F   UNL A   1      38.189  34.378  29.659  1.00  0.00    -0.206 F 
ATOM     77  C   UNL A   1      35.896  34.692  29.265  1.00  0.00     0.059 A 
ATOM     78  C   UNL A   1      34.262  33.530  30.632  1.00  0.00     0.059 A 
ATOM     79  F   UNL A   1      34.982  32.120  32.359  1.00  0.00    -0.206 F 
ATOM     80  C   UNL A   1      34.569  34.418  29.603  1.00  0.00     0.060 A 
BRANCH  80  81
ATOM     81  S   UNL A   1      33.254  35.254  28.692  1.00  0.00     0.124 S 
ATOM     82  O   UNL A   1      34.023  36.083  27.768  1.00  0.00    -0.237 OA
ATOM     83  O   UNL A   1      32.534  34.137  28.088  1.00  0.00    -0.237 OA
ATOM     84  O   UNL A   1      32.527  35.979  29.729  1.00  0.00    -0.744 OA
ENDBRANCH  80  81
ENDBRANCH  59  73
BRANCH  60  85
ATOM     85  C   UNL A   1      43.867  28.462  36.070  1.00  0.00     0.058 A 
ATOM     86  C   UNL A   1      45.200  28.878  35.951  1.00  0.00     0.135 A 
ATOM     87  C   UNL A   1      43.592  27.392  36.938  1.00  0.00     0.135 A 
ATOM     88  F   UNL A   1      45.518  29.883  35.121  1.00  0.00    -0.206 F 
ATOM     89  C   UNL A   1      46.220  28.268  36.674  1.00  0.00     0.059 A 
ATOM     90  C   UNL A   1      44.588  26.786  37.694  1.00  0.00     0.059 A 
ATOM     91  F   UNL A   1      42.332  26.955  37.090  1.00  0.00    -0.206 F 
ATOM     92  C   UNL A   1      45.902  27.228  37.552  1.00  0.00     0.060 A 
BRANCH  92  93
ATOM     93  S   UNL A   1      47.221  26.495  38.544  1.00  0.00     0.124 S 
ATOM     94  O   UNL A   1      48.099  27.640  38.757  1.00  0.00    -0.237 OA
ATOM     95  O   UNL A   1      46.494  26.022  39.719  1.00  0.00    -0.237 OA
ATOM     96  O   UNL A   1      47.749  25.446  37.678  1.00  0.00    -0.744 OA
ENDBRANCH  92  93
ENDBRANCH  60  85
BRANCH  72  97
ATOM     97  C   UNL A   1      40.150  34.242  37.283  1.00  0.00     0.058 A 
ATOM     98  C   UNL A   1      41.010  35.351  37.292  1.00  0.00     0.135 A 
ATOM     99  C   UNL A   1      39.250  34.101  38.352  1.00  0.00     0.135 A 
ATOM    100  F   UNL A   1      41.895  35.527  36.298  1.00  0.00    -0.206 F 
ATOM    101  C   UNL A   1      40.996  36.273  38.334  1.00  0.00     0.059 A 
ATOM    102  C   UNL A   1      39.200  35.024  39.390  1.00  0.00     0.059 A 
ATOM    103  F   UNL A   1      38.400  33.062  38.388  1.00  0.00    -0.206 F 
ATOM    104  C   UNL A   1      40.085  36.101  39.379  1.00  0.00     0.060 A 
BRANCH 104 105
ATOM    105  S   UNL A   1      40.054  37.320  40.711  1.00  0.00     0.124 S 
ATOM    106  O   UNL A   1      39.723  38.540  39.984  1.00  0.00    -0.237 OA
ATOM    107  O   UNL A   1      39.009  36.799  41.586  1.00  0.00    -0.237 OA
ATOM    108  O   UNL A   1      41.407  37.261  41.256  1.00  0.00    -0.744 OA
ENDBRANCH 104 105
ENDBRANCH  72  97
ENDBRANCH  46  47
ENDBRANCH  39  41
ENDBRANCH  38  39
ENDBRANCH  37  38
ENDBRANCH  36  37
ENDBRANCH  35  36
ENDBRANCH  34  35
ENDBRANCH   1  34
TORSDOF 26
ENDMDL
MODEL 3
REMARK VINA RESULT:     -10.6      1.014      7.806
REMARK SMILES CCc1ccnc(C(=O)c2[nH]c3ccc(OC(F)(F)F)cc3c2CC(=O)OCCOCCOCCOC(=O)c2ccc(-c3c4nc(c(-c5c(F)cc(S(=O)(=O)[O-])cc5F)c5ccc([nH]5)c(-c5c(F)cc(S(=O)(=O)[O-])cc5F)c5nc(c(-c6c(F)cc(S(=O)(=O)[O-])cc6F)c6ccc3[nH]6)C=C5)C=C4)cc2)c1
REMARK SMILES IDX 31 1 30 2 29 3 28 4 27 5 25 6 26 7 24 8 23 9 10 10 11 11
REMARK SMILES IDX 12 12 22 14 13 15 21 16 14 17 15 18 8 19 9 20 7 21 3 22 4 23
REMARK SMILES IDX 105 24 5 25 6 26 2 27 1 28 16 29 17 30 18 31 19 32 20 33
REMARK SMILES IDX 32 34 33 35 34 36 35 37 36 38 37 39 38 40 39 41 40 42 104 43
REMARK SMILES IDX 41 44 103 45 42 46 43 47 44 48 97 49 45 50 102 51 96 52
REMARK SMILES IDX 98 53 46 54 101 55 95 56 94 57 47 59 81 60 60 61 80 62 61 63
REMARK SMILES IDX 64 64 79 65 99 66 62 67 63 68 78 70 100 71 65 72 48 73 49 74
REMARK SMILES IDX 58 75 50 76 51 77 57 78 59 79 52 80 53 81 54 82 55 83 56 84
REMARK SMILES IDX 82 85 83 86 92 87 84 88 85 89 91 90 93 91 86 92 87 93 88 94
REMARK SMILES IDX 89 95 90 96 66 97 67 98 76 99 68 100 69 101 75 102 77 103
REMARK SMILES IDX 70 104 71 105 72 106 73 107 74 108
REMARK H PARENT 11 13 98 58 64 69
REMARK Flexibility Score: inf
ROOT
ATOM      1  C   UNL A   1      40.445  20.573  26.911  1.00  0.00     0.188 C 
ENDROOT
BRANCH   1   2
ATOM      2  O   UNL A   1      39.765  21.665  26.302  1.00  0.00    -0.376 OA
BRANCH   2   3
ATOM      3  C   UNL A   1      38.531  21.392  25.654  1.00  0.00     0.202 C 
BRANCH   3   4
ATOM      4  C   UNL A   1      37.676  22.616  25.329  1.00  0.00     0.261 C 
BRANCH   4   5
ATOM      5  O   UNL A   1      36.608  22.313  24.401  1.00  0.00    -0.463 OA
BRANCH   5   6
ATOM      6  C   UNL A   1      35.822  23.367  24.065  1.00  0.00     0.310 C 
ATOM      7  O   UNL A   1      35.443  23.580  22.913  1.00  0.00    -0.252 OA
BRANCH   6   8
ATOM      8  C   UNL A   1      35.391  24.281  25.195  1.00  0.00     0.161 C 
BRANCH   8   9
ATOM      9  C   UNL A   1      33.987  24.213  25.756  1.00  0.00     0.000 A 
ATOM     10  C   UNL A   1      33.308  23.081  26.224  1.00  0.00     0.093 A 
ATOM     11  N   UNL A   1      32.064  23.498  26.642  1.00  0.00    -0.352 N 
ATOM     12  C   UNL A   1      31.800  24.753  26.155  1.00  0.00     0.046 A 
ATOM     13  H   UNL A   1      31.453  22.974  27.209  1.00  0.00     0.167 HD
ATOM     14  C   UNL A   1      32.989  25.237  25.619  1.00  0.00     0.008 A 
ATOM     15  C   UNL A   1      30.601  25.470  26.124  1.00  0.00     0.030 A 
ATOM     16  C   UNL A   1      32.970  26.503  25.000  1.00  0.00     0.057 A 
ATOM     17  C   UNL A   1      30.597  26.695  25.447  1.00  0.00     0.049 A 
ATOM     18  C   UNL A   1      31.760  27.200  24.867  1.00  0.00     0.130 A 
BRANCH  10  19
ATOM     19  C   UNL A   1      33.771  21.705  26.290  1.00  0.00     0.227 C 
ATOM     20  O   UNL A   1      34.403  21.269  27.249  1.00  0.00    -0.285 OA
BRANCH  19  21
ATOM     21  C   UNL A   1      33.488  20.777  25.153  1.00  0.00     0.113 A 
ATOM     22  C   UNL A   1      33.628  18.642  24.088  1.00  0.00    -0.044 A 
ATOM     23  C   UNL A   1      32.608  19.055  23.225  1.00  0.00     0.024 A 
ATOM     24  C   UNL A   1      34.066  19.516  25.091  1.00  0.00     0.036 A 
ATOM     25  C   UNL A   1      32.135  20.348  23.336  1.00  0.00     0.112 A 
ATOM     26  N   UNL A   1      32.585  21.228  24.254  1.00  0.00    -0.253 NA
BRANCH  22  27
ATOM     27  C   UNL A   1      34.272  17.296  23.882  1.00  0.00     0.032 C 
ATOM     28  C   UNL A   1      33.386  16.205  24.472  1.00  0.00     0.009 C 
ENDBRANCH  22  27
ENDBRANCH  19  21
ENDBRANCH  10  19
BRANCH  18  29
ATOM     29  O   UNL A   1      31.856  28.348  24.130  1.00  0.00    -0.406 OA
BRANCH  29  30
ATOM     30  C   UNL A   1      31.672  28.239  22.730  1.00  0.00     0.573 C 
ATOM     31  F   UNL A   1      31.397  29.433  22.162  1.00  0.00    -0.132 F 
ATOM     32  F   UNL A   1      32.766  27.704  22.143  1.00  0.00    -0.132 F 
ATOM     33  F   UNL A   1      30.627  27.414  22.493  1.00  0.00    -0.132 F 
ENDBRANCH  29  30
ENDBRANCH  18  29
ENDBRANCH   8   9
ENDBRANCH   6   8
ENDBRANCH   5   6
ENDBRANCH   4   5
ENDBRANCH   3   4
ENDBRANCH   2   3
ENDBRANCH   1   2
BRANCH   1  34
ATOM     34  C   UNL A   1      41.969  20.449  26.698  1.00  0.00     0.188 C 
BRANCH  34  35
ATOM     35  O   UNL A   1      42.528  20.893  25.466  1.00  0.00    -0.376 OA
BRANCH  35  36
ATOM     36  C   UNL A   1      43.577  21.850  25.545  1.00  0.00     0.202 C 
BRANCH  36  37
ATOM     37  C   UNL A   1      43.480  22.778  26.751  1.00  0.00     0.261 C 
BRANCH  37  38
ATOM     38  O   UNL A   1      42.268  23.550  26.694  1.00  0.00    -0.460 OA
BRANCH  38  39
ATOM     39  C   UNL A   1      42.408  24.747  26.079  1.00  0.00     0.338 C 
ATOM     40  O   UNL A   1      42.964  24.952  25.013  1.00  0.00    -0.246 OA
BRANCH  39  41
ATOM     41  C   UNL A   1      41.800  25.835  26.871  1.00  0.00     0.060 A 
ATOM     42  C   UNL A   1      42.200  27.155  26.691  1.00  0.00     0.016 A 
ATOM     43  C   UNL A   1      41.022  25.496  27.975  1.00  0.00     0.016 A 
ATOM     44  C   UNL A   1      41.979  28.098  27.698  1.00  0.00     0.010 A 
ATOM     45  C   UNL A   1      40.708  26.469  28.929  1.00  0.00     0.010 A 
ATOM     46  C   UNL A   1      41.247  27.765  28.843  1.00  0.00    -0.014 A 
BRANCH  46  47
ATOM     47  C   UNL A   1      41.114  28.713  29.988  1.00  0.00     0.031 A 
ATOM     48  C   UNL A   1      42.046  28.600  31.174  1.00  0.00     0.074 A 
ATOM     49  C   UNL A   1      40.180  29.684  29.981  1.00  0.00     0.049 A 
ATOM     50  N   UNL A   1      41.965  29.159  32.354  1.00  0.00    -0.248 NA
ATOM     51  C   UNL A   1      43.231  27.742  31.007  1.00  0.00     0.031 C 
ATOM     52  C   UNL A   1      39.284  29.995  28.867  1.00  0.00     0.029 A 
ATOM     53  N   UNL A   1      39.822  30.588  30.953  1.00  0.00    -0.354 N 
ATOM     54  C   UNL A   1      43.056  28.692  33.080  1.00  0.00     0.074 A 
ATOM     55  C   UNL A   1      43.788  27.798  32.208  1.00  0.00     0.031 C 
ATOM     56  C   UNL A   1      38.489  31.018  29.212  1.00  0.00     0.029 A 
ATOM     57  C   UNL A   1      38.741  31.364  30.606  1.00  0.00     0.049 A 
ATOM     58  H   UNL A   1      40.292  30.671  31.815  1.00  0.00     0.167 HD
ATOM     59  C   UNL A   1      43.409  28.971  34.360  1.00  0.00     0.037 A 
ATOM     60  C   UNL A   1      37.984  32.203  31.338  1.00  0.00     0.037 A 
ATOM     61  C   UNL A   1      42.669  29.857  35.223  1.00  0.00     0.049 A 
ATOM     62  C   UNL A   1      38.301  32.390  32.795  1.00  0.00     0.074 A 
ATOM     63  C   UNL A   1      42.915  30.177  36.547  1.00  0.00     0.029 A 
ATOM     64  N   UNL A   1      41.532  30.560  34.848  1.00  0.00    -0.354 N 
ATOM     65  N   UNL A   1      39.287  31.883  33.496  1.00  0.00    -0.248 NA
ATOM     66  C   UNL A   1      37.386  33.240  33.568  1.00  0.00     0.031 C 
ATOM     67  C   UNL A   1      41.894  31.027  36.989  1.00  0.00     0.029 A 
ATOM     68  C   UNL A   1      41.045  31.284  35.924  1.00  0.00     0.049 A 
ATOM     69  H   UNL A   1      41.131  30.545  33.949  1.00  0.00     0.167 HD
ATOM     70  C   UNL A   1      39.119  32.363  34.790  1.00  0.00     0.074 A 
ATOM     71  C   UNL A   1      37.945  33.211  34.770  1.00  0.00     0.031 C 
ATOM     72  C   UNL A   1      39.872  32.122  35.893  1.00  0.00     0.037 A 
BRANCH  59  73
ATOM     73  C   UNL A   1      44.608  28.256  34.924  1.00  0.00     0.058 A 
ATOM     74  C   UNL A   1      44.514  26.986  35.514  1.00  0.00     0.135 A 
ATOM     75  C   UNL A   1      45.878  28.855  34.864  1.00  0.00     0.135 A 
ATOM     76  F   UNL A   1      43.324  26.374  35.618  1.00  0.00    -0.206 F 
ATOM     77  C   UNL A   1      45.630  26.350  36.054  1.00  0.00     0.059 A 
ATOM     78  C   UNL A   1      47.010  28.228  35.375  1.00  0.00     0.059 A 
ATOM     79  F   UNL A   1      46.027  30.069  34.311  1.00  0.00    -0.206 F 
ATOM     80  C   UNL A   1      46.874  26.983  35.986  1.00  0.00     0.060 A 
BRANCH  80  81
ATOM     81  S   UNL A   1      48.303  26.164  36.725  1.00  0.00     0.124 S 
ATOM     82  O   UNL A   1      49.027  25.718  35.539  1.00  0.00    -0.237 OA
ATOM     83  O   UNL A   1      48.928  27.247  37.478  1.00  0.00    -0.237 OA
ATOM     84  O   UNL A   1      47.709  25.103  37.533  1.00  0.00    -0.744 OA
ENDBRANCH  80  81
ENDBRANCH  59  73
BRANCH  60  85
ATOM     85  C   UNL A   1      36.809  32.867  30.712  1.00  0.00     0.058 A 
ATOM     86  C   UNL A   1      35.516  32.348  30.864  1.00  0.00     0.135 A 
ATOM     87  C   UNL A   1      36.953  34.062  29.985  1.00  0.00     0.135 A 
ATOM     88  F   UNL A   1      35.328  31.201  31.533  1.00  0.00    -0.206 F 
ATOM     89  C   UNL A   1      34.406  32.994  30.328  1.00  0.00     0.059 A 
ATOM     90  C   UNL A   1      35.857  34.741  29.466  1.00  0.00     0.059 A 
ATOM     91  F   UNL A   1      38.170  34.602  29.812  1.00  0.00    -0.206 F 
ATOM     92  C   UNL A   1      34.586  34.196  29.639  1.00  0.00     0.060 A 
BRANCH  92  93
ATOM     93  S   UNL A   1      33.132  35.067  29.015  1.00  0.00     0.124 S 
ATOM     94  O   UNL A   1      32.555  34.070  28.119  1.00  0.00    -0.237 OA
ATOM     95  O   UNL A   1      32.384  35.332  30.240  1.00  0.00    -0.237 OA
ATOM     96  O   UNL A   1      33.699  36.245  28.367  1.00  0.00    -0.744 OA
ENDBRANCH  92  93
ENDBRANCH  60  85
BRANCH  72  97
ATOM     97  C   UNL A   1      39.466  32.811  37.165  1.00  0.00     0.058 A 
ATOM     98  C   UNL A   1      38.450  32.303  37.989  1.00  0.00     0.135 A 
ATOM     99  C   UNL A   1      40.131  33.975  37.584  1.00  0.00     0.135 A 
ATOM    100  F   UNL A   1      37.778  31.198  37.630  1.00  0.00    -0.206 F 
ATOM    101  C   UNL A   1      38.089  32.938  39.173  1.00  0.00     0.059 A 
ATOM    102  C   UNL A   1      39.805  34.612  38.777  1.00  0.00     0.059 A 
ATOM    103  F   UNL A   1      41.116  34.498  36.837  1.00  0.00    -0.206 F 
ATOM    104  C   UNL A   1      38.775  34.092  39.559  1.00  0.00     0.060 A 
BRANCH 104 105
ATOM    105  S   UNL A   1      38.320  34.892  41.113  1.00  0.00     0.124 S 
ATOM    106  O   UNL A   1      39.277  34.298  42.040  1.00  0.00    -0.237 OA
ATOM    107  O   UNL A   1      38.524  36.305  40.809  1.00  0.00    -0.237 OA
ATOM    108  O   UNL A   1      36.929  34.493  41.306  1.00  0.00    -0.744 OA
ENDBRANCH 104 105
ENDBRANCH  72  97
ENDBRANCH  46  47
ENDBRANCH  39  41
ENDBRANCH  38  39
ENDBRANCH  37  38
ENDBRANCH  36  37
ENDBRANCH  35  36
ENDBRANCH  34  35
ENDBRANCH   1  34
TORSDOF 26
ENDMDL
