MODEL 1
REMARK VINA RESULT:     -10.0      0.000      0.000
REMARK SMILES O=C(OCCOCCOCCOC(=O)c1nn(-c2ccc([N+](=O)[O-])cc2)cc1CCO)c1ccc(-c2c3nc(c(-c4c(F)cc(S(=O)(=O)[O-])cc4F)c4ccc([nH]4)c(-c4c(F)cc(S(=O)(=O)[O-])cc4F)c4nc(c(-c5c(F)cc(S(=O)(=O)[O-])cc5F)c5ccc2[nH]5)C=C4)C=C3)cc1
REMARK SMILES IDX 7 1 6 2 5 3 4 4 3 5 2 6 1 7 32 8 33 9 97 10 34 11 96 12
REMARK SMILES IDX 35 13 36 14 37 15 90 16 38 17 95 18 89 19 91 20 39 21 94 22
REMARK SMILES IDX 88 23 87 24 40 26 74 27 53 28 73 29 54 30 57 31 72 32 92 33
REMARK SMILES IDX 55 34 56 35 71 37 93 38 58 39 41 40 42 41 51 42 43 43 44 44
REMARK SMILES IDX 50 45 52 46 45 47 46 48 47 49 48 50 49 51 75 52 76 53 85 54
REMARK SMILES IDX 77 55 78 56 84 57 86 58 79 59 80 60 81 61 82 62 83 63 59 64
REMARK SMILES IDX 60 65 69 66 61 67 62 68 68 69 70 70 63 71 64 72 65 73 66 74
REMARK SMILES IDX 67 75 8 76 9 77 10 78 11 79 12 80 13 81 14 82 15 83 16 84
REMARK SMILES IDX 28 85 17 86 27 87 29 88 30 89 31 90 18 92 19 93 26 94 20 95
REMARK SMILES IDX 25 96 21 97 22 98 23 99 24 100
REMARK H PARENT 91 25 57 36 31 91
REMARK Flexibility Score: inf
ROOT
ATOM      1  C   UNL A   1      32.742  27.255  25.630  1.00  0.00     0.188 C 
ENDROOT
BRANCH   1   2
ATOM      2  O   UNL A   1      33.492  28.051  26.539  1.00  0.00    -0.376 OA
BRANCH   2   3
ATOM      3  C   UNL A   1      32.946  29.192  27.174  1.00  0.00     0.202 C 
BRANCH   3   4
ATOM      4  C   UNL A   1      32.901  30.502  26.393  1.00  0.00     0.261 C 
BRANCH   4   5
ATOM      5  O   UNL A   1      32.214  31.541  27.092  1.00  0.00    -0.460 OA
BRANCH   5   6
ATOM      6  C   UNL A   1      32.657  32.728  27.554  1.00  0.00     0.338 C 
ATOM      7  O   UNL A   1      31.946  33.714  27.362  1.00  0.00    -0.246 OA
BRANCH   6   8
ATOM      8  C   UNL A   1      33.982  32.951  28.206  1.00  0.00     0.060 A 
ATOM      9  C   UNL A   1      35.075  33.636  27.668  1.00  0.00     0.016 A 
ATOM     10  C   UNL A   1      34.126  32.367  29.480  1.00  0.00     0.016 A 
ATOM     11  C   UNL A   1      36.331  33.517  28.240  1.00  0.00     0.010 A 
ATOM     12  C   UNL A   1      35.366  32.303  30.094  1.00  0.00     0.010 A 
ATOM     13  C   UNL A   1      36.480  32.764  29.396  1.00  0.00    -0.014 A 
BRANCH  13  14
ATOM     14  C   UNL A   1      37.825  32.319  29.733  1.00  0.00     0.031 A 
ATOM     15  C   UNL A   1      38.200  30.916  29.404  1.00  0.00     0.074 A 
ATOM     16  C   UNL A   1      38.688  33.218  30.252  1.00  0.00     0.049 A 
ATOM     17  N   UNL A   1      38.765  30.023  30.156  1.00  0.00    -0.248 NA
ATOM     18  C   UNL A   1      37.846  30.427  28.062  1.00  0.00     0.031 C 
ATOM     19  C   UNL A   1      38.486  34.668  30.397  1.00  0.00     0.029 A 
ATOM     20  N   UNL A   1      39.985  33.055  30.625  1.00  0.00    -0.354 N 
ATOM     21  C   UNL A   1      39.022  28.932  29.326  1.00  0.00     0.074 A 
ATOM     22  C   UNL A   1      38.334  29.186  28.087  1.00  0.00     0.031 C 
ATOM     23  C   UNL A   1      39.681  35.268  30.554  1.00  0.00     0.029 A 
ATOM     24  C   UNL A   1      40.701  34.241  30.654  1.00  0.00     0.049 A 
ATOM     25  H   UNL A   1      40.377  32.180  30.852  1.00  0.00     0.167 HD
ATOM     26  C   UNL A   1      39.950  27.980  29.622  1.00  0.00     0.037 A 
ATOM     27  C   UNL A   1      42.047  34.372  30.619  1.00  0.00     0.037 A 
ATOM     28  C   UNL A   1      40.244  27.915  31.026  1.00  0.00     0.049 A 
ATOM     29  C   UNL A   1      42.631  33.082  31.063  1.00  0.00     0.074 A 
ATOM     30  C   UNL A   1      39.509  27.630  32.160  1.00  0.00     0.029 A 
ATOM     31  N   UNL A   1      41.424  28.449  31.477  1.00  0.00    -0.354 N 
ATOM     32  N   UNL A   1      42.497  32.590  32.266  1.00  0.00    -0.248 NA
ATOM     33  C   UNL A   1      43.032  32.124  30.045  1.00  0.00     0.031 C 
ATOM     34  C   UNL A   1      40.079  28.434  33.189  1.00  0.00     0.029 A 
ATOM     35  C   UNL A   1      41.134  29.151  32.620  1.00  0.00     0.049 A 
ATOM     36  H   UNL A   1      42.311  28.348  31.061  1.00  0.00     0.167 HD
ATOM     37  C   UNL A   1      42.410  31.216  32.088  1.00  0.00     0.074 A 
ATOM     38  C   UNL A   1      42.858  30.984  30.719  1.00  0.00     0.031 C 
ATOM     39  C   UNL A   1      41.728  30.424  32.968  1.00  0.00     0.037 A 
BRANCH  26  40
ATOM     40  C   UNL A   1      40.817  27.325  28.575  1.00  0.00     0.058 A 
ATOM     41  C   UNL A   1      40.655  25.960  28.265  1.00  0.00     0.135 A 
ATOM     42  C   UNL A   1      41.989  27.932  28.069  1.00  0.00     0.135 A 
ATOM     43  F   UNL A   1      39.586  25.282  28.712  1.00  0.00    -0.206 F 
ATOM     44  C   UNL A   1      41.618  25.237  27.557  1.00  0.00     0.059 A 
ATOM     45  C   UNL A   1      42.934  27.245  27.317  1.00  0.00     0.059 A 
ATOM     46  F   UNL A   1      42.318  29.197  28.367  1.00  0.00    -0.206 F 
ATOM     47  C   UNL A   1      42.765  25.887  27.107  1.00  0.00     0.060 A 
BRANCH  47  48
ATOM     48  S   UNL A   1      44.080  24.938  26.322  1.00  0.00     0.124 S 
ATOM     49  O   UNL A   1      43.353  23.753  25.880  1.00  0.00    -0.237 OA
ATOM     50  O   UNL A   1      44.528  25.844  25.269  1.00  0.00    -0.237 OA
ATOM     51  O   UNL A   1      45.034  24.728  27.407  1.00  0.00    -0.744 OA
ENDBRANCH  47  48
ENDBRANCH  26  40
BRANCH  27  52
ATOM     52  C   UNL A   1      42.779  35.395  29.830  1.00  0.00     0.058 A 
ATOM     53  C   UNL A   1      42.491  35.625  28.477  1.00  0.00     0.135 A 
ATOM     54  C   UNL A   1      43.639  36.330  30.451  1.00  0.00     0.135 A 
ATOM     55  F   UNL A   1      41.647  34.812  27.822  1.00  0.00    -0.206 F 
ATOM     56  C   UNL A   1      43.016  36.721  27.782  1.00  0.00     0.059 A 
ATOM     57  C   UNL A   1      44.191  37.413  29.775  1.00  0.00     0.059 A 
ATOM     58  F   UNL A   1      43.903  36.268  31.765  1.00  0.00    -0.206 F 
ATOM     59  C   UNL A   1      43.861  37.613  28.444  1.00  0.00     0.060 A 
BRANCH  59  60
ATOM     60  S   UNL A   1      44.438  39.099  27.592  1.00  0.00     0.124 S 
ATOM     61  O   UNL A   1      45.849  38.793  27.380  1.00  0.00    -0.237 OA
ATOM     62  O   UNL A   1      43.601  39.111  26.397  1.00  0.00    -0.237 OA
ATOM     63  O   UNL A   1      44.169  40.167  28.551  1.00  0.00    -0.744 OA
ENDBRANCH  59  60
ENDBRANCH  27  52
BRANCH  39  64
ATOM     64  C   UNL A   1      41.293  31.029  34.279  1.00  0.00     0.058 A 
ATOM     65  C   UNL A   1      42.120  31.074  35.415  1.00  0.00     0.135 A 
ATOM     66  C   UNL A   1      40.091  31.749  34.338  1.00  0.00     0.135 A 
ATOM     67  F   UNL A   1      43.335  30.512  35.399  1.00  0.00    -0.206 F 
ATOM     68  C   UNL A   1      41.759  31.770  36.568  1.00  0.00     0.059 A 
ATOM     69  C   UNL A   1      39.722  32.479  35.469  1.00  0.00     0.059 A 
ATOM     70  F   UNL A   1      39.290  31.809  33.261  1.00  0.00    -0.206 F 
ATOM     71  C   UNL A   1      40.559  32.478  36.584  1.00  0.00     0.060 A 
BRANCH  71  72
ATOM     72  S   UNL A   1      40.162  33.484  38.030  1.00  0.00     0.124 S 
ATOM     73  O   UNL A   1      41.343  34.332  38.151  1.00  0.00    -0.237 OA
ATOM     74  O   UNL A   1      38.936  34.164  37.620  1.00  0.00    -0.237 OA
ATOM     75  O   UNL A   1      39.988  32.498  39.094  1.00  0.00    -0.744 OA
ENDBRANCH  71  72
ENDBRANCH  39  64
ENDBRANCH  13  14
ENDBRANCH   6   8
ENDBRANCH   5   6
ENDBRANCH   4   5
ENDBRANCH   3   4
ENDBRANCH   2   3
ENDBRANCH   1   2
BRANCH   1  76
ATOM     76  C   UNL A   1      31.241  27.452  25.336  1.00  0.00     0.188 C 
BRANCH  76  77
ATOM     77  O   UNL A   1      30.642  26.797  24.232  1.00  0.00    -0.376 OA
BRANCH  77  78
ATOM     78  C   UNL A   1      30.466  25.394  24.295  1.00  0.00     0.202 C 
BRANCH  78  79
ATOM     79  C   UNL A   1      31.353  24.541  23.388  1.00  0.00     0.261 C 
BRANCH  79  80
ATOM     80  O   UNL A   1      32.595  24.174  24.004  1.00  0.00    -0.458 OA
BRANCH  80  81
ATOM     81  C   UNL A   1      33.540  23.589  23.207  1.00  0.00     0.359 C 
ATOM     82  O   UNL A   1      33.841  23.947  22.077  1.00  0.00    -0.244 OA
BRANCH  81  83
ATOM     83  C   UNL A   1      34.199  22.469  23.882  1.00  0.00     0.174 A 
ATOM     84  N   UNL A   1      33.574  21.283  23.941  1.00  0.00    -0.161 NA
ATOM     85  C   UNL A   1      35.496  22.399  24.478  1.00  0.00     0.008 A 
ATOM     86  N   UNL A   1      34.398  20.477  24.638  1.00  0.00    -0.240 N 
ATOM     87  C   UNL A   1      35.540  21.130  25.026  1.00  0.00     0.119 A 
BRANCH  85  88
ATOM     88  C   UNL A   1      36.582  23.430  24.575  1.00  0.00     0.068 C 
BRANCH  88  89
ATOM     89  C   UNL A   1      37.676  23.106  25.591  1.00  0.00     0.161 C 
BRANCH  89  90
ATOM     90  O   UNL A   1      37.912  24.190  26.478  1.00  0.00    -0.396 OA
ATOM     91  H   UNL A   1      38.273  23.852  27.313  1.00  0.00     0.210 HD
ENDBRANCH  89  90
ENDBRANCH  88  89
ENDBRANCH  85  88
BRANCH  86  92
ATOM     92  C   UNL A   1      34.049  19.119  24.849  1.00  0.00     0.065 A 
ATOM     93  C   UNL A   1      32.826  18.834  25.480  1.00  0.00     0.035 A 
ATOM     94  C   UNL A   1      34.890  18.079  24.435  1.00  0.00     0.035 A 
ATOM     95  C   UNL A   1      32.429  17.512  25.677  1.00  0.00     0.088 A 
ATOM     96  C   UNL A   1      34.512  16.751  24.669  1.00  0.00     0.088 A 
ATOM     97  C   UNL A   1      33.280  16.474  25.279  1.00  0.00     0.269 A 
BRANCH  97  98
ATOM     98  N   UNL A   1      32.873  15.084  25.510  1.00  0.00     0.062 N 
ATOM     99  O   UNL A   1      31.709  14.882  25.889  1.00  0.00    -0.258 OA
ATOM    100  O   UNL A   1      33.713  14.196  25.319  1.00  0.00    -0.258 OA
ENDBRANCH  97  98
ENDBRANCH  86  92
ENDBRANCH  81  83
ENDBRANCH  80  81
ENDBRANCH  79  80
ENDBRANCH  78  79
ENDBRANCH  77  78
ENDBRANCH  76  77
ENDBRANCH   1  76
TORSDOF 25
ENDMDL
MODEL 2
REMARK VINA RESULT:      -9.8      3.276      7.684
REMARK SMILES O=C(OCCOCCOCCOC(=O)c1nn(-c2ccc([N+](=O)[O-])cc2)cc1CCO)c1ccc(-c2c3nc(c(-c4c(F)cc(S(=O)(=O)[O-])cc4F)c4ccc([nH]4)c(-c4c(F)cc(S(=O)(=O)[O-])cc4F)c4nc(c(-c5c(F)cc(S(=O)(=O)[O-])cc5F)c5ccc2[nH]5)C=C4)C=C3)cc1
REMARK SMILES IDX 7 1 6 2 5 3 4 4 3 5 2 6 1 7 32 8 33 9 97 10 34 11 96 12
REMARK SMILES IDX 35 13 36 14 37 15 90 16 38 17 95 18 89 19 91 20 39 21 94 22
REMARK SMILES IDX 88 23 87 24 40 26 74 27 53 28 73 29 54 30 57 31 72 32 92 33
REMARK SMILES IDX 55 34 56 35 71 37 93 38 58 39 41 40 42 41 51 42 43 43 44 44
REMARK SMILES IDX 50 45 52 46 45 47 46 48 47 49 48 50 49 51 75 52 76 53 85 54
REMARK SMILES IDX 77 55 78 56 84 57 86 58 79 59 80 60 81 61 82 62 83 63 59 64
REMARK SMILES IDX 60 65 69 66 61 67 62 68 68 69 70 70 63 71 64 72 65 73 66 74
REMARK SMILES IDX 67 75 8 76 9 77 10 78 11 79 12 80 13 81 14 82 15 83 16 84
REMARK SMILES IDX 28 85 17 86 27 87 29 88 30 89 31 90 18 92 19 93 26 94 20 95
REMARK SMILES IDX 25 96 21 97 22 98 23 99 24 100
REMARK H PARENT 91 25 57 36 31 91
REMARK Flexibility Score: inf
ROOT
ATOM      1  C   UNL A   1      31.750  29.148  24.828  1.00  0.00     0.188 C 
ENDROOT
BRANCH   1   2
ATOM      2  O   UNL A   1      32.271  28.923  26.131  1.00  0.00    -0.376 OA
BRANCH   2   3
ATOM      3  C   UNL A   1      33.438  28.155  26.358  1.00  0.00     0.202 C 
BRANCH   3   4
ATOM      4  C   UNL A   1      34.649  28.845  26.981  1.00  0.00     0.261 C 
BRANCH   4   5
ATOM      5  O   UNL A   1      34.431  30.235  27.222  1.00  0.00    -0.460 OA
BRANCH   5   6
ATOM      6  C   UNL A   1      35.246  31.171  27.750  1.00  0.00     0.338 C 
ATOM      7  O   UNL A   1      35.056  32.342  27.422  1.00  0.00    -0.246 OA
BRANCH   6   8
ATOM      8  C   UNL A   1      36.415  30.885  28.636  1.00  0.00     0.060 A 
ATOM      9  C   UNL A   1      37.302  31.818  29.179  1.00  0.00     0.016 A 
ATOM     10  C   UNL A   1      36.640  29.520  28.904  1.00  0.00     0.016 A 
ATOM     11  C   UNL A   1      38.504  31.408  29.731  1.00  0.00     0.010 A 
ATOM     12  C   UNL A   1      37.809  29.103  29.518  1.00  0.00     0.010 A 
ATOM     13  C   UNL A   1      38.789  30.052  29.801  1.00  0.00    -0.014 A 
BRANCH  13  14
ATOM     14  C   UNL A   1      40.182  29.672  29.990  1.00  0.00     0.031 A 
ATOM     15  C   UNL A   1      40.696  29.568  31.383  1.00  0.00     0.074 A 
ATOM     16  C   UNL A   1      40.916  29.359  28.900  1.00  0.00     0.049 A 
ATOM     17  N   UNL A   1      41.776  30.070  31.896  1.00  0.00    -0.248 NA
ATOM     18  C   UNL A   1      39.858  28.843  32.352  1.00  0.00     0.031 C 
ATOM     19  C   UNL A   1      40.438  29.210  27.516  1.00  0.00     0.029 A 
ATOM     20  N   UNL A   1      42.213  28.963  28.817  1.00  0.00    -0.354 N 
ATOM     21  C   UNL A   1      41.858  29.558  33.191  1.00  0.00     0.074 A 
ATOM     22  C   UNL A   1      40.600  28.909  33.457  1.00  0.00     0.031 C 
ATOM     23  C   UNL A   1      41.342  28.503  26.811  1.00  0.00     0.029 A 
ATOM     24  C   UNL A   1      42.502  28.273  27.650  1.00  0.00     0.049 A 
ATOM     25  H   UNL A   1      42.881  29.147  29.517  1.00  0.00     0.167 HD
ATOM     26  C   UNL A   1      43.022  29.514  33.896  1.00  0.00     0.037 A 
ATOM     27  C   UNL A   1      43.557  27.453  27.438  1.00  0.00     0.037 A 
ATOM     28  C   UNL A   1      43.988  30.466  33.426  1.00  0.00     0.049 A 
ATOM     29  C   UNL A   1      44.602  27.807  28.431  1.00  0.00     0.074 A 
ATOM     30  C   UNL A   1      44.031  31.843  33.335  1.00  0.00     0.029 A 
ATOM     31  N   UNL A   1      45.045  30.015  32.675  1.00  0.00    -0.354 N 
ATOM     32  N   UNL A   1      45.228  28.952  28.461  1.00  0.00    -0.248 NA
ATOM     33  C   UNL A   1      44.672  27.030  29.658  1.00  0.00     0.031 C 
ATOM     34  C   UNL A   1      44.805  32.119  32.171  1.00  0.00     0.029 A 
ATOM     35  C   UNL A   1      45.196  30.892  31.631  1.00  0.00     0.049 A 
ATOM     36  H   UNL A   1      45.591  29.215  32.852  1.00  0.00     0.167 HD
ATOM     37  C   UNL A   1      45.430  29.219  29.808  1.00  0.00     0.074 A 
ATOM     38  C   UNL A   1      45.171  27.953  30.486  1.00  0.00     0.031 C 
ATOM     39  C   UNL A   1      45.523  30.499  30.277  1.00  0.00     0.037 A 
BRANCH  26  40
ATOM     40  C   UNL A   1      43.381  28.374  34.818  1.00  0.00     0.058 A 
ATOM     41  C   UNL A   1      43.729  28.624  36.160  1.00  0.00     0.135 A 
ATOM     42  C   UNL A   1      43.662  27.072  34.345  1.00  0.00     0.135 A 
ATOM     43  F   UNL A   1      43.523  29.834  36.705  1.00  0.00    -0.206 F 
ATOM     44  C   UNL A   1      44.368  27.668  36.955  1.00  0.00     0.059 A 
ATOM     45  C   UNL A   1      44.248  26.090  35.133  1.00  0.00     0.059 A 
ATOM     46  F   UNL A   1      43.471  26.726  33.064  1.00  0.00    -0.206 F 
ATOM     47  C   UNL A   1      44.642  26.411  36.421  1.00  0.00     0.060 A 
BRANCH  47  48
ATOM     48  S   UNL A   1      45.594  25.221  37.383  1.00  0.00     0.124 S 
ATOM     49  O   UNL A   1      46.043  24.305  36.340  1.00  0.00    -0.237 OA
ATOM     50  O   UNL A   1      46.625  26.063  37.982  1.00  0.00    -0.237 OA
ATOM     51  O   UNL A   1      44.611  24.684  38.318  1.00  0.00    -0.744 OA
ENDBRANCH  47  48
ENDBRANCH  26  40
BRANCH  27  52
ATOM     52  C   UNL A   1      43.490  26.155  26.719  1.00  0.00     0.058 A 
ATOM     53  C   UNL A   1      44.228  25.924  25.549  1.00  0.00     0.135 A 
ATOM     54  C   UNL A   1      42.860  25.026  27.290  1.00  0.00     0.135 A 
ATOM     55  F   UNL A   1      44.896  26.932  24.966  1.00  0.00    -0.206 F 
ATOM     56  C   UNL A   1      44.343  24.649  24.983  1.00  0.00     0.059 A 
ATOM     57  C   UNL A   1      42.941  23.754  26.734  1.00  0.00     0.059 A 
ATOM     58  F   UNL A   1      42.213  25.108  28.463  1.00  0.00    -0.206 F 
ATOM     59  C   UNL A   1      43.700  23.568  25.589  1.00  0.00     0.060 A 
BRANCH  59  60
ATOM     60  S   UNL A   1      43.947  21.900  24.940  1.00  0.00     0.124 S 
ATOM     61  O   UNL A   1      44.091  22.152  23.510  1.00  0.00    -0.237 OA
ATOM     62  O   UNL A   1      45.157  21.478  25.638  1.00  0.00    -0.237 OA
ATOM     63  O   UNL A   1      42.727  21.199  25.330  1.00  0.00    -0.744 OA
ENDBRANCH  59  60
ENDBRANCH  27  52
BRANCH  39  64
ATOM     64  C   UNL A   1      45.666  31.615  29.273  1.00  0.00     0.058 A 
ATOM     65  C   UNL A   1      46.896  31.973  28.693  1.00  0.00     0.135 A 
ATOM     66  C   UNL A   1      44.513  32.210  28.738  1.00  0.00     0.135 A 
ATOM     67  F   UNL A   1      48.030  31.364  29.064  1.00  0.00    -0.206 F 
ATOM     68  C   UNL A   1      46.985  32.902  27.658  1.00  0.00     0.059 A 
ATOM     69  C   UNL A   1      44.574  33.119  27.681  1.00  0.00     0.059 A 
ATOM     70  F   UNL A   1      43.301  31.856  29.196  1.00  0.00    -0.206 F 
ATOM     71  C   UNL A   1      45.816  33.465  27.150  1.00  0.00     0.060 A 
BRANCH  71  72
ATOM     72  S   UNL A   1      45.929  34.565  25.722  1.00  0.00     0.124 S 
ATOM     73  O   UNL A   1      45.428  35.824  26.262  1.00  0.00    -0.237 OA
ATOM     74  O   UNL A   1      47.355  34.536  25.407  1.00  0.00    -0.237 OA
ATOM     75  O   UNL A   1      45.069  33.925  24.730  1.00  0.00    -0.744 OA
ENDBRANCH  71  72
ENDBRANCH  39  64
ENDBRANCH  13  14
ENDBRANCH   6   8
ENDBRANCH   5   6
ENDBRANCH   4   5
ENDBRANCH   3   4
ENDBRANCH   2   3
ENDBRANCH   1   2
BRANCH   1  76
ATOM     76  C   UNL A   1      30.580  28.357  24.209  1.00  0.00     0.188 C 
BRANCH  76  77
ATOM     77  O   UNL A   1      30.839  27.233  23.388  1.00  0.00    -0.376 OA
BRANCH  77  78
ATOM     78  C   UNL A   1      31.759  26.260  23.846  1.00  0.00     0.202 C 
BRANCH  78  79
ATOM     79  C   UNL A   1      32.896  25.879  22.899  1.00  0.00     0.261 C 
BRANCH  79  80
ATOM     80  O   UNL A   1      33.603  24.704  23.318  1.00  0.00    -0.458 OA
BRANCH  80  81
ATOM     81  C   UNL A   1      32.927  23.516  23.268  1.00  0.00     0.359 C 
ATOM     82  O   UNL A   1      31.857  23.327  22.706  1.00  0.00    -0.244 OA
BRANCH  81  83
ATOM     83  C   UNL A   1      33.656  22.448  23.956  1.00  0.00     0.174 A 
ATOM     84  N   UNL A   1      33.139  21.210  23.972  1.00  0.00    -0.161 NA
ATOM     85  C   UNL A   1      34.927  22.486  24.608  1.00  0.00     0.008 A 
ATOM     86  N   UNL A   1      34.002  20.470  24.694  1.00  0.00    -0.240 N 
ATOM     87  C   UNL A   1      35.063  21.217  25.140  1.00  0.00     0.119 A 
BRANCH  85  88
ATOM     88  C   UNL A   1      35.909  23.609  24.766  1.00  0.00     0.068 C 
BRANCH  88  89
ATOM     89  C   UNL A   1      37.235  23.401  24.036  1.00  0.00     0.161 C 
BRANCH  89  90
ATOM     90  O   UNL A   1      37.049  23.225  22.639  1.00  0.00    -0.396 OA
ATOM     91  H   UNL A   1      37.899  23.005  22.225  1.00  0.00     0.210 HD
ENDBRANCH  89  90
ENDBRANCH  88  89
ENDBRANCH  85  88
BRANCH  86  92
ATOM     92  C   UNL A   1      33.771  19.083  24.871  1.00  0.00     0.065 A 
ATOM     93  C   UNL A   1      32.603  18.681  25.542  1.00  0.00     0.035 A 
ATOM     94  C   UNL A   1      34.671  18.126  24.387  1.00  0.00     0.035 A 
ATOM     95  C   UNL A   1      32.319  17.326  25.709  1.00  0.00     0.088 A 
ATOM     96  C   UNL A   1      34.408  16.766  24.589  1.00  0.00     0.088 A 
ATOM     97  C   UNL A   1      33.230  16.372  25.240  1.00  0.00     0.269 A 
BRANCH  97  98
ATOM     98  N   UNL A   1      32.943  14.948  25.439  1.00  0.00     0.062 N 
ATOM     99  O   UNL A   1      33.905  14.166  25.463  1.00  0.00    -0.258 OA
ATOM    100  O   UNL A   1      31.760  14.609  25.567  1.00  0.00    -0.258 OA
ENDBRANCH  97  98
ENDBRANCH  86  92
ENDBRANCH  81  83
ENDBRANCH  80  81
ENDBRANCH  79  80
ENDBRANCH  78  79
ENDBRANCH  77  78
ENDBRANCH  76  77
ENDBRANCH   1  76
TORSDOF 25
ENDMDL
MODEL 3
REMARK VINA RESULT:      -9.7      3.278      9.075
REMARK SMILES O=C(OCCOCCOCCOC(=O)c1nn(-c2ccc([N+](=O)[O-])cc2)cc1CCO)c1ccc(-c2c3nc(c(-c4c(F)cc(S(=O)(=O)[O-])cc4F)c4ccc([nH]4)c(-c4c(F)cc(S(=O)(=O)[O-])cc4F)c4nc(c(-c5c(F)cc(S(=O)(=O)[O-])cc5F)c5ccc2[nH]5)C=C4)C=C3)cc1
REMARK SMILES IDX 7 1 6 2 5 3 4 4 3 5 2 6 1 7 32 8 33 9 97 10 34 11 96 12
REMARK SMILES IDX 35 13 36 14 37 15 90 16 38 17 95 18 89 19 91 20 39 21 94 22
REMARK SMILES IDX 88 23 87 24 40 26 74 27 53 28 73 29 54 30 57 31 72 32 92 33
REMARK SMILES IDX 55 34 56 35 71 37 93 38 58 39 41 40 42 41 51 42 43 43 44 44
REMARK SMILES IDX 50 45 52 46 45 47 46 48 47 49 48 50 49 51 75 52 76 53 85 54
REMARK SMILES IDX 77 55 78 56 84 57 86 58 79 59 80 60 81 61 82 62 83 63 59 64
REMARK SMILES IDX 60 65 69 66 61 67 62 68 68 69 70 70 63 71 64 72 65 73 66 74
REMARK SMILES IDX 67 75 8 76 9 77 10 78 11 79 12 80 13 81 14 82 15 83 16 84
REMARK SMILES IDX 28 85 17 86 27 87 29 88 30 89 31 90 18 92 19 93 26 94 20 95
REMARK SMILES IDX 25 96 21 97 22 98 23 99 24 100
REMARK H PARENT 91 25 57 36 31 91
REMARK Flexibility Score: inf
ROOT
ATOM      1  C   UNL A   1      41.141  23.214  27.900  1.00  0.00     0.188 C 
ENDROOT
BRANCH   1   2
ATOM      2  O   UNL A   1      41.776  22.039  28.389  1.00  0.00    -0.376 OA
BRANCH   2   3
ATOM      3  C   UNL A   1      41.794  20.828  27.657  1.00  0.00     0.202 C 
BRANCH   3   4
ATOM      4  C   UNL A   1      42.295  20.862  26.215  1.00  0.00     0.261 C 
BRANCH   4   5
ATOM      5  O   UNL A   1      43.517  21.587  26.070  1.00  0.00    -0.460 OA
BRANCH   5   6
ATOM      6  C   UNL A   1      43.794  22.706  25.370  1.00  0.00     0.338 C 
ATOM      7  O   UNL A   1      43.913  22.599  24.149  1.00  0.00    -0.246 OA
BRANCH   6   8
ATOM      8  C   UNL A   1      44.052  24.048  25.972  1.00  0.00     0.060 A 
ATOM      9  C   UNL A   1      44.795  24.322  27.123  1.00  0.00     0.016 A 
ATOM     10  C   UNL A   1      43.438  25.128  25.305  1.00  0.00     0.016 A 
ATOM     11  C   UNL A   1      44.710  25.561  27.738  1.00  0.00     0.010 A 
ATOM     12  C   UNL A   1      43.406  26.389  25.878  1.00  0.00     0.010 A 
ATOM     13  C   UNL A   1      43.931  26.552  27.158  1.00  0.00    -0.014 A 
BRANCH  13  14
ATOM     14  C   UNL A   1      43.531  27.666  28.007  1.00  0.00     0.031 A 
ATOM     15  C   UNL A   1      44.429  28.852  28.074  1.00  0.00     0.074 A 
ATOM     16  C   UNL A   1      42.333  27.604  28.627  1.00  0.00     0.049 A 
ATOM     17  N   UNL A   1      44.873  29.483  29.116  1.00  0.00    -0.248 NA
ATOM     18  C   UNL A   1      44.946  29.371  26.798  1.00  0.00     0.031 C 
ATOM     19  C   UNL A   1      41.284  26.588  28.440  1.00  0.00     0.029 A 
ATOM     20  N   UNL A   1      41.735  28.510  29.444  1.00  0.00    -0.354 N 
ATOM     21  C   UNL A   1      45.555  30.597  28.627  1.00  0.00     0.074 A 
ATOM     22  C   UNL A   1      45.670  30.416  27.203  1.00  0.00     0.031 C 
ATOM     23  C   UNL A   1      40.113  27.075  28.892  1.00  0.00     0.029 A 
ATOM     24  C   UNL A   1      40.358  28.364  29.510  1.00  0.00     0.049 A 
ATOM     25  H   UNL A   1      42.231  29.202  29.939  1.00  0.00     0.167 HD
ATOM     26  C   UNL A   1      45.805  31.702  29.382  1.00  0.00     0.037 A 
ATOM     27  C   UNL A   1      39.467  29.297  29.917  1.00  0.00     0.037 A 
ATOM     28  C   UNL A   1      45.778  31.424  30.790  1.00  0.00     0.049 A 
ATOM     29  C   UNL A   1      40.202  30.281  30.750  1.00  0.00     0.074 A 
ATOM     30  C   UNL A   1      46.508  30.613  31.636  1.00  0.00     0.029 A 
ATOM     31  N   UNL A   1      44.687  31.826  31.519  1.00  0.00    -0.354 N 
ATOM     32  N   UNL A   1      40.756  30.003  31.899  1.00  0.00    -0.248 NA
ATOM     33  C   UNL A   1      40.679  31.498  30.112  1.00  0.00     0.031 C 
ATOM     34  C   UNL A   1      45.591  30.194  32.641  1.00  0.00     0.029 A 
ATOM     35  C   UNL A   1      44.360  30.786  32.354  1.00  0.00     0.049 A 
ATOM     36  H   UNL A   1      44.226  32.693  31.456  1.00  0.00     0.167 HD
ATOM     37  C   UNL A   1      41.909  30.774  31.943  1.00  0.00     0.074 A 
ATOM     38  C   UNL A   1      41.748  31.752  30.872  1.00  0.00     0.031 C 
ATOM     39  C   UNL A   1      43.004  30.381  32.659  1.00  0.00     0.037 A 
BRANCH  26  40
ATOM     40  C   UNL A   1      45.765  33.104  28.825  1.00  0.00     0.058 A 
ATOM     41  C   UNL A   1      46.878  33.957  28.959  1.00  0.00     0.135 A 
ATOM     42  C   UNL A   1      44.564  33.725  28.413  1.00  0.00     0.135 A 
ATOM     43  F   UNL A   1      48.063  33.475  29.364  1.00  0.00    -0.206 F 
ATOM     44  C   UNL A   1      46.787  35.337  28.756  1.00  0.00     0.059 A 
ATOM     45  C   UNL A   1      44.464  35.086  28.154  1.00  0.00     0.059 A 
ATOM     46  F   UNL A   1      43.407  33.051  28.337  1.00  0.00    -0.206 F 
ATOM     47  C   UNL A   1      45.568  35.892  28.376  1.00  0.00     0.060 A 
BRANCH  47  48
ATOM     48  S   UNL A   1      45.400  37.682  28.254  1.00  0.00     0.124 S 
ATOM     49  O   UNL A   1      44.858  37.827  26.908  1.00  0.00    -0.237 OA
ATOM     50  O   UNL A   1      44.482  37.980  29.349  1.00  0.00    -0.237 OA
ATOM     51  O   UNL A   1      46.766  38.160  28.443  1.00  0.00    -0.744 OA
ENDBRANCH  47  48
ENDBRANCH  26  40
BRANCH  27  52
ATOM     52  C   UNL A   1      38.161  29.564  29.262  1.00  0.00     0.058 A 
ATOM     53  C   UNL A   1      38.048  29.685  27.870  1.00  0.00     0.135 A 
ATOM     54  C   UNL A   1      36.946  29.489  29.981  1.00  0.00     0.135 A 
ATOM     55  F   UNL A   1      39.151  29.717  27.106  1.00  0.00    -0.206 F 
ATOM     56  C   UNL A   1      36.805  29.721  27.226  1.00  0.00     0.059 A 
ATOM     57  C   UNL A   1      35.700  29.546  29.366  1.00  0.00     0.059 A 
ATOM     58  F   UNL A   1      36.932  29.269  31.305  1.00  0.00    -0.206 F 
ATOM     59  C   UNL A   1      35.636  29.644  27.985  1.00  0.00     0.060 A 
BRANCH  59  60
ATOM     60  S   UNL A   1      34.033  29.561  27.155  1.00  0.00     0.124 S 
ATOM     61  O   UNL A   1      33.550  30.930  27.297  1.00  0.00    -0.237 OA
ATOM     62  O   UNL A   1      34.410  29.153  25.805  1.00  0.00    -0.237 OA
ATOM     63  O   UNL A   1      33.303  28.558  27.925  1.00  0.00    -0.744 OA
ENDBRANCH  59  60
ENDBRANCH  27  52
BRANCH  39  64
ATOM     64  C   UNL A   1      42.851  29.226  33.616  1.00  0.00     0.058 A 
ATOM     65  C   UNL A   1      42.426  29.384  34.947  1.00  0.00     0.135 A 
ATOM     66  C   UNL A   1      42.949  27.914  33.130  1.00  0.00     0.135 A 
ATOM     67  F   UNL A   1      42.193  30.602  35.451  1.00  0.00    -0.206 F 
ATOM     68  C   UNL A   1      42.144  28.294  35.769  1.00  0.00     0.059 A 
ATOM     69  C   UNL A   1      42.643  26.808  33.924  1.00  0.00     0.059 A 
ATOM     70  F   UNL A   1      43.278  27.696  31.846  1.00  0.00    -0.206 F 
ATOM     71  C   UNL A   1      42.247  27.006  35.247  1.00  0.00     0.060 A 
BRANCH  71  72
ATOM     72  S   UNL A   1      41.754  25.607  36.277  1.00  0.00     0.124 S 
ATOM     73  O   UNL A   1      41.810  26.176  37.618  1.00  0.00    -0.237 OA
ATOM     74  O   UNL A   1      40.417  25.298  35.777  1.00  0.00    -0.237 OA
ATOM     75  O   UNL A   1      42.765  24.594  35.983  1.00  0.00    -0.744 OA
ENDBRANCH  71  72
ENDBRANCH  39  64
ENDBRANCH  13  14
ENDBRANCH   6   8
ENDBRANCH   5   6
ENDBRANCH   4   5
ENDBRANCH   3   4
ENDBRANCH   2   3
ENDBRANCH   1   2
BRANCH   1  76
ATOM     76  C   UNL A   1      39.983  23.218  26.883  1.00  0.00     0.188 C 
BRANCH  76  77
ATOM     77  O   UNL A   1      38.764  23.867  27.197  1.00  0.00    -0.376 OA
BRANCH  77  78
ATOM     78  C   UNL A   1      37.760  23.934  26.202  1.00  0.00     0.202 C 
BRANCH  78  79
ATOM     79  C   UNL A   1      37.313  22.613  25.575  1.00  0.00     0.261 C 
BRANCH  79  80
ATOM     80  O   UNL A   1      36.055  22.150  26.085  1.00  0.00    -0.458 OA
BRANCH  80  81
ATOM     81  C   UNL A   1      35.338  21.294  25.296  1.00  0.00     0.359 C 
ATOM     82  O   UNL A   1      35.722  20.206  24.891  1.00  0.00    -0.244 OA
BRANCH  81  83
ATOM     83  C   UNL A   1      34.003  21.819  25.000  1.00  0.00     0.174 A 
ATOM     84  N   UNL A   1      33.860  23.127  24.736  1.00  0.00    -0.161 NA
ATOM     85  C   UNL A   1      32.758  21.129  24.883  1.00  0.00     0.008 A 
ATOM     86  N   UNL A   1      32.541  23.312  24.539  1.00  0.00    -0.240 N 
ATOM     87  C   UNL A   1      31.838  22.142  24.674  1.00  0.00     0.119 A 
BRANCH  85  88
ATOM     88  C   UNL A   1      32.436  19.669  24.999  1.00  0.00     0.068 C 
BRANCH  88  89
ATOM     89  C   UNL A   1      32.455  18.906  23.676  1.00  0.00     0.161 C 
BRANCH  89  90
ATOM     90  O   UNL A   1      32.632  17.510  23.871  1.00  0.00    -0.396 OA
ATOM     91  H   UNL A   1      32.632  17.061  23.011  1.00  0.00     0.210 HD
ENDBRANCH  89  90
ENDBRANCH  88  89
ENDBRANCH  85  88
BRANCH  86  92
ATOM     92  C   UNL A   1      32.048  24.595  24.194  1.00  0.00     0.065 A 
ATOM     93  C   UNL A   1      31.924  24.919  22.832  1.00  0.00     0.035 A 
ATOM     94  C   UNL A   1      31.682  25.523  25.176  1.00  0.00     0.035 A 
ATOM     95  C   UNL A   1      31.413  26.158  22.448  1.00  0.00     0.088 A 
ATOM     96  C   UNL A   1      31.206  26.783  24.793  1.00  0.00     0.088 A 
ATOM     97  C   UNL A   1      31.064  27.090  23.432  1.00  0.00     0.269 A 
BRANCH  97  98
ATOM     98  N   UNL A   1      30.550  28.403  23.026  1.00  0.00     0.062 N 
ATOM     99  O   UNL A   1      29.811  28.448  22.031  1.00  0.00    -0.258 OA
ATOM    100  O   UNL A   1      30.886  29.387  23.697  1.00  0.00    -0.258 OA
ENDBRANCH  97  98
ENDBRANCH  86  92
ENDBRANCH  81  83
ENDBRANCH  80  81
ENDBRANCH  79  80
ENDBRANCH  78  79
ENDBRANCH  77  78
ENDBRANCH  76  77
ENDBRANCH   1  76
TORSDOF 25
ENDMDL
