MODEL 1
REMARK VINA RESULT:     -11.2      0.000      0.000
REMARK SMILES COc1ccccc1-n1nnc(C(=O)OCCOCCOCCOC(=O)c2ccc(-c3c4nc(c(-c5c(F)cc(S(=O)(=O)[O-])cc5F)c5ccc([nH]5)c(-c5c(F)cc(S(=O)(=O)[O-])cc5F)c5nc(c(-c6c(F)cc(S(=O)(=O)[O-])cc6F)c6ccc3[nH]6)C=C5)C=C4)cc2)c1-c1ccc(Cl)cc1
REMARK SMILES IDX 20 1 19 2 18 3 17 4 16 5 15 6 13 7 14 8 12 9 9 10 10 11
REMARK SMILES IDX 93 12 11 13 8 14 3 15 4 16 5 17 7 18 6 19 2 20 1 21 94 22
REMARK SMILES IDX 95 23 100 24 96 25 99 26 97 27 98 28 21 29 22 30 23 31 24 32
REMARK SMILES IDX 25 33 26 34 27 35 28 36 92 37 29 38 91 39 30 40 31 41 32 42
REMARK SMILES IDX 85 43 33 44 90 45 84 46 86 47 34 48 89 49 83 50 82 51 35 53
REMARK SMILES IDX 69 54 48 55 68 56 49 57 52 58 67 59 87 60 50 61 51 62 66 64
REMARK SMILES IDX 88 65 53 66 36 67 37 68 46 69 38 70 39 71 45 72 47 73 40 74
REMARK SMILES IDX 41 75 42 76 43 77 44 78 70 79 71 80 80 81 72 82 73 83 79 84
REMARK SMILES IDX 81 85 74 86 75 87 76 88 77 89 78 90 54 91 55 92 64 93 56 94
REMARK SMILES IDX 57 95 63 96 65 97 58 98 59 99 60 100 61 101 62 102
REMARK H PARENT 86 52 52 63
REMARK Flexibility Score: inf
ROOT
ATOM      1  C   UNL A   1      35.578  20.641  24.921  1.00  0.00     0.188 C 
ENDROOT
BRANCH   1   2
ATOM      2  C   UNL A   1      34.097  21.081  24.838  1.00  0.00     0.188 C 
BRANCH   2   3
ATOM      3  O   UNL A   1      33.511  21.397  23.580  1.00  0.00    -0.376 OA
BRANCH   3   4
ATOM      4  C   UNL A   1      32.931  22.679  23.363  1.00  0.00     0.202 C 
BRANCH   4   5
ATOM      5  C   UNL A   1      33.386  23.540  22.170  1.00  0.00     0.261 C 
BRANCH   5   6
ATOM      6  O   UNL A   1      33.971  24.792  22.544  1.00  0.00    -0.458 OA
BRANCH   6   7
ATOM      7  C   UNL A   1      33.525  25.919  21.913  1.00  0.00     0.361 C 
ATOM      8  O   UNL A   1      33.182  25.966  20.752  1.00  0.00    -0.244 OA
BRANCH   7   9
ATOM      9  C   UNL A   1      33.421  27.052  22.831  1.00  0.00     0.198 A 
ATOM     10  N   UNL A   1      33.310  28.416  24.518  1.00  0.00    -0.208 N 
ATOM     11  N   UNL A   1      33.122  29.149  23.398  1.00  0.00    -0.061 NA
ATOM     12  C   UNL A   1      33.289  27.061  24.215  1.00  0.00     0.109 A 
ATOM     13  N   UNL A   1      33.312  28.344  22.362  1.00  0.00    -0.122 NA
BRANCH  10  14
ATOM     14  C   UNL A   1      33.727  29.037  25.709  1.00  0.00     0.109 A 
ATOM     15  C   UNL A   1      32.944  30.042  26.292  1.00  0.00     0.144 A 
ATOM     16  C   UNL A   1      33.435  30.745  27.391  1.00  0.00     0.049 A 
ATOM     17  C   UNL A   1      34.673  30.406  27.939  1.00  0.00     0.004 A 
ATOM     18  C   UNL A   1      34.940  28.649  26.294  1.00  0.00     0.032 A 
ATOM     19  C   UNL A   1      35.417  29.352  27.402  1.00  0.00     0.003 A 
BRANCH  15  20
ATOM     20  O   UNL A   1      31.701  30.405  25.840  1.00  0.00    -0.494 OA
ATOM     21  C   UNL A   1      31.248  31.635  26.418  1.00  0.00     0.278 C 
ENDBRANCH  15  20
ENDBRANCH  10  14
BRANCH  12  22
ATOM     22  C   UNL A   1      33.152  25.985  25.197  1.00  0.00     0.003 A 
ATOM     23  C   UNL A   1      34.281  25.284  25.640  1.00  0.00     0.012 A 
ATOM     24  C   UNL A   1      31.885  25.589  25.655  1.00  0.00     0.012 A 
ATOM     25  C   UNL A   1      34.147  24.181  26.485  1.00  0.00     0.021 A 
ATOM     26  C   UNL A   1      31.750  24.492  26.512  1.00  0.00     0.021 A 
ATOM     27  C   UNL A   1      32.882  23.785  26.911  1.00  0.00     0.041 A 
ATOM     28  Cl  UNL A   1      32.720  22.404  27.924  1.00  0.00    -0.084 Cl
ENDBRANCH  12  22
ENDBRANCH   7   9
ENDBRANCH   6   7
ENDBRANCH   5   6
ENDBRANCH   4   5
ENDBRANCH   3   4
ENDBRANCH   2   3
ENDBRANCH   1   2
BRANCH   1  29
ATOM     29  O   UNL A   1      36.387  21.471  25.729  1.00  0.00    -0.376 OA
BRANCH  29  30
ATOM     30  C   UNL A   1      37.622  21.991  25.257  1.00  0.00     0.202 C 
BRANCH  30  31
ATOM     31  C   UNL A   1      38.908  21.953  26.086  1.00  0.00     0.261 C 
BRANCH  31  32
ATOM     32  O   UNL A   1      39.275  23.179  26.676  1.00  0.00    -0.460 OA
BRANCH  32  33
ATOM     33  C   UNL A   1      40.497  23.173  27.243  1.00  0.00     0.338 C 
ATOM     34  O   UNL A   1      41.028  22.245  27.832  1.00  0.00    -0.246 OA
BRANCH  33  35
ATOM     35  C   UNL A   1      41.100  24.490  27.040  1.00  0.00     0.060 A 
ATOM     36  C   UNL A   1      42.205  24.787  27.835  1.00  0.00     0.016 A 
ATOM     37  C   UNL A   1      40.351  25.474  26.376  1.00  0.00     0.016 A 
ATOM     38  C   UNL A   1      42.350  26.085  28.244  1.00  0.00     0.010 A 
ATOM     39  C   UNL A   1      40.485  26.767  26.798  1.00  0.00     0.010 A 
ATOM     40  C   UNL A   1      41.394  27.015  27.820  1.00  0.00    -0.014 A 
BRANCH  40  41
ATOM     41  C   UNL A   1      41.345  28.273  28.520  1.00  0.00     0.031 A 
ATOM     42  C   UNL A   1      42.486  29.132  28.179  1.00  0.00     0.074 A 
ATOM     43  C   UNL A   1      40.311  28.588  29.322  1.00  0.00     0.049 A 
ATOM     44  N   UNL A   1      43.534  29.370  28.892  1.00  0.00    -0.248 NA
ATOM     45  C   UNL A   1      42.581  29.595  26.785  1.00  0.00     0.031 C 
ATOM     46  C   UNL A   1      39.020  27.894  29.421  1.00  0.00     0.029 A 
ATOM     47  N   UNL A   1      40.144  29.660  30.141  1.00  0.00    -0.354 N 
ATOM     48  C   UNL A   1      44.266  30.272  28.132  1.00  0.00     0.074 A 
ATOM     49  C   UNL A   1      43.795  30.149  26.779  1.00  0.00     0.031 C 
ATOM     50  C   UNL A   1      38.132  28.694  30.053  1.00  0.00     0.029 A 
ATOM     51  C   UNL A   1      38.830  29.873  30.535  1.00  0.00     0.049 A 
ATOM     52  H   UNL A   1      40.890  30.235  30.429  1.00  0.00     0.167 HD
ATOM     53  C   UNL A   1      44.902  31.310  28.736  1.00  0.00     0.037 A 
ATOM     54  C   UNL A   1      38.354  30.987  31.144  1.00  0.00     0.037 A 
ATOM     55  C   UNL A   1      45.000  31.104  30.158  1.00  0.00     0.049 A 
ATOM     56  C   UNL A   1      39.508  31.670  31.781  1.00  0.00     0.074 A 
ATOM     57  C   UNL A   1      45.783  30.358  31.009  1.00  0.00     0.029 A 
ATOM     58  N   UNL A   1      43.880  31.481  30.853  1.00  0.00    -0.354 N 
ATOM     59  N   UNL A   1      40.214  31.143  32.748  1.00  0.00    -0.248 NA
ATOM     60  C   UNL A   1      40.134  32.803  31.104  1.00  0.00     0.031 C 
ATOM     61  C   UNL A   1      45.035  30.202  32.213  1.00  0.00     0.029 A 
ATOM     62  C   UNL A   1      43.824  30.877  32.082  1.00  0.00     0.049 A 
ATOM     63  H   UNL A   1      43.200  32.107  30.513  1.00  0.00     0.167 HD
ATOM     64  C   UNL A   1      41.499  31.601  32.530  1.00  0.00     0.074 A 
ATOM     65  C   UNL A   1      41.363  32.731  31.622  1.00  0.00     0.031 C 
ATOM     66  C   UNL A   1      42.584  30.832  32.828  1.00  0.00     0.037 A 
BRANCH  53  67
ATOM     67  C   UNL A   1      44.976  32.698  28.146  1.00  0.00     0.058 A 
ATOM     68  C   UNL A   1      46.223  33.202  27.733  1.00  0.00     0.135 A 
ATOM     69  C   UNL A   1      43.933  33.651  28.233  1.00  0.00     0.135 A 
ATOM     70  F   UNL A   1      47.289  32.390  27.645  1.00  0.00    -0.206 F 
ATOM     71  C   UNL A   1      46.428  34.556  27.463  1.00  0.00     0.059 A 
ATOM     72  C   UNL A   1      44.099  34.990  27.910  1.00  0.00     0.059 A 
ATOM     73  F   UNL A   1      42.727  33.357  28.733  1.00  0.00    -0.206 F 
ATOM     74  C   UNL A   1      45.358  35.442  27.562  1.00  0.00     0.060 A 
BRANCH  74  75
ATOM     75  S   UNL A   1      45.626  37.200  27.290  1.00  0.00     0.124 S 
ATOM     76  O   UNL A   1      46.204  37.608  28.566  1.00  0.00    -0.237 OA
ATOM     77  O   UNL A   1      46.534  37.195  26.147  1.00  0.00    -0.237 OA
ATOM     78  O   UNL A   1      44.284  37.706  27.012  1.00  0.00    -0.744 OA
ENDBRANCH  74  75
ENDBRANCH  53  67
BRANCH  54  79
ATOM     79  C   UNL A   1      37.058  31.668  30.888  1.00  0.00     0.058 A 
ATOM     80  C   UNL A   1      36.080  31.771  31.892  1.00  0.00     0.135 A 
ATOM     81  C   UNL A   1      36.871  32.478  29.750  1.00  0.00     0.135 A 
ATOM     82  F   UNL A   1      36.192  31.047  33.017  1.00  0.00    -0.206 F 
ATOM     83  C   UNL A   1      35.008  32.666  31.799  1.00  0.00     0.059 A 
ATOM     84  C   UNL A   1      35.807  33.371  29.631  1.00  0.00     0.059 A 
ATOM     85  F   UNL A   1      37.771  32.494  28.756  1.00  0.00    -0.206 F 
ATOM     86  C   UNL A   1      34.893  33.479  30.672  1.00  0.00     0.060 A 
BRANCH  86  87
ATOM     87  S   UNL A   1      33.614  34.757  30.626  1.00  0.00     0.124 S 
ATOM     88  O   UNL A   1      34.408  35.968  30.446  1.00  0.00    -0.237 OA
ATOM     89  O   UNL A   1      32.809  34.347  29.482  1.00  0.00    -0.237 OA
ATOM     90  O   UNL A   1      32.959  34.629  31.925  1.00  0.00    -0.744 OA
ENDBRANCH  86  87
ENDBRANCH  54  79
BRANCH  66  91
ATOM     91  C   UNL A   1      42.439  29.791  33.896  1.00  0.00     0.058 A 
ATOM     92  C   UNL A   1      42.415  30.046  35.276  1.00  0.00     0.135 A 
ATOM     93  C   UNL A   1      42.204  28.473  33.476  1.00  0.00     0.135 A 
ATOM     94  F   UNL A   1      42.567  31.293  35.747  1.00  0.00    -0.206 F 
ATOM     95  C   UNL A   1      42.178  29.026  36.201  1.00  0.00     0.059 A 
ATOM     96  C   UNL A   1      41.940  27.447  34.377  1.00  0.00     0.059 A 
ATOM     97  F   UNL A   1      42.177  28.179  32.166  1.00  0.00    -0.206 F 
ATOM     98  C   UNL A   1      41.935  27.730  35.739  1.00  0.00     0.060 A 
BRANCH  98  99
ATOM     99  S   UNL A   1      41.537  26.425  36.924  1.00  0.00     0.124 S 
ATOM    100  O   UNL A   1      41.363  25.264  36.057  1.00  0.00    -0.237 OA
ATOM    101  O   UNL A   1      42.717  26.405  37.782  1.00  0.00    -0.237 OA
ATOM    102  O   UNL A   1      40.318  26.909  37.568  1.00  0.00    -0.744 OA
ENDBRANCH  98  99
ENDBRANCH  66  91
ENDBRANCH  40  41
ENDBRANCH  33  35
ENDBRANCH  32  33
ENDBRANCH  31  32
ENDBRANCH  30  31
ENDBRANCH  29  30
ENDBRANCH   1  29
TORSDOF 23
ENDMDL
MODEL 2
REMARK VINA RESULT:     -11.1      1.398      2.201
REMARK SMILES COc1ccccc1-n1nnc(C(=O)OCCOCCOCCOC(=O)c2ccc(-c3c4nc(c(-c5c(F)cc(S(=O)(=O)[O-])cc5F)c5ccc([nH]5)c(-c5c(F)cc(S(=O)(=O)[O-])cc5F)c5nc(c(-c6c(F)cc(S(=O)(=O)[O-])cc6F)c6ccc3[nH]6)C=C5)C=C4)cc2)c1-c1ccc(Cl)cc1
REMARK SMILES IDX 20 1 19 2 18 3 17 4 16 5 15 6 13 7 14 8 12 9 9 10 10 11
REMARK SMILES IDX 93 12 11 13 8 14 3 15 4 16 5 17 7 18 6 19 2 20 1 21 94 22
REMARK SMILES IDX 95 23 100 24 96 25 99 26 97 27 98 28 21 29 22 30 23 31 24 32
REMARK SMILES IDX 25 33 26 34 27 35 28 36 92 37 29 38 91 39 30 40 31 41 32 42
REMARK SMILES IDX 85 43 33 44 90 45 84 46 86 47 34 48 89 49 83 50 82 51 35 53
REMARK SMILES IDX 69 54 48 55 68 56 49 57 52 58 67 59 87 60 50 61 51 62 66 64
REMARK SMILES IDX 88 65 53 66 36 67 37 68 46 69 38 70 39 71 45 72 47 73 40 74
REMARK SMILES IDX 41 75 42 76 43 77 44 78 70 79 71 80 80 81 72 82 73 83 79 84
REMARK SMILES IDX 81 85 74 86 75 87 76 88 77 89 78 90 54 91 55 92 64 93 56 94
REMARK SMILES IDX 57 95 63 96 65 97 58 98 59 99 60 100 61 101 62 102
REMARK H PARENT 86 52 52 63
REMARK Flexibility Score: inf
ROOT
ATOM      1  C   UNL A   1      39.828  22.170  26.541  1.00  0.00     0.188 C 
ENDROOT
BRANCH   1   2
ATOM      2  C   UNL A   1      38.711  21.599  25.635  1.00  0.00     0.188 C 
BRANCH   2   3
ATOM      3  O   UNL A   1      37.614  22.418  25.246  1.00  0.00    -0.376 OA
BRANCH   3   4
ATOM      4  C   UNL A   1      36.732  21.988  24.215  1.00  0.00     0.202 C 
BRANCH   4   5
ATOM      5  C   UNL A   1      35.349  22.647  24.058  1.00  0.00     0.261 C 
BRANCH   5   6
ATOM      6  O   UNL A   1      35.080  23.130  22.737  1.00  0.00    -0.458 OA
BRANCH   6   7
ATOM      7  C   UNL A   1      33.816  23.572  22.464  1.00  0.00     0.361 C 
ATOM      8  O   UNL A   1      32.931  22.882  22.008  1.00  0.00    -0.244 OA
BRANCH   7   9
ATOM      9  C   UNL A   1      33.626  24.963  22.872  1.00  0.00     0.198 A 
ATOM     10  N   UNL A   1      33.140  26.844  23.843  1.00  0.00    -0.208 N 
ATOM     11  N   UNL A   1      33.705  27.143  22.651  1.00  0.00    -0.061 NA
ATOM     12  C   UNL A   1      32.880  25.483  23.924  1.00  0.00     0.109 A 
ATOM     13  N   UNL A   1      34.114  26.004  22.111  1.00  0.00    -0.122 NA
BRANCH  10  14
ATOM     14  C   UNL A   1      33.118  27.800  24.875  1.00  0.00     0.109 A 
ATOM     15  C   UNL A   1      32.392  28.988  24.721  1.00  0.00     0.144 A 
ATOM     16  C   UNL A   1      32.493  29.984  25.690  1.00  0.00     0.049 A 
ATOM     17  C   UNL A   1      33.265  29.771  26.833  1.00  0.00     0.004 A 
ATOM     18  C   UNL A   1      33.842  27.554  26.049  1.00  0.00     0.032 A 
ATOM     19  C   UNL A   1      33.925  28.555  27.020  1.00  0.00     0.003 A 
BRANCH  15  20
ATOM     20  O   UNL A   1      31.579  29.257  23.650  1.00  0.00    -0.494 OA
ATOM     21  C   UNL A   1      30.203  28.970  23.923  1.00  0.00     0.278 C 
ENDBRANCH  15  20
ENDBRANCH  10  14
BRANCH  12  22
ATOM     22  C   UNL A   1      32.009  24.854  24.918  1.00  0.00     0.003 A 
ATOM     23  C   UNL A   1      32.414  23.683  25.571  1.00  0.00     0.012 A 
ATOM     24  C   UNL A   1      30.729  25.368  25.178  1.00  0.00     0.012 A 
ATOM     25  C   UNL A   1      31.543  23.012  26.431  1.00  0.00     0.021 A 
ATOM     26  C   UNL A   1      29.860  24.705  26.050  1.00  0.00     0.021 A 
ATOM     27  C   UNL A   1      30.268  23.521  26.661  1.00  0.00     0.041 A 
ATOM     28  Cl  UNL A   1      29.186  22.671  27.694  1.00  0.00    -0.084 Cl
ENDBRANCH  12  22
ENDBRANCH   7   9
ENDBRANCH   6   7
ENDBRANCH   5   6
ENDBRANCH   4   5
ENDBRANCH   3   4
ENDBRANCH   2   3
ENDBRANCH   1   2
BRANCH   1  29
ATOM     29  O   UNL A   1      40.839  21.241  26.873  1.00  0.00    -0.376 OA
BRANCH  29  30
ATOM     30  C   UNL A   1      41.890  20.930  25.969  1.00  0.00     0.202 C 
BRANCH  30  31
ATOM     31  C   UNL A   1      43.084  21.859  25.735  1.00  0.00     0.261 C 
BRANCH  31  32
ATOM     32  O   UNL A   1      42.867  22.886  24.796  1.00  0.00    -0.460 OA
BRANCH  32  33
ATOM     33  C   UNL A   1      43.311  24.095  25.191  1.00  0.00     0.338 C 
ATOM     34  O   UNL A   1      44.360  24.631  24.874  1.00  0.00    -0.246 OA
BRANCH  33  35
ATOM     35  C   UNL A   1      42.312  24.677  26.087  1.00  0.00     0.060 A 
ATOM     36  C   UNL A   1      41.464  25.628  25.523  1.00  0.00     0.016 A 
ATOM     37  C   UNL A   1      42.496  24.544  27.472  1.00  0.00     0.016 A 
ATOM     38  C   UNL A   1      41.070  26.666  26.323  1.00  0.00     0.010 A 
ATOM     39  C   UNL A   1      42.118  25.590  28.266  1.00  0.00     0.010 A 
ATOM     40  C   UNL A   1      41.530  26.686  27.644  1.00  0.00    -0.014 A 
BRANCH  40  41
ATOM     41  C   UNL A   1      41.412  27.928  28.364  1.00  0.00     0.031 A 
ATOM     42  C   UNL A   1      42.580  28.792  28.158  1.00  0.00     0.074 A 
ATOM     43  C   UNL A   1      40.303  28.227  29.067  1.00  0.00     0.049 A 
ATOM     44  N   UNL A   1      43.552  29.012  28.975  1.00  0.00    -0.248 NA
ATOM     45  C   UNL A   1      42.812  29.286  26.790  1.00  0.00     0.031 C 
ATOM     46  C   UNL A   1      39.008  27.533  29.021  1.00  0.00     0.029 A 
ATOM     47  N   UNL A   1      40.056  29.281  29.890  1.00  0.00    -0.354 N 
ATOM     48  C   UNL A   1      44.356  29.930  28.312  1.00  0.00     0.074 A 
ATOM     49  C   UNL A   1      44.021  29.838  26.917  1.00  0.00     0.031 C 
ATOM     50  C   UNL A   1      38.062  28.321  29.580  1.00  0.00     0.029 A 
ATOM     51  C   UNL A   1      38.708  29.487  30.156  1.00  0.00     0.049 A 
ATOM     52  H   UNL A   1      40.769  29.847  30.263  1.00  0.00     0.167 HD
ATOM     53  C   UNL A   1      44.929  30.953  29.000  1.00  0.00     0.037 A 
ATOM     54  C   UNL A   1      38.174  30.588  30.740  1.00  0.00     0.037 A 
ATOM     55  C   UNL A   1      44.885  30.713  30.419  1.00  0.00     0.049 A 
ATOM     56  C   UNL A   1      39.260  31.254  31.503  1.00  0.00     0.074 A 
ATOM     57  C   UNL A   1      45.581  29.947  31.327  1.00  0.00     0.029 A 
ATOM     58  N   UNL A   1      43.702  31.077  31.008  1.00  0.00    -0.354 N 
ATOM     59  N   UNL A   1      39.866  30.704  32.523  1.00  0.00    -0.248 NA
ATOM     60  C   UNL A   1      39.950  32.401  30.917  1.00  0.00     0.031 C 
ATOM     61  C   UNL A   1      44.717  29.766  32.447  1.00  0.00     0.029 A 
ATOM     62  C   UNL A   1      43.525  30.446  32.212  1.00  0.00     0.049 A 
ATOM     63  H   UNL A   1      43.059  31.712  30.617  1.00  0.00     0.167 HD
ATOM     64  C   UNL A   1      41.167  31.164  32.444  1.00  0.00     0.074 A 
ATOM     65  C   UNL A   1      41.121  32.314  31.552  1.00  0.00     0.031 C 
ATOM     66  C   UNL A   1      42.217  30.386  32.831  1.00  0.00     0.037 A 
BRANCH  53  67
ATOM     67  C   UNL A   1      45.060  32.353  28.452  1.00  0.00     0.058 A 
ATOM     68  C   UNL A   1      46.343  32.866  28.182  1.00  0.00     0.135 A 
ATOM     69  C   UNL A   1      44.012  33.304  28.451  1.00  0.00     0.135 A 
ATOM     70  F   UNL A   1      47.413  32.056  28.186  1.00  0.00    -0.206 F 
ATOM     71  C   UNL A   1      46.571  34.226  27.965  1.00  0.00     0.059 A 
ATOM     72  C   UNL A   1      44.207  34.650  28.177  1.00  0.00     0.059 A 
ATOM     73  F   UNL A   1      42.761  32.999  28.817  1.00  0.00    -0.206 F 
ATOM     74  C   UNL A   1      45.495  35.110  27.972  1.00  0.00     0.060 A 
BRANCH  74  75
ATOM     75  S   UNL A   1      45.786  36.873  27.768  1.00  0.00     0.124 S 
ATOM     76  O   UNL A   1      45.748  37.337  29.150  1.00  0.00    -0.237 OA
ATOM     77  O   UNL A   1      47.094  36.891  27.120  1.00  0.00    -0.237 OA
ATOM     78  O   UNL A   1      44.673  37.302  26.925  1.00  0.00    -0.744 OA
ENDBRANCH  74  75
ENDBRANCH  53  67
BRANCH  54  79
ATOM     79  C   UNL A   1      36.910  31.276  30.373  1.00  0.00     0.058 A 
ATOM     80  C   UNL A   1      36.093  31.868  31.351  1.00  0.00     0.135 A 
ATOM     81  C   UNL A   1      36.626  31.617  29.034  1.00  0.00     0.135 A 
ATOM     82  F   UNL A   1      36.307  31.611  32.651  1.00  0.00    -0.206 F 
ATOM     83  C   UNL A   1      35.089  32.786  31.027  1.00  0.00     0.059 A 
ATOM     84  C   UNL A   1      35.626  32.524  28.687  1.00  0.00     0.059 A 
ATOM     85  F   UNL A   1      37.376  31.148  28.026  1.00  0.00    -0.206 F 
ATOM     86  C   UNL A   1      34.877  33.125  29.691  1.00  0.00     0.060 A 
BRANCH  86  87
ATOM     87  S   UNL A   1      33.704  34.440  29.282  1.00  0.00     0.124 S 
ATOM     88  O   UNL A   1      33.133  34.748  30.589  1.00  0.00    -0.237 OA
ATOM     89  O   UNL A   1      34.573  35.461  28.709  1.00  0.00    -0.237 OA
ATOM     90  O   UNL A   1      32.792  33.799  28.339  1.00  0.00    -0.744 OA
ENDBRANCH  86  87
ENDBRANCH  54  79
BRANCH  66  91
ATOM     91  C   UNL A   1      41.967  29.322  33.855  1.00  0.00     0.058 A 
ATOM     92  C   UNL A   1      41.547  28.012  33.573  1.00  0.00     0.135 A 
ATOM     93  C   UNL A   1      42.279  29.630  35.187  1.00  0.00     0.135 A 
ATOM     94  F   UNL A   1      41.293  27.628  32.313  1.00  0.00    -0.206 F 
ATOM     95  C   UNL A   1      41.430  27.053  34.582  1.00  0.00     0.059 A 
ATOM     96  C   UNL A   1      42.197  28.684  36.202  1.00  0.00     0.059 A 
ATOM     97  F   UNL A   1      42.724  30.856  35.507  1.00  0.00    -0.206 F 
ATOM     98  C   UNL A   1      41.766  27.398  35.894  1.00  0.00     0.060 A 
BRANCH  98  99
ATOM     99  S   UNL A   1      41.707  26.137  37.187  1.00  0.00     0.124 S 
ATOM    100  O   UNL A   1      40.339  26.265  37.679  1.00  0.00    -0.237 OA
ATOM    101  O   UNL A   1      42.004  24.913  36.449  1.00  0.00    -0.237 OA
ATOM    102  O   UNL A   1      42.748  26.557  38.122  1.00  0.00    -0.744 OA
ENDBRANCH  98  99
ENDBRANCH  66  91
ENDBRANCH  40  41
ENDBRANCH  33  35
ENDBRANCH  32  33
ENDBRANCH  31  32
ENDBRANCH  30  31
ENDBRANCH  29  30
ENDBRANCH   1  29
TORSDOF 23
ENDMDL
MODEL 3
REMARK VINA RESULT:     -10.9      3.053      4.112
REMARK SMILES COc1ccccc1-n1nnc(C(=O)OCCOCCOCCOC(=O)c2ccc(-c3c4nc(c(-c5c(F)cc(S(=O)(=O)[O-])cc5F)c5ccc([nH]5)c(-c5c(F)cc(S(=O)(=O)[O-])cc5F)c5nc(c(-c6c(F)cc(S(=O)(=O)[O-])cc6F)c6ccc3[nH]6)C=C5)C=C4)cc2)c1-c1ccc(Cl)cc1
REMARK SMILES IDX 20 1 19 2 18 3 17 4 16 5 15 6 13 7 14 8 12 9 9 10 10 11
REMARK SMILES IDX 93 12 11 13 8 14 3 15 4 16 5 17 7 18 6 19 2 20 1 21 94 22
REMARK SMILES IDX 95 23 100 24 96 25 99 26 97 27 98 28 21 29 22 30 23 31 24 32
REMARK SMILES IDX 25 33 26 34 27 35 28 36 92 37 29 38 91 39 30 40 31 41 32 42
REMARK SMILES IDX 85 43 33 44 90 45 84 46 86 47 34 48 89 49 83 50 82 51 35 53
REMARK SMILES IDX 69 54 48 55 68 56 49 57 52 58 67 59 87 60 50 61 51 62 66 64
REMARK SMILES IDX 88 65 53 66 36 67 37 68 46 69 38 70 39 71 45 72 47 73 40 74
REMARK SMILES IDX 41 75 42 76 43 77 44 78 70 79 71 80 80 81 72 82 73 83 79 84
REMARK SMILES IDX 81 85 74 86 75 87 76 88 77 89 78 90 54 91 55 92 64 93 56 94
REMARK SMILES IDX 57 95 63 96 65 97 58 98 59 99 60 100 61 101 62 102
REMARK H PARENT 86 52 52 63
REMARK Flexibility Score: inf
ROOT
ATOM      1  C   UNL A   1      39.508  22.229  26.585  1.00  0.00     0.188 C 
ENDROOT
BRANCH   1   2
ATOM      2  C   UNL A   1      38.528  21.384  25.737  1.00  0.00     0.188 C 
BRANCH   2   3
ATOM      3  O   UNL A   1      37.221  21.870  25.452  1.00  0.00    -0.376 OA
BRANCH   3   4
ATOM      4  C   UNL A   1      36.919  22.394  24.163  1.00  0.00     0.202 C 
BRANCH   4   5
ATOM      5  C   UNL A   1      35.689  23.300  23.968  1.00  0.00     0.261 C 
BRANCH   5   6
ATOM      6  O   UNL A   1      35.208  23.347  22.620  1.00  0.00    -0.458 OA
BRANCH   6   7
ATOM      7  C   UNL A   1      33.858  23.431  22.426  1.00  0.00     0.361 C 
ATOM      8  O   UNL A   1      33.134  22.481  22.224  1.00  0.00    -0.244 OA
BRANCH   7   9
ATOM      9  C   UNL A   1      33.370  24.800  22.582  1.00  0.00     0.198 A 
ATOM     10  N   UNL A   1      32.470  26.676  23.205  1.00  0.00    -0.208 N 
ATOM     11  N   UNL A   1      33.006  26.876  21.980  1.00  0.00    -0.061 NA
ATOM     12  C   UNL A   1      32.493  25.325  23.524  1.00  0.00     0.109 A 
ATOM     13  N   UNL A   1      33.662  25.773  21.650  1.00  0.00    -0.122 NA
BRANCH  10  14
ATOM     14  C   UNL A   1      32.212  27.769  24.052  1.00  0.00     0.109 A 
ATOM     15  C   UNL A   1      31.078  28.566  23.849  1.00  0.00     0.144 A 
ATOM     16  C   UNL A   1      30.909  29.724  24.605  1.00  0.00     0.049 A 
ATOM     17  C   UNL A   1      31.835  30.052  25.596  1.00  0.00     0.004 A 
ATOM     18  C   UNL A   1      33.109  28.056  25.088  1.00  0.00     0.032 A 
ATOM     19  C   UNL A   1      32.923  29.214  25.848  1.00  0.00     0.003 A 
BRANCH  15  20
ATOM     20  O   UNL A   1      30.102  28.292  22.926  1.00  0.00    -0.494 OA
ATOM     21  C   UNL A   1      29.304  29.440  22.616  1.00  0.00     0.278 C 
ENDBRANCH  15  20
ENDBRANCH  10  14
BRANCH  12  22
ATOM     22  C   UNL A   1      31.733  24.708  24.612  1.00  0.00     0.003 A 
ATOM     23  C   UNL A   1      32.007  23.393  25.009  1.00  0.00     0.012 A 
ATOM     24  C   UNL A   1      30.671  25.394  25.224  1.00  0.00     0.012 A 
ATOM     25  C   UNL A   1      31.211  22.758  25.963  1.00  0.00     0.021 A 
ATOM     26  C   UNL A   1      29.880  24.762  26.190  1.00  0.00     0.021 A 
ATOM     27  C   UNL A   1      30.147  23.442  26.543  1.00  0.00     0.041 A 
ATOM     28  Cl  UNL A   1      29.147  22.642  27.692  1.00  0.00    -0.084 Cl
ENDBRANCH  12  22
ENDBRANCH   7   9
ENDBRANCH   6   7
ENDBRANCH   5   6
ENDBRANCH   4   5
ENDBRANCH   3   4
ENDBRANCH   2   3
ENDBRANCH   1   2
BRANCH   1  29
ATOM     29  O   UNL A   1      40.230  21.491  27.550  1.00  0.00    -0.376 OA
BRANCH  29  30
ATOM     30  C   UNL A   1      41.620  21.237  27.403  1.00  0.00     0.202 C 
BRANCH  30  31
ATOM     31  C   UNL A   1      42.165  20.027  26.640  1.00  0.00     0.261 C 
BRANCH  31  32
ATOM     32  O   UNL A   1      42.684  20.312  25.362  1.00  0.00    -0.460 OA
BRANCH  32  33
ATOM     33  C   UNL A   1      44.031  20.309  25.301  1.00  0.00     0.338 C 
ATOM     34  O   UNL A   1      44.765  19.336  25.349  1.00  0.00    -0.246 OA
BRANCH  33  35
ATOM     35  C   UNL A   1      44.483  21.694  25.171  1.00  0.00     0.060 A 
ATOM     36  C   UNL A   1      45.559  22.065  25.975  1.00  0.00     0.016 A 
ATOM     37  C   UNL A   1      43.623  22.626  24.569  1.00  0.00     0.016 A 
ATOM     38  C   UNL A   1      45.566  23.346  26.456  1.00  0.00     0.010 A 
ATOM     39  C   UNL A   1      43.620  23.900  25.064  1.00  0.00     0.010 A 
ATOM     40  C   UNL A   1      44.509  24.188  26.093  1.00  0.00    -0.014 A 
BRANCH  40  41
ATOM     41  C   UNL A   1      44.332  25.391  26.864  1.00  0.00     0.031 A 
ATOM     42  C   UNL A   1      45.426  26.344  26.648  1.00  0.00     0.074 A 
ATOM     43  C   UNL A   1      43.233  25.584  27.619  1.00  0.00     0.049 A 
ATOM     44  N   UNL A   1      46.413  26.605  27.437  1.00  0.00    -0.248 NA
ATOM     45  C   UNL A   1      45.569  26.904  25.294  1.00  0.00     0.031 C 
ATOM     46  C   UNL A   1      41.990  24.800  27.595  1.00  0.00     0.029 A 
ATOM     47  N   UNL A   1      42.945  26.587  28.490  1.00  0.00    -0.354 N 
ATOM     48  C   UNL A   1      47.122  27.602  26.781  1.00  0.00     0.074 A 
ATOM     49  C   UNL A   1      46.739  27.536  25.397  1.00  0.00     0.031 C 
ATOM     50  C   UNL A   1      41.013  25.497  28.218  1.00  0.00     0.029 A 
ATOM     51  C   UNL A   1      41.598  26.685  28.814  1.00  0.00     0.049 A 
ATOM     52  H   UNL A   1      43.630  27.190  28.858  1.00  0.00     0.167 HD
ATOM     53  C   UNL A   1      47.648  28.638  27.486  1.00  0.00     0.037 A 
ATOM     54  C   UNL A   1      41.011  27.723  29.460  1.00  0.00     0.037 A 
ATOM     55  C   UNL A   1      47.678  28.346  28.896  1.00  0.00     0.049 A 
ATOM     56  C   UNL A   1      42.076  28.438  30.208  1.00  0.00     0.074 A 
ATOM     57  C   UNL A   1      48.461  27.600  29.747  1.00  0.00     0.029 A 
ATOM     58  N   UNL A   1      46.496  28.601  29.542  1.00  0.00    -0.354 N 
ATOM     59  N   UNL A   1      42.760  27.896  31.183  1.00  0.00    -0.248 NA
ATOM     60  C   UNL A   1      42.658  29.652  29.641  1.00  0.00     0.031 C 
ATOM     61  C   UNL A   1      47.658  27.316  30.890  1.00  0.00     0.029 A 
ATOM     62  C   UNL A   1      46.412  27.915  30.726  1.00  0.00     0.049 A 
ATOM     63  H   UNL A   1      45.795  29.202  29.200  1.00  0.00     0.167 HD
ATOM     64  C   UNL A   1      44.020  28.453  31.073  1.00  0.00     0.074 A 
ATOM     65  C   UNL A   1      43.858  29.628  30.229  1.00  0.00     0.031 C 
ATOM     66  C   UNL A   1      45.138  27.739  31.390  1.00  0.00     0.037 A 
BRANCH  53  67
ATOM     67  C   UNL A   1      47.657  30.063  26.988  1.00  0.00     0.058 A 
ATOM     68  C   UNL A   1      48.848  30.810  27.069  1.00  0.00     0.135 A 
ATOM     69  C   UNL A   1      46.489  30.810  26.704  1.00  0.00     0.135 A 
ATOM     70  F   UNL A   1      50.010  30.205  27.362  1.00  0.00    -0.206 F 
ATOM     71  C   UNL A   1      48.869  32.197  26.916  1.00  0.00     0.059 A 
ATOM     72  C   UNL A   1      46.498  32.180  26.488  1.00  0.00     0.059 A 
ATOM     73  F   UNL A   1      45.265  30.269  26.723  1.00  0.00    -0.206 F 
ATOM     74  C   UNL A   1      47.685  32.872  26.632  1.00  0.00     0.060 A 
BRANCH  74  75
ATOM     75  S   UNL A   1      47.689  34.667  26.508  1.00  0.00     0.124 S 
ATOM     76  O   UNL A   1      46.481  35.013  27.249  1.00  0.00    -0.237 OA
ATOM     77  O   UNL A   1      48.955  35.012  27.146  1.00  0.00    -0.237 OA
ATOM     78  O   UNL A   1      47.636  34.904  25.067  1.00  0.00    -0.744 OA
ENDBRANCH  74  75
ENDBRANCH  53  67
BRANCH  54  79
ATOM     79  C   UNL A   1      39.687  28.331  29.167  1.00  0.00     0.058 A 
ATOM     80  C   UNL A   1      38.757  28.577  30.191  1.00  0.00     0.135 A 
ATOM     81  C   UNL A   1      39.424  28.944  27.925  1.00  0.00     0.135 A 
ATOM     82  F   UNL A   1      38.941  28.045  31.409  1.00  0.00    -0.206 F 
ATOM     83  C   UNL A   1      37.659  29.426  30.012  1.00  0.00     0.059 A 
ATOM     84  C   UNL A   1      38.333  29.788  27.721  1.00  0.00     0.059 A 
ATOM     85  F   UNL A   1      40.274  28.816  26.895  1.00  0.00    -0.206 F 
ATOM     86  C   UNL A   1      37.469  30.045  28.777  1.00  0.00     0.060 A 
BRANCH  86  87
ATOM     87  S   UNL A   1      36.157  31.278  28.595  1.00  0.00     0.124 S 
ATOM     88  O   UNL A   1      35.447  30.787  27.418  1.00  0.00    -0.237 OA
ATOM     89  O   UNL A   1      35.446  31.162  29.863  1.00  0.00    -0.237 OA
ATOM     90  O   UNL A   1      36.889  32.527  28.405  1.00  0.00    -0.744 OA
ENDBRANCH  86  87
ENDBRANCH  54  79
BRANCH  66  91
ATOM     91  C   UNL A   1      45.005  26.623  32.380  1.00  0.00     0.058 A 
ATOM     92  C   UNL A   1      44.873  26.786  33.768  1.00  0.00     0.135 A 
ATOM     93  C   UNL A   1      44.899  25.322  31.868  1.00  0.00     0.135 A 
ATOM     94  F   UNL A   1      44.898  28.008  34.323  1.00  0.00    -0.206 F 
ATOM     95  C   UNL A   1      44.657  25.693  34.612  1.00  0.00     0.059 A 
ATOM     96  C   UNL A   1      44.658  24.224  32.685  1.00  0.00     0.059 A 
ATOM     97  F   UNL A   1      44.979  25.113  30.543  1.00  0.00    -0.206 F 
ATOM     98  C   UNL A   1      44.544  24.415  34.058  1.00  0.00     0.060 A 
BRANCH  98  99
ATOM     99  S   UNL A   1      44.172  23.011  35.132  1.00  0.00     0.124 S 
ATOM    100  O   UNL A   1      44.387  21.876  34.241  1.00  0.00    -0.237 OA
ATOM    101  O   UNL A   1      45.147  23.168  36.206  1.00  0.00    -0.237 OA
ATOM    102  O   UNL A   1      42.784  23.240  35.525  1.00  0.00    -0.744 OA
ENDBRANCH  98  99
ENDBRANCH  66  91
ENDBRANCH  40  41
ENDBRANCH  33  35
ENDBRANCH  32  33
ENDBRANCH  31  32
ENDBRANCH  30  31
ENDBRANCH  29  30
ENDBRANCH   1  29
TORSDOF 23
ENDMDL
