MODEL 1
REMARK VINA RESULT:     -10.6      0.000      0.000
REMARK SMILES CC(=O)Nc1cccc(NS(=O)(=O)c2cccc(C(=O)OCCOCCOCCOC(=O)c3ccc(-c4c5nc(c(-c6c(F)cc(S(=O)(=O)[O-])cc6F)c6ccc([nH]6)c(-c6c(F)cc(S(=O)(=O)[O-])cc6F)c6nc(c(-c7c(F)cc(S(=O)(=O)[O-])cc7F)c7ccc4[nH]7)C=C6)C=C5)cc3)c2)c1
REMARK SMILES IDX 25 1 24 2 23 3 22 4 21 5 19 6 20 7 18 8 14 9 15 10 99 11
REMARK SMILES IDX 16 12 17 13 11 14 12 15 13 16 10 17 9 19 5 20 6 21 100 22
REMARK SMILES IDX 7 23 8 24 4 25 1 26 2 27 3 28 26 30 27 31 28 32 29 33 30 34
REMARK SMILES IDX 31 35 32 36 33 37 34 38 98 39 35 40 97 41 36 42 37 43 38 44
REMARK SMILES IDX 91 45 39 46 96 47 90 48 92 49 40 50 95 51 89 52 88 53 41 55
REMARK SMILES IDX 75 56 54 57 74 58 55 59 58 60 73 61 93 62 56 63 57 64 72 66
REMARK SMILES IDX 94 67 59 68 42 69 43 70 52 71 44 72 45 73 51 74 53 75 46 76
REMARK SMILES IDX 47 77 48 78 49 79 50 80 76 81 77 82 86 83 78 84 79 85 85 86
REMARK SMILES IDX 87 87 80 88 81 89 82 90 83 91 84 92 60 93 61 94 70 95 62 96
REMARK SMILES IDX 63 97 69 98 71 99 64 100 65 101 66 102 67 103 68 104
REMARK H PARENT 10 18 4 29 92 54 58 65
REMARK Flexibility Score: inf
ROOT
ATOM      1  C   UNL A   1      35.327  24.167  24.899  1.00  0.00     0.188 C 
ENDROOT
BRANCH   1   2
ATOM      2  O   UNL A   1      35.693  22.841  24.567  1.00  0.00    -0.376 OA
BRANCH   2   3
ATOM      3  C   UNL A   1      35.174  21.757  25.317  1.00  0.00     0.202 C 
BRANCH   3   4
ATOM      4  C   UNL A   1      34.274  20.709  24.657  1.00  0.00     0.261 C 
BRANCH   4   5
ATOM      5  O   UNL A   1      32.874  21.010  24.749  1.00  0.00    -0.460 OA
BRANCH   5   6
ATOM      6  C   UNL A   1      32.323  21.545  23.630  1.00  0.00     0.338 C 
ATOM      7  O   UNL A   1      32.151  20.985  22.561  1.00  0.00    -0.246 OA
BRANCH   6   8
ATOM      8  C   UNL A   1      31.801  22.900  23.916  1.00  0.00     0.061 A 
ATOM      9  C   UNL A   1      31.523  25.239  23.390  1.00  0.00     0.088 A 
ATOM     10  C   UNL A   1      30.732  25.416  24.530  1.00  0.00     0.022 A 
ATOM     11  C   UNL A   1      32.056  23.982  23.072  1.00  0.00     0.038 A 
ATOM     12  C   UNL A   1      30.512  24.337  25.388  1.00  0.00     0.002 A 
ATOM     13  C   UNL A   1      31.042  23.082  25.081  1.00  0.00     0.016 A 
BRANCH   9  14
ATOM     14  S   UNL A   1      31.909  26.617  22.343  1.00  0.00     0.261 S 
ATOM     15  O   UNL A   1      31.061  26.493  21.176  1.00  0.00    -0.201 OA
ATOM     16  O   UNL A   1      33.346  26.701  22.198  1.00  0.00    -0.201 OA
BRANCH  14  17
ATOM     17  N   UNL A   1      31.390  28.012  23.134  1.00  0.00    -0.280 N 
ATOM     18  H   UNL A   1      32.047  28.509  23.673  1.00  0.00     0.180 HD
BRANCH  17  19
ATOM     19  C   UNL A   1      30.053  28.520  23.070  1.00  0.00     0.051 A 
ATOM     20  C   UNL A   1      28.516  30.115  22.039  1.00  0.00     0.043 A 
ATOM     21  C   UNL A   1      27.439  29.381  22.526  1.00  0.00     0.026 A 
ATOM     22  C   UNL A   1      29.820  29.694  22.336  1.00  0.00     0.052 A 
ATOM     23  C   UNL A   1      27.665  28.212  23.240  1.00  0.00     0.004 A 
ATOM     24  C   UNL A   1      28.960  27.778  23.505  1.00  0.00     0.027 A 
BRANCH  20  25
ATOM     25  N   UNL A   1      28.192  31.248  21.277  1.00  0.00    -0.326 N 
ATOM     26  C   UNL A   1      28.739  33.061  22.888  1.00  0.00     0.114 C 
ATOM     27  C   UNL A   1      28.148  32.573  21.595  1.00  0.00     0.221 C 
ATOM     28  O   UNL A   1      27.673  33.369  20.782  1.00  0.00    -0.275 OA
ATOM     29  H   UNL A   1      27.952  31.050  20.343  1.00  0.00     0.169 HD
ENDBRANCH  20  25
ENDBRANCH  17  19
ENDBRANCH  14  17
ENDBRANCH   9  14
ENDBRANCH   6   8
ENDBRANCH   5   6
ENDBRANCH   4   5
ENDBRANCH   3   4
ENDBRANCH   2   3
ENDBRANCH   1   2
BRANCH   1  30
ATOM     30  C   UNL A   1      34.385  24.445  26.088  1.00  0.00     0.188 C 
BRANCH  30  31
ATOM     31  O   UNL A   1      33.592  25.609  26.138  1.00  0.00    -0.376 OA
BRANCH  31  32
ATOM     32  C   UNL A   1      34.086  26.861  25.699  1.00  0.00     0.202 C 
BRANCH  32  33
ATOM     33  C   UNL A   1      33.612  28.223  26.227  1.00  0.00     0.261 C 
BRANCH  33  34
ATOM     34  O   UNL A   1      33.980  28.567  27.563  1.00  0.00    -0.460 OA
BRANCH  34  35
ATOM     35  C   UNL A   1      34.460  29.826  27.708  1.00  0.00     0.338 C 
ATOM     36  O   UNL A   1      33.834  30.871  27.653  1.00  0.00    -0.246 OA
BRANCH  35  37
ATOM     37  C   UNL A   1      35.868  29.764  28.128  1.00  0.00     0.060 A 
ATOM     38  C   UNL A   1      36.856  30.005  27.167  1.00  0.00     0.016 A 
ATOM     39  C   UNL A   1      36.215  29.401  29.429  1.00  0.00     0.016 A 
ATOM     40  C   UNL A   1      38.197  29.837  27.482  1.00  0.00     0.010 A 
ATOM     41  C   UNL A   1      37.564  29.231  29.747  1.00  0.00     0.010 A 
ATOM     42  C   UNL A   1      38.556  29.417  28.767  1.00  0.00    -0.014 A 
BRANCH  42  43
ATOM     43  C   UNL A   1      39.959  29.038  29.031  1.00  0.00     0.031 A 
ATOM     44  C   UNL A   1      40.880  30.057  29.638  1.00  0.00     0.074 A 
ATOM     45  C   UNL A   1      40.388  27.790  28.773  1.00  0.00     0.049 A 
ATOM     46  N   UNL A   1      42.156  29.965  29.898  1.00  0.00    -0.248 NA
ATOM     47  C   UNL A   1      40.281  31.352  29.999  1.00  0.00     0.031 C 
ATOM     48  C   UNL A   1      39.563  26.705  28.242  1.00  0.00     0.029 A 
ATOM     49  N   UNL A   1      41.631  27.231  28.916  1.00  0.00    -0.354 N 
ATOM     50  C   UNL A   1      42.518  31.192  30.440  1.00  0.00     0.074 A 
ATOM     51  C   UNL A   1      41.332  32.018  30.453  1.00  0.00     0.031 C 
ATOM     52  C   UNL A   1      40.331  25.612  28.086  1.00  0.00     0.029 A 
ATOM     53  C   UNL A   1      41.704  25.934  28.470  1.00  0.00     0.049 A 
ATOM     54  H   UNL A   1      42.398  27.712  29.301  1.00  0.00     0.167 HD
ATOM     55  C   UNL A   1      43.732  31.589  30.889  1.00  0.00     0.037 A 
ATOM     56  C   UNL A   1      42.766  25.113  28.356  1.00  0.00     0.037 A 
ATOM     57  C   UNL A   1      44.907  30.759  30.871  1.00  0.00     0.049 A 
ATOM     58  C   UNL A   1      44.123  25.605  28.789  1.00  0.00     0.074 A 
ATOM     59  C   UNL A   1      46.184  31.064  31.307  1.00  0.00     0.029 A 
ATOM     60  N   UNL A   1      44.950  29.461  30.383  1.00  0.00    -0.354 N 
ATOM     61  N   UNL A   1      44.454  26.765  29.305  1.00  0.00    -0.248 NA
ATOM     62  C   UNL A   1      45.249  24.676  28.625  1.00  0.00     0.031 C 
ATOM     63  C   UNL A   1      47.009  29.966  31.041  1.00  0.00     0.029 A 
ATOM     64  C   UNL A   1      46.236  28.958  30.486  1.00  0.00     0.049 A 
ATOM     65  H   UNL A   1      44.180  28.969  30.016  1.00  0.00     0.167 HD
ATOM     66  C   UNL A   1      45.821  26.697  29.551  1.00  0.00     0.074 A 
ATOM     67  C   UNL A   1      46.253  25.377  29.136  1.00  0.00     0.031 C 
ATOM     68  C   UNL A   1      46.645  27.638  30.076  1.00  0.00     0.037 A 
BRANCH  55  69
ATOM     69  C   UNL A   1      43.854  32.995  31.405  1.00  0.00     0.058 A 
ATOM     70  C   UNL A   1      44.289  34.049  30.587  1.00  0.00     0.135 A 
ATOM     71  C   UNL A   1      43.512  33.293  32.734  1.00  0.00     0.135 A 
ATOM     72  F   UNL A   1      44.650  33.814  29.315  1.00  0.00    -0.206 F 
ATOM     73  C   UNL A   1      44.402  35.347  31.075  1.00  0.00     0.059 A 
ATOM     74  C   UNL A   1      43.594  34.588  33.236  1.00  0.00     0.059 A 
ATOM     75  F   UNL A   1      43.097  32.319  33.560  1.00  0.00    -0.206 F 
ATOM     76  C   UNL A   1      44.054  35.606  32.402  1.00  0.00     0.060 A 
BRANCH  76  77
ATOM     77  S   UNL A   1      44.208  37.294  33.020  1.00  0.00     0.124 S 
ATOM     78  O   UNL A   1      43.647  38.061  31.912  1.00  0.00    -0.237 OA
ATOM     79  O   UNL A   1      43.402  37.256  34.236  1.00  0.00    -0.237 OA
ATOM     80  O   UNL A   1      45.644  37.450  33.228  1.00  0.00    -0.744 OA
ENDBRANCH  76  77
ENDBRANCH  55  69
BRANCH  56  81
ATOM     81  C   UNL A   1      42.595  23.751  27.785  1.00  0.00     0.058 A 
ATOM     82  C   UNL A   1      42.485  22.627  28.615  1.00  0.00     0.135 A 
ATOM     83  C   UNL A   1      42.539  23.549  26.396  1.00  0.00     0.135 A 
ATOM     84  F   UNL A   1      42.542  22.770  29.948  1.00  0.00    -0.206 F 
ATOM     85  C   UNL A   1      42.341  21.347  28.091  1.00  0.00     0.059 A 
ATOM     86  C   UNL A   1      42.370  22.281  25.849  1.00  0.00     0.059 A 
ATOM     87  F   UNL A   1      42.630  24.594  25.560  1.00  0.00    -0.206 F 
ATOM     88  C   UNL A   1      42.283  21.185  26.705  1.00  0.00     0.060 A 
BRANCH  88  89
ATOM     89  S   UNL A   1      42.051  19.523  26.036  1.00  0.00     0.124 S 
ATOM     90  O   UNL A   1      42.917  19.556  24.864  1.00  0.00    -0.237 OA
ATOM     91  O   UNL A   1      42.501  18.684  27.142  1.00  0.00    -0.237 OA
ATOM     92  O   UNL A   1      40.617  19.471  25.762  1.00  0.00    -0.744 OA
ENDBRANCH  88  89
ENDBRANCH  56  81
BRANCH  68  93
ATOM     93  C   UNL A   1      48.089  27.266  30.268  1.00  0.00     0.058 A 
ATOM     94  C   UNL A   1      49.045  27.468  29.262  1.00  0.00     0.135 A 
ATOM     95  C   UNL A   1      48.531  26.759  31.501  1.00  0.00     0.135 A 
ATOM     96  F   UNL A   1      48.674  27.945  28.064  1.00  0.00    -0.206 F 
ATOM     97  C   UNL A   1      50.387  27.159  29.463  1.00  0.00     0.059 A 
ATOM     98  C   UNL A   1      49.871  26.469  31.734  1.00  0.00     0.059 A 
ATOM     99  F   UNL A   1      47.659  26.558  32.502  1.00  0.00    -0.206 F 
ATOM    100  C   UNL A   1      50.791  26.662  30.703  1.00  0.00     0.060 A 
BRANCH 100 101
ATOM    101  S   UNL A   1      52.540  26.302  30.966  1.00  0.00     0.124 S 
ATOM    102  O   UNL A   1      52.973  27.477  31.714  1.00  0.00    -0.237 OA
ATOM    103  O   UNL A   1      52.493  25.052  31.720  1.00  0.00    -0.237 OA
ATOM    104  O   UNL A   1      53.071  26.189  29.611  1.00  0.00    -0.744 OA
ENDBRANCH 100 101
ENDBRANCH  68  93
ENDBRANCH  42  43
ENDBRANCH  35  37
ENDBRANCH  34  35
ENDBRANCH  33  34
ENDBRANCH  32  33
ENDBRANCH  31  32
ENDBRANCH  30  31
ENDBRANCH   1  30
TORSDOF 24
ENDMDL
MODEL 2
REMARK VINA RESULT:     -10.4      4.724      9.249
REMARK SMILES CC(=O)Nc1cccc(NS(=O)(=O)c2cccc(C(=O)OCCOCCOCCOC(=O)c3ccc(-c4c5nc(c(-c6c(F)cc(S(=O)(=O)[O-])cc6F)c6ccc([nH]6)c(-c6c(F)cc(S(=O)(=O)[O-])cc6F)c6nc(c(-c7c(F)cc(S(=O)(=O)[O-])cc7F)c7ccc4[nH]7)C=C6)C=C5)cc3)c2)c1
REMARK SMILES IDX 25 1 24 2 23 3 22 4 21 5 19 6 20 7 18 8 14 9 15 10 99 11
REMARK SMILES IDX 16 12 17 13 11 14 12 15 13 16 10 17 9 19 5 20 6 21 100 22
REMARK SMILES IDX 7 23 8 24 4 25 1 26 2 27 3 28 26 30 27 31 28 32 29 33 30 34
REMARK SMILES IDX 31 35 32 36 33 37 34 38 98 39 35 40 97 41 36 42 37 43 38 44
REMARK SMILES IDX 91 45 39 46 96 47 90 48 92 49 40 50 95 51 89 52 88 53 41 55
REMARK SMILES IDX 75 56 54 57 74 58 55 59 58 60 73 61 93 62 56 63 57 64 72 66
REMARK SMILES IDX 94 67 59 68 42 69 43 70 52 71 44 72 45 73 51 74 53 75 46 76
REMARK SMILES IDX 47 77 48 78 49 79 50 80 76 81 77 82 86 83 78 84 79 85 85 86
REMARK SMILES IDX 87 87 80 88 81 89 82 90 83 91 84 92 60 93 61 94 70 95 62 96
REMARK SMILES IDX 63 97 69 98 71 99 64 100 65 101 66 102 67 103 68 104
REMARK H PARENT 10 18 4 29 92 54 58 65
REMARK Flexibility Score: inf
ROOT
ATOM      1  C   UNL A   1      36.892  22.870  25.684  1.00  0.00     0.188 C 
ENDROOT
BRANCH   1   2
ATOM      2  O   UNL A   1      35.501  22.630  25.579  1.00  0.00    -0.376 OA
BRANCH   2   3
ATOM      3  C   UNL A   1      34.729  22.435  26.751  1.00  0.00     0.202 C 
BRANCH   3   4
ATOM      4  C   UNL A   1      33.690  21.312  26.824  1.00  0.00     0.261 C 
BRANCH   4   5
ATOM      5  O   UNL A   1      32.396  21.690  26.333  1.00  0.00    -0.460 OA
BRANCH   5   6
ATOM      6  C   UNL A   1      32.054  22.986  26.546  1.00  0.00     0.338 C 
ATOM      7  O   UNL A   1      31.979  23.555  27.621  1.00  0.00    -0.246 OA
BRANCH   6   8
ATOM      8  C   UNL A   1      31.917  23.696  25.254  1.00  0.00     0.061 A 
ATOM      9  C   UNL A   1      32.120  25.656  23.861  1.00  0.00     0.088 A 
ATOM     10  C   UNL A   1      31.656  24.935  22.755  1.00  0.00     0.022 A 
ATOM     11  C   UNL A   1      32.260  25.042  25.113  1.00  0.00     0.038 A 
ATOM     12  C   UNL A   1      31.281  23.599  22.913  1.00  0.00     0.002 A 
ATOM     13  C   UNL A   1      31.413  22.981  24.159  1.00  0.00     0.016 A 
BRANCH   9  14
ATOM     14  S   UNL A   1      32.498  27.382  23.711  1.00  0.00     0.261 S 
ATOM     15  O   UNL A   1      33.869  27.460  23.250  1.00  0.00    -0.201 OA
ATOM     16  O   UNL A   1      32.096  28.052  24.929  1.00  0.00    -0.201 OA
BRANCH  14  17
ATOM     17  N   UNL A   1      31.561  27.997  22.453  1.00  0.00    -0.280 N 
ATOM     18  H   UNL A   1      31.941  27.983  21.545  1.00  0.00     0.180 HD
BRANCH  17  19
ATOM     19  C   UNL A   1      30.247  28.539  22.622  1.00  0.00     0.051 A 
ATOM     20  C   UNL A   1      28.592  30.169  21.866  1.00  0.00     0.043 A 
ATOM     21  C   UNL A   1      27.600  29.464  22.541  1.00  0.00     0.026 A 
ATOM     22  C   UNL A   1      29.917  29.716  21.932  1.00  0.00     0.052 A 
ATOM     23  C   UNL A   1      27.919  28.293  23.212  1.00  0.00     0.004 A 
ATOM     24  C   UNL A   1      29.230  27.826  23.248  1.00  0.00     0.027 A 
BRANCH  20  25
ATOM     25  N   UNL A   1      28.167  31.308  21.164  1.00  0.00    -0.326 N 
ATOM     26  C   UNL A   1      28.778  33.099  22.776  1.00  0.00     0.114 C 
ATOM     27  C   UNL A   1      28.101  32.622  21.522  1.00  0.00     0.221 C 
ATOM     28  O   UNL A   1      27.534  33.420  20.773  1.00  0.00    -0.275 OA
ATOM     29  H   UNL A   1      27.858  31.125  20.248  1.00  0.00     0.169 HD
ENDBRANCH  20  25
ENDBRANCH  17  19
ENDBRANCH  14  17
ENDBRANCH   9  14
ENDBRANCH   6   8
ENDBRANCH   5   6
ENDBRANCH   4   5
ENDBRANCH   3   4
ENDBRANCH   2   3
ENDBRANCH   1   2
BRANCH   1  30
ATOM     30  C   UNL A   1      37.906  21.886  25.066  1.00  0.00     0.188 C 
BRANCH  30  31
ATOM     31  O   UNL A   1      38.998  21.396  25.810  1.00  0.00    -0.376 OA
BRANCH  31  32
ATOM     32  C   UNL A   1      39.673  22.206  26.755  1.00  0.00     0.202 C 
BRANCH  32  33
ATOM     33  C   UNL A   1      40.540  23.424  26.402  1.00  0.00     0.261 C 
BRANCH  33  34
ATOM     34  O   UNL A   1      39.901  24.701  26.411  1.00  0.00    -0.460 OA
BRANCH  34  35
ATOM     35  C   UNL A   1      40.747  25.754  26.297  1.00  0.00     0.338 C 
ATOM     36  O   UNL A   1      41.243  26.201  25.278  1.00  0.00    -0.246 OA
BRANCH  35  37
ATOM     37  C   UNL A   1      40.864  26.427  27.600  1.00  0.00     0.060 A 
ATOM     38  C   UNL A   1      39.880  26.178  28.563  1.00  0.00     0.016 A 
ATOM     39  C   UNL A   1      41.883  27.347  27.845  1.00  0.00     0.016 A 
ATOM     40  C   UNL A   1      39.875  26.881  29.760  1.00  0.00     0.010 A 
ATOM     41  C   UNL A   1      41.879  28.055  29.050  1.00  0.00     0.010 A 
ATOM     42  C   UNL A   1      40.858  27.847  29.995  1.00  0.00    -0.014 A 
BRANCH  42  43
ATOM     43  C   UNL A   1      40.724  28.735  31.168  1.00  0.00     0.031 A 
ATOM     44  C   UNL A   1      39.683  29.817  31.141  1.00  0.00     0.074 A 
ATOM     45  C   UNL A   1      41.493  28.548  32.255  1.00  0.00     0.049 A 
ATOM     46  N   UNL A   1      39.431  30.743  32.026  1.00  0.00    -0.248 NA
ATOM     47  C   UNL A   1      38.809  29.858  29.956  1.00  0.00     0.031 C 
ATOM     48  C   UNL A   1      42.492  27.491  32.413  1.00  0.00     0.029 A 
ATOM     49  N   UNL A   1      41.557  29.252  33.430  1.00  0.00    -0.354 N 
ATOM     50  C   UNL A   1      38.381  31.487  31.502  1.00  0.00     0.074 A 
ATOM     51  C   UNL A   1      38.056  30.916  30.214  1.00  0.00     0.031 C 
ATOM     52  C   UNL A   1      43.084  27.629  33.611  1.00  0.00     0.029 A 
ATOM     53  C   UNL A   1      42.533  28.802  34.286  1.00  0.00     0.049 A 
ATOM     54  H   UNL A   1      40.962  30.007  33.640  1.00  0.00     0.167 HD
ATOM     55  C   UNL A   1      37.746  32.549  32.051  1.00  0.00     0.037 A 
ATOM     56  C   UNL A   1      42.952  29.304  35.464  1.00  0.00     0.037 A 
ATOM     57  C   UNL A   1      38.078  33.110  33.334  1.00  0.00     0.049 A 
ATOM     58  C   UNL A   1      42.280  30.533  36.018  1.00  0.00     0.074 A 
ATOM     59  C   UNL A   1      37.491  34.181  33.983  1.00  0.00     0.029 A 
ATOM     60  N   UNL A   1      39.092  32.647  34.159  1.00  0.00    -0.354 N 
ATOM     61  N   UNL A   1      41.285  31.226  35.519  1.00  0.00    -0.248 NA
ATOM     62  C   UNL A   1      42.789  31.048  37.297  1.00  0.00     0.031 C 
ATOM     63  C   UNL A   1      38.181  34.395  35.181  1.00  0.00     0.029 A 
ATOM     64  C   UNL A   1      39.164  33.426  35.303  1.00  0.00     0.049 A 
ATOM     65  H   UNL A   1      39.676  31.880  33.962  1.00  0.00     0.167 HD
ATOM     66  C   UNL A   1      41.031  32.243  36.433  1.00  0.00     0.074 A 
ATOM     67  C   UNL A   1      41.972  32.068  37.521  1.00  0.00     0.031 C 
ATOM     68  C   UNL A   1      40.102  33.230  36.380  1.00  0.00     0.037 A 
BRANCH  55  69
ATOM     69  C   UNL A   1      36.650  33.191  31.249  1.00  0.00     0.058 A 
ATOM     70  C   UNL A   1      35.296  33.031  31.583  1.00  0.00     0.135 A 
ATOM     71  C   UNL A   1      36.962  33.992  30.138  1.00  0.00     0.135 A 
ATOM     72  F   UNL A   1      34.942  32.257  32.621  1.00  0.00    -0.206 F 
ATOM     73  C   UNL A   1      34.288  33.626  30.831  1.00  0.00     0.059 A 
ATOM     74  C   UNL A   1      35.971  34.616  29.387  1.00  0.00     0.059 A 
ATOM     75  F   UNL A   1      38.241  34.170  29.772  1.00  0.00    -0.206 F 
ATOM     76  C   UNL A   1      34.636  34.416  29.733  1.00  0.00     0.060 A 
BRANCH  76  77
ATOM     77  S   UNL A   1      33.317  35.179  28.767  1.00  0.00     0.124 S 
ATOM     78  O   UNL A   1      32.786  34.028  28.042  1.00  0.00    -0.237 OA
ATOM     79  O   UNL A   1      32.449  35.730  29.803  1.00  0.00    -0.237 OA
ATOM     80  O   UNL A   1      34.019  36.165  27.951  1.00  0.00    -0.744 OA
ENDBRANCH  76  77
ENDBRANCH  55  69
BRANCH  56  81
ATOM     81  C   UNL A   1      44.079  28.658  36.187  1.00  0.00     0.058 A 
ATOM     82  C   UNL A   1      45.390  29.139  36.060  1.00  0.00     0.135 A 
ATOM     83  C   UNL A   1      43.866  27.546  37.017  1.00  0.00     0.135 A 
ATOM     84  F   UNL A   1      45.644  30.193  35.271  1.00  0.00    -0.206 F 
ATOM     85  C   UNL A   1      46.454  28.532  36.719  1.00  0.00     0.059 A 
ATOM     86  C   UNL A   1      44.910  26.937  37.706  1.00  0.00     0.059 A 
ATOM     87  F   UNL A   1      42.628  27.054  37.179  1.00  0.00    -0.206 F 
ATOM     88  C   UNL A   1      46.202  27.432  37.542  1.00  0.00     0.060 A 
BRANCH  88  89
ATOM     89  S   UNL A   1      47.585  26.679  38.427  1.00  0.00     0.124 S 
ATOM     90  O   UNL A   1      46.994  25.427  38.884  1.00  0.00    -0.237 OA
ATOM     91  O   UNL A   1      48.594  26.564  37.378  1.00  0.00    -0.237 OA
ATOM     92  O   UNL A   1      47.885  27.656  39.471  1.00  0.00    -0.744 OA
ENDBRANCH  88  89
ENDBRANCH  56  81
BRANCH  68  93
ATOM     93  C   UNL A   1      40.028  34.176  37.546  1.00  0.00     0.058 A 
ATOM     94  C   UNL A   1      39.267  33.884  38.688  1.00  0.00     0.135 A 
ATOM     95  C   UNL A   1      40.779  35.363  37.544  1.00  0.00     0.135 A 
ATOM     96  F   UNL A   1      38.526  32.766  38.738  1.00  0.00    -0.206 F 
ATOM     97  C   UNL A   1      39.236  34.747  39.779  1.00  0.00     0.059 A 
ATOM     98  C   UNL A   1      40.785  36.226  38.634  1.00  0.00     0.059 A 
ATOM     99  F   UNL A   1      41.534  35.684  36.480  1.00  0.00    -0.206 F 
ATOM    100  C   UNL A   1      40.000  35.915  39.744  1.00  0.00     0.060 A 
BRANCH 100 101
ATOM    101  S   UNL A   1      39.983  37.007  41.182  1.00  0.00     0.124 S 
ATOM    102  O   UNL A   1      41.386  36.987  41.582  1.00  0.00    -0.237 OA
ATOM    103  O   UNL A   1      39.504  38.263  40.614  1.00  0.00    -0.237 OA
ATOM    104  O   UNL A   1      39.059  36.347  42.098  1.00  0.00    -0.744 OA
ENDBRANCH 100 101
ENDBRANCH  68  93
ENDBRANCH  42  43
ENDBRANCH  35  37
ENDBRANCH  34  35
ENDBRANCH  33  34
ENDBRANCH  32  33
ENDBRANCH  31  32
ENDBRANCH  30  31
ENDBRANCH   1  30
TORSDOF 24
ENDMDL
MODEL 3
REMARK VINA RESULT:     -10.2      3.696      9.843
REMARK SMILES CC(=O)Nc1cccc(NS(=O)(=O)c2cccc(C(=O)OCCOCCOCCOC(=O)c3ccc(-c4c5nc(c(-c6c(F)cc(S(=O)(=O)[O-])cc6F)c6ccc([nH]6)c(-c6c(F)cc(S(=O)(=O)[O-])cc6F)c6nc(c(-c7c(F)cc(S(=O)(=O)[O-])cc7F)c7ccc4[nH]7)C=C6)C=C5)cc3)c2)c1
REMARK SMILES IDX 25 1 24 2 23 3 22 4 21 5 19 6 20 7 18 8 14 9 15 10 99 11
REMARK SMILES IDX 16 12 17 13 11 14 12 15 13 16 10 17 9 19 5 20 6 21 100 22
REMARK SMILES IDX 7 23 8 24 4 25 1 26 2 27 3 28 26 30 27 31 28 32 29 33 30 34
REMARK SMILES IDX 31 35 32 36 33 37 34 38 98 39 35 40 97 41 36 42 37 43 38 44
REMARK SMILES IDX 91 45 39 46 96 47 90 48 92 49 40 50 95 51 89 52 88 53 41 55
REMARK SMILES IDX 75 56 54 57 74 58 55 59 58 60 73 61 93 62 56 63 57 64 72 66
REMARK SMILES IDX 94 67 59 68 42 69 43 70 52 71 44 72 45 73 51 74 53 75 46 76
REMARK SMILES IDX 47 77 48 78 49 79 50 80 76 81 77 82 86 83 78 84 79 85 85 86
REMARK SMILES IDX 87 87 80 88 81 89 82 90 83 91 84 92 60 93 61 94 70 95 62 96
REMARK SMILES IDX 63 97 69 98 71 99 64 100 65 101 66 102 67 103 68 104
REMARK H PARENT 10 18 4 29 92 54 58 65
REMARK Flexibility Score: inf
ROOT
ATOM      1  C   UNL A   1      34.320  30.742  27.455  1.00  0.00     0.188 C 
ENDROOT
BRANCH   1   2
ATOM      2  O   UNL A   1      32.910  30.714  27.340  1.00  0.00    -0.376 OA
BRANCH   2   3
ATOM      3  C   UNL A   1      32.304  30.033  26.254  1.00  0.00     0.202 C 
BRANCH   3   4
ATOM      4  C   UNL A   1      32.038  28.528  26.327  1.00  0.00     0.261 C 
BRANCH   4   5
ATOM      5  O   UNL A   1      33.214  27.724  26.148  1.00  0.00    -0.460 OA
BRANCH   5   6
ATOM      6  C   UNL A   1      33.502  27.401  24.862  1.00  0.00     0.338 C 
ATOM      7  O   UNL A   1      34.049  28.111  24.035  1.00  0.00    -0.246 OA
BRANCH   6   8
ATOM      8  C   UNL A   1      33.193  25.975  24.612  1.00  0.00     0.061 A 
ATOM      9  C   UNL A   1      32.206  23.862  25.231  1.00  0.00     0.088 A 
ATOM     10  C   UNL A   1      32.629  23.295  24.023  1.00  0.00     0.022 A 
ATOM     11  C   UNL A   1      32.478  25.203  25.530  1.00  0.00     0.038 A 
ATOM     12  C   UNL A   1      33.375  24.064  23.127  1.00  0.00     0.002 A 
ATOM     13  C   UNL A   1      33.654  25.401  23.419  1.00  0.00     0.016 A 
BRANCH   9  14
ATOM     14  S   UNL A   1      31.354  22.876  26.434  1.00  0.00     0.261 S 
ATOM     15  O   UNL A   1      30.528  21.948  25.688  1.00  0.00    -0.201 OA
ATOM     16  O   UNL A   1      30.761  23.756  27.418  1.00  0.00    -0.201 OA
BRANCH  14  17
ATOM     17  N   UNL A   1      32.505  21.928  27.218  1.00  0.00    -0.280 N 
ATOM     18  H   UNL A   1      32.449  21.850  28.197  1.00  0.00     0.180 HD
BRANCH  17  19
ATOM     19  C   UNL A   1      33.560  21.230  26.548  1.00  0.00     0.051 A 
ATOM     20  C   UNL A   1      34.171  19.590  24.843  1.00  0.00     0.043 A 
ATOM     21  C   UNL A   1      35.481  20.058  24.873  1.00  0.00     0.026 A 
ATOM     22  C   UNL A   1      33.222  20.162  25.702  1.00  0.00     0.052 A 
ATOM     23  C   UNL A   1      35.817  21.122  25.698  1.00  0.00     0.004 A 
ATOM     24  C   UNL A   1      34.865  21.711  26.525  1.00  0.00     0.027 A 
BRANCH  20  25
ATOM     25  N   UNL A   1      33.910  18.552  23.935  1.00  0.00    -0.326 N 
ATOM     26  C   UNL A   1      33.406  16.686  25.498  1.00  0.00     0.114 C 
ATOM     27  C   UNL A   1      33.677  17.222  24.120  1.00  0.00     0.221 C 
ATOM     28  O   UNL A   1      33.632  16.479  23.138  1.00  0.00    -0.275 OA
ATOM     29  H   UNL A   1      33.893  18.836  22.993  1.00  0.00     0.169 HD
ENDBRANCH  20  25
ENDBRANCH  17  19
ENDBRANCH  14  17
ENDBRANCH   9  14
ENDBRANCH   6   8
ENDBRANCH   5   6
ENDBRANCH   4   5
ENDBRANCH   3   4
ENDBRANCH   2   3
ENDBRANCH   1   2
BRANCH   1  30
ATOM     30  C   UNL A   1      35.036  31.986  28.020  1.00  0.00     0.188 C 
BRANCH  30  31
ATOM     31  O   UNL A   1      34.552  32.653  29.163  1.00  0.00    -0.376 OA
BRANCH  31  32
ATOM     32  C   UNL A   1      35.349  32.805  30.324  1.00  0.00     0.202 C 
BRANCH  32  33
ATOM     33  C   UNL A   1      35.704  31.671  31.296  1.00  0.00     0.261 C 
BRANCH  33  34
ATOM     34  O   UNL A   1      36.272  30.487  30.736  1.00  0.00    -0.460 OA
BRANCH  34  35
ATOM     35  C   UNL A   1      37.099  29.811  31.570  1.00  0.00     0.338 C 
ATOM     36  O   UNL A   1      36.790  29.160  32.554  1.00  0.00    -0.246 OA
BRANCH  35  37
ATOM     37  C   UNL A   1      38.462  29.819  31.017  1.00  0.00     0.060 A 
ATOM     38  C   UNL A   1      38.615  30.015  29.641  1.00  0.00     0.016 A 
ATOM     39  C   UNL A   1      39.567  29.564  31.827  1.00  0.00     0.016 A 
ATOM     40  C   UNL A   1      39.867  29.909  29.052  1.00  0.00     0.010 A 
ATOM     41  C   UNL A   1      40.829  29.456  31.235  1.00  0.00     0.010 A 
ATOM     42  C   UNL A   1      40.976  29.595  29.844  1.00  0.00    -0.014 A 
BRANCH  42  43
ATOM     43  C   UNL A   1      42.260  29.276  29.186  1.00  0.00     0.031 A 
ATOM     44  C   UNL A   1      42.478  27.884  28.665  1.00  0.00     0.074 A 
ATOM     45  C   UNL A   1      43.197  30.226  29.020  1.00  0.00     0.049 A 
ATOM     46  N   UNL A   1      43.541  27.366  28.112  1.00  0.00    -0.248 NA
ATOM     47  C   UNL A   1      41.343  26.953  28.784  1.00  0.00     0.031 C 
ATOM     48  C   UNL A   1      43.065  31.624  29.431  1.00  0.00     0.029 A 
ATOM     49  N   UNL A   1      44.449  30.152  28.468  1.00  0.00    -0.354 N 
ATOM     50  C   UNL A   1      43.212  26.046  27.830  1.00  0.00     0.074 A 
ATOM     51  C   UNL A   1      41.857  25.837  28.289  1.00  0.00     0.031 C 
ATOM     52  C   UNL A   1      44.203  32.273  29.133  1.00  0.00     0.029 A 
ATOM     53  C   UNL A   1      45.153  31.329  28.546  1.00  0.00     0.049 A 
ATOM     54  H   UNL A   1      44.810  29.335  28.055  1.00  0.00     0.167 HD
ATOM     55  C   UNL A   1      43.974  25.097  27.236  1.00  0.00     0.037 A 
ATOM     56  C   UNL A   1      46.429  31.601  28.211  1.00  0.00     0.037 A 
ATOM     57  C   UNL A   1      45.322  25.315  26.782  1.00  0.00     0.049 A 
ATOM     58  C   UNL A   1      47.282  30.507  27.623  1.00  0.00     0.074 A 
ATOM     59  C   UNL A   1      46.177  24.422  26.164  1.00  0.00     0.029 A 
ATOM     60  N   UNL A   1      46.013  26.512  26.906  1.00  0.00    -0.354 N 
ATOM     61  N   UNL A   1      46.960  29.265  27.355  1.00  0.00    -0.248 NA
ATOM     62  C   UNL A   1      48.671  30.854  27.294  1.00  0.00     0.031 C 
ATOM     63  C   UNL A   1      47.401  25.065  25.955  1.00  0.00     0.029 A 
ATOM     64  C   UNL A   1      47.293  26.374  26.396  1.00  0.00     0.049 A 
ATOM     65  H   UNL A   1      45.648  27.337  27.300  1.00  0.00     0.167 HD
ATOM     66  C   UNL A   1      48.098  28.686  26.802  1.00  0.00     0.074 A 
ATOM     67  C   UNL A   1      49.113  29.720  26.764  1.00  0.00     0.031 C 
ATOM     68  C   UNL A   1      48.287  27.418  26.360  1.00  0.00     0.037 A 
BRANCH  55  69
ATOM     69  C   UNL A   1      43.375  23.729  27.076  1.00  0.00     0.058 A 
ATOM     70  C   UNL A   1      43.319  22.815  28.140  1.00  0.00     0.135 A 
ATOM     71  C   UNL A   1      42.831  23.333  25.842  1.00  0.00     0.135 A 
ATOM     72  F   UNL A   1      43.845  23.135  29.334  1.00  0.00    -0.206 F 
ATOM     73  C   UNL A   1      42.767  21.549  27.981  1.00  0.00     0.059 A 
ATOM     74  C   UNL A   1      42.251  22.080  25.669  1.00  0.00     0.059 A 
ATOM     75  F   UNL A   1      42.866  24.167  24.791  1.00  0.00    -0.206 F 
ATOM     76  C   UNL A   1      42.236  21.190  26.741  1.00  0.00     0.060 A 
BRANCH  76  77
ATOM     77  S   UNL A   1      41.525  19.543  26.550  1.00  0.00     0.124 S 
ATOM     78  O   UNL A   1      42.717  18.741  26.293  1.00  0.00    -0.237 OA
ATOM     79  O   UNL A   1      40.883  19.328  27.843  1.00  0.00    -0.237 OA
ATOM     80  O   UNL A   1      40.614  19.695  25.419  1.00  0.00    -0.744 OA
ENDBRANCH  76  77
ENDBRANCH  55  69
BRANCH  56  81
ATOM     81  C   UNL A   1      46.984  32.960  28.444  1.00  0.00     0.058 A 
ATOM     82  C   UNL A   1      47.621  33.284  29.651  1.00  0.00     0.135 A 
ATOM     83  C   UNL A   1      46.887  33.962  27.465  1.00  0.00     0.135 A 
ATOM     84  F   UNL A   1      47.730  32.363  30.620  1.00  0.00    -0.206 F 
ATOM     85  C   UNL A   1      48.130  34.557  29.885  1.00  0.00     0.059 A 
ATOM     86  C   UNL A   1      47.410  35.235  27.666  1.00  0.00     0.059 A 
ATOM     87  F   UNL A   1      46.295  33.698  26.290  1.00  0.00    -0.206 F 
ATOM     88  C   UNL A   1      48.020  35.526  28.885  1.00  0.00     0.060 A 
BRANCH  88  89
ATOM     89  S   UNL A   1      48.723  37.163  29.184  1.00  0.00     0.124 S 
ATOM     90  O   UNL A   1      49.506  37.371  27.972  1.00  0.00    -0.237 OA
ATOM     91  O   UNL A   1      47.527  37.988  29.323  1.00  0.00    -0.237 OA
ATOM     92  O   UNL A   1      49.493  36.976  30.411  1.00  0.00    -0.744 OA
ENDBRANCH  88  89
ENDBRANCH  56  81
BRANCH  68  93
ATOM     93  C   UNL A   1      49.625  27.083  25.763  1.00  0.00     0.058 A 
ATOM     94  C   UNL A   1      49.898  27.282  24.402  1.00  0.00     0.135 A 
ATOM     95  C   UNL A   1      50.667  26.613  26.580  1.00  0.00     0.135 A 
ATOM     96  F   UNL A   1      48.935  27.723  23.577  1.00  0.00    -0.206 F 
ATOM     97  C   UNL A   1      51.153  27.006  23.865  1.00  0.00     0.059 A 
ATOM     98  C   UNL A   1      51.936  26.358  26.071  1.00  0.00     0.059 A 
ATOM     99  F   UNL A   1      50.462  26.417  27.892  1.00  0.00    -0.206 F 
ATOM    100  C   UNL A   1      52.166  26.547  24.708  1.00  0.00     0.060 A 
BRANCH 100 101
ATOM    101  S   UNL A   1      53.800  26.231  24.009  1.00  0.00     0.124 S 
ATOM    102  O   UNL A   1      53.490  26.088  22.591  1.00  0.00    -0.237 OA
ATOM    103  O   UNL A   1      54.537  27.436  24.379  1.00  0.00    -0.237 OA
ATOM    104  O   UNL A   1      54.228  25.010  24.685  1.00  0.00    -0.744 OA
ENDBRANCH 100 101
ENDBRANCH  68  93
ENDBRANCH  42  43
ENDBRANCH  35  37
ENDBRANCH  34  35
ENDBRANCH  33  34
ENDBRANCH  32  33
ENDBRANCH  31  32
ENDBRANCH  30  31
ENDBRANCH   1  30
TORSDOF 24
ENDMDL
