MODEL 1
REMARK VINA RESULT:     -10.0      0.000      0.000
REMARK SMILES COc1ccc([C@H]2C[NH2+]C[C@@H]2C(=O)OCCOCCOCCOC(=O)c2ccc(-c3c4nc(c(-c5c(F)cc(S(=O)(=O)[O-])cc5F)c5ccc([nH]5)c(-c5c(F)cc(S(=O)(=O)[O-])cc5F)c5nc(c(-c6c(F)cc(S(=O)(=O)[O-])cc6F)c6ccc3[nH]6)C=C5)C=C4)cc2)cc1
REMARK SMILES IDX 19 1 18 2 17 3 16 4 15 5 14 6 12 7 13 8 11 9 7 10 8 11 9 12
REMARK SMILES IDX 10 13 6 16 3 17 4 18 93 19 5 20 92 21 2 22 1 23 20 24 21 25
REMARK SMILES IDX 22 26 23 27 24 28 25 29 26 30 27 31 91 32 28 33 90 34 29 35
REMARK SMILES IDX 30 36 31 37 84 38 32 39 89 40 83 41 85 42 33 43 88 44 82 45
REMARK SMILES IDX 81 46 34 48 68 49 47 50 67 51 48 52 51 53 66 54 86 55 49 56
REMARK SMILES IDX 50 57 65 59 87 60 52 61 35 62 36 63 45 64 37 65 38 66 44 67
REMARK SMILES IDX 46 68 39 69 40 70 41 71 42 72 43 73 69 74 70 75 79 76 71 77
REMARK SMILES IDX 72 78 78 79 80 80 73 81 74 82 75 83 76 84 77 85 53 86 54 87
REMARK SMILES IDX 63 88 55 89 56 90 62 91 64 92 57 93 58 94 59 95 60 96 61 97
REMARK H PARENT 9 14 9 15 85 47 51 58
REMARK Flexibility Score: inf
ROOT
ATOM      1  C   UNL A   1      35.135  32.481  28.398  1.00  0.00     0.188 C 
ENDROOT
BRANCH   1   2
ATOM      2  C   UNL A   1      35.305  31.170  27.626  1.00  0.00     0.188 C 
BRANCH   2   3
ATOM      3  O   UNL A   1      34.344  30.151  27.878  1.00  0.00    -0.376 OA
BRANCH   3   4
ATOM      4  C   UNL A   1      34.364  29.012  27.020  1.00  0.00     0.202 C 
BRANCH   4   5
ATOM      5  C   UNL A   1      33.420  29.043  25.808  1.00  0.00     0.261 C 
BRANCH   5   6
ATOM      6  O   UNL A   1      34.018  28.560  24.591  1.00  0.00    -0.463 OA
BRANCH   6   7
ATOM      7  C   UNL A   1      33.590  27.350  24.154  1.00  0.00     0.315 C 
ATOM      8  O   UNL A   1      33.917  26.279  24.656  1.00  0.00    -0.252 OA
BRANCH   7   9
ATOM      9  C   UNL A   1      32.592  27.413  23.008  1.00  0.00     0.167 C 
ATOM     10  C   UNL A   1      31.178  27.277  23.597  1.00  0.00     0.094 C 
ATOM     11  C   UNL A   1      30.863  25.809  23.278  1.00  0.00     0.269 C 
ATOM     12  N   UNL A   1      31.396  25.604  21.927  1.00  0.00    -0.345 N 
ATOM     13  C   UNL A   1      32.681  26.327  21.929  1.00  0.00     0.276 C 
ATOM     14  H   UNL A   1      30.764  25.992  21.227  1.00  0.00     0.346 HD
ATOM     15  H   UNL A   1      31.504  24.617  21.696  1.00  0.00     0.346 HD
BRANCH  10  16
ATOM     16  C   UNL A   1      30.096  28.220  23.082  1.00  0.00    -0.038 A 
ATOM     17  C   UNL A   1      28.214  30.055  22.032  1.00  0.00     0.118 A 
ATOM     18  C   UNL A   1      29.577  30.248  21.823  1.00  0.00     0.047 A 
ATOM     19  C   UNL A   1      27.787  28.932  22.734  1.00  0.00     0.047 A 
ATOM     20  C   UNL A   1      30.506  29.344  22.342  1.00  0.00     0.008 A 
ATOM     21  C   UNL A   1      28.720  28.026  23.259  1.00  0.00     0.008 A 
BRANCH  17  22
ATOM     22  O   UNL A   1      27.399  31.003  21.477  1.00  0.00    -0.497 OA
ATOM     23  C   UNL A   1      28.028  32.237  21.153  1.00  0.00     0.278 C 
ENDBRANCH  17  22
ENDBRANCH  10  16
ENDBRANCH   7   9
ENDBRANCH   6   7
ENDBRANCH   5   6
ENDBRANCH   4   5
ENDBRANCH   3   4
ENDBRANCH   2   3
ENDBRANCH   1   2
BRANCH   1  24
ATOM     24  O   UNL A   1      34.279  32.415  29.533  1.00  0.00    -0.376 OA
BRANCH  24  25
ATOM     25  C   UNL A   1      34.895  32.689  30.796  1.00  0.00     0.202 C 
BRANCH  25  26
ATOM     26  C   UNL A   1      36.412  32.429  30.876  1.00  0.00     0.261 C 
BRANCH  26  27
ATOM     27  O   UNL A   1      36.791  31.249  31.613  1.00  0.00    -0.460 OA
BRANCH  27  28
ATOM     28  C   UNL A   1      36.937  30.092  30.926  1.00  0.00     0.338 C 
ATOM     29  O   UNL A   1      36.046  29.325  30.597  1.00  0.00    -0.246 OA
BRANCH  28  30
ATOM     30  C   UNL A   1      38.323  30.047  30.390  1.00  0.00     0.060 A 
ATOM     31  C   UNL A   1      38.503  29.997  28.998  1.00  0.00     0.016 A 
ATOM     32  C   UNL A   1      39.435  30.136  31.233  1.00  0.00     0.016 A 
ATOM     33  C   UNL A   1      39.791  29.988  28.453  1.00  0.00     0.010 A 
ATOM     34  C   UNL A   1      40.722  30.116  30.688  1.00  0.00     0.010 A 
ATOM     35  C   UNL A   1      40.907  30.003  29.298  1.00  0.00    -0.014 A 
BRANCH  35  36
ATOM     36  C   UNL A   1      42.251  29.635  28.786  1.00  0.00     0.031 A 
ATOM     37  C   UNL A   1      42.463  28.204  28.368  1.00  0.00     0.074 A 
ATOM     38  C   UNL A   1      43.264  30.516  28.704  1.00  0.00     0.049 A 
ATOM     39  N   UNL A   1      43.562  27.591  28.018  1.00  0.00    -0.248 NA
ATOM     40  C   UNL A   1      41.264  27.349  28.354  1.00  0.00     0.031 C 
ATOM     41  C   UNL A   1      43.178  31.942  29.010  1.00  0.00     0.029 A 
ATOM     42  N   UNL A   1      44.577  30.326  28.348  1.00  0.00    -0.354 N 
ATOM     43  C   UNL A   1      43.191  26.278  27.755  1.00  0.00     0.074 A 
ATOM     44  C   UNL A   1      41.771  26.177  28.013  1.00  0.00     0.031 C 
ATOM     45  C   UNL A   1      44.393  32.497  28.837  1.00  0.00     0.029 A 
ATOM     46  C   UNL A   1      45.351  31.457  28.455  1.00  0.00     0.049 A 
ATOM     47  H   UNL A   1      44.931  29.458  28.045  1.00  0.00     0.167 HD
ATOM     48  C   UNL A   1      43.959  25.247  27.332  1.00  0.00     0.037 A 
ATOM     49  C   UNL A   1      46.680  31.624  28.291  1.00  0.00     0.037 A 
ATOM     50  C   UNL A   1      45.372  25.344  27.091  1.00  0.00     0.049 A 
ATOM     51  C   UNL A   1      47.542  30.436  27.928  1.00  0.00     0.074 A 
ATOM     52  C   UNL A   1      46.243  24.352  26.678  1.00  0.00     0.029 A 
ATOM     53  N   UNL A   1      46.124  26.498  27.251  1.00  0.00    -0.354 N 
ATOM     54  N   UNL A   1      47.183  29.196  27.690  1.00  0.00    -0.248 NA
ATOM     55  C   UNL A   1      48.991  30.669  27.823  1.00  0.00     0.031 C 
ATOM     56  C   UNL A   1      47.531  24.896  26.633  1.00  0.00     0.029 A 
ATOM     57  C   UNL A   1      47.452  26.240  26.962  1.00  0.00     0.049 A 
ATOM     58  H   UNL A   1      45.765  27.373  27.528  1.00  0.00     0.167 HD
ATOM     59  C   UNL A   1      48.354  28.515  27.362  1.00  0.00     0.074 A 
ATOM     60  C   UNL A   1      49.433  29.476  27.445  1.00  0.00     0.031 C 
ATOM     61  C   UNL A   1      48.514  27.215  27.016  1.00  0.00     0.037 A 
BRANCH  48  62
ATOM     62  C   UNL A   1      43.280  23.919  27.149  1.00  0.00     0.058 A 
ATOM     63  C   UNL A   1      42.891  23.457  25.882  1.00  0.00     0.135 A 
ATOM     64  C   UNL A   1      43.001  23.105  28.259  1.00  0.00     0.135 A 
ATOM     65  F   UNL A   1      43.114  24.207  24.790  1.00  0.00    -0.206 F 
ATOM     66  C   UNL A   1      42.207  22.257  25.726  1.00  0.00     0.059 A 
ATOM     67  C   UNL A   1      42.347  21.886  28.122  1.00  0.00     0.059 A 
ATOM     68  F   UNL A   1      43.350  23.501  29.493  1.00  0.00    -0.206 F 
ATOM     69  C   UNL A   1      41.933  21.482  26.854  1.00  0.00     0.060 A 
BRANCH  69  70
ATOM     70  S   UNL A   1      41.011  19.945  26.642  1.00  0.00     0.124 S 
ATOM     71  O   UNL A   1      41.003  19.423  28.004  1.00  0.00    -0.237 OA
ATOM     72  O   UNL A   1      39.726  20.418  26.137  1.00  0.00    -0.237 OA
ATOM     73  O   UNL A   1      41.819  19.193  25.686  1.00  0.00    -0.744 OA
ENDBRANCH  69  70
ENDBRANCH  48  62
BRANCH  49  74
ATOM     74  C   UNL A   1      47.294  32.968  28.472  1.00  0.00     0.058 A 
ATOM     75  C   UNL A   1      47.455  33.838  27.383  1.00  0.00     0.135 A 
ATOM     76  C   UNL A   1      47.744  33.406  29.728  1.00  0.00     0.135 A 
ATOM     77  F   UNL A   1      47.058  33.459  26.158  1.00  0.00    -0.206 F 
ATOM     78  C   UNL A   1      48.044  35.090  27.529  1.00  0.00     0.059 A 
ATOM     79  C   UNL A   1      48.315  34.664  29.903  1.00  0.00     0.059 A 
ATOM     80  F   UNL A   1      47.615  32.612  30.802  1.00  0.00    -0.206 F 
ATOM     81  C   UNL A   1      48.466  35.497  28.796  1.00  0.00     0.060 A 
BRANCH  81  82
ATOM     82  S   UNL A   1      49.183  37.145  28.980  1.00  0.00     0.124 S 
ATOM     83  O   UNL A   1      50.191  36.915  30.008  1.00  0.00    -0.237 OA
ATOM     84  O   UNL A   1      49.689  37.408  27.637  1.00  0.00    -0.237 OA
ATOM     85  O   UNL A   1      48.043  37.963  29.384  1.00  0.00    -0.744 OA
ENDBRANCH  81  82
ENDBRANCH  49  74
BRANCH  61  86
ATOM     86  C   UNL A   1      49.889  26.744  26.624  1.00  0.00     0.058 A 
ATOM     87  C   UNL A   1      50.752  26.123  27.539  1.00  0.00     0.135 A 
ATOM     88  C   UNL A   1      50.296  26.811  25.280  1.00  0.00     0.135 A 
ATOM     89  F   UNL A   1      50.415  26.038  28.835  1.00  0.00    -0.206 F 
ATOM     90  C   UNL A   1      51.968  25.579  27.134  1.00  0.00     0.059 A 
ATOM     91  C   UNL A   1      51.496  26.253  24.850  1.00  0.00     0.059 A 
ATOM     92  F   UNL A   1      49.503  27.387  24.363  1.00  0.00    -0.206 F 
ATOM     93  C   UNL A   1      52.326  25.638  25.785  1.00  0.00     0.060 A 
BRANCH  93  94
ATOM     94  S   UNL A   1      53.864  24.850  25.259  1.00  0.00     0.124 S 
ATOM     95  O   UNL A   1      54.212  25.637  24.080  1.00  0.00    -0.237 OA
ATOM     96  O   UNL A   1      54.724  25.038  26.424  1.00  0.00    -0.237 OA
ATOM     97  O   UNL A   1      53.467  23.470  24.997  1.00  0.00    -0.744 OA
ENDBRANCH  93  94
ENDBRANCH  61  86
ENDBRANCH  35  36
ENDBRANCH  28  30
ENDBRANCH  27  28
ENDBRANCH  26  27
ENDBRANCH  25  26
ENDBRANCH  24  25
ENDBRANCH   1  24
TORSDOF 22
ENDMDL
MODEL 2
REMARK VINA RESULT:      -9.8      1.497      3.373
REMARK SMILES COc1ccc([C@H]2C[NH2+]C[C@@H]2C(=O)OCCOCCOCCOC(=O)c2ccc(-c3c4nc(c(-c5c(F)cc(S(=O)(=O)[O-])cc5F)c5ccc([nH]5)c(-c5c(F)cc(S(=O)(=O)[O-])cc5F)c5nc(c(-c6c(F)cc(S(=O)(=O)[O-])cc6F)c6ccc3[nH]6)C=C5)C=C4)cc2)cc1
REMARK SMILES IDX 19 1 18 2 17 3 16 4 15 5 14 6 12 7 13 8 11 9 7 10 8 11 9 12
REMARK SMILES IDX 10 13 6 16 3 17 4 18 93 19 5 20 92 21 2 22 1 23 20 24 21 25
REMARK SMILES IDX 22 26 23 27 24 28 25 29 26 30 27 31 91 32 28 33 90 34 29 35
REMARK SMILES IDX 30 36 31 37 84 38 32 39 89 40 83 41 85 42 33 43 88 44 82 45
REMARK SMILES IDX 81 46 34 48 68 49 47 50 67 51 48 52 51 53 66 54 86 55 49 56
REMARK SMILES IDX 50 57 65 59 87 60 52 61 35 62 36 63 45 64 37 65 38 66 44 67
REMARK SMILES IDX 46 68 39 69 40 70 41 71 42 72 43 73 69 74 70 75 79 76 71 77
REMARK SMILES IDX 72 78 78 79 80 80 73 81 74 82 75 83 76 84 77 85 53 86 54 87
REMARK SMILES IDX 63 88 55 89 56 90 62 91 64 92 57 93 58 94 59 95 60 96 61 97
REMARK H PARENT 9 14 9 15 85 47 51 58
REMARK Flexibility Score: inf
ROOT
ATOM      1  C   UNL A   1      34.597  31.478  27.742  1.00  0.00     0.188 C 
ENDROOT
BRANCH   1   2
ATOM      2  C   UNL A   1      33.708  30.285  27.379  1.00  0.00     0.188 C 
BRANCH   2   3
ATOM      3  O   UNL A   1      32.332  30.562  27.146  1.00  0.00    -0.376 OA
BRANCH   3   4
ATOM      4  C   UNL A   1      31.848  30.375  25.817  1.00  0.00     0.202 C 
BRANCH   4   5
ATOM      5  C   UNL A   1      32.526  29.277  24.983  1.00  0.00     0.261 C 
BRANCH   5   6
ATOM      6  O   UNL A   1      31.810  28.933  23.782  1.00  0.00    -0.463 OA
BRANCH   6   7
ATOM      7  C   UNL A   1      30.881  27.952  23.903  1.00  0.00     0.315 C 
ATOM      8  O   UNL A   1      29.759  27.998  23.406  1.00  0.00    -0.252 OA
BRANCH   7   9
ATOM      9  C   UNL A   1      31.359  26.722  24.660  1.00  0.00     0.167 C 
ATOM     10  C   UNL A   1      31.837  25.684  23.631  1.00  0.00     0.094 C 
ATOM     11  C   UNL A   1      30.642  24.722  23.602  1.00  0.00     0.269 C 
ATOM     12  N   UNL A   1      30.228  24.608  25.005  1.00  0.00    -0.345 N 
ATOM     13  C   UNL A   1      30.337  25.982  25.529  1.00  0.00     0.276 C 
ATOM     14  H   UNL A   1      30.846  23.976  25.513  1.00  0.00     0.346 HD
ATOM     15  H   UNL A   1      29.287  24.226  25.103  1.00  0.00     0.346 HD
BRANCH  10  16
ATOM     16  C   UNL A   1      33.150  24.958  23.907  1.00  0.00    -0.038 A 
ATOM     17  C   UNL A   1      35.583  23.553  24.250  1.00  0.00     0.118 A 
ATOM     18  C   UNL A   1      34.826  23.377  23.095  1.00  0.00     0.047 A 
ATOM     19  C   UNL A   1      35.146  24.452  25.218  1.00  0.00     0.047 A 
ATOM     20  C   UNL A   1      33.625  24.069  22.925  1.00  0.00     0.008 A 
ATOM     21  C   UNL A   1      33.938  25.144  25.050  1.00  0.00     0.008 A 
BRANCH  17  22
ATOM     22  O   UNL A   1      36.740  22.825  24.306  1.00  0.00    -0.497 OA
ATOM     23  C   UNL A   1      36.647  21.581  24.991  1.00  0.00     0.278 C 
ENDBRANCH  17  22
ENDBRANCH  10  16
ENDBRANCH   7   9
ENDBRANCH   6   7
ENDBRANCH   5   6
ENDBRANCH   4   5
ENDBRANCH   3   4
ENDBRANCH   2   3
ENDBRANCH   1   2
BRANCH   1  24
ATOM     24  O   UNL A   1      33.931  32.568  28.369  1.00  0.00    -0.376 OA
BRANCH  24  25
ATOM     25  C   UNL A   1      34.763  33.464  29.113  1.00  0.00     0.202 C 
BRANCH  25  26
ATOM     26  C   UNL A   1      36.277  33.174  29.066  1.00  0.00     0.261 C 
BRANCH  26  27
ATOM     27  O   UNL A   1      36.859  32.765  30.319  1.00  0.00    -0.460 OA
BRANCH  27  28
ATOM     28  C   UNL A   1      36.859  31.444  30.617  1.00  0.00     0.338 C 
ATOM     29  O   UNL A   1      35.902  30.783  30.986  1.00  0.00    -0.246 OA
BRANCH  28  30
ATOM     30  C   UNL A   1      38.148  30.869  30.150  1.00  0.00     0.060 A 
ATOM     31  C   UNL A   1      39.241  30.868  31.031  1.00  0.00     0.016 A 
ATOM     32  C   UNL A   1      38.266  30.263  28.895  1.00  0.00     0.016 A 
ATOM     33  C   UNL A   1      40.461  30.306  30.643  1.00  0.00     0.010 A 
ATOM     34  C   UNL A   1      39.488  29.711  28.503  1.00  0.00     0.010 A 
ATOM     35  C   UNL A   1      40.603  29.765  29.359  1.00  0.00    -0.014 A 
BRANCH  35  36
ATOM     36  C   UNL A   1      41.949  29.496  28.794  1.00  0.00     0.031 A 
ATOM     37  C   UNL A   1      42.240  28.090  28.342  1.00  0.00     0.074 A 
ATOM     38  C   UNL A   1      42.898  30.444  28.694  1.00  0.00     0.049 A 
ATOM     39  N   UNL A   1      43.365  27.557  27.943  1.00  0.00    -0.248 NA
ATOM     40  C   UNL A   1      41.101  27.157  28.353  1.00  0.00     0.031 C 
ATOM     41  C   UNL A   1      42.730  31.856  29.030  1.00  0.00     0.029 A 
ATOM     42  N   UNL A   1      44.207  30.348  28.289  1.00  0.00    -0.354 N 
ATOM     43  C   UNL A   1      43.072  26.227  27.667  1.00  0.00     0.074 A 
ATOM     44  C   UNL A   1      41.672  26.027  27.973  1.00  0.00     0.031 C 
ATOM     45  C   UNL A   1      43.898  32.494  28.825  1.00  0.00     0.029 A 
ATOM     46  C   UNL A   1      44.908  31.527  28.391  1.00  0.00     0.049 A 
ATOM     47  H   UNL A   1      44.607  29.511  27.957  1.00  0.00     0.167 HD
ATOM     48  C   UNL A   1      43.891  25.257  27.199  1.00  0.00     0.037 A 
ATOM     49  C   UNL A   1      46.217  31.785  28.183  1.00  0.00     0.037 A 
ATOM     50  C   UNL A   1      45.284  25.452  26.910  1.00  0.00     0.049 A 
ATOM     51  C   UNL A   1      47.142  30.664  27.768  1.00  0.00     0.074 A 
ATOM     52  C   UNL A   1      46.204  24.528  26.448  1.00  0.00     0.029 A 
ATOM     53  N   UNL A   1      45.963  26.651  27.066  1.00  0.00    -0.354 N 
ATOM     54  N   UNL A   1      46.857  29.406  27.519  1.00  0.00    -0.248 NA
ATOM     55  C   UNL A   1      48.567  30.994  27.617  1.00  0.00     0.031 C 
ATOM     56  C   UNL A   1      47.450  25.157  26.369  1.00  0.00     0.029 A 
ATOM     57  C   UNL A   1      47.294  26.487  26.726  1.00  0.00     0.049 A 
ATOM     58  H   UNL A   1      45.558  27.495  27.372  1.00  0.00     0.167 HD
ATOM     59  C   UNL A   1      48.058  28.811  27.138  1.00  0.00     0.074 A 
ATOM     60  C   UNL A   1      49.073  29.839  27.201  1.00  0.00     0.031 C 
ATOM     61  C   UNL A   1      48.292  27.530  26.762  1.00  0.00     0.037 A 
BRANCH  48  62
ATOM     62  C   UNL A   1      43.295  23.890  27.014  1.00  0.00     0.058 A 
ATOM     63  C   UNL A   1      43.134  23.003  28.090  1.00  0.00     0.135 A 
ATOM     64  C   UNL A   1      42.896  23.456  25.740  1.00  0.00     0.135 A 
ATOM     65  F   UNL A   1      43.521  23.361  29.326  1.00  0.00    -0.206 F 
ATOM     66  C   UNL A   1      42.641  21.716  27.903  1.00  0.00     0.059 A 
ATOM     67  C   UNL A   1      42.370  22.184  25.535  1.00  0.00     0.059 A 
ATOM     68  F   UNL A   1      43.031  24.264  24.677  1.00  0.00    -0.206 F 
ATOM     69  C   UNL A   1      42.269  21.314  26.619  1.00  0.00     0.060 A 
BRANCH  69  70
ATOM     70  S   UNL A   1      41.667  19.630  26.383  1.00  0.00     0.124 S 
ATOM     71  O   UNL A   1      42.459  19.198  25.237  1.00  0.00    -0.237 OA
ATOM     72  O   UNL A   1      41.999  18.998  27.656  1.00  0.00    -0.237 OA
ATOM     73  O   UNL A   1      40.241  19.811  26.129  1.00  0.00    -0.744 OA
ENDBRANCH  69  70
ENDBRANCH  48  62
BRANCH  49  74
ATOM     74  C   UNL A   1      46.746  33.164  28.368  1.00  0.00     0.058 A 
ATOM     75  C   UNL A   1      47.189  33.602  29.626  1.00  0.00     0.135 A 
ATOM     76  C   UNL A   1      46.808  34.075  27.301  1.00  0.00     0.135 A 
ATOM     77  F   UNL A   1      47.133  32.776  30.681  1.00  0.00    -0.206 F 
ATOM     78  C   UNL A   1      47.669  34.893  29.821  1.00  0.00     0.059 A 
ATOM     79  C   UNL A   1      47.307  35.364  27.468  1.00  0.00     0.059 A 
ATOM     80  F   UNL A   1      46.397  33.706  26.078  1.00  0.00    -0.206 F 
ATOM     81  C   UNL A   1      47.729  35.766  28.734  1.00  0.00     0.060 A 
BRANCH  81  82
ATOM     82  S   UNL A   1      48.401  37.423  28.992  1.00  0.00     0.124 S 
ATOM     83  O   UNL A   1      48.766  37.377  30.403  1.00  0.00    -0.237 OA
ATOM     84  O   UNL A   1      49.511  37.452  28.045  1.00  0.00    -0.237 OA
ATOM     85  O   UNL A   1      47.279  38.296  28.659  1.00  0.00    -0.744 OA
ENDBRANCH  81  82
ENDBRANCH  49  74
BRANCH  61  86
ATOM     86  C   UNL A   1      49.679  27.159  26.313  1.00  0.00     0.058 A 
ATOM     87  C   UNL A   1      50.649  26.685  27.209  1.00  0.00     0.135 A 
ATOM     88  C   UNL A   1      49.999  27.165  24.943  1.00  0.00     0.135 A 
ATOM     89  F   UNL A   1      50.398  26.663  28.527  1.00  0.00    -0.206 F 
ATOM     90  C   UNL A   1      51.886  26.226  26.763  1.00  0.00     0.059 A 
ATOM     91  C   UNL A   1      51.219  26.689  24.475  1.00  0.00     0.059 A 
ATOM     92  F   UNL A   1      49.102  27.600  24.044  1.00  0.00    -0.206 F 
ATOM     93  C   UNL A   1      52.156  26.220  25.392  1.00  0.00     0.060 A 
BRANCH  93  94
ATOM     94  S   UNL A   1      53.729  25.539  24.821  1.00  0.00     0.124 S 
ATOM     95  O   UNL A   1      53.538  24.112  25.060  1.00  0.00    -0.237 OA
ATOM     96  O   UNL A   1      53.755  25.950  23.421  1.00  0.00    -0.237 OA
ATOM     97  O   UNL A   1      54.714  26.192  25.679  1.00  0.00    -0.744 OA
ENDBRANCH  93  94
ENDBRANCH  61  86
ENDBRANCH  35  36
ENDBRANCH  28  30
ENDBRANCH  27  28
ENDBRANCH  26  27
ENDBRANCH  25  26
ENDBRANCH  24  25
ENDBRANCH   1  24
TORSDOF 22
ENDMDL
MODEL 3
REMARK VINA RESULT:      -9.3      1.990      8.833
REMARK SMILES COc1ccc([C@H]2C[NH2+]C[C@@H]2C(=O)OCCOCCOCCOC(=O)c2ccc(-c3c4nc(c(-c5c(F)cc(S(=O)(=O)[O-])cc5F)c5ccc([nH]5)c(-c5c(F)cc(S(=O)(=O)[O-])cc5F)c5nc(c(-c6c(F)cc(S(=O)(=O)[O-])cc6F)c6ccc3[nH]6)C=C5)C=C4)cc2)cc1
REMARK SMILES IDX 19 1 18 2 17 3 16 4 15 5 14 6 12 7 13 8 11 9 7 10 8 11 9 12
REMARK SMILES IDX 10 13 6 16 3 17 4 18 93 19 5 20 92 21 2 22 1 23 20 24 21 25
REMARK SMILES IDX 22 26 23 27 24 28 25 29 26 30 27 31 91 32 28 33 90 34 29 35
REMARK SMILES IDX 30 36 31 37 84 38 32 39 89 40 83 41 85 42 33 43 88 44 82 45
REMARK SMILES IDX 81 46 34 48 68 49 47 50 67 51 48 52 51 53 66 54 86 55 49 56
REMARK SMILES IDX 50 57 65 59 87 60 52 61 35 62 36 63 45 64 37 65 38 66 44 67
REMARK SMILES IDX 46 68 39 69 40 70 41 71 42 72 43 73 69 74 70 75 79 76 71 77
REMARK SMILES IDX 72 78 78 79 80 80 73 81 74 82 75 83 76 84 77 85 53 86 54 87
REMARK SMILES IDX 63 88 55 89 56 90 62 91 64 92 57 93 58 94 59 95 60 96 61 97
REMARK H PARENT 9 14 9 15 85 47 51 58
REMARK Flexibility Score: inf
ROOT
ATOM      1  C   UNL A   1      34.627  33.437  28.538  1.00  0.00     0.188 C 
ENDROOT
BRANCH   1   2
ATOM      2  C   UNL A   1      34.594  31.985  28.051  1.00  0.00     0.188 C 
BRANCH   2   3
ATOM      3  O   UNL A   1      33.315  31.365  27.977  1.00  0.00    -0.376 OA
BRANCH   3   4
ATOM      4  C   UNL A   1      33.015  30.634  26.791  1.00  0.00     0.202 C 
BRANCH   4   5
ATOM      5  C   UNL A   1      33.587  29.211  26.692  1.00  0.00     0.261 C 
BRANCH   5   6
ATOM      6  O   UNL A   1      33.379  28.588  25.411  1.00  0.00    -0.463 OA
BRANCH   6   7
ATOM      7  C   UNL A   1      32.277  27.805  25.299  1.00  0.00     0.315 C 
ATOM      8  O   UNL A   1      31.175  28.212  24.945  1.00  0.00    -0.252 OA
BRANCH   7   9
ATOM      9  C   UNL A   1      32.521  26.331  25.585  1.00  0.00     0.167 C 
ATOM     10  C   UNL A   1      33.160  25.702  24.335  1.00  0.00     0.094 C 
ATOM     11  C   UNL A   1      31.954  24.983  23.715  1.00  0.00     0.269 C 
ATOM     12  N   UNL A   1      31.242  24.406  24.860  1.00  0.00    -0.345 N 
ATOM     13  C   UNL A   1      31.301  25.457  25.892  1.00  0.00     0.276 C 
ATOM     14  H   UNL A   1      31.705  23.556  25.181  1.00  0.00     0.346 HD
ATOM     15  H   UNL A   1      30.285  24.139  24.629  1.00  0.00     0.346 HD
BRANCH  10  16
ATOM     16  C   UNL A   1      34.346  24.764  24.535  1.00  0.00    -0.038 A 
ATOM     17  C   UNL A   1      36.510  23.023  25.081  1.00  0.00     0.118 A 
ATOM     18  C   UNL A   1      35.810  23.624  26.124  1.00  0.00     0.047 A 
ATOM     19  C   UNL A   1      36.111  23.262  23.769  1.00  0.00     0.047 A 
ATOM     20  C   UNL A   1      34.743  24.484  25.855  1.00  0.00     0.008 A 
ATOM     21  C   UNL A   1      35.043  24.129  23.499  1.00  0.00     0.008 A 
BRANCH  17  22
ATOM     22  O   UNL A   1      37.534  22.200  25.463  1.00  0.00    -0.497 OA
ATOM     23  C   UNL A   1      37.570  20.930  24.823  1.00  0.00     0.278 C 
ENDBRANCH  17  22
ENDBRANCH  10  16
ENDBRANCH   7   9
ENDBRANCH   6   7
ENDBRANCH   5   6
ENDBRANCH   4   5
ENDBRANCH   3   4
ENDBRANCH   2   3
ENDBRANCH   1   2
BRANCH   1  24
ATOM     24  O   UNL A   1      34.022  33.669  29.806  1.00  0.00    -0.376 OA
BRANCH  24  25
ATOM     25  C   UNL A   1      34.921  33.949  30.884  1.00  0.00     0.202 C 
BRANCH  25  26
ATOM     26  C   UNL A   1      36.423  33.852  30.553  1.00  0.00     0.261 C 
BRANCH  26  27
ATOM     27  O   UNL A   1      37.147  32.849  31.292  1.00  0.00    -0.460 OA
BRANCH  27  28
ATOM     28  C   UNL A   1      36.794  31.553  31.117  1.00  0.00     0.338 C 
ATOM     29  O   UNL A   1      35.665  31.095  31.177  1.00  0.00    -0.246 OA
BRANCH  28  30
ATOM     30  C   UNL A   1      37.967  30.829  30.562  1.00  0.00     0.060 A 
ATOM     31  C   UNL A   1      38.753  30.056  31.433  1.00  0.00     0.016 A 
ATOM     32  C   UNL A   1      38.251  30.837  29.193  1.00  0.00     0.016 A 
ATOM     33  C   UNL A   1      39.844  29.332  30.945  1.00  0.00     0.010 A 
ATOM     34  C   UNL A   1      39.349  30.122  28.707  1.00  0.00     0.010 A 
ATOM     35  C   UNL A   1      40.175  29.398  29.586  1.00  0.00    -0.014 A 
BRANCH  35  36
ATOM     36  C   UNL A   1      41.506  28.950  29.106  1.00  0.00     0.031 A 
ATOM     37  C   UNL A   1      42.598  29.984  29.034  1.00  0.00     0.074 A 
ATOM     38  C   UNL A   1      41.753  27.683  28.727  1.00  0.00     0.049 A 
ATOM     39  N   UNL A   1      43.799  29.894  28.528  1.00  0.00    -0.248 NA
ATOM     40  C   UNL A   1      42.279  31.304  29.604  1.00  0.00     0.031 C 
ATOM     41  C   UNL A   1      40.810  26.570  28.809  1.00  0.00     0.029 A 
ATOM     42  N   UNL A   1      42.883  27.128  28.177  1.00  0.00    -0.354 N 
ATOM     43  C   UNL A   1      44.375  31.146  28.709  1.00  0.00     0.074 A 
ATOM     44  C   UNL A   1      43.382  31.985  29.343  1.00  0.00     0.031 C 
ATOM     45  C   UNL A   1      41.400  25.464  28.317  1.00  0.00     0.029 A 
ATOM     46  C   UNL A   1      42.743  25.801  27.842  1.00  0.00     0.049 A 
ATOM     47  H   UNL A   1      43.717  27.633  28.036  1.00  0.00     0.167 HD
ATOM     48  C   UNL A   1      45.620  31.564  28.381  1.00  0.00     0.037 A 
ATOM     49  C   UNL A   1      43.591  24.969  27.201  1.00  0.00     0.037 A 
ATOM     50  C   UNL A   1      46.601  30.735  27.737  1.00  0.00     0.049 A 
ATOM     51  C   UNL A   1      44.936  25.483  26.741  1.00  0.00     0.074 A 
ATOM     52  C   UNL A   1      47.885  31.069  27.347  1.00  0.00     0.029 A 
ATOM     53  N   UNL A   1      46.404  29.410  27.378  1.00  0.00    -0.354 N 
ATOM     54  N   UNL A   1      45.468  26.672  26.908  1.00  0.00    -0.248 NA
ATOM     55  C   UNL A   1      45.791  24.546  25.995  1.00  0.00     0.031 C 
ATOM     56  C   UNL A   1      48.449  29.959  26.709  1.00  0.00     0.029 A 
ATOM     57  C   UNL A   1      47.536  28.916  26.755  1.00  0.00     0.049 A 
ATOM     58  H   UNL A   1      45.580  28.896  27.543  1.00  0.00     0.167 HD
ATOM     59  C   UNL A   1      46.735  26.608  26.331  1.00  0.00     0.074 A 
ATOM     60  C   UNL A   1      46.885  25.271  25.798  1.00  0.00     0.031 C 
ATOM     61  C   UNL A   1      47.687  27.570  26.258  1.00  0.00     0.037 A 
BRANCH  48  62
ATOM     62  C   UNL A   1      45.963  32.995  28.681  1.00  0.00     0.058 A 
ATOM     63  C   UNL A   1      45.700  34.025  27.764  1.00  0.00     0.135 A 
ATOM     64  C   UNL A   1      46.577  33.339  29.895  1.00  0.00     0.135 A 
ATOM     65  F   UNL A   1      45.134  33.747  26.578  1.00  0.00    -0.206 F 
ATOM     66  C   UNL A   1      46.076  35.339  28.021  1.00  0.00     0.059 A 
ATOM     67  C   UNL A   1      46.933  34.651  30.187  1.00  0.00     0.059 A 
ATOM     68  F   UNL A   1      46.853  32.391  30.806  1.00  0.00    -0.206 F 
ATOM     69  C   UNL A   1      46.700  35.640  29.233  1.00  0.00     0.060 A 
BRANCH  69  70
ATOM     70  S   UNL A   1      47.217  37.341  29.538  1.00  0.00     0.124 S 
ATOM     71  O   UNL A   1      46.210  38.088  28.791  1.00  0.00    -0.237 OA
ATOM     72  O   UNL A   1      47.129  37.439  30.991  1.00  0.00    -0.237 OA
ATOM     73  O   UNL A   1      48.569  37.390  28.989  1.00  0.00    -0.744 OA
ENDBRANCH  69  70
ENDBRANCH  48  62
BRANCH  49  74
ATOM     74  C   UNL A   1      43.201  23.555  26.945  1.00  0.00     0.058 A 
ATOM     75  C   UNL A   1      42.915  23.112  25.645  1.00  0.00     0.135 A 
ATOM     76  C   UNL A   1      43.093  22.623  27.990  1.00  0.00     0.135 A 
ATOM     77  F   UNL A   1      42.984  23.969  24.615  1.00  0.00    -0.206 F 
ATOM     78  C   UNL A   1      42.530  21.800  25.389  1.00  0.00     0.059 A 
ATOM     79  C   UNL A   1      42.734  21.299  27.755  1.00  0.00     0.059 A 
ATOM     80  F   UNL A   1      43.356  22.996  29.252  1.00  0.00    -0.206 F 
ATOM     81  C   UNL A   1      42.447  20.898  26.452  1.00  0.00     0.060 A 
BRANCH  81  82
ATOM     82  S   UNL A   1      41.996  19.185  26.098  1.00  0.00     0.124 S 
ATOM     83  O   UNL A   1      42.341  18.524  27.351  1.00  0.00    -0.237 OA
ATOM     84  O   UNL A   1      40.570  19.300  25.808  1.00  0.00    -0.237 OA
ATOM     85  O   UNL A   1      42.835  18.847  24.953  1.00  0.00    -0.744 OA
ENDBRANCH  81  82
ENDBRANCH  49  74
BRANCH  61  86
ATOM     86  C   UNL A   1      49.015  27.216  25.647  1.00  0.00     0.058 A 
ATOM     87  C   UNL A   1      49.254  27.325  24.269  1.00  0.00     0.135 A 
ATOM     88  C   UNL A   1      50.100  26.876  26.475  1.00  0.00     0.135 A 
ATOM     89  F   UNL A   1      48.253  27.640  23.432  1.00  0.00    -0.206 F 
ATOM     90  C   UNL A   1      50.523  27.116  23.733  1.00  0.00     0.059 A 
ATOM     91  C   UNL A   1      51.380  26.686  25.964  1.00  0.00     0.059 A 
ATOM     92  F   UNL A   1      49.927  26.768  27.802  1.00  0.00    -0.206 F 
ATOM     93  C   UNL A   1      51.582  26.810  24.591  1.00  0.00     0.060 A 
BRANCH  93  94
ATOM     94  S   UNL A   1      53.238  26.629  23.894  1.00  0.00     0.124 S 
ATOM     95  O   UNL A   1      54.000  27.588  24.688  1.00  0.00    -0.237 OA
ATOM     96  O   UNL A   1      53.531  25.222  24.148  1.00  0.00    -0.237 OA
ATOM     97  O   UNL A   1      53.057  26.981  22.489  1.00  0.00    -0.744 OA
ENDBRANCH  93  94
ENDBRANCH  61  86
ENDBRANCH  35  36
ENDBRANCH  28  30
ENDBRANCH  27  28
ENDBRANCH  26  27
ENDBRANCH  25  26
ENDBRANCH  24  25
ENDBRANCH   1  24
TORSDOF 22
ENDMDL
