MODEL 1
REMARK VINA RESULT:     -11.4      0.000      0.000
REMARK SMILES O=C(OCCOCCOCCOC(=O)c1ccc(-c2c3nc(c(-c4c(F)cc(S(=O)(=O)[O-])cc4F)c4ccc([nH]4)c(-c4c(F)cc(S(=O)(=O)[O-])cc4F)c4nc(c(-c5c(F)cc(S(=O)(=O)[O-])cc5F)c5ccc2[nH]5)C=C4)C=C3)cc1)C1=Cc2ccc(Cl)c(Cl)c2O[C@@H]1C(F)(F)F
REMARK SMILES IDX 8 1 7 2 6 3 5 4 4 5 3 6 2 7 1 8 81 9 82 10 92 11 83 12 91 13
REMARK SMILES IDX 84 14 90 15 85 16 88 17 86 18 89 19 87 20 93 21 94 22 95 23
REMARK SMILES IDX 96 24 9 25 10 26 11 27 12 28 13 29 14 30 15 31 16 32 80 33
REMARK SMILES IDX 17 34 79 35 18 36 19 37 20 38 73 39 21 40 78 41 72 42 74 43
REMARK SMILES IDX 22 44 77 45 71 46 70 47 23 49 57 50 36 51 56 52 37 53 40 54
REMARK SMILES IDX 55 55 75 56 38 57 39 58 54 60 76 61 41 62 24 63 25 64 34 65
REMARK SMILES IDX 26 66 27 67 33 68 35 69 28 70 29 71 30 72 31 73 32 74 58 75
REMARK SMILES IDX 59 76 68 77 60 78 61 79 67 80 69 81 62 82 63 83 64 84 65 85
REMARK SMILES IDX 66 86 42 87 43 88 52 89 44 90 45 91 51 92 53 93 46 94 47 95
REMARK SMILES IDX 48 96 49 97 50 98
REMARK H PARENT 74 48 40 59
REMARK Flexibility Score: inf
ROOT
ATOM      1  C   UNL A   1      33.856  33.172  27.686  1.00  0.00     0.188 C 
ENDROOT
BRANCH   1   2
ATOM      2  C   UNL A   1      33.822  31.733  28.225  1.00  0.00     0.188 C 
BRANCH   2   3
ATOM      3  O   UNL A   1      34.717  30.656  27.711  1.00  0.00    -0.376 OA
BRANCH   3   4
ATOM      4  C   UNL A   1      34.301  29.277  26.765  1.00  0.00     0.202 C 
BRANCH   4   5
ATOM      5  C   UNL A   1      32.480  28.114  26.998  1.00  0.00     0.261 C 
BRANCH   5   6
ATOM      6  O   UNL A   1      31.543  27.673  25.895  1.00  0.00    -0.460 OA
BRANCH   6   7
ATOM      7  C   UNL A   1      31.393  26.341  25.877  1.00  0.00     0.338 C 
ATOM      8  O   UNL A   1      30.600  25.682  26.503  1.00  0.00    -0.246 OA
BRANCH   7   9
ATOM      9  C   UNL A   1      32.720  26.017  25.367  1.00  0.00     0.087 C 
ATOM     10  C   UNL A   1      33.482  25.024  26.117  1.00  0.00     0.027 C 
ATOM     11  C   UNL A   1      32.068  25.769  23.582  1.00  0.00     0.316 C 
ATOM     12  C   UNL A   1      33.661  23.304  25.627  1.00  0.00     0.019 A 
ATOM     13  O   UNL A   1      32.082  23.876  23.096  1.00  0.00    -0.474 OA
ATOM     14  C   UNL A   1      34.290  22.435  26.475  1.00  0.00     0.013 A 
ATOM     15  C   UNL A   1      32.931  22.671  24.187  1.00  0.00     0.148 A 
ATOM     16  C   UNL A   1      34.292  21.094  26.053  1.00  0.00     0.023 A 
ATOM     17  C   UNL A   1      32.958  21.336  23.867  1.00  0.00     0.102 A 
ATOM     18  C   UNL A   1      33.671  20.571  24.832  1.00  0.00     0.063 A 
ATOM     19  Cl  UNL A   1      32.155  20.660  22.526  1.00  0.00    -0.079 Cl
ATOM     20  Cl  UNL A   1      33.853  18.847  24.635  1.00  0.00    -0.083 Cl
BRANCH  11  21
ATOM     21  C   UNL A   1      32.939  27.104  23.015  1.00  0.00     0.430 C 
ATOM     22  F   UNL A   1      34.018  27.560  23.648  1.00  0.00    -0.167 F 
ATOM     23  F   UNL A   1      33.325  26.846  21.738  1.00  0.00    -0.167 F 
ATOM     24  F   UNL A   1      32.143  28.216  22.918  1.00  0.00    -0.167 F 
ENDBRANCH  11  21
ENDBRANCH   7   9
ENDBRANCH   6   7
ENDBRANCH   5   6
ENDBRANCH   4   5
ENDBRANCH   3   4
ENDBRANCH   2   3
ENDBRANCH   1   2
BRANCH   1  25
ATOM     25  O   UNL A   1      34.757  34.095  28.235  1.00  0.00    -0.376 OA
BRANCH  25  26
ATOM     26  C   UNL A   1      34.447  34.556  29.542  1.00  0.00     0.202 C 
BRANCH  26  27
ATOM     27  C   UNL A   1      35.321  34.060  30.705  1.00  0.00     0.261 C 
BRANCH  27  28
ATOM     28  O   UNL A   1      36.350  33.125  30.317  1.00  0.00    -0.460 OA
BRANCH  28  29
ATOM     29  C   UNL A   1      36.382  31.934  30.969  1.00  0.00     0.338 C 
ATOM     30  O   UNL A   1      35.543  31.488  31.730  1.00  0.00    -0.246 OA
BRANCH  29  31
ATOM     31  C   UNL A   1      37.556  31.159  30.516  1.00  0.00     0.060 A 
ATOM     32  C   UNL A   1      38.379  30.523  31.458  1.00  0.00     0.016 A 
ATOM     33  C   UNL A   1      37.869  31.114  29.158  1.00  0.00     0.016 A 
ATOM     34  C   UNL A   1      39.506  29.811  31.036  1.00  0.00     0.010 A 
ATOM     35  C   UNL A   1      39.023  30.445  28.743  1.00  0.00     0.010 A 
ATOM     36  C   UNL A   1      39.855  29.806  29.680  1.00  0.00    -0.014 A 
BRANCH  36  37
ATOM     37  C   UNL A   1      41.211  29.370  29.265  1.00  0.00     0.031 A 
ATOM     38  C   UNL A   1      42.287  30.420  29.208  1.00  0.00     0.074 A 
ATOM     39  C   UNL A   1      41.478  28.097  28.923  1.00  0.00     0.049 A 
ATOM     40  N   UNL A   1      43.525  30.321  28.804  1.00  0.00    -0.248 NA
ATOM     41  C   UNL A   1      41.905  31.768  29.661  1.00  0.00     0.031 C 
ATOM     42  C   UNL A   1      40.524  26.990  28.971  1.00  0.00     0.029 A 
ATOM     43  N   UNL A   1      42.634  27.526  28.451  1.00  0.00    -0.354 N 
ATOM     44  C   UNL A   1      44.067  31.593  28.946  1.00  0.00     0.074 A 
ATOM     45  C   UNL A   1      43.016  32.452  29.443  1.00  0.00     0.031 C 
ATOM     46  C   UNL A   1      41.131  25.875  28.525  1.00  0.00     0.029 A 
ATOM     47  C   UNL A   1      42.503  26.195  28.129  1.00  0.00     0.049 A 
ATOM     48  H   UNL A   1      43.478  28.022  28.351  1.00  0.00     0.167 HD
ATOM     49  C   UNL A   1      45.330  32.006  28.690  1.00  0.00     0.037 A 
ATOM     50  C   UNL A   1      43.382  25.346  27.557  1.00  0.00     0.037 A 
ATOM     51  C   UNL A   1      46.360  31.145  28.172  1.00  0.00     0.049 A 
ATOM     52  C   UNL A   1      44.763  25.847  27.206  1.00  0.00     0.074 A 
ATOM     53  C   UNL A   1      47.677  31.458  27.889  1.00  0.00     0.029 A 
ATOM     54  N   UNL A   1      46.184  29.809  27.839  1.00  0.00    -0.354 N 
ATOM     55  N   UNL A   1      45.279  27.042  27.381  1.00  0.00    -0.248 NA
ATOM     56  C   UNL A   1      45.684  24.886  26.582  1.00  0.00     0.031 C 
ATOM     57  C   UNL A   1      48.275  30.333  27.313  1.00  0.00     0.029 A 
ATOM     58  C   UNL A   1      47.358  29.293  27.320  1.00  0.00     0.049 A 
ATOM     59  H   UNL A   1      45.347  29.304  27.956  1.00  0.00     0.167 HD
ATOM     60  C   UNL A   1      46.593  26.965  26.923  1.00  0.00     0.074 A 
ATOM     61  C   UNL A   1      46.795  25.603  26.474  1.00  0.00     0.031 C 
ATOM     62  C   UNL A   1      47.546  27.930  26.883  1.00  0.00     0.037 A 
BRANCH  49  63
ATOM     63  C   UNL A   1      45.649  33.458  28.925  1.00  0.00     0.058 A 
ATOM     64  C   UNL A   1      46.161  33.920  30.148  1.00  0.00     0.135 A 
ATOM     65  C   UNL A   1      45.462  34.399  27.899  1.00  0.00     0.135 A 
ATOM     66  F   UNL A   1      46.340  33.069  31.173  1.00  0.00    -0.206 F 
ATOM     67  C   UNL A   1      46.446  35.265  30.357  1.00  0.00     0.059 A 
ATOM     68  C   UNL A   1      45.775  35.743  28.073  1.00  0.00     0.059 A 
ATOM     69  F   UNL A   1      44.968  34.016  26.712  1.00  0.00    -0.206 F 
ATOM     70  C   UNL A   1      46.256  36.169  29.310  1.00  0.00     0.060 A 
BRANCH  70  71
ATOM     71  S   UNL A   1      46.650  37.907  29.592  1.00  0.00     0.124 S 
ATOM     72  O   UNL A   1      48.091  37.922  29.356  1.00  0.00    -0.237 OA
ATOM     73  O   UNL A   1      45.836  38.576  28.583  1.00  0.00    -0.237 OA
ATOM     74  O   UNL A   1      46.242  38.131  30.976  1.00  0.00    -0.744 OA
ENDBRANCH  70  71
ENDBRANCH  49  63
BRANCH  50  75
ATOM     75  C   UNL A   1      42.986  23.939  27.261  1.00  0.00     0.058 A 
ATOM     76  C   UNL A   1      42.948  22.962  28.268  1.00  0.00     0.135 A 
ATOM     77  C   UNL A   1      42.647  23.537  25.958  1.00  0.00     0.135 A 
ATOM     78  F   UNL A   1      43.281  23.283  29.528  1.00  0.00    -0.206 F 
ATOM     79  C   UNL A   1      42.605  21.640  27.994  1.00  0.00     0.059 A 
ATOM     80  C   UNL A   1      42.268  22.231  25.665  1.00  0.00     0.059 A 
ATOM     81  F   UNL A   1      42.664  24.428  24.954  1.00  0.00    -0.206 F 
ATOM     82  C   UNL A   1      42.258  21.285  26.689  1.00  0.00     0.060 A 
BRANCH  82  83
ATOM     83  S   UNL A   1      41.762  19.581  26.356  1.00  0.00     0.124 S 
ATOM     84  O   UNL A   1      42.577  19.258  25.190  1.00  0.00    -0.237 OA
ATOM     85  O   UNL A   1      42.129  18.908  27.598  1.00  0.00    -0.237 OA
ATOM     86  O   UNL A   1      40.327  19.689  26.111  1.00  0.00    -0.744 OA
ENDBRANCH  82  83
ENDBRANCH  50  75
BRANCH  62  87
ATOM     87  C   UNL A   1      48.915  27.547  26.382  1.00  0.00     0.058 A 
ATOM     88  C   UNL A   1      49.969  27.232  27.253  1.00  0.00     0.135 A 
ATOM     89  C   UNL A   1      49.153  27.426  25.001  1.00  0.00     0.135 A 
ATOM     90  F   UNL A   1      49.802  27.332  28.581  1.00  0.00    -0.206 F 
ATOM     91  C   UNL A   1      51.216  26.838  26.775  1.00  0.00     0.059 A 
ATOM     92  C   UNL A   1      50.378  26.997  24.502  1.00  0.00     0.059 A 
ATOM     93  F   UNL A   1      48.177  27.702  24.120  1.00  0.00    -0.206 F 
ATOM     94  C   UNL A   1      51.408  26.716  25.397  1.00  0.00     0.060 A 
BRANCH  94  95
ATOM     95  S   UNL A   1      53.018  26.164  24.794  1.00  0.00     0.124 S 
ATOM     96  O   UNL A   1      53.925  26.842  25.714  1.00  0.00    -0.237 OA
ATOM     97  O   UNL A   1      52.925  24.716  24.948  1.00  0.00    -0.237 OA
ATOM     98  O   UNL A   1      53.049  26.644  23.416  1.00  0.00    -0.744 OA
ENDBRANCH  94  95
ENDBRANCH  62  87
ENDBRANCH  36  37
ENDBRANCH  29  31
ENDBRANCH  28  29
ENDBRANCH  27  28
ENDBRANCH  26  27
ENDBRANCH  25  26
ENDBRANCH   1  25
TORSDOF 21
ENDMDL
MODEL 2
REMARK VINA RESULT:     -11.2      5.723      7.817
REMARK SMILES O=C(OCCOCCOCCOC(=O)c1ccc(-c2c3nc(c(-c4c(F)cc(S(=O)(=O)[O-])cc4F)c4ccc([nH]4)c(-c4c(F)cc(S(=O)(=O)[O-])cc4F)c4nc(c(-c5c(F)cc(S(=O)(=O)[O-])cc5F)c5ccc2[nH]5)C=C4)C=C3)cc1)C1=Cc2ccc(Cl)c(Cl)c2O[C@@H]1C(F)(F)F
REMARK SMILES IDX 8 1 7 2 6 3 5 4 4 5 3 6 2 7 1 8 81 9 82 10 92 11 83 12 91 13
REMARK SMILES IDX 84 14 90 15 85 16 88 17 86 18 89 19 87 20 93 21 94 22 95 23
REMARK SMILES IDX 96 24 9 25 10 26 11 27 12 28 13 29 14 30 15 31 16 32 80 33
REMARK SMILES IDX 17 34 79 35 18 36 19 37 20 38 73 39 21 40 78 41 72 42 74 43
REMARK SMILES IDX 22 44 77 45 71 46 70 47 23 49 57 50 36 51 56 52 37 53 40 54
REMARK SMILES IDX 55 55 75 56 38 57 39 58 54 60 76 61 41 62 24 63 25 64 34 65
REMARK SMILES IDX 26 66 27 67 33 68 35 69 28 70 29 71 30 72 31 73 32 74 58 75
REMARK SMILES IDX 59 76 68 77 60 78 61 79 67 80 69 81 62 82 63 83 64 84 65 85
REMARK SMILES IDX 66 86 42 87 43 88 52 89 44 90 45 91 51 92 53 93 46 94 47 95
REMARK SMILES IDX 48 96 49 97 50 98
REMARK H PARENT 74 48 40 59
REMARK Flexibility Score: inf
ROOT
ATOM      1  C   UNL A   1      32.088  29.783  26.202  1.00  0.00     0.188 C 
ENDROOT
BRANCH   1   2
ATOM      2  C   UNL A   1      31.057  30.348  25.213  1.00  0.00     0.188 C 
BRANCH   2   3
ATOM      3  O   UNL A   1      30.693  29.657  23.942  1.00  0.00    -0.376 OA
BRANCH   3   4
ATOM      4  C   UNL A   1      30.180  28.027  23.717  1.00  0.00     0.202 C 
BRANCH   4   5
ATOM      5  C   UNL A   1      31.149  26.590  22.406  1.00  0.00     0.261 C 
BRANCH   5   6
ATOM      6  O   UNL A   1      32.618  26.543  22.047  1.00  0.00    -0.460 OA
BRANCH   6   7
ATOM      7  C   UNL A   1      33.064  25.282  21.951  1.00  0.00     0.338 C 
ATOM      8  O   UNL A   1      33.301  24.661  20.945  1.00  0.00    -0.246 OA
BRANCH   7   9
ATOM      9  C   UNL A   1      32.642  24.841  23.275  1.00  0.00     0.087 C 
ATOM     10  C   UNL A   1      31.959  23.553  23.347  1.00  0.00     0.027 C 
ATOM     11  C   UNL A   1      34.361  25.206  24.039  1.00  0.00     0.316 C 
ATOM     12  C   UNL A   1      32.740  22.022  23.873  1.00  0.00     0.019 A 
ATOM     13  O   UNL A   1      35.304  23.544  24.450  1.00  0.00    -0.474 OA
ATOM     14  C   UNL A   1      32.038  20.853  23.776  1.00  0.00     0.013 A 
ATOM     15  C   UNL A   1      34.403  21.949  24.357  1.00  0.00     0.148 A 
ATOM     16  C   UNL A   1      32.763  19.697  24.115  1.00  0.00     0.023 A 
ATOM     17  C   UNL A   1      35.042  20.767  24.644  1.00  0.00     0.102 A 
ATOM     18  C   UNL A   1      34.171  19.649  24.523  1.00  0.00     0.063 A 
ATOM     19  Cl  UNL A   1      36.701  20.644  25.008  1.00  0.00    -0.079 Cl
ATOM     20  Cl  UNL A   1      34.752  18.036  24.850  1.00  0.00    -0.083 Cl
BRANCH  11  21
ATOM     21  C   UNL A   1      33.733  26.437  25.015  1.00  0.00     0.430 C 
ATOM     22  F   UNL A   1      32.467  26.428  25.429  1.00  0.00    -0.167 F 
ATOM     23  F   UNL A   1      34.500  26.526  26.132  1.00  0.00    -0.167 F 
ATOM     24  F   UNL A   1      33.853  27.663  24.413  1.00  0.00    -0.167 F 
ENDBRANCH  11  21
ENDBRANCH   7   9
ENDBRANCH   6   7
ENDBRANCH   5   6
ENDBRANCH   4   5
ENDBRANCH   3   4
ENDBRANCH   2   3
ENDBRANCH   1   2
BRANCH   1  25
ATOM     25  O   UNL A   1      33.307  30.450  26.389  1.00  0.00    -0.376 OA
BRANCH  25  26
ATOM     26  C   UNL A   1      33.392  31.268  27.546  1.00  0.00     0.202 C 
BRANCH  26  27
ATOM     27  C   UNL A   1      32.626  32.600  27.542  1.00  0.00     0.261 C 
BRANCH  27  28
ATOM     28  O   UNL A   1      33.472  33.771  27.532  1.00  0.00    -0.460 OA
BRANCH  28  29
ATOM     29  C   UNL A   1      33.486  34.534  28.655  1.00  0.00     0.338 C 
ATOM     30  O   UNL A   1      32.659  35.361  28.994  1.00  0.00    -0.246 OA
BRANCH  29  31
ATOM     31  C   UNL A   1      34.616  34.122  29.513  1.00  0.00     0.060 A 
ATOM     32  C   UNL A   1      35.934  34.289  29.062  1.00  0.00     0.016 A 
ATOM     33  C   UNL A   1      34.361  33.516  30.742  1.00  0.00     0.016 A 
ATOM     34  C   UNL A   1      37.006  33.876  29.859  1.00  0.00     0.010 A 
ATOM     35  C   UNL A   1      35.431  33.058  31.516  1.00  0.00     0.010 A 
ATOM     36  C   UNL A   1      36.755  33.220  31.070  1.00  0.00    -0.014 A 
BRANCH  36  37
ATOM     37  C   UNL A   1      37.842  32.470  31.746  1.00  0.00     0.031 A 
ATOM     38  C   UNL A   1      38.317  32.989  33.076  1.00  0.00     0.074 A 
ATOM     39  C   UNL A   1      38.411  31.383  31.193  1.00  0.00     0.049 A 
ATOM     40  N   UNL A   1      39.298  32.572  33.830  1.00  0.00    -0.248 NA
ATOM     41  C   UNL A   1      37.587  34.146  33.620  1.00  0.00     0.031 C 
ATOM     42  C   UNL A   1      38.012  30.772  29.927  1.00  0.00     0.029 A 
ATOM     43  N   UNL A   1      39.461  30.611  31.625  1.00  0.00    -0.354 N 
ATOM     44  C   UNL A   1      39.308  33.418  34.933  1.00  0.00     0.074 A 
ATOM     45  C   UNL A   1      38.258  34.391  34.734  1.00  0.00     0.031 C 
ATOM     46  C   UNL A   1      38.823  29.728  29.675  1.00  0.00     0.029 A 
ATOM     47  C   UNL A   1      39.819  29.619  30.742  1.00  0.00     0.049 A 
ATOM     48  H   UNL A   1      39.917  30.754  32.486  1.00  0.00     0.167 HD
ATOM     49  C   UNL A   1      40.118  33.384  36.016  1.00  0.00     0.037 A 
ATOM     50  C   UNL A   1      40.846  28.745  30.782  1.00  0.00     0.037 A 
ATOM     51  C   UNL A   1      41.176  32.424  36.189  1.00  0.00     0.049 A 
ATOM     52  C   UNL A   1      41.787  28.773  31.964  1.00  0.00     0.074 A 
ATOM     53  C   UNL A   1      42.048  32.291  37.255  1.00  0.00     0.029 A 
ATOM     54  N   UNL A   1      41.521  31.448  35.265  1.00  0.00    -0.354 N 
ATOM     55  N   UNL A   1      41.764  29.552  33.021  1.00  0.00    -0.248 NA
ATOM     56  C   UNL A   1      42.892  27.803  31.962  1.00  0.00     0.031 C 
ATOM     57  C   UNL A   1      42.967  31.286  36.940  1.00  0.00     0.029 A 
ATOM     58  C   UNL A   1      42.615  30.732  35.719  1.00  0.00     0.049 A 
ATOM     59  H   UNL A   1      41.055  31.288  34.412  1.00  0.00     0.167 HD
ATOM     60  C   UNL A   1      42.827  29.142  33.824  1.00  0.00     0.074 A 
ATOM     61  C   UNL A   1      43.465  28.040  33.135  1.00  0.00     0.031 C 
ATOM     62  C   UNL A   1      43.235  29.630  35.023  1.00  0.00     0.037 A 
BRANCH  49  63
ATOM     63  C   UNL A   1      39.917  34.438  37.070  1.00  0.00     0.058 A 
ATOM     64  C   UNL A   1      40.502  35.712  36.972  1.00  0.00     0.135 A 
ATOM     65  C   UNL A   1      39.106  34.178  38.187  1.00  0.00     0.135 A 
ATOM     66  F   UNL A   1      41.305  36.011  35.938  1.00  0.00    -0.206 F 
ATOM     67  C   UNL A   1      40.314  36.677  37.956  1.00  0.00     0.059 A 
ATOM     68  C   UNL A   1      38.874  35.141  39.164  1.00  0.00     0.059 A 
ATOM     69  F   UNL A   1      38.528  32.976  38.338  1.00  0.00    -0.206 F 
ATOM     70  C   UNL A   1      39.493  36.384  39.045  1.00  0.00     0.060 A 
BRANCH  70  71
ATOM     71  S   UNL A   1      39.245  37.655  40.302  1.00  0.00     0.124 S 
ATOM     72  O   UNL A   1      40.581  38.238  40.396  1.00  0.00    -0.237 OA
ATOM     73  O   UNL A   1      38.227  38.501  39.689  1.00  0.00    -0.237 OA
ATOM     74  O   UNL A   1      38.810  36.899  41.472  1.00  0.00    -0.744 OA
ENDBRANCH  70  71
ENDBRANCH  49  63
BRANCH  50  75
ATOM     75  C   UNL A   1      41.056  27.778  29.666  1.00  0.00     0.058 A 
ATOM     76  C   UNL A   1      40.188  26.693  29.465  1.00  0.00     0.135 A 
ATOM     77  C   UNL A   1      42.140  27.911  28.783  1.00  0.00     0.135 A 
ATOM     78  F   UNL A   1      39.147  26.504  30.290  1.00  0.00    -0.206 F 
ATOM     79  C   UNL A   1      40.393  25.771  28.441  1.00  0.00     0.059 A 
ATOM     80  C   UNL A   1      42.346  27.023  27.732  1.00  0.00     0.059 A 
ATOM     81  F   UNL A   1      43.003  28.929  28.926  1.00  0.00    -0.206 F 
ATOM     82  C   UNL A   1      41.472  25.949  27.574  1.00  0.00     0.060 A 
BRANCH  82  83
ATOM     83  S   UNL A   1      41.697  24.778  26.217  1.00  0.00     0.124 S 
ATOM     84  O   UNL A   1      43.003  24.210  26.530  1.00  0.00    -0.237 OA
ATOM     85  O   UNL A   1      40.554  23.887  26.390  1.00  0.00    -0.237 OA
ATOM     86  O   UNL A   1      41.647  25.626  25.029  1.00  0.00    -0.744 OA
ENDBRANCH  82  83
ENDBRANCH  50  75
BRANCH  62  87
ATOM     87  C   UNL A   1      44.396  28.949  35.701  1.00  0.00     0.058 A 
ATOM     88  C   UNL A   1      45.705  29.450  35.626  1.00  0.00     0.135 A 
ATOM     89  C   UNL A   1      44.178  27.812  36.499  1.00  0.00     0.135 A 
ATOM     90  F   UNL A   1      45.973  30.531  34.877  1.00  0.00    -0.206 F 
ATOM     91  C   UNL A   1      46.760  28.834  36.294  1.00  0.00     0.059 A 
ATOM     92  C   UNL A   1      45.210  27.203  37.207  1.00  0.00     0.059 A 
ATOM     93  F   UNL A   1      42.945  27.296  36.620  1.00  0.00    -0.206 F 
ATOM     94  C   UNL A   1      46.500  27.715  37.088  1.00  0.00     0.060 A 
BRANCH  94  95
ATOM     95  S   UNL A   1      47.872  26.952  37.981  1.00  0.00     0.124 S 
ATOM     96  O   UNL A   1      48.878  28.007  37.932  1.00  0.00    -0.237 OA
ATOM     97  O   UNL A   1      47.283  26.698  39.292  1.00  0.00    -0.237 OA
ATOM     98  O   UNL A   1      48.173  25.762  37.192  1.00  0.00    -0.744 OA
ENDBRANCH  94  95
ENDBRANCH  62  87
ENDBRANCH  36  37
ENDBRANCH  29  31
ENDBRANCH  28  29
ENDBRANCH  27  28
ENDBRANCH  26  27
ENDBRANCH  25  26
ENDBRANCH   1  25
TORSDOF 21
ENDMDL
MODEL 3
REMARK VINA RESULT:     -11.1      2.171      8.617
REMARK SMILES O=C(OCCOCCOCCOC(=O)c1ccc(-c2c3nc(c(-c4c(F)cc(S(=O)(=O)[O-])cc4F)c4ccc([nH]4)c(-c4c(F)cc(S(=O)(=O)[O-])cc4F)c4nc(c(-c5c(F)cc(S(=O)(=O)[O-])cc5F)c5ccc2[nH]5)C=C4)C=C3)cc1)C1=Cc2ccc(Cl)c(Cl)c2O[C@@H]1C(F)(F)F
REMARK SMILES IDX 8 1 7 2 6 3 5 4 4 5 3 6 2 7 1 8 81 9 82 10 92 11 83 12 91 13
REMARK SMILES IDX 84 14 90 15 85 16 88 17 86 18 89 19 87 20 93 21 94 22 95 23
REMARK SMILES IDX 96 24 9 25 10 26 11 27 12 28 13 29 14 30 15 31 16 32 80 33
REMARK SMILES IDX 17 34 79 35 18 36 19 37 20 38 73 39 21 40 78 41 72 42 74 43
REMARK SMILES IDX 22 44 77 45 71 46 70 47 23 49 57 50 36 51 56 52 37 53 40 54
REMARK SMILES IDX 55 55 75 56 38 57 39 58 54 60 76 61 41 62 24 63 25 64 34 65
REMARK SMILES IDX 26 66 27 67 33 68 35 69 28 70 29 71 30 72 31 73 32 74 58 75
REMARK SMILES IDX 59 76 68 77 60 78 61 79 67 80 69 81 62 82 63 83 64 84 65 85
REMARK SMILES IDX 66 86 42 87 43 88 52 89 44 90 45 91 51 92 53 93 46 94 47 95
REMARK SMILES IDX 48 96 49 97 50 98
REMARK H PARENT 74 48 40 59
REMARK Flexibility Score: inf
ROOT
ATOM      1  C   UNL A   1      31.778  29.208  26.220  1.00  0.00     0.188 C 
ENDROOT
BRANCH   1   2
ATOM      2  C   UNL A   1      31.942  27.958  25.342  1.00  0.00     0.188 C 
BRANCH   2   3
ATOM      3  O   UNL A   1      31.031  26.780  25.434  1.00  0.00    -0.376 OA
BRANCH   3   4
ATOM      4  C   UNL A   1      30.024  26.105  24.209  1.00  0.00     0.202 C 
BRANCH   4   5
ATOM      5  C   UNL A   1      30.447  24.269  23.126  1.00  0.00     0.261 C 
BRANCH   5   6
ATOM      6  O   UNL A   1      31.146  23.041  23.669  1.00  0.00    -0.460 OA
BRANCH   6   7
ATOM      7  C   UNL A   1      32.478  23.139  23.555  1.00  0.00     0.338 C 
ATOM      8  O   UNL A   1      33.112  23.444  22.576  1.00  0.00    -0.246 OA
BRANCH   7   9
ATOM      9  C   UNL A   1      32.818  22.296  24.695  1.00  0.00     0.087 C 
ATOM     10  C   UNL A   1      33.849  21.286  24.475  1.00  0.00     0.027 C 
ATOM     11  C   UNL A   1      33.001  23.802  25.865  1.00  0.00     0.316 C 
ATOM     12  C   UNL A   1      35.558  21.454  25.004  1.00  0.00     0.019 A 
ATOM     13  O   UNL A   1      34.880  24.113  26.306  1.00  0.00    -0.474 OA
ATOM     14  C   UNL A   1      36.464  20.501  24.629  1.00  0.00     0.013 A 
ATOM     15  C   UNL A   1      36.134  22.857  25.844  1.00  0.00     0.148 A 
ATOM     16  C   UNL A   1      37.793  20.769  25.002  1.00  0.00     0.023 A 
ATOM     17  C   UNL A   1      37.460  23.049  26.145  1.00  0.00     0.102 A 
ATOM     18  C   UNL A   1      38.267  21.960  25.714  1.00  0.00     0.063 A 
ATOM     19  Cl  UNL A   1      38.079  24.464  26.864  1.00  0.00    -0.079 Cl
ATOM     20  Cl  UNL A   1      39.990  21.969  25.996  1.00  0.00    -0.083 Cl
BRANCH  11  21
ATOM     21  C   UNL A   1      31.672  23.319  26.793  1.00  0.00     0.430 C 
ATOM     22  F   UNL A   1      30.803  22.410  26.356  1.00  0.00    -0.167 F 
ATOM     23  F   UNL A   1      32.131  22.865  27.988  1.00  0.00    -0.167 F 
ATOM     24  F   UNL A   1      30.871  24.385  27.112  1.00  0.00    -0.167 F 
ENDBRANCH  11  21
ENDBRANCH   7   9
ENDBRANCH   6   7
ENDBRANCH   5   6
ENDBRANCH   4   5
ENDBRANCH   3   4
ENDBRANCH   2   3
ENDBRANCH   1   2
BRANCH   1  25
ATOM     25  O   UNL A   1      32.838  30.119  26.331  1.00  0.00    -0.376 OA
BRANCH  25  26
ATOM     26  C   UNL A   1      34.029  29.613  26.914  1.00  0.00     0.202 C 
BRANCH  26  27
ATOM     27  C   UNL A   1      34.804  30.526  27.875  1.00  0.00     0.261 C 
BRANCH  27  28
ATOM     28  O   UNL A   1      35.763  29.837  28.707  1.00  0.00    -0.460 OA
BRANCH  28  29
ATOM     29  C   UNL A   1      36.745  30.585  29.270  1.00  0.00     0.338 C 
ATOM     30  O   UNL A   1      36.610  31.536  30.019  1.00  0.00    -0.246 OA
BRANCH  29  31
ATOM     31  C   UNL A   1      38.059  29.991  28.948  1.00  0.00     0.060 A 
ATOM     32  C   UNL A   1      39.006  29.795  29.966  1.00  0.00     0.016 A 
ATOM     33  C   UNL A   1      38.370  29.685  27.625  1.00  0.00     0.016 A 
ATOM     34  C   UNL A   1      40.261  29.259  29.662  1.00  0.00     0.010 A 
ATOM     35  C   UNL A   1      39.642  29.196  27.315  1.00  0.00     0.010 A 
ATOM     36  C   UNL A   1      40.598  28.998  28.328  1.00  0.00    -0.014 A 
BRANCH  36  37
ATOM     37  C   UNL A   1      42.015  28.773  27.952  1.00  0.00     0.031 A 
ATOM     38  C   UNL A   1      42.423  27.367  27.606  1.00  0.00     0.074 A 
ATOM     39  C   UNL A   1      42.918  29.770  27.941  1.00  0.00     0.049 A 
ATOM     40  N   UNL A   1      43.606  26.889  27.324  1.00  0.00    -0.248 NA
ATOM     41  C   UNL A   1      41.346  26.363  27.588  1.00  0.00     0.031 C 
ATOM     42  C   UNL A   1      42.631  31.175  28.225  1.00  0.00     0.029 A 
ATOM     43  N   UNL A   1      44.269  29.745  27.694  1.00  0.00    -0.354 N 
ATOM     44  C   UNL A   1      43.417  25.530  27.104  1.00  0.00     0.074 A 
ATOM     45  C   UNL A   1      42.014  25.254  27.316  1.00  0.00     0.031 C 
ATOM     46  C   UNL A   1      43.777  31.875  28.156  1.00  0.00     0.029 A 
ATOM     47  C   UNL A   1      44.884  30.965  27.857  1.00  0.00     0.049 A 
ATOM     48  H   UNL A   1      44.752  28.931  27.427  1.00  0.00     0.167 HD
ATOM     49  C   UNL A   1      44.332  24.597  26.751  1.00  0.00     0.037 A 
ATOM     50  C   UNL A   1      46.190  31.297  27.797  1.00  0.00     0.037 A 
ATOM     51  C   UNL A   1      45.730  24.882  26.568  1.00  0.00     0.049 A 
ATOM     52  C   UNL A   1      47.205  30.224  27.478  1.00  0.00     0.074 A 
ATOM     53  C   UNL A   1      46.741  24.013  26.198  1.00  0.00     0.029 A 
ATOM     54  N   UNL A   1      46.319  26.124  26.761  1.00  0.00    -0.354 N 
ATOM     55  N   UNL A   1      47.012  28.949  27.233  1.00  0.00    -0.248 NA
ATOM     56  C   UNL A   1      48.616  30.635  27.426  1.00  0.00     0.031 C 
ATOM     57  C   UNL A   1      47.951  24.712  26.243  1.00  0.00     0.029 A 
ATOM     58  C   UNL A   1      47.684  26.037  26.554  1.00  0.00     0.049 A 
ATOM     59  H   UNL A   1      45.835  26.945  27.010  1.00  0.00     0.167 HD
ATOM     60  C   UNL A   1      48.270  28.414  26.962  1.00  0.00     0.074 A 
ATOM     61  C   UNL A   1      49.215  29.507  27.064  1.00  0.00     0.031 C 
ATOM     62  C   UNL A   1      48.612  27.138  26.653  1.00  0.00     0.037 A 
BRANCH  49  63
ATOM     63  C   UNL A   1      43.853  23.180  26.586  1.00  0.00     0.058 A 
ATOM     64  C   UNL A   1      43.799  22.553  25.330  1.00  0.00     0.135 A 
ATOM     65  C   UNL A   1      43.463  22.429  27.707  1.00  0.00     0.135 A 
ATOM     66  F   UNL A   1      44.139  23.229  24.220  1.00  0.00    -0.206 F 
ATOM     67  C   UNL A   1      43.349  21.244  25.188  1.00  0.00     0.059 A 
ATOM     68  C   UNL A   1      43.044  21.107  27.593  1.00  0.00     0.059 A 
ATOM     69  F   UNL A   1      43.485  22.979  28.931  1.00  0.00    -0.206 F 
ATOM     70  C   UNL A   1      42.979  20.528  26.327  1.00  0.00     0.060 A 
BRANCH  70  71
ATOM     71  S   UNL A   1      42.415  18.825  26.126  1.00  0.00     0.124 S 
ATOM     72  O   UNL A   1      43.300  18.347  25.067  1.00  0.00    -0.237 OA
ATOM     73  O   UNL A   1      42.653  18.263  27.452  1.00  0.00    -0.237 OA
ATOM     74  O   UNL A   1      41.013  18.971  25.751  1.00  0.00    -0.744 OA
ENDBRANCH  70  71
ENDBRANCH  49  63
BRANCH  50  75
ATOM     75  C   UNL A   1      46.623  32.700  28.059  1.00  0.00     0.058 A 
ATOM     76  C   UNL A   1      47.036  33.112  29.335  1.00  0.00     0.135 A 
ATOM     77  C   UNL A   1      46.621  33.664  27.037  1.00  0.00     0.135 A 
ATOM     78  F   UNL A   1      47.040  32.239  30.354  1.00  0.00    -0.206 F 
ATOM     79  C   UNL A   1      47.417  34.427  29.594  1.00  0.00     0.059 A 
ATOM     80  C   UNL A   1      47.029  34.976  27.262  1.00  0.00     0.059 A 
ATOM     81  F   UNL A   1      46.237  33.329  25.796  1.00  0.00    -0.206 F 
ATOM     82  C   UNL A   1      47.417  35.351  28.547  1.00  0.00     0.060 A 
BRANCH  82  83
ATOM     83  S   UNL A   1      47.965  37.039  28.881  1.00  0.00     0.124 S 
ATOM     84  O   UNL A   1      49.415  36.903  28.799  1.00  0.00    -0.237 OA
ATOM     85  O   UNL A   1      47.331  37.785  27.798  1.00  0.00    -0.237 OA
ATOM     86  O   UNL A   1      47.432  37.309  30.214  1.00  0.00    -0.744 OA
ENDBRANCH  82  83
ENDBRANCH  50  75
BRANCH  62  87
ATOM     87  C   UNL A   1      50.061  26.851  26.350  1.00  0.00     0.058 A 
ATOM     88  C   UNL A   1      50.944  26.355  27.321  1.00  0.00     0.135 A 
ATOM     89  C   UNL A   1      50.553  27.012  25.043  1.00  0.00     0.135 A 
ATOM     90  F   UNL A   1      50.530  26.183  28.587  1.00  0.00    -0.206 F 
ATOM     91  C   UNL A   1      52.268  26.054  27.015  1.00  0.00     0.059 A 
ATOM     92  C   UNL A   1      51.861  26.681  24.705  1.00  0.00     0.059 A 
ATOM     93  F   UNL A   1      49.751  27.471  24.069  1.00  0.00    -0.206 F 
ATOM     94  C   UNL A   1      52.715  26.213  25.702  1.00  0.00     0.060 A 
BRANCH  94  95
ATOM     95  S   UNL A   1      54.424  25.779  25.312  1.00  0.00     0.124 S 
ATOM     96  O   UNL A   1      55.165  26.712  26.155  1.00  0.00    -0.237 OA
ATOM     97  O   UNL A   1      54.485  24.377  25.713  1.00  0.00    -0.237 OA
ATOM     98  O   UNL A   1      54.518  26.021  23.876  1.00  0.00    -0.744 OA
ENDBRANCH  94  95
ENDBRANCH  62  87
ENDBRANCH  36  37
ENDBRANCH  29  31
ENDBRANCH  28  29
ENDBRANCH  27  28
ENDBRANCH  26  27
ENDBRANCH  25  26
ENDBRANCH   1  25
TORSDOF 21
ENDMDL
