MODEL 1
REMARK VINA RESULT:      -9.8      0.000      0.000
REMARK SMILES C[C@H]1CC[C@@H](C(=O)OCCOCCOCCOC(=O)c2ccc(-c3c4nc(c(-c5c(F)cc(S(=O)(=O)[O-])cc5F)c5ccc([nH]5)c(-c5c(F)cc(S(=O)(=O)[O-])cc5F)c5nc(c(-c6c(F)cc(S(=O)(=O)[O-])cc6F)c6ccc3[nH]6)C=C5)C=C4)cc2)[C@H]([N@@H+](C)CCS(C)(=O)=O)C1
REMARK SMILES IDX 12 1 11 2 10 3 9 4 8 5 6 6 7 7 5 8 1 9 2 10 3 11 95 12 4 13
REMARK SMILES IDX 86 14 87 15 88 16 89 18 90 19 91 20 92 21 93 22 94 23 13 24
REMARK SMILES IDX 14 25 15 26 16 27 17 28 18 29 19 30 20 31 21 32 85 33 22 34
REMARK SMILES IDX 84 35 23 36 24 37 25 38 78 39 26 40 83 41 77 42 79 43 27 44
REMARK SMILES IDX 82 45 76 46 75 47 28 49 62 50 41 51 61 52 42 53 45 54 60 55
REMARK SMILES IDX 80 56 43 57 44 58 59 60 81 61 46 62 29 63 30 64 39 65 31 66
REMARK SMILES IDX 32 67 38 68 40 69 33 70 34 71 35 72 36 73 37 74 63 75 64 76
REMARK SMILES IDX 73 77 65 78 66 79 72 80 74 81 67 82 68 83 69 84 70 85 71 86
REMARK SMILES IDX 47 87 48 88 57 89 49 90 50 91 56 92 58 93 51 94 52 95 53 96
REMARK SMILES IDX 54 97 55 98
REMARK H PARENT 87 17 79 48 45 59
REMARK Flexibility Score: inf
ROOT
ATOM      1  C   UNL A   1      35.206  32.880  29.431  1.00  0.00     0.188 C 
ENDROOT
BRANCH   1   2
ATOM      2  O   UNL A   1      34.858  31.547  29.152  1.00  0.00    -0.376 OA
BRANCH   2   3
ATOM      3  C   UNL A   1      34.641  31.182  27.806  1.00  0.00     0.202 C 
BRANCH   3   4
ATOM      4  C   UNL A   1      34.552  29.734  27.245  1.00  0.00     0.261 C 
BRANCH   4   5
ATOM      5  O   UNL A   1      33.550  29.384  26.263  1.00  0.00    -0.463 OA
BRANCH   5   6
ATOM      6  C   UNL A   1      32.685  28.417  26.673  1.00  0.00     0.315 C 
ATOM      7  O   UNL A   1      32.367  28.293  27.857  1.00  0.00    -0.252 OA
BRANCH   6   8
ATOM      8  C   UNL A   1      32.107  27.416  25.581  1.00  0.00     0.157 C 
ATOM      9  C   UNL A   1      33.213  22.347  24.350  1.00  0.00     0.008 C 
ATOM     10  C   UNL A   1      32.634  23.763  24.148  1.00  0.00    -0.008 C 
ATOM     11  C   UNL A   1      31.039  24.209  25.164  1.00  0.00     0.005 C 
ATOM     12  C   UNL A   1      34.022  25.136  24.006  1.00  0.00     0.069 C 
ATOM     13  C   UNL A   1      30.699  26.086  25.689  1.00  0.00     0.022 C 
ATOM     14  C   UNL A   1      33.610  27.000  24.415  1.00  0.00     0.198 C 
BRANCH  14  15
ATOM     15  N   UNL A   1      33.144  27.721  23.231  1.00  0.00    -0.333 N 
ATOM     16  C   UNL A   1      34.119  28.573  22.574  1.00  0.00     0.333 C 
ATOM     17  H   UNL A   1      32.417  28.411  23.420  1.00  0.00     0.348 HD
BRANCH  15  18
ATOM     18  C   UNL A   1      32.790  26.587  22.452  1.00  0.00     0.278 C 
BRANCH  18  19
ATOM     19  C   UNL A   1      31.258  26.775  22.059  1.00  0.00     0.197 C 
BRANCH  19  20
ATOM     20  S   UNL A   1      29.684  28.553  22.610  1.00  0.00     0.152 S 
ATOM     21  C   UNL A   1      30.118  29.765  23.867  1.00  0.00     0.158 C 
ATOM     22  O   UNL A   1      29.453  29.586  21.603  1.00  0.00    -0.229 OA
ATOM     23  O   UNL A   1      28.384  28.127  23.137  1.00  0.00    -0.229 OA
ENDBRANCH  19  20
ENDBRANCH  18  19
ENDBRANCH  15  18
ENDBRANCH  14  15
ENDBRANCH   6   8
ENDBRANCH   5   6
ENDBRANCH   4   5
ENDBRANCH   3   4
ENDBRANCH   2   3
ENDBRANCH   1   2
BRANCH   1  24
ATOM     24  C   UNL A   1      35.163  33.780  28.174  1.00  0.00     0.188 C 
BRANCH  24  25
ATOM     25  O   UNL A   1      33.969  34.515  27.937  1.00  0.00    -0.376 OA
BRANCH  25  26
ATOM     26  C   UNL A   1      33.985  35.879  28.316  1.00  0.00     0.202 C 
BRANCH  26  27
ATOM     27  C   UNL A   1      32.929  36.316  29.341  1.00  0.00     0.261 C 
BRANCH  27  28
ATOM     28  O   UNL A   1      32.533  35.330  30.326  1.00  0.00    -0.460 OA
BRANCH  28  29
ATOM     29  C   UNL A   1      32.716  35.686  31.627  1.00  0.00     0.338 C 
ATOM     30  O   UNL A   1      31.996  36.438  32.267  1.00  0.00    -0.246 OA
BRANCH  29  31
ATOM     31  C   UNL A   1      33.853  34.961  32.266  1.00  0.00     0.060 A 
ATOM     32  C   UNL A   1      35.132  35.517  32.131  1.00  0.00     0.016 A 
ATOM     33  C   UNL A   1      33.719  33.730  32.916  1.00  0.00     0.016 A 
ATOM     34  C   UNL A   1      36.255  34.877  32.673  1.00  0.00     0.010 A 
ATOM     35  C   UNL A   1      34.859  33.066  33.423  1.00  0.00     0.010 A 
ATOM     36  C   UNL A   1      36.139  33.636  33.312  1.00  0.00    -0.014 A 
BRANCH  36  37
ATOM     37  C   UNL A   1      37.387  32.900  33.686  1.00  0.00     0.031 A 
ATOM     38  C   UNL A   1      38.015  33.189  35.027  1.00  0.00     0.074 A 
ATOM     39  C   UNL A   1      37.922  31.934  32.910  1.00  0.00     0.049 A 
ATOM     40  N   UNL A   1      39.077  32.665  35.583  1.00  0.00    -0.248 NA
ATOM     41  C   UNL A   1      37.345  34.206  35.854  1.00  0.00     0.031 C 
ATOM     42  C   UNL A   1      37.383  31.497  31.628  1.00  0.00     0.029 A 
ATOM     43  N   UNL A   1      39.016  31.117  33.105  1.00  0.00    -0.354 N 
ATOM     44  C   UNL A   1      39.218  33.302  36.810  1.00  0.00     0.074 A 
ATOM     45  C   UNL A   1      38.119  34.236  36.928  1.00  0.00     0.031 C 
ATOM     46  C   UNL A   1      38.121  30.468  31.169  1.00  0.00     0.029 A 
ATOM     47  C   UNL A   1      39.213  30.192  32.100  1.00  0.00     0.049 A 
ATOM     48  H   UNL A   1      39.605  31.188  33.890  1.00  0.00     0.167 HD
ATOM     49  C   UNL A   1      40.189  33.150  37.743  1.00  0.00     0.037 A 
ATOM     50  C   UNL A   1      40.163  29.240  31.944  1.00  0.00     0.037 A 
ATOM     51  C   UNL A   1      41.309  32.255  37.609  1.00  0.00     0.049 A 
ATOM     52  C   UNL A   1      41.269  29.130  32.973  1.00  0.00     0.074 A 
ATOM     53  C   UNL A   1      42.380  32.085  38.469  1.00  0.00     0.029 A 
ATOM     54  N   UNL A   1      41.514  31.390  36.544  1.00  0.00    -0.354 N 
ATOM     55  N   UNL A   1      41.411  29.774  34.109  1.00  0.00    -0.248 NA
ATOM     56  C   UNL A   1      42.365  28.192  32.682  1.00  0.00     0.031 C 
ATOM     57  C   UNL A   1      43.262  31.163  37.897  1.00  0.00     0.029 A 
ATOM     58  C   UNL A   1      42.703  30.700  36.716  1.00  0.00     0.049 A 
ATOM     59  H   UNL A   1      40.903  31.282  35.779  1.00  0.00     0.167 HD
ATOM     60  C   UNL A   1      42.604  29.314  34.664  1.00  0.00     0.074 A 
ATOM     61  C   UNL A   1      43.128  28.314  33.760  1.00  0.00     0.031 C 
ATOM     62  C   UNL A   1      43.218  29.699  35.812  1.00  0.00     0.037 A 
BRANCH  49  63
ATOM     63  C   UNL A   1      40.126  34.044  38.951  1.00  0.00     0.058 A 
ATOM     64  C   UNL A   1      40.763  35.295  38.988  1.00  0.00     0.135 A 
ATOM     65  C   UNL A   1      39.416  33.637  40.093  1.00  0.00     0.135 A 
ATOM     66  F   UNL A   1      41.479  35.722  37.937  1.00  0.00    -0.206 F 
ATOM     67  C   UNL A   1      40.723  36.095  40.127  1.00  0.00     0.059 A 
ATOM     68  C   UNL A   1      39.334  34.434  41.229  1.00  0.00     0.059 A 
ATOM     69  F   UNL A   1      38.795  32.447  40.114  1.00  0.00    -0.206 F 
ATOM     70  C   UNL A   1      40.005  35.655  41.242  1.00  0.00     0.060 A 
BRANCH  70  71
ATOM     71  S   UNL A   1      39.970  36.703  42.710  1.00  0.00     0.124 S 
ATOM     72  O   UNL A   1      38.905  36.078  43.489  1.00  0.00    -0.237 OA
ATOM     73  O   UNL A   1      41.320  36.543  43.239  1.00  0.00    -0.237 OA
ATOM     74  O   UNL A   1      39.660  38.027  42.177  1.00  0.00    -0.744 OA
ENDBRANCH  70  71
ENDBRANCH  49  63
BRANCH  50  75
ATOM     75  C   UNL A   1      40.158  28.326  30.757  1.00  0.00     0.058 A 
ATOM     76  C   UNL A   1      40.969  28.574  29.635  1.00  0.00     0.135 A 
ATOM     77  C   UNL A   1      39.308  27.209  30.694  1.00  0.00     0.135 A 
ATOM     78  F   UNL A   1      41.781  29.643  29.617  1.00  0.00    -0.206 F 
ATOM     79  C   UNL A   1      40.929  27.765  28.499  1.00  0.00     0.059 A 
ATOM     80  C   UNL A   1      39.279  26.362  29.588  1.00  0.00     0.059 A 
ATOM     81  F   UNL A   1      38.494  26.925  31.721  1.00  0.00    -0.206 F 
ATOM     82  C   UNL A   1      40.084  26.654  28.489  1.00  0.00     0.060 A 
BRANCH  82  83
ATOM     83  S   UNL A   1      40.070  25.581  27.034  1.00  0.00     0.124 S 
ATOM     84  O   UNL A   1      40.616  26.464  26.010  1.00  0.00    -0.237 OA
ATOM     85  O   UNL A   1      40.932  24.481  27.454  1.00  0.00    -0.237 OA
ATOM     86  O   UNL A   1      38.658  25.240  26.882  1.00  0.00    -0.744 OA
ENDBRANCH  82  83
ENDBRANCH  50  75
BRANCH  62  87
ATOM     87  C   UNL A   1      44.514  29.026  36.183  1.00  0.00     0.058 A 
ATOM     88  C   UNL A   1      45.763  29.572  35.841  1.00  0.00     0.135 A 
ATOM     89  C   UNL A   1      44.509  27.852  36.956  1.00  0.00     0.135 A 
ATOM     90  F   UNL A   1      45.831  30.691  35.104  1.00  0.00    -0.206 F 
ATOM     91  C   UNL A   1      46.955  28.968  36.232  1.00  0.00     0.059 A 
ATOM     92  C   UNL A   1      45.687  27.249  37.385  1.00  0.00     0.059 A 
ATOM     93  F   UNL A   1      43.346  27.291  37.324  1.00  0.00    -0.206 F 
ATOM     94  C   UNL A   1      46.907  27.809  37.009  1.00  0.00     0.060 A 
BRANCH  94  95
ATOM     95  S   UNL A   1      48.461  27.058  37.542  1.00  0.00     0.124 S 
ATOM     96  O   UNL A   1      48.836  27.918  38.661  1.00  0.00    -0.237 OA
ATOM     97  O   UNL A   1      48.048  25.704  37.895  1.00  0.00    -0.237 OA
ATOM     98  O   UNL A   1      49.312  27.160  36.361  1.00  0.00    -0.744 OA
ENDBRANCH  94  95
ENDBRANCH  62  87
ENDBRANCH  36  37
ENDBRANCH  29  31
ENDBRANCH  28  29
ENDBRANCH  27  28
ENDBRANCH  26  27
ENDBRANCH  25  26
ENDBRANCH  24  25
ENDBRANCH   1  24
TORSDOF 24
ENDMDL
MODEL 2
REMARK VINA RESULT:      -9.5      1.052      2.030
REMARK SMILES C[C@H]1CC[C@@H](C(=O)OCCOCCOCCOC(=O)c2ccc(-c3c4nc(c(-c5c(F)cc(S(=O)(=O)[O-])cc5F)c5ccc([nH]5)c(-c5c(F)cc(S(=O)(=O)[O-])cc5F)c5nc(c(-c6c(F)cc(S(=O)(=O)[O-])cc6F)c6ccc3[nH]6)C=C5)C=C4)cc2)[C@H]([N@@H+](C)CCS(C)(=O)=O)C1
REMARK SMILES IDX 12 1 11 2 10 3 9 4 8 5 6 6 7 7 5 8 1 9 2 10 3 11 95 12 4 13
REMARK SMILES IDX 86 14 87 15 88 16 89 18 90 19 91 20 92 21 93 22 94 23 13 24
REMARK SMILES IDX 14 25 15 26 16 27 17 28 18 29 19 30 20 31 21 32 85 33 22 34
REMARK SMILES IDX 84 35 23 36 24 37 25 38 78 39 26 40 83 41 77 42 79 43 27 44
REMARK SMILES IDX 82 45 76 46 75 47 28 49 62 50 41 51 61 52 42 53 45 54 60 55
REMARK SMILES IDX 80 56 43 57 44 58 59 60 81 61 46 62 29 63 30 64 39 65 31 66
REMARK SMILES IDX 32 67 38 68 40 69 33 70 34 71 35 72 36 73 37 74 63 75 64 76
REMARK SMILES IDX 73 77 65 78 66 79 72 80 74 81 67 82 68 83 69 84 70 85 71 86
REMARK SMILES IDX 47 87 48 88 57 89 49 90 50 91 56 92 58 93 51 94 52 95 53 96
REMARK SMILES IDX 54 97 55 98
REMARK H PARENT 87 17 79 48 45 59
REMARK Flexibility Score: inf
ROOT
ATOM      1  C   UNL A   1      35.174  32.787  29.318  1.00  0.00     0.188 C 
ENDROOT
BRANCH   1   2
ATOM      2  O   UNL A   1      35.071  31.397  29.140  1.00  0.00    -0.376 OA
BRANCH   2   3
ATOM      3  C   UNL A   1      34.956  30.898  27.825  1.00  0.00     0.202 C 
BRANCH   3   4
ATOM      4  C   UNL A   1      34.907  29.401  27.406  1.00  0.00     0.261 C 
BRANCH   4   5
ATOM      5  O   UNL A   1      34.053  28.967  26.322  1.00  0.00    -0.463 OA
BRANCH   5   6
ATOM      6  C   UNL A   1      32.987  28.220  26.722  1.00  0.00     0.315 C 
ATOM      7  O   UNL A   1      32.617  28.197  27.897  1.00  0.00    -0.252 OA
BRANCH   6   8
ATOM      8  C   UNL A   1      32.235  27.343  25.629  1.00  0.00     0.157 C 
ATOM      9  C   UNL A   1      32.824  22.307  23.979  1.00  0.00     0.008 C 
ATOM     10  C   UNL A   1      32.341  23.772  23.924  1.00  0.00    -0.008 C 
ATOM     11  C   UNL A   1      30.886  24.258  25.115  1.00  0.00     0.005 C 
ATOM     12  C   UNL A   1      33.813  25.048  23.736  1.00  0.00     0.069 C 
ATOM     13  C   UNL A   1      30.743  26.114  25.788  1.00  0.00     0.022 C 
ATOM     14  C   UNL A   1      33.588  26.903  24.300  1.00  0.00     0.198 C 
BRANCH  14  15
ATOM     15  N   UNL A   1      33.073  27.737  23.215  1.00  0.00    -0.333 N 
ATOM     16  C   UNL A   1      34.045  28.577  22.536  1.00  0.00     0.333 C 
ATOM     17  H   UNL A   1      32.411  28.452  23.514  1.00  0.00     0.348 HD
BRANCH  15  18
ATOM     18  C   UNL A   1      32.583  26.688  22.392  1.00  0.00     0.278 C 
BRANCH  18  19
ATOM     19  C   UNL A   1      31.036  26.987  22.161  1.00  0.00     0.197 C 
BRANCH  19  20
ATOM     20  S   UNL A   1      29.747  29.029  22.490  1.00  0.00     0.152 S 
ATOM     21  C   UNL A   1      27.986  28.920  22.842  1.00  0.00     0.158 C 
ATOM     22  O   UNL A   1      30.006  29.803  23.703  1.00  0.00    -0.229 OA
ATOM     23  O   UNL A   1      29.701  29.957  21.357  1.00  0.00    -0.229 OA
ENDBRANCH  19  20
ENDBRANCH  18  19
ENDBRANCH  15  18
ENDBRANCH  14  15
ENDBRANCH   6   8
ENDBRANCH   5   6
ENDBRANCH   4   5
ENDBRANCH   3   4
ENDBRANCH   2   3
ENDBRANCH   1   2
BRANCH   1  24
ATOM     24  C   UNL A   1      34.928  33.572  28.007  1.00  0.00     0.188 C 
BRANCH  24  25
ATOM     25  O   UNL A   1      33.764  34.386  27.942  1.00  0.00    -0.376 OA
BRANCH  25  26
ATOM     26  C   UNL A   1      33.900  35.715  28.414  1.00  0.00     0.202 C 
BRANCH  26  27
ATOM     27  C   UNL A   1      32.942  36.143  29.534  1.00  0.00     0.261 C 
BRANCH  27  28
ATOM     28  O   UNL A   1      32.528  35.113  30.465  1.00  0.00    -0.460 OA
BRANCH  28  29
ATOM     29  C   UNL A   1      32.684  35.409  31.784  1.00  0.00     0.338 C 
ATOM     30  O   UNL A   1      31.905  36.059  32.464  1.00  0.00    -0.246 OA
BRANCH  29  31
ATOM     31  C   UNL A   1      33.882  34.749  32.383  1.00  0.00     0.060 A 
ATOM     32  C   UNL A   1      35.052  35.511  32.494  1.00  0.00     0.016 A 
ATOM     33  C   UNL A   1      33.916  33.403  32.760  1.00  0.00     0.016 A 
ATOM     34  C   UNL A   1      36.228  34.952  33.013  1.00  0.00     0.010 A 
ATOM     35  C   UNL A   1      35.116  32.830  33.244  1.00  0.00     0.010 A 
ATOM     36  C   UNL A   1      36.283  33.601  33.380  1.00  0.00    -0.014 A 
BRANCH  36  37
ATOM     37  C   UNL A   1      37.609  33.005  33.731  1.00  0.00     0.031 A 
ATOM     38  C   UNL A   1      38.097  33.126  35.152  1.00  0.00     0.074 A 
ATOM     39  C   UNL A   1      38.342  32.293  32.848  1.00  0.00     0.049 A 
ATOM     40  N   UNL A   1      39.195  32.672  35.701  1.00  0.00    -0.248 NA
ATOM     41  C   UNL A   1      37.220  33.856  36.082  1.00  0.00     0.031 C 
ATOM     42  C   UNL A   1      37.962  32.030  31.465  1.00  0.00     0.029 A 
ATOM     43  N   UNL A   1      39.542  31.628  32.994  1.00  0.00    -0.354 N 
ATOM     44  C   UNL A   1      39.153  33.081  37.029  1.00  0.00     0.074 A 
ATOM     45  C   UNL A   1      37.911  33.800  37.209  1.00  0.00     0.031 C 
ATOM     46  C   UNL A   1      38.886  31.229  30.901  1.00  0.00     0.029 A 
ATOM     47  C   UNL A   1      39.950  30.949  31.864  1.00  0.00     0.049 A 
ATOM     48  H   UNL A   1      40.061  31.638  33.830  1.00  0.00     0.167 HD
ATOM     49  C   UNL A   1      40.077  32.903  38.005  1.00  0.00     0.037 A 
ATOM     50  C   UNL A   1      41.050  30.197  31.630  1.00  0.00     0.037 A 
ATOM     51  C   UNL A   1      41.335  32.228  37.818  1.00  0.00     0.049 A 
ATOM     52  C   UNL A   1      42.094  30.063  32.719  1.00  0.00     0.074 A 
ATOM     53  C   UNL A   1      42.364  32.062  38.728  1.00  0.00     0.029 A 
ATOM     54  N   UNL A   1      41.744  31.620  36.639  1.00  0.00    -0.354 N 
ATOM     55  N   UNL A   1      42.058  30.495  33.958  1.00  0.00    -0.248 NA
ATOM     56  C   UNL A   1      43.346  29.372  32.367  1.00  0.00     0.031 C 
ATOM     57  C   UNL A   1      43.419  31.408  38.084  1.00  0.00     0.029 A 
ATOM     58  C   UNL A   1      43.018  31.097  36.794  1.00  0.00     0.049 A 
ATOM     59  H   UNL A   1      41.208  31.568  35.816  1.00  0.00     0.167 HD
ATOM     60  C   UNL A   1      43.275  30.124  34.530  1.00  0.00     0.074 A 
ATOM     61  C   UNL A   1      44.010  29.403  33.515  1.00  0.00     0.031 C 
ATOM     62  C   UNL A   1      43.745  30.374  35.779  1.00  0.00     0.037 A 
BRANCH  49  63
ATOM     63  C   UNL A   1      39.794  33.534  39.341  1.00  0.00     0.058 A 
ATOM     64  C   UNL A   1      39.062  32.873  40.339  1.00  0.00     0.135 A 
ATOM     65  C   UNL A   1      40.265  34.828  39.623  1.00  0.00     0.135 A 
ATOM     66  F   UNL A   1      38.563  31.647  40.114  1.00  0.00    -0.206 F 
ATOM     67  C   UNL A   1      38.780  33.484  41.558  1.00  0.00     0.059 A 
ATOM     68  C   UNL A   1      40.024  35.445  40.845  1.00  0.00     0.059 A 
ATOM     69  F   UNL A   1      40.963  35.508  38.700  1.00  0.00    -0.206 F 
ATOM     70  C   UNL A   1      39.267  34.771  41.801  1.00  0.00     0.060 A 
BRANCH  70  71
ATOM     71  S   UNL A   1      38.887  35.550  43.383  1.00  0.00     0.124 S 
ATOM     72  O   UNL A   1      39.712  34.767  44.299  1.00  0.00    -0.237 OA
ATOM     73  O   UNL A   1      39.316  36.927  43.163  1.00  0.00    -0.237 OA
ATOM     74  O   UNL A   1      37.446  35.358  43.521  1.00  0.00    -0.744 OA
ENDBRANCH  70  71
ENDBRANCH  49  63
BRANCH  50  75
ATOM     75  C   UNL A   1      41.269  29.534  30.304  1.00  0.00     0.058 A 
ATOM     76  C   UNL A   1      40.819  28.225  30.053  1.00  0.00     0.135 A 
ATOM     77  C   UNL A   1      41.975  30.174  29.271  1.00  0.00     0.135 A 
ATOM     78  F   UNL A   1      40.166  27.546  31.009  1.00  0.00    -0.206 F 
ATOM     79  C   UNL A   1      41.070  27.576  28.844  1.00  0.00     0.059 A 
ATOM     80  C   UNL A   1      42.202  29.562  28.040  1.00  0.00     0.059 A 
ATOM     81  F   UNL A   1      42.449  31.416  29.450  1.00  0.00    -0.206 F 
ATOM     82  C   UNL A   1      41.756  28.257  27.839  1.00  0.00     0.060 A 
BRANCH  82  83
ATOM     83  S   UNL A   1      42.038  27.429  26.257  1.00  0.00     0.124 S 
ATOM     84  O   UNL A   1      40.779  26.719  26.066  1.00  0.00    -0.237 OA
ATOM     85  O   UNL A   1      42.278  28.553  25.359  1.00  0.00    -0.237 OA
ATOM     86  O   UNL A   1      43.201  26.586  26.521  1.00  0.00    -0.744 OA
ENDBRANCH  82  83
ENDBRANCH  50  75
BRANCH  62  87
ATOM     87  C   UNL A   1      45.109  29.845  36.140  1.00  0.00     0.058 A 
ATOM     88  C   UNL A   1      45.289  28.577  36.717  1.00  0.00     0.135 A 
ATOM     89  C   UNL A   1      46.263  30.590  35.838  1.00  0.00     0.135 A 
ATOM     90  F   UNL A   1      44.225  27.820  37.028  1.00  0.00    -0.206 F 
ATOM     91  C   UNL A   1      46.557  28.077  37.000  1.00  0.00     0.059 A 
ATOM     92  C   UNL A   1      47.541  30.097  36.082  1.00  0.00     0.059 A 
ATOM     93  F   UNL A   1      46.154  31.803  35.274  1.00  0.00    -0.206 F 
ATOM     94  C   UNL A   1      47.678  28.842  36.674  1.00  0.00     0.060 A 
BRANCH  94  95
ATOM     95  S   UNL A   1      49.318  28.165  37.011  1.00  0.00     0.124 S 
ATOM     96  O   UNL A   1      50.128  28.833  35.997  1.00  0.00    -0.237 OA
ATOM     97  O   UNL A   1      49.552  28.588  38.388  1.00  0.00    -0.237 OA
ATOM     98  O   UNL A   1      49.139  26.729  36.824  1.00  0.00    -0.744 OA
ENDBRANCH  94  95
ENDBRANCH  62  87
ENDBRANCH  36  37
ENDBRANCH  29  31
ENDBRANCH  28  29
ENDBRANCH  27  28
ENDBRANCH  26  27
ENDBRANCH  25  26
ENDBRANCH  24  25
ENDBRANCH   1  24
TORSDOF 24
ENDMDL
MODEL 3
REMARK VINA RESULT:      -9.3      6.922      9.422
REMARK SMILES C[C@H]1CC[C@@H](C(=O)OCCOCCOCCOC(=O)c2ccc(-c3c4nc(c(-c5c(F)cc(S(=O)(=O)[O-])cc5F)c5ccc([nH]5)c(-c5c(F)cc(S(=O)(=O)[O-])cc5F)c5nc(c(-c6c(F)cc(S(=O)(=O)[O-])cc6F)c6ccc3[nH]6)C=C5)C=C4)cc2)[C@H]([N@@H+](C)CCS(C)(=O)=O)C1
REMARK SMILES IDX 12 1 11 2 10 3 9 4 8 5 6 6 7 7 5 8 1 9 2 10 3 11 95 12 4 13
REMARK SMILES IDX 86 14 87 15 88 16 89 18 90 19 91 20 92 21 93 22 94 23 13 24
REMARK SMILES IDX 14 25 15 26 16 27 17 28 18 29 19 30 20 31 21 32 85 33 22 34
REMARK SMILES IDX 84 35 23 36 24 37 25 38 78 39 26 40 83 41 77 42 79 43 27 44
REMARK SMILES IDX 82 45 76 46 75 47 28 49 62 50 41 51 61 52 42 53 45 54 60 55
REMARK SMILES IDX 80 56 43 57 44 58 59 60 81 61 46 62 29 63 30 64 39 65 31 66
REMARK SMILES IDX 32 67 38 68 40 69 33 70 34 71 35 72 36 73 37 74 63 75 64 76
REMARK SMILES IDX 73 77 65 78 66 79 72 80 74 81 67 82 68 83 69 84 70 85 71 86
REMARK SMILES IDX 47 87 48 88 57 89 49 90 50 91 56 92 58 93 51 94 52 95 53 96
REMARK SMILES IDX 54 97 55 98
REMARK H PARENT 87 17 79 48 45 59
REMARK Flexibility Score: inf
ROOT
ATOM      1  C   UNL A   1      31.440  29.197  25.381  1.00  0.00     0.188 C 
ENDROOT
BRANCH   1   2
ATOM      2  O   UNL A   1      31.056  29.466  24.056  1.00  0.00    -0.376 OA
BRANCH   2   3
ATOM      3  C   UNL A   1      30.386  28.454  23.336  1.00  0.00     0.202 C 
BRANCH   3   4
ATOM      4  C   UNL A   1      31.026  27.463  22.323  1.00  0.00     0.261 C 
BRANCH   4   5
ATOM      5  O   UNL A   1      32.401  27.041  22.474  1.00  0.00    -0.463 OA
BRANCH   5   6
ATOM      6  C   UNL A   1      32.629  25.752  22.101  1.00  0.00     0.315 C 
ATOM      7  O   UNL A   1      32.671  25.418  20.915  1.00  0.00    -0.252 OA
BRANCH   6   8
ATOM      8  C   UNL A   1      32.814  24.662  23.244  1.00  0.00     0.157 C 
ATOM      9  C   UNL A   1      29.490  22.594  26.865  1.00  0.00     0.008 C 
ATOM     10  C   UNL A   1      30.848  22.931  26.213  1.00  0.00    -0.008 C 
ATOM     11  C   UNL A   1      31.328  21.925  24.623  1.00  0.00     0.005 C 
ATOM     12  C   UNL A   1      31.231  24.851  26.211  1.00  0.00     0.069 C 
ATOM     13  C   UNL A   1      32.488  22.750  23.249  1.00  0.00     0.022 C 
ATOM     14  C   UNL A   1      32.479  25.606  24.915  1.00  0.00     0.198 C 
BRANCH  14  15
ATOM     15  N   UNL A   1      33.851  25.598  25.421  1.00  0.00    -0.333 N 
ATOM     16  C   UNL A   1      34.394  26.885  25.820  1.00  0.00     0.333 C 
ATOM     17  H   UNL A   1      34.551  25.326  24.731  1.00  0.00     0.348 HD
BRANCH  15  18
ATOM     18  C   UNL A   1      33.638  24.726  26.521  1.00  0.00     0.278 C 
BRANCH  18  19
ATOM     19  C   UNL A   1      34.536  23.438  26.252  1.00  0.00     0.197 C 
BRANCH  19  20
ATOM     20  S   UNL A   1      36.580  23.172  24.951  1.00  0.00     0.152 S 
ATOM     21  C   UNL A   1      37.349  21.550  24.829  1.00  0.00     0.158 C 
ATOM     22  O   UNL A   1      36.478  23.303  23.499  1.00  0.00    -0.229 OA
ATOM     23  O   UNL A   1      37.740  23.946  25.401  1.00  0.00    -0.229 OA
ENDBRANCH  19  20
ENDBRANCH  18  19
ENDBRANCH  15  18
ENDBRANCH  14  15
ENDBRANCH   6   8
ENDBRANCH   5   6
ENDBRANCH   4   5
ENDBRANCH   3   4
ENDBRANCH   2   3
ENDBRANCH   1   2
BRANCH   1  24
ATOM     24  C   UNL A   1      32.616  30.086  25.850  1.00  0.00     0.188 C 
BRANCH  24  25
ATOM     25  O   UNL A   1      32.688  30.396  27.237  1.00  0.00    -0.376 OA
BRANCH  25  26
ATOM     26  C   UNL A   1      33.491  31.507  27.591  1.00  0.00     0.202 C 
BRANCH  26  27
ATOM     27  C   UNL A   1      35.005  31.261  27.658  1.00  0.00     0.261 C 
BRANCH  27  28
ATOM     28  O   UNL A   1      35.437  30.039  28.305  1.00  0.00    -0.460 OA
BRANCH  28  29
ATOM     29  C   UNL A   1      36.165  30.198  29.444  1.00  0.00     0.338 C 
ATOM     30  O   UNL A   1      35.709  30.412  30.556  1.00  0.00    -0.246 OA
BRANCH  29  31
ATOM     31  C   UNL A   1      37.624  29.963  29.229  1.00  0.00     0.060 A 
ATOM     32  C   UNL A   1      38.049  29.694  27.922  1.00  0.00     0.016 A 
ATOM     33  C   UNL A   1      38.562  29.920  30.265  1.00  0.00     0.016 A 
ATOM     34  C   UNL A   1      39.398  29.428  27.645  1.00  0.00     0.010 A 
ATOM     35  C   UNL A   1      39.913  29.609  29.989  1.00  0.00     0.010 A 
ATOM     36  C   UNL A   1      40.346  29.366  28.674  1.00  0.00    -0.014 A 
BRANCH  36  37
ATOM     37  C   UNL A   1      41.723  28.876  28.354  1.00  0.00     0.031 A 
ATOM     38  C   UNL A   1      42.883  29.821  28.546  1.00  0.00     0.074 A 
ATOM     39  C   UNL A   1      41.974  27.603  27.983  1.00  0.00     0.049 A 
ATOM     40  N   UNL A   1      44.163  29.622  28.361  1.00  0.00    -0.248 NA
ATOM     41  C   UNL A   1      42.549  31.175  29.016  1.00  0.00     0.031 C 
ATOM     42  C   UNL A   1      40.965  26.562  27.829  1.00  0.00     0.029 A 
ATOM     43  N   UNL A   1      43.160  26.957  27.704  1.00  0.00    -0.354 N 
ATOM     44  C   UNL A   1      44.783  30.828  28.668  1.00  0.00     0.074 A 
ATOM     45  C   UNL A   1      43.741  31.746  29.073  1.00  0.00     0.031 C 
ATOM     46  C   UNL A   1      41.574  25.400  27.525  1.00  0.00     0.029 A 
ATOM     47  C   UNL A   1      43.017  25.614  27.419  1.00  0.00     0.049 A 
ATOM     48  H   UNL A   1      44.033  27.413  27.708  1.00  0.00     0.167 HD
ATOM     49  C   UNL A   1      46.096  31.154  28.591  1.00  0.00     0.037 A 
ATOM     50  C   UNL A   1      43.935  24.671  27.104  1.00  0.00     0.037 A 
ATOM     51  C   UNL A   1      47.131  30.257  28.144  1.00  0.00     0.049 A 
ATOM     52  C   UNL A   1      45.387  25.076  26.969  1.00  0.00     0.074 A 
ATOM     53  C   UNL A   1      48.478  30.519  27.966  1.00  0.00     0.029 A 
ATOM     54  N   UNL A   1      46.935  28.929  27.793  1.00  0.00    -0.354 N 
ATOM     55  N   UNL A   1      45.952  26.235  27.220  1.00  0.00    -0.248 NA
ATOM     56  C   UNL A   1      46.325  24.056  26.469  1.00  0.00     0.031 C 
ATOM     57  C   UNL A   1      49.085  29.371  27.449  1.00  0.00     0.029 A 
ATOM     58  C   UNL A   1      48.132  28.367  27.378  1.00  0.00     0.049 A 
ATOM     59  H   UNL A   1      46.072  28.456  27.833  1.00  0.00     0.167 HD
ATOM     60  C   UNL A   1      47.303  26.078  26.915  1.00  0.00     0.074 A 
ATOM     61  C   UNL A   1      47.481  24.706  26.494  1.00  0.00     0.031 C 
ATOM     62  C   UNL A   1      48.303  26.995  26.964  1.00  0.00     0.037 A 
BRANCH  49  63
ATOM     63  C   UNL A   1      46.470  32.575  28.912  1.00  0.00     0.058 A 
ATOM     64  C   UNL A   1      46.863  32.972  30.200  1.00  0.00     0.135 A 
ATOM     65  C   UNL A   1      46.431  33.558  27.908  1.00  0.00     0.135 A 
ATOM     66  F   UNL A   1      46.891  32.081  31.204  1.00  0.00    -0.206 F 
ATOM     67  C   UNL A   1      47.173  34.298  30.487  1.00  0.00     0.059 A 
ATOM     68  C   UNL A   1      46.769  34.881  28.164  1.00  0.00     0.059 A 
ATOM     69  F   UNL A   1      46.055  33.234  26.661  1.00  0.00    -0.206 F 
ATOM     70  C   UNL A   1      47.124  35.245  29.461  1.00  0.00     0.060 A 
BRANCH  70  71
ATOM     71  S   UNL A   1      47.523  36.961  29.854  1.00  0.00     0.124 S 
ATOM     72  O   UNL A   1      48.171  37.399  28.621  1.00  0.00    -0.237 OA
ATOM     73  O   UNL A   1      46.208  37.534  30.117  1.00  0.00    -0.237 OA
ATOM     74  O   UNL A   1      48.401  36.849  31.016  1.00  0.00    -0.744 OA
ENDBRANCH  70  71
ENDBRANCH  49  63
BRANCH  50  75
ATOM     75  C   UNL A   1      43.531  23.251  26.850  1.00  0.00     0.058 A 
ATOM     76  C   UNL A   1      43.234  22.370  27.906  1.00  0.00     0.135 A 
ATOM     77  C   UNL A   1      43.478  22.725  25.548  1.00  0.00     0.135 A 
ATOM     78  F   UNL A   1      43.297  22.800  29.175  1.00  0.00    -0.206 F 
ATOM     79  C   UNL A   1      42.917  21.029  27.684  1.00  0.00     0.059 A 
ATOM     80  C   UNL A   1      43.123  21.401  25.298  1.00  0.00     0.059 A 
ATOM     81  F   UNL A   1      43.768  23.504  24.495  1.00  0.00    -0.206 F 
ATOM     82  C   UNL A   1      42.856  20.556  26.373  1.00  0.00     0.060 A 
BRANCH  82  83
ATOM     83  S   UNL A   1      42.398  18.831  26.088  1.00  0.00     0.124 S 
ATOM     84  O   UNL A   1      40.990  18.953  25.731  1.00  0.00    -0.237 OA
ATOM     85  O   UNL A   1      43.299  18.448  25.005  1.00  0.00    -0.237 OA
ATOM     86  O   UNL A   1      42.668  18.194  27.374  1.00  0.00    -0.744 OA
ENDBRANCH  82  83
ENDBRANCH  50  75
BRANCH  62  87
ATOM     87  C   UNL A   1      49.691  26.551  26.580  1.00  0.00     0.058 A 
ATOM     88  C   UNL A   1      50.576  25.981  27.511  1.00  0.00     0.135 A 
ATOM     89  C   UNL A   1      50.117  26.628  25.243  1.00  0.00     0.135 A 
ATOM     90  F   UNL A   1      50.225  25.881  28.802  1.00  0.00    -0.206 F 
ATOM     91  C   UNL A   1      51.837  25.528  27.135  1.00  0.00     0.059 A 
ATOM     92  C   UNL A   1      51.360  26.151  24.838  1.00  0.00     0.059 A 
ATOM     93  F   UNL A   1      49.309  27.150  24.306  1.00  0.00    -0.206 F 
ATOM     94  C   UNL A   1      52.219  25.611  25.794  1.00  0.00     0.060 A 
BRANCH  94  95
ATOM     95  S   UNL A   1      53.843  24.982  25.314  1.00  0.00     0.124 S 
ATOM     96  O   UNL A   1      53.629  23.539  25.370  1.00  0.00    -0.237 OA
ATOM     97  O   UNL A   1      54.012  25.546  23.980  1.00  0.00    -0.237 OA
ATOM     98  O   UNL A   1      54.734  25.524  26.335  1.00  0.00    -0.744 OA
ENDBRANCH  94  95
ENDBRANCH  62  87
ENDBRANCH  36  37
ENDBRANCH  29  31
ENDBRANCH  28  29
ENDBRANCH  27  28
ENDBRANCH  26  27
ENDBRANCH  25  26
ENDBRANCH  24  25
ENDBRANCH   1  24
TORSDOF 24
ENDMDL
