MODEL 1
REMARK VINA RESULT:      -9.7      0.000      0.000
REMARK SMILES C[C@H](C(=O)OCCOCCOCCOC(=O)c1ccc(-c2c3nc(c(-c4c(F)cc(S(=O)(=O)[O-])cc4F)c4ccc([nH]4)c(-c4c(F)cc(S(=O)(=O)[O-])cc4F)c4nc(c(-c5c(F)cc(S(=O)(=O)[O-])cc5F)c5ccc2[nH]5)C=C4)C=C3)cc1)c1ccc2c(c1)OCCO2
REMARK SMILES IDX 10 1 9 2 8 3 7 4 6 5 5 6 3 7 4 8 2 9 1 10 83 11 84 12 88 13
REMARK SMILES IDX 85 14 87 15 86 16 89 17 92 18 90 19 91 20 11 21 12 22 13 23
REMARK SMILES IDX 14 24 15 25 16 26 17 27 18 28 82 29 19 30 81 31 20 32 21 33
REMARK SMILES IDX 22 34 75 35 23 36 80 37 74 38 76 39 24 40 79 41 73 42 72 43
REMARK SMILES IDX 25 45 59 46 38 47 58 48 39 49 42 50 57 51 77 52 40 53 41 54
REMARK SMILES IDX 56 56 78 57 43 58 26 59 27 60 36 61 28 62 29 63 35 64 37 65
REMARK SMILES IDX 30 66 31 67 32 68 33 69 34 70 60 71 61 72 70 73 62 74 63 75
REMARK SMILES IDX 69 76 71 77 64 78 65 79 66 80 67 81 68 82 44 83 45 84 54 85
REMARK SMILES IDX 46 86 47 87 53 88 55 89 48 90 49 91 50 92 51 93 52 94
REMARK H PARENT 76 44 42 55
REMARK Flexibility Score: inf
ROOT
ATOM      1  C   UNL A   1      36.085  33.853  29.158  1.00  0.00     0.188 C 
ENDROOT
BRANCH   1   2
ATOM      2  C   UNL A   1      36.197  32.834  28.016  1.00  0.00     0.188 C 
BRANCH   2   3
ATOM      3  O   UNL A   1      34.994  32.231  27.538  1.00  0.00    -0.376 OA
BRANCH   3   4
ATOM      4  C   UNL A   1      34.835  30.834  27.749  1.00  0.00     0.202 C 
BRANCH   4   5
ATOM      5  C   UNL A   1      33.519  30.258  27.228  1.00  0.00     0.261 C 
BRANCH   5   6
ATOM      6  O   UNL A   1      33.164  29.017  27.876  1.00  0.00    -0.463 OA
BRANCH   6   7
ATOM      7  C   UNL A   1      32.332  28.230  27.151  1.00  0.00     0.313 C 
ATOM      8  O   UNL A   1      31.327  27.697  27.619  1.00  0.00    -0.252 OA
BRANCH   7   9
ATOM      9  C   UNL A   1      32.686  28.076  25.684  1.00  0.00     0.126 C 
ATOM     10  C   UNL A   1      33.526  26.799  25.523  1.00  0.00     0.025 C 
BRANCH   9  11
ATOM     11  C   UNL A   1      31.609  28.165  24.603  1.00  0.00    -0.030 A 
ATOM     12  C   UNL A   1      30.909  27.001  24.229  1.00  0.00     0.009 A 
ATOM     13  C   UNL A   1      31.114  29.399  24.154  1.00  0.00     0.055 A 
ATOM     14  C   UNL A   1      29.687  27.083  23.546  1.00  0.00     0.051 A 
ATOM     15  C   UNL A   1      29.889  29.480  23.485  1.00  0.00     0.161 A 
ATOM     16  C   UNL A   1      29.151  28.326  23.232  1.00  0.00     0.161 A 
ATOM     17  O   UNL A   1      29.428  30.737  23.200  1.00  0.00    -0.486 OA
ATOM     18  O   UNL A   1      27.869  28.360  22.739  1.00  0.00    -0.486 OA
ATOM     19  C   UNL A   1      28.190  30.739  22.480  1.00  0.00     0.271 C 
ATOM     20  C   UNL A   1      27.278  29.645  23.001  1.00  0.00     0.271 C 
ENDBRANCH   9  11
ENDBRANCH   7   9
ENDBRANCH   6   7
ENDBRANCH   5   6
ENDBRANCH   4   5
ENDBRANCH   3   4
ENDBRANCH   2   3
ENDBRANCH   1   2
BRANCH   1  21
ATOM     21  O   UNL A   1      35.047  33.499  30.070  1.00  0.00    -0.376 OA
BRANCH  21  22
ATOM     22  C   UNL A   1      35.501  33.436  31.420  1.00  0.00     0.202 C 
BRANCH  22  23
ATOM     23  C   UNL A   1      35.402  31.989  31.902  1.00  0.00     0.261 C 
BRANCH  23  24
ATOM     24  O   UNL A   1      36.428  31.146  31.340  1.00  0.00    -0.460 OA
BRANCH  24  25
ATOM     25  C   UNL A   1      37.554  31.049  32.073  1.00  0.00     0.338 C 
ATOM     26  O   UNL A   1      37.688  31.327  33.257  1.00  0.00    -0.246 OA
BRANCH  25  27
ATOM     27  C   UNL A   1      38.611  30.432  31.256  1.00  0.00     0.060 A 
ATOM     28  C   UNL A   1      39.676  29.815  31.911  1.00  0.00     0.016 A 
ATOM     29  C   UNL A   1      38.619  30.557  29.870  1.00  0.00     0.016 A 
ATOM     30  C   UNL A   1      40.803  29.402  31.204  1.00  0.00     0.010 A 
ATOM     31  C   UNL A   1      39.733  30.108  29.152  1.00  0.00     0.010 A 
ATOM     32  C   UNL A   1      40.853  29.570  29.818  1.00  0.00    -0.014 A 
BRANCH  32  33
ATOM     33  C   UNL A   1      42.109  29.308  29.067  1.00  0.00     0.031 A 
ATOM     34  C   UNL A   1      42.355  27.927  28.522  1.00  0.00     0.074 A 
ATOM     35  C   UNL A   1      43.020  30.277  28.864  1.00  0.00     0.049 A 
ATOM     36  N   UNL A   1      43.453  27.407  28.039  1.00  0.00    -0.248 NA
ATOM     37  C   UNL A   1      41.205  27.008  28.526  1.00  0.00     0.031 C 
ATOM     38  C   UNL A   1      42.872  31.678  29.256  1.00  0.00     0.029 A 
ATOM     39  N   UNL A   1      44.266  30.220  28.290  1.00  0.00    -0.354 N 
ATOM     40  C   UNL A   1      43.141  26.090  27.723  1.00  0.00     0.074 A 
ATOM     41  C   UNL A   1      41.751  25.889  28.071  1.00  0.00     0.031 C 
ATOM     42  C   UNL A   1      43.992  32.344  28.929  1.00  0.00     0.029 A 
ATOM     43  C   UNL A   1      44.959  31.405  28.366  1.00  0.00     0.049 A 
ATOM     44  H   UNL A   1      44.628  29.409  27.864  1.00  0.00     0.167 HD
ATOM     45  C   UNL A   1      43.945  25.134  27.199  1.00  0.00     0.037 A 
ATOM     46  C   UNL A   1      46.244  31.687  28.071  1.00  0.00     0.037 A 
ATOM     47  C   UNL A   1      45.321  25.347  26.832  1.00  0.00     0.049 A 
ATOM     48  C   UNL A   1      47.144  30.594  27.559  1.00  0.00     0.074 A 
ATOM     49  C   UNL A   1      46.223  24.441  26.305  1.00  0.00     0.029 A 
ATOM     50  N   UNL A   1      45.990  26.556  26.949  1.00  0.00    -0.354 N 
ATOM     51  N   UNL A   1      46.861  29.335  27.324  1.00  0.00    -0.248 NA
ATOM     52  C   UNL A   1      48.541  30.957  27.285  1.00  0.00     0.031 C 
ATOM     53  C   UNL A   1      47.450  25.094  26.134  1.00  0.00     0.029 A 
ATOM     54  C   UNL A   1      47.298  26.418  26.514  1.00  0.00     0.049 A 
ATOM     55  H   UNL A   1      45.594  27.391  27.289  1.00  0.00     0.167 HD
ATOM     56  C   UNL A   1      48.039  28.759  26.860  1.00  0.00     0.074 A 
ATOM     57  C   UNL A   1      49.035  29.811  26.835  1.00  0.00     0.031 C 
ATOM     58  C   UNL A   1      48.276  27.477  26.488  1.00  0.00     0.037 A 
BRANCH  45  59
ATOM     59  C   UNL A   1      43.365  23.757  27.030  1.00  0.00     0.058 A 
ATOM     60  C   UNL A   1      42.984  23.259  25.775  1.00  0.00     0.135 A 
ATOM     61  C   UNL A   1      43.199  22.920  28.147  1.00  0.00     0.135 A 
ATOM     62  F   UNL A   1      43.101  24.026  24.680  1.00  0.00    -0.206 F 
ATOM     63  C   UNL A   1      42.435  21.988  25.635  1.00  0.00     0.059 A 
ATOM     64  C   UNL A   1      42.674  21.637  28.027  1.00  0.00     0.059 A 
ATOM     65  F   UNL A   1      43.543  23.350  29.371  1.00  0.00    -0.206 F 
ATOM     66  C   UNL A   1      42.279  21.187  26.769  1.00  0.00     0.060 A 
BRANCH  66  67
ATOM     67  S   UNL A   1      41.553  19.545  26.574  1.00  0.00     0.124 S 
ATOM     68  O   UNL A   1      42.056  19.160  25.259  1.00  0.00    -0.237 OA
ATOM     69  O   UNL A   1      42.116  18.817  27.705  1.00  0.00    -0.237 OA
ATOM     70  O   UNL A   1      40.117  19.798  26.647  1.00  0.00    -0.744 OA
ENDBRANCH  66  67
ENDBRANCH  45  59
BRANCH  46  71
ATOM     71  C   UNL A   1      46.772  33.058  28.306  1.00  0.00     0.058 A 
ATOM     72  C   UNL A   1      46.736  34.032  27.299  1.00  0.00     0.135 A 
ATOM     73  C   UNL A   1      47.317  33.421  29.549  1.00  0.00     0.135 A 
ATOM     74  F   UNL A   1      46.239  33.729  26.091  1.00  0.00    -0.206 F 
ATOM     75  C   UNL A   1      47.227  35.316  27.511  1.00  0.00     0.059 A 
ATOM     76  C   UNL A   1      47.792  34.705  29.792  1.00  0.00     0.059 A 
ATOM     77  F   UNL A   1      47.369  32.525  30.547  1.00  0.00    -0.206 F 
ATOM     78  C   UNL A   1      47.750  35.644  28.764  1.00  0.00     0.060 A 
BRANCH  78  79
ATOM     79  S   UNL A   1      48.332  37.330  29.049  1.00  0.00     0.124 S 
ATOM     80  O   UNL A   1      49.348  37.468  28.011  1.00  0.00    -0.237 OA
ATOM     81  O   UNL A   1      47.115  38.113  28.858  1.00  0.00    -0.237 OA
ATOM     82  O   UNL A   1      48.830  37.285  30.420  1.00  0.00    -0.744 OA
ENDBRANCH  78  79
ENDBRANCH  46  71
BRANCH  58  83
ATOM     83  C   UNL A   1      49.652  27.142  25.986  1.00  0.00     0.058 A 
ATOM     84  C   UNL A   1      50.677  26.742  26.857  1.00  0.00     0.135 A 
ATOM     85  C   UNL A   1      49.933  27.173  24.610  1.00  0.00     0.135 A 
ATOM     86  F   UNL A   1      50.463  26.702  28.181  1.00  0.00    -0.206 F 
ATOM     87  C   UNL A   1      51.940  26.399  26.382  1.00  0.00     0.059 A 
ATOM     88  C   UNL A   1      51.181  26.812  24.112  1.00  0.00     0.059 A 
ATOM     89  F   UNL A   1      48.984  27.540  23.735  1.00  0.00    -0.206 F 
ATOM     90  C   UNL A   1      52.181  26.437  25.006  1.00  0.00     0.060 A 
BRANCH  90  91
ATOM     91  S   UNL A   1      53.812  25.956  24.397  1.00  0.00     0.124 S 
ATOM     92  O   UNL A   1      53.969  24.633  24.991  1.00  0.00    -0.237 OA
ATOM     93  O   UNL A   1      53.628  25.983  22.949  1.00  0.00    -0.237 OA
ATOM     94  O   UNL A   1      54.691  26.993  24.930  1.00  0.00    -0.744 OA
ENDBRANCH  90  91
ENDBRANCH  58  83
ENDBRANCH  32  33
ENDBRANCH  25  27
ENDBRANCH  24  25
ENDBRANCH  23  24
ENDBRANCH  22  23
ENDBRANCH  21  22
ENDBRANCH   1  21
TORSDOF 21
ENDMDL
MODEL 2
REMARK VINA RESULT:      -9.5      3.400     10.694
REMARK SMILES C[C@H](C(=O)OCCOCCOCCOC(=O)c1ccc(-c2c3nc(c(-c4c(F)cc(S(=O)(=O)[O-])cc4F)c4ccc([nH]4)c(-c4c(F)cc(S(=O)(=O)[O-])cc4F)c4nc(c(-c5c(F)cc(S(=O)(=O)[O-])cc5F)c5ccc2[nH]5)C=C4)C=C3)cc1)c1ccc2c(c1)OCCO2
REMARK SMILES IDX 10 1 9 2 8 3 7 4 6 5 5 6 3 7 4 8 2 9 1 10 83 11 84 12 88 13
REMARK SMILES IDX 85 14 87 15 86 16 89 17 92 18 90 19 91 20 11 21 12 22 13 23
REMARK SMILES IDX 14 24 15 25 16 26 17 27 18 28 82 29 19 30 81 31 20 32 21 33
REMARK SMILES IDX 22 34 75 35 23 36 80 37 74 38 76 39 24 40 79 41 73 42 72 43
REMARK SMILES IDX 25 45 59 46 38 47 58 48 39 49 42 50 57 51 77 52 40 53 41 54
REMARK SMILES IDX 56 56 78 57 43 58 26 59 27 60 36 61 28 62 29 63 35 64 37 65
REMARK SMILES IDX 30 66 31 67 32 68 33 69 34 70 60 71 61 72 70 73 62 74 63 75
REMARK SMILES IDX 69 76 71 77 64 78 65 79 66 80 67 81 68 82 44 83 45 84 54 85
REMARK SMILES IDX 46 86 47 87 53 88 55 89 48 90 49 91 50 92 51 93 52 94
REMARK H PARENT 76 44 42 55
REMARK Flexibility Score: inf
ROOT
ATOM      1  C   UNL A   1      34.621  33.917  33.158  1.00  0.00     0.188 C 
ENDROOT
BRANCH   1   2
ATOM      2  C   UNL A   1      36.122  34.128  32.917  1.00  0.00     0.188 C 
BRANCH   2   3
ATOM      3  O   UNL A   1      36.878  34.779  33.939  1.00  0.00    -0.376 OA
BRANCH   3   4
ATOM      4  C   UNL A   1      38.124  34.197  34.302  1.00  0.00     0.202 C 
BRANCH   4   5
ATOM      5  C   UNL A   1      38.381  32.816  33.699  1.00  0.00     0.261 C 
BRANCH   5   6
ATOM      6  O   UNL A   1      38.292  31.760  34.679  1.00  0.00    -0.463 OA
BRANCH   6   7
ATOM      7  C   UNL A   1      39.331  30.889  34.654  1.00  0.00     0.313 C 
ATOM      8  O   UNL A   1      39.189  29.669  34.589  1.00  0.00    -0.252 OA
BRANCH   7   9
ATOM      9  C   UNL A   1      40.712  31.516  34.660  1.00  0.00     0.126 C 
ATOM     10  C   UNL A   1      40.956  32.129  36.049  1.00  0.00     0.025 C 
BRANCH   9  11
ATOM     11  C   UNL A   1      41.934  30.728  34.185  1.00  0.00    -0.030 A 
ATOM     12  C   UNL A   1      43.090  30.697  34.989  1.00  0.00     0.009 A 
ATOM     13  C   UNL A   1      41.859  29.828  33.110  1.00  0.00     0.055 A 
ATOM     14  C   UNL A   1      44.071  29.713  34.802  1.00  0.00     0.051 A 
ATOM     15  C   UNL A   1      42.831  28.840  32.934  1.00  0.00     0.161 A 
ATOM     16  C   UNL A   1      43.906  28.749  33.815  1.00  0.00     0.161 A 
ATOM     17  O   UNL A   1      42.607  27.930  31.936  1.00  0.00    -0.486 OA
ATOM     18  O   UNL A   1      44.792  27.699  33.797  1.00  0.00    -0.486 OA
ATOM     19  C   UNL A   1      43.663  26.974  31.790  1.00  0.00     0.271 C 
ATOM     20  C   UNL A   1      44.191  26.563  33.152  1.00  0.00     0.271 C 
ENDBRANCH   9  11
ENDBRANCH   7   9
ENDBRANCH   6   7
ENDBRANCH   5   6
ENDBRANCH   4   5
ENDBRANCH   3   4
ENDBRANCH   2   3
ENDBRANCH   1   2
BRANCH   1  21
ATOM     21  O   UNL A   1      33.930  33.663  31.936  1.00  0.00    -0.376 OA
BRANCH  21  22
ATOM     22  C   UNL A   1      34.565  34.263  30.810  1.00  0.00     0.202 C 
BRANCH  22  23
ATOM     23  C   UNL A   1      34.427  33.323  29.612  1.00  0.00     0.261 C 
BRANCH  23  24
ATOM     24  O   UNL A   1      34.871  31.983  29.906  1.00  0.00    -0.460 OA
BRANCH  24  25
ATOM     25  C   UNL A   1      34.892  31.143  28.853  1.00  0.00     0.338 C 
ATOM     26  O   UNL A   1      34.046  31.045  27.973  1.00  0.00    -0.246 OA
BRANCH  25  27
ATOM     27  C   UNL A   1      36.170  30.415  28.840  1.00  0.00     0.060 A 
ATOM     28  C   UNL A   1      36.682  29.958  30.054  1.00  0.00     0.016 A 
ATOM     29  C   UNL A   1      36.914  30.282  27.672  1.00  0.00     0.016 A 
ATOM     30  C   UNL A   1      37.978  29.453  30.135  1.00  0.00     0.010 A 
ATOM     31  C   UNL A   1      38.202  29.739  27.743  1.00  0.00     0.010 A 
ATOM     32  C   UNL A   1      38.761  29.363  28.981  1.00  0.00    -0.014 A 
BRANCH  32  33
ATOM     33  C   UNL A   1      40.200  29.001  29.068  1.00  0.00     0.031 A 
ATOM     34  C   UNL A   1      41.195  30.063  29.454  1.00  0.00     0.074 A 
ATOM     35  C   UNL A   1      40.625  27.749  28.815  1.00  0.00     0.049 A 
ATOM     36  N   UNL A   1      42.499  30.046  29.379  1.00  0.00    -0.248 NA
ATOM     37  C   UNL A   1      40.639  31.315  29.992  1.00  0.00     0.031 C 
ATOM     38  C   UNL A   1      39.766  26.604  28.520  1.00  0.00     0.029 A 
ATOM     39  N   UNL A   1      41.898  27.240  28.748  1.00  0.00    -0.354 N 
ATOM     40  C   UNL A   1      42.920  31.296  29.818  1.00  0.00     0.074 A 
ATOM     41  C   UNL A   1      41.731  32.048  30.156  1.00  0.00     0.031 C 
ATOM     42  C   UNL A   1      40.536  25.529  28.284  1.00  0.00     0.029 A 
ATOM     43  C   UNL A   1      41.941  25.925  28.346  1.00  0.00     0.049 A 
ATOM     44  H   UNL A   1      42.702  27.764  28.967  1.00  0.00     0.167 HD
ATOM     45  C   UNL A   1      44.183  31.774  29.922  1.00  0.00     0.037 A 
ATOM     46  C   UNL A   1      42.989  25.147  28.010  1.00  0.00     0.037 A 
ATOM     47  C   UNL A   1      45.364  31.012  29.607  1.00  0.00     0.049 A 
ATOM     48  C   UNL A   1      44.382  25.718  28.059  1.00  0.00     0.074 A 
ATOM     49  C   UNL A   1      46.687  31.408  29.667  1.00  0.00     0.029 A 
ATOM     50  N   UNL A   1      45.360  29.692  29.180  1.00  0.00    -0.354 N 
ATOM     51  N   UNL A   1      44.768  26.921  28.412  1.00  0.00    -0.248 NA
ATOM     52  C   UNL A   1      45.479  24.831  27.650  1.00  0.00     0.031 C 
ATOM     53  C   UNL A   1      47.484  30.339  29.243  1.00  0.00     0.029 A 
ATOM     54  C   UNL A   1      46.659  29.262  28.961  1.00  0.00     0.049 A 
ATOM     55  H   UNL A   1      44.554  29.142  29.052  1.00  0.00     0.167 HD
ATOM     56  C   UNL A   1      46.153  26.930  28.285  1.00  0.00     0.074 A 
ATOM     57  C   UNL A   1      46.538  25.609  27.833  1.00  0.00     0.031 C 
ATOM     58  C   UNL A   1      47.027  27.940  28.520  1.00  0.00     0.037 A 
BRANCH  45  59
ATOM     59  C   UNL A   1      44.349  33.204  30.355  1.00  0.00     0.058 A 
ATOM     60  C   UNL A   1      44.305  34.268  29.442  1.00  0.00     0.135 A 
ATOM     61  C   UNL A   1      44.543  33.511  31.713  1.00  0.00     0.135 A 
ATOM     62  F   UNL A   1      44.143  34.027  28.131  1.00  0.00    -0.206 F 
ATOM     63  C   UNL A   1      44.474  35.586  29.855  1.00  0.00     0.059 A 
ATOM     64  C   UNL A   1      44.691  34.824  32.150  1.00  0.00     0.059 A 
ATOM     65  F   UNL A   1      44.597  32.531  32.627  1.00  0.00    -0.206 F 
ATOM     66  C   UNL A   1      44.672  35.852  31.211  1.00  0.00     0.060 A 
BRANCH  66  67
ATOM     67  S   UNL A   1      44.904  37.566  31.730  1.00  0.00     0.124 S 
ATOM     68  O   UNL A   1      44.861  37.437  33.184  1.00  0.00    -0.237 OA
ATOM     69  O   UNL A   1      46.207  37.894  31.162  1.00  0.00    -0.237 OA
ATOM     70  O   UNL A   1      43.769  38.260  31.129  1.00  0.00    -0.744 OA
ENDBRANCH  66  67
ENDBRANCH  45  59
BRANCH  46  71
ATOM     71  C   UNL A   1      42.756  23.755  27.541  1.00  0.00     0.058 A 
ATOM     72  C   UNL A   1      42.629  22.696  28.450  1.00  0.00     0.135 A 
ATOM     73  C   UNL A   1      42.648  23.460  26.172  1.00  0.00     0.135 A 
ATOM     74  F   UNL A   1      42.739  22.924  29.766  1.00  0.00    -0.206 F 
ATOM     75  C   UNL A   1      42.409  21.390  28.019  1.00  0.00     0.059 A 
ATOM     76  C   UNL A   1      42.405  22.168  25.719  1.00  0.00     0.059 A 
ATOM     77  F   UNL A   1      42.757  24.441  25.262  1.00  0.00    -0.206 F 
ATOM     78  C   UNL A   1      42.295  21.138  26.650  1.00  0.00     0.060 A 
BRANCH  78  79
ATOM     79  S   UNL A   1      41.953  19.451  26.104  1.00  0.00     0.124 S 
ATOM     80  O   UNL A   1      42.729  19.379  24.871  1.00  0.00    -0.237 OA
ATOM     81  O   UNL A   1      42.456  18.656  27.221  1.00  0.00    -0.237 OA
ATOM     82  O   UNL A   1      40.502  19.439  25.940  1.00  0.00    -0.744 OA
ENDBRANCH  78  79
ENDBRANCH  46  71
BRANCH  58  83
ATOM     83  C   UNL A   1      48.489  27.650  28.331  1.00  0.00     0.058 A 
ATOM     84  C   UNL A   1      49.126  27.846  27.096  1.00  0.00     0.135 A 
ATOM     85  C   UNL A   1      49.273  27.221  29.415  1.00  0.00     0.135 A 
ATOM     86  F   UNL A   1      48.422  28.249  26.028  1.00  0.00    -0.206 F 
ATOM     87  C   UNL A   1      50.489  27.610  26.937  1.00  0.00     0.059 A 
ATOM     88  C   UNL A   1      50.641  27.001  29.284  1.00  0.00     0.059 A 
ATOM     89  F   UNL A   1      48.714  27.028  30.619  1.00  0.00    -0.206 F 
ATOM     90  C   UNL A   1      51.238  27.188  28.038  1.00  0.00     0.060 A 
BRANCH  90  91
ATOM     91  S   UNL A   1      53.012  26.918  27.830  1.00  0.00     0.124 S 
ATOM     92  O   UNL A   1      53.487  27.015  29.205  1.00  0.00    -0.237 OA
ATOM     93  O   UNL A   1      53.059  25.586  27.235  1.00  0.00    -0.237 OA
ATOM     94  O   UNL A   1      53.417  28.006  26.945  1.00  0.00    -0.744 OA
ENDBRANCH  90  91
ENDBRANCH  58  83
ENDBRANCH  32  33
ENDBRANCH  25  27
ENDBRANCH  24  25
ENDBRANCH  23  24
ENDBRANCH  22  23
ENDBRANCH  21  22
ENDBRANCH   1  21
TORSDOF 21
ENDMDL
MODEL 3
REMARK VINA RESULT:      -9.5      1.560      8.478
REMARK SMILES C[C@H](C(=O)OCCOCCOCCOC(=O)c1ccc(-c2c3nc(c(-c4c(F)cc(S(=O)(=O)[O-])cc4F)c4ccc([nH]4)c(-c4c(F)cc(S(=O)(=O)[O-])cc4F)c4nc(c(-c5c(F)cc(S(=O)(=O)[O-])cc5F)c5ccc2[nH]5)C=C4)C=C3)cc1)c1ccc2c(c1)OCCO2
REMARK SMILES IDX 10 1 9 2 8 3 7 4 6 5 5 6 3 7 4 8 2 9 1 10 83 11 84 12 88 13
REMARK SMILES IDX 85 14 87 15 86 16 89 17 92 18 90 19 91 20 11 21 12 22 13 23
REMARK SMILES IDX 14 24 15 25 16 26 17 27 18 28 82 29 19 30 81 31 20 32 21 33
REMARK SMILES IDX 22 34 75 35 23 36 80 37 74 38 76 39 24 40 79 41 73 42 72 43
REMARK SMILES IDX 25 45 59 46 38 47 58 48 39 49 42 50 57 51 77 52 40 53 41 54
REMARK SMILES IDX 56 56 78 57 43 58 26 59 27 60 36 61 28 62 29 63 35 64 37 65
REMARK SMILES IDX 30 66 31 67 32 68 33 69 34 70 60 71 61 72 70 73 62 74 63 75
REMARK SMILES IDX 69 76 71 77 64 78 65 79 66 80 67 81 68 82 44 83 45 84 54 85
REMARK SMILES IDX 46 86 47 87 53 88 55 89 48 90 49 91 50 92 51 93 52 94
REMARK H PARENT 76 44 42 55
REMARK Flexibility Score: inf
ROOT
ATOM      1  C   UNL A   1      33.725  34.608  29.830  1.00  0.00     0.188 C 
ENDROOT
BRANCH   1   2
ATOM      2  C   UNL A   1      33.396  34.463  28.339  1.00  0.00     0.188 C 
BRANCH   2   3
ATOM      3  O   UNL A   1      32.776  33.251  27.906  1.00  0.00    -0.376 OA
BRANCH   3   4
ATOM      4  C   UNL A   1      33.625  32.146  27.627  1.00  0.00     0.202 C 
BRANCH   4   5
ATOM      5  C   UNL A   1      32.908  30.917  27.070  1.00  0.00     0.261 C 
BRANCH   5   6
ATOM      6  O   UNL A   1      33.799  30.034  26.354  1.00  0.00    -0.463 OA
BRANCH   6   7
ATOM      7  C   UNL A   1      33.326  28.774  26.197  1.00  0.00     0.313 C 
ATOM      8  O   UNL A   1      33.936  27.772  26.566  1.00  0.00    -0.252 OA
BRANCH   7   9
ATOM      9  C   UNL A   1      31.948  28.663  25.571  1.00  0.00     0.126 C 
ATOM     10  C   UNL A   1      31.943  29.485  24.271  1.00  0.00     0.025 C 
BRANCH   9  11
ATOM     11  C   UNL A   1      31.287  27.301  25.362  1.00  0.00    -0.030 A 
ATOM     12  C   UNL A   1      30.993  26.869  24.055  1.00  0.00     0.009 A 
ATOM     13  C   UNL A   1      31.199  26.358  26.398  1.00  0.00     0.055 A 
ATOM     14  C   UNL A   1      30.751  25.516  23.779  1.00  0.00     0.051 A 
ATOM     15  C   UNL A   1      30.970  25.007  26.121  1.00  0.00     0.161 A 
ATOM     16  C   UNL A   1      30.802  24.580  24.805  1.00  0.00     0.161 A 
ATOM     17  O   UNL A   1      31.027  24.144  27.182  1.00  0.00    -0.486 OA
ATOM     18  O   UNL A   1      30.751  23.252  24.458  1.00  0.00    -0.486 OA
ATOM     19  C   UNL A   1      30.743  22.786  26.828  1.00  0.00     0.271 C 
ATOM     20  C   UNL A   1      31.366  22.454  25.484  1.00  0.00     0.271 C 
ENDBRANCH   9  11
ENDBRANCH   7   9
ENDBRANCH   6   7
ENDBRANCH   5   6
ENDBRANCH   4   5
ENDBRANCH   3   4
ENDBRANCH   2   3
ENDBRANCH   1   2
BRANCH   1  21
ATOM     21  O   UNL A   1      35.042  34.143  30.119  1.00  0.00    -0.376 OA
BRANCH  21  22
ATOM     22  C   UNL A   1      35.115  33.432  31.352  1.00  0.00     0.202 C 
BRANCH  22  23
ATOM     23  C   UNL A   1      35.386  31.958  31.052  1.00  0.00     0.261 C 
BRANCH  23  24
ATOM     24  O   UNL A   1      35.999  31.759  29.762  1.00  0.00    -0.460 OA
BRANCH  24  25
ATOM     25  C   UNL A   1      36.287  30.479  29.455  1.00  0.00     0.338 C 
ATOM     26  O   UNL A   1      35.490  29.568  29.276  1.00  0.00    -0.246 OA
BRANCH  25  27
ATOM     27  C   UNL A   1      37.737  30.348  29.243  1.00  0.00     0.060 A 
ATOM     28  C   UNL A   1      38.189  30.010  27.968  1.00  0.00     0.016 A 
ATOM     29  C   UNL A   1      38.634  30.439  30.302  1.00  0.00     0.016 A 
ATOM     30  C   UNL A   1      39.522  29.665  27.753  1.00  0.00     0.010 A 
ATOM     31  C   UNL A   1      39.981  30.132  30.082  1.00  0.00     0.010 A 
ATOM     32  C   UNL A   1      40.427  29.698  28.817  1.00  0.00    -0.014 A 
BRANCH  32  33
ATOM     33  C   UNL A   1      41.804  29.164  28.656  1.00  0.00     0.031 A 
ATOM     34  C   UNL A   1      42.969  30.111  28.764  1.00  0.00     0.074 A 
ATOM     35  C   UNL A   1      42.028  27.857  28.424  1.00  0.00     0.049 A 
ATOM     36  N   UNL A   1      44.223  29.927  28.445  1.00  0.00    -0.248 NA
ATOM     37  C   UNL A   1      42.675  31.450  29.302  1.00  0.00     0.031 C 
ATOM     38  C   UNL A   1      41.004  26.814  28.385  1.00  0.00     0.029 A 
ATOM     39  N   UNL A   1      43.197  27.189  28.155  1.00  0.00    -0.354 N 
ATOM     40  C   UNL A   1      44.860  31.136  28.700  1.00  0.00     0.074 A 
ATOM     41  C   UNL A   1      43.853  32.048  29.200  1.00  0.00     0.031 C 
ATOM     42  C   UNL A   1      41.586  25.640  28.090  1.00  0.00     0.029 A 
ATOM     43  C   UNL A   1      43.011  25.860  27.854  1.00  0.00     0.049 A 
ATOM     44  H   UNL A   1      44.082  27.619  28.178  1.00  0.00     0.167 HD
ATOM     45  C   UNL A   1      46.164  31.457  28.526  1.00  0.00     0.037 A 
ATOM     46  C   UNL A   1      43.878  24.940  27.385  1.00  0.00     0.037 A 
ATOM     47  C   UNL A   1      47.166  30.538  28.052  1.00  0.00     0.049 A 
ATOM     48  C   UNL A   1      45.308  25.334  27.126  1.00  0.00     0.074 A 
ATOM     49  C   UNL A   1      48.512  30.767  27.830  1.00  0.00     0.029 A 
ATOM     50  N   UNL A   1      46.930  29.208  27.736  1.00  0.00    -0.354 N 
ATOM     51  N   UNL A   1      45.889  26.496  27.307  1.00  0.00    -0.248 NA
ATOM     52  C   UNL A   1      46.197  24.296  26.585  1.00  0.00     0.031 C 
ATOM     53  C   UNL A   1      49.084  29.585  27.345  1.00  0.00     0.029 A 
ATOM     54  C   UNL A   1      48.103  28.607  27.308  1.00  0.00     0.049 A 
ATOM     55  H   UNL A   1      46.058  28.757  27.805  1.00  0.00     0.167 HD
ATOM     56  C   UNL A   1      47.214  26.325  26.919  1.00  0.00     0.074 A 
ATOM     57  C   UNL A   1      47.351  24.943  26.505  1.00  0.00     0.031 C 
ATOM     58  C   UNL A   1      48.225  27.228  26.906  1.00  0.00     0.037 A 
BRANCH  45  59
ATOM     59  C   UNL A   1      46.572  32.875  28.810  1.00  0.00     0.058 A 
ATOM     60  C   UNL A   1      46.525  33.874  27.826  1.00  0.00     0.135 A 
ATOM     61  C   UNL A   1      47.007  33.240  30.096  1.00  0.00     0.135 A 
ATOM     62  F   UNL A   1      46.138  33.574  26.576  1.00  0.00    -0.206 F 
ATOM     63  C   UNL A   1      46.920  35.181  28.098  1.00  0.00     0.059 A 
ATOM     64  C   UNL A   1      47.383  34.546  30.396  1.00  0.00     0.059 A 
ATOM     65  F   UNL A   1      47.075  32.323  31.072  1.00  0.00    -0.206 F 
ATOM     66  C   UNL A   1      47.352  35.505  29.386  1.00  0.00     0.060 A 
BRANCH  66  67
ATOM     67  S   UNL A   1      47.873  37.200  29.722  1.00  0.00     0.124 S 
ATOM     68  O   UNL A   1      46.982  37.956  28.846  1.00  0.00    -0.237 OA
ATOM     69  O   UNL A   1      47.617  37.331  31.152  1.00  0.00    -0.237 OA
ATOM     70  O   UNL A   1      49.281  37.205  29.338  1.00  0.00    -0.744 OA
ENDBRANCH  66  67
ENDBRANCH  45  59
BRANCH  46  71
ATOM     71  C   UNL A   1      43.401  23.565  27.076  1.00  0.00     0.058 A 
ATOM     72  C   UNL A   1      43.234  23.137  25.752  1.00  0.00     0.135 A 
ATOM     73  C   UNL A   1      43.111  22.651  28.101  1.00  0.00     0.135 A 
ATOM     74  F   UNL A   1      43.484  23.978  24.738  1.00  0.00    -0.206 F 
ATOM     75  C   UNL A   1      42.790  21.852  25.454  1.00  0.00     0.059 A 
ATOM     76  C   UNL A   1      42.689  21.354  27.828  1.00  0.00     0.059 A 
ATOM     77  F   UNL A   1      43.261  23.012  29.386  1.00  0.00    -0.206 F 
ATOM     78  C   UNL A   1      42.524  20.967  26.500  1.00  0.00     0.060 A 
BRANCH  78  79
ATOM     79  S   UNL A   1      42.003  19.283  26.103  1.00  0.00     0.124 S 
ATOM     80  O   UNL A   1      40.560  19.446  25.971  1.00  0.00    -0.237 OA
ATOM     81  O   UNL A   1      42.732  19.019  24.865  1.00  0.00    -0.237 OA
ATOM     82  O   UNL A   1      42.450  18.513  27.260  1.00  0.00    -0.744 OA
ENDBRANCH  78  79
ENDBRANCH  46  71
BRANCH  58  83
ATOM     83  C   UNL A   1      49.579  26.748  26.466  1.00  0.00     0.058 A 
ATOM     84  C   UNL A   1      50.431  26.048  27.334  1.00  0.00     0.135 A 
ATOM     85  C   UNL A   1      50.006  26.944  25.142  1.00  0.00     0.135 A 
ATOM     86  F   UNL A   1      50.074  25.839  28.610  1.00  0.00    -0.206 F 
ATOM     87  C   UNL A   1      51.670  25.575  26.909  1.00  0.00     0.059 A 
ATOM     88  C   UNL A   1      51.230  26.460  24.690  1.00  0.00     0.059 A 
ATOM     89  F   UNL A   1      49.224  27.599  24.270  1.00  0.00    -0.206 F 
ATOM     90  C   UNL A   1      52.060  25.785  25.584  1.00  0.00     0.060 A 
BRANCH  90  91
ATOM     91  S   UNL A   1      53.653  25.136  25.034  1.00  0.00     0.124 S 
ATOM     92  O   UNL A   1      53.601  25.405  23.602  1.00  0.00    -0.237 OA
ATOM     93  O   UNL A   1      54.601  25.942  25.797  1.00  0.00    -0.237 OA
ATOM     94  O   UNL A   1      53.592  23.727  25.413  1.00  0.00    -0.744 OA
ENDBRANCH  90  91
ENDBRANCH  58  83
ENDBRANCH  32  33
ENDBRANCH  25  27
ENDBRANCH  24  25
ENDBRANCH  23  24
ENDBRANCH  22  23
ENDBRANCH  21  22
ENDBRANCH   1  21
TORSDOF 21
ENDMDL
