MODEL 1
REMARK VINA RESULT:      -9.7      0.000      0.000
REMARK SMILES Cc1cc(N2CCCC2)nc2sc3c(=O)n(CC(=O)OCCOCCOCCOC(=O)c4ccc(-c5c6nc(c(-c7c(F)cc(S(=O)(=O)[O-])cc7F)c7ccc([nH]7)c(-c7c(F)cc(S(=O)(=O)[O-])cc7F)c7nc(c(-c8c(F)cc(S(=O)(=O)[O-])cc8F)c8ccc5[nH]8)C=C7)C=C6)cc4)cnc3c12
REMARK SMILES IDX 25 1 24 2 23 3 22 4 21 5 20 6 18 7 19 8 17 9 16 10 1 11 2 12
REMARK SMILES IDX 3 13 101 14 4 15 11 16 100 17 10 18 12 19 13 20 99 21 14 22
REMARK SMILES IDX 98 23 15 24 5 25 6 26 9 27 7 28 8 29 26 30 27 31 28 32 29 33
REMARK SMILES IDX 30 34 31 35 32 36 33 37 97 38 34 39 96 40 35 41 36 42 37 43
REMARK SMILES IDX 90 44 38 45 95 46 89 47 91 48 39 49 94 50 88 51 87 52 40 54
REMARK SMILES IDX 74 55 53 56 73 57 54 58 57 59 72 60 92 61 55 62 56 63 71 65
REMARK SMILES IDX 93 66 58 67 41 68 42 69 51 70 43 71 44 72 50 73 52 74 45 75
REMARK SMILES IDX 46 76 47 77 48 78 49 79 75 80 76 81 85 82 77 83 78 84 84 85
REMARK SMILES IDX 86 86 79 87 80 88 81 89 82 90 83 91 59 92 60 93 69 94 61 95
REMARK SMILES IDX 62 96 68 97 70 98 63 99 64 100 65 101 66 102 67 103
REMARK H PARENT 91 53 57 64
REMARK Flexibility Score: inf
ROOT
ATOM      1  C   UNL A   1      37.763  29.482  29.878  1.00  0.00     0.188 C 
ENDROOT
BRANCH   1   2
ATOM      2  C   UNL A   1      36.685  29.399  28.781  1.00  0.00     0.188 C 
BRANCH   2   3
ATOM      3  O   UNL A   1      35.659  30.386  28.709  1.00  0.00    -0.376 OA
BRANCH   3   4
ATOM      4  C   UNL A   1      34.745  30.354  27.625  1.00  0.00     0.202 C 
BRANCH   4   5
ATOM      5  C   UNL A   1      34.382  28.965  27.075  1.00  0.00     0.261 C 
BRANCH   5   6
ATOM      6  O   UNL A   1      33.015  28.540  27.307  1.00  0.00    -0.462 OA
BRANCH   6   7
ATOM      7  C   UNL A   1      32.088  28.929  26.397  1.00  0.00     0.326 C 
ATOM      8  O   UNL A   1      31.840  30.105  26.141  1.00  0.00    -0.250 OA
BRANCH   7   9
ATOM      9  C   UNL A   1      31.394  27.796  25.611  1.00  0.00     0.249 C 
BRANCH   9  10
ATOM     10  N   UNL A   1      31.919  26.431  25.489  1.00  0.00    -0.287 N 
ATOM     11  C   UNL A   1      35.940  22.592  24.365  1.00  0.00     0.045 C 
ATOM     12  C   UNL A   1      34.624  21.913  24.640  1.00  0.00    -0.035 A 
ATOM     13  C   UNL A   1      34.603  20.500  24.625  1.00  0.00     0.051 A 
ATOM     14  C   UNL A   1      33.409  22.567  24.977  1.00  0.00     0.041 A 
ATOM     15  C   UNL A   1      33.440  19.781  24.888  1.00  0.00     0.130 A 
ATOM     16  C   UNL A   1      32.333  21.734  25.291  1.00  0.00     0.128 A 
ATOM     17  C   UNL A   1      32.972  23.935  25.065  1.00  0.00     0.098 A 
ATOM     18  N   UNL A   1      32.290  20.387  25.218  1.00  0.00    -0.220 NA
ATOM     19  S   UNL A   1      30.965  22.594  25.863  1.00  0.00    -0.108 S 
ATOM     20  C   UNL A   1      31.733  24.083  25.628  1.00  0.00     0.121 A 
ATOM     21  N   UNL A   1      33.689  25.053  24.607  1.00  0.00    -0.236 NA
ATOM     22  C   UNL A   1      31.147  25.362  25.930  1.00  0.00     0.271 A 
ATOM     23  C   UNL A   1      33.094  26.190  24.797  1.00  0.00     0.203 A 
ATOM     24  O   UNL A   1      30.067  25.532  26.500  1.00  0.00    -0.268 OA
BRANCH  15  25
ATOM     25  N   UNL A   1      33.424  18.412  24.790  1.00  0.00    -0.357 N 
ATOM     26  C   UNL A   1      32.528  17.533  25.514  1.00  0.00     0.118 C 
ATOM     27  C   UNL A   1      34.585  17.722  24.252  1.00  0.00     0.118 C 
ATOM     28  C   UNL A   1      33.365  16.278  25.741  1.00  0.00     0.023 C 
ATOM     29  C   UNL A   1      34.297  16.246  24.536  1.00  0.00     0.023 C 
ENDBRANCH  15  25
ENDBRANCH   9  10
ENDBRANCH   7   9
ENDBRANCH   6   7
ENDBRANCH   5   6
ENDBRANCH   4   5
ENDBRANCH   3   4
ENDBRANCH   2   3
ENDBRANCH   1   2
BRANCH   1  30
ATOM     30  O   UNL A   1      38.502  28.289  30.043  1.00  0.00    -0.376 OA
BRANCH  30  31
ATOM     31  C   UNL A   1      39.566  28.355  30.974  1.00  0.00     0.202 C 
BRANCH  31  32
ATOM     32  C   UNL A   1      39.175  29.050  32.283  1.00  0.00     0.261 C 
BRANCH  32  33
ATOM     33  O   UNL A   1      40.234  29.803  32.904  1.00  0.00    -0.460 OA
BRANCH  33  34
ATOM     34  C   UNL A   1      40.605  29.336  34.116  1.00  0.00     0.338 C 
ATOM     35  O   UNL A   1      39.928  29.328  35.130  1.00  0.00    -0.246 OA
BRANCH  34  36
ATOM     36  C   UNL A   1      41.960  28.777  34.068  1.00  0.00     0.060 A 
ATOM     37  C   UNL A   1      42.918  29.279  33.180  1.00  0.00     0.016 A 
ATOM     38  C   UNL A   1      42.160  27.573  34.723  1.00  0.00     0.016 A 
ATOM     39  C   UNL A   1      44.045  28.525  32.869  1.00  0.00     0.010 A 
ATOM     40  C   UNL A   1      43.276  26.815  34.400  1.00  0.00     0.010 A 
ATOM     41  C   UNL A   1      44.208  27.264  33.447  1.00  0.00    -0.014 A 
BRANCH  41  42
ATOM     42  C   UNL A   1      45.373  26.448  33.031  1.00  0.00     0.031 A 
ATOM     43  C   UNL A   1      45.050  25.486  31.923  1.00  0.00     0.074 A 
ATOM     44  C   UNL A   1      46.611  26.999  33.064  1.00  0.00     0.049 A 
ATOM     45  N   UNL A   1      44.889  25.882  30.694  1.00  0.00    -0.248 NA
ATOM     46  C   UNL A   1      44.528  24.143  32.173  1.00  0.00     0.031 C 
ATOM     47  C   UNL A   1      46.874  28.428  32.825  1.00  0.00     0.029 A 
ATOM     48  N   UNL A   1      47.866  26.429  33.090  1.00  0.00    -0.354 N 
ATOM     49  C   UNL A   1      44.161  24.910  30.030  1.00  0.00     0.074 A 
ATOM     50  C   UNL A   1      43.989  23.832  30.980  1.00  0.00     0.031 C 
ATOM     51  C   UNL A   1      48.180  28.588  32.535  1.00  0.00     0.029 A 
ATOM     52  C   UNL A   1      48.870  27.307  32.675  1.00  0.00     0.049 A 
ATOM     53  H   UNL A   1      48.037  25.502  33.373  1.00  0.00     0.167 HD
ATOM     54  C   UNL A   1      43.722  25.083  28.755  1.00  0.00     0.037 A 
ATOM     55  C   UNL A   1      49.964  26.933  31.951  1.00  0.00     0.037 A 
ATOM     56  C   UNL A   1      44.087  26.334  28.149  1.00  0.00     0.049 A 
ATOM     57  C   UNL A   1      49.348  26.798  30.577  1.00  0.00     0.074 A 
ATOM     58  C   UNL A   1      43.489  27.528  27.811  1.00  0.00     0.029 A 
ATOM     59  N   UNL A   1      45.395  26.480  27.753  1.00  0.00    -0.354 N 
ATOM     60  N   UNL A   1      49.038  27.783  29.773  1.00  0.00    -0.248 NA
ATOM     61  C   UNL A   1      48.689  25.530  30.256  1.00  0.00     0.031 C 
ATOM     62  C   UNL A   1      44.564  28.465  27.667  1.00  0.00     0.029 A 
ATOM     63  C   UNL A   1      45.750  27.789  27.951  1.00  0.00     0.049 A 
ATOM     64  H   UNL A   1      45.975  25.770  27.392  1.00  0.00     0.167 HD
ATOM     65  C   UNL A   1      47.931  27.339  29.044  1.00  0.00     0.074 A 
ATOM     66  C   UNL A   1      47.795  25.933  29.364  1.00  0.00     0.031 C 
ATOM     67  C   UNL A   1      47.079  28.175  28.378  1.00  0.00     0.037 A 
BRANCH  54  68
ATOM     68  C   UNL A   1      43.093  24.052  27.902  1.00  0.00     0.058 A 
ATOM     69  C   UNL A   1      41.699  23.915  28.012  1.00  0.00     0.135 A 
ATOM     70  C   UNL A   1      43.802  23.059  27.220  1.00  0.00     0.135 A 
ATOM     71  F   UNL A   1      40.984  24.847  28.663  1.00  0.00    -0.206 F 
ATOM     72  C   UNL A   1      41.034  22.800  27.528  1.00  0.00     0.059 A 
ATOM     73  C   UNL A   1      43.151  21.932  26.708  1.00  0.00     0.059 A 
ATOM     74  F   UNL A   1      45.136  23.138  27.097  1.00  0.00    -0.206 F 
ATOM     75  C   UNL A   1      41.771  21.800  26.897  1.00  0.00     0.060 A 
BRANCH  75  76
ATOM     76  S   UNL A   1      40.888  20.312  26.382  1.00  0.00     0.124 S 
ATOM     77  O   UNL A   1      40.778  19.578  27.638  1.00  0.00    -0.237 OA
ATOM     78  O   UNL A   1      39.644  20.868  25.861  1.00  0.00    -0.237 OA
ATOM     79  O   UNL A   1      41.773  19.719  25.384  1.00  0.00    -0.744 OA
ENDBRANCH  75  76
ENDBRANCH  54  68
BRANCH  55  80
ATOM     80  C   UNL A   1      50.826  25.892  32.598  1.00  0.00     0.058 A 
ATOM     81  C   UNL A   1      51.178  26.089  33.951  1.00  0.00     0.135 A 
ATOM     82  C   UNL A   1      51.280  24.702  32.011  1.00  0.00     0.135 A 
ATOM     83  F   UNL A   1      50.921  27.262  34.554  1.00  0.00    -0.206 F 
ATOM     84  C   UNL A   1      51.749  25.086  34.725  1.00  0.00     0.059 A 
ATOM     85  C   UNL A   1      51.833  23.669  32.770  1.00  0.00     0.059 A 
ATOM     86  F   UNL A   1      51.164  24.490  30.693  1.00  0.00    -0.206 F 
ATOM     87  C   UNL A   1      52.011  23.854  34.139  1.00  0.00     0.060 A 
BRANCH  87  88
ATOM     88  S   UNL A   1      52.489  22.487  35.214  1.00  0.00     0.124 S 
ATOM     89  O   UNL A   1      53.712  22.011  34.578  1.00  0.00    -0.237 OA
ATOM     90  O   UNL A   1      52.660  23.171  36.493  1.00  0.00    -0.237 OA
ATOM     91  O   UNL A   1      51.346  21.584  35.140  1.00  0.00    -0.744 OA
ENDBRANCH  87  88
ENDBRANCH  55  80
BRANCH  67  92
ATOM     92  C   UNL A   1      47.510  29.604  28.295  1.00  0.00     0.058 A 
ATOM     93  C   UNL A   1      48.403  30.008  27.293  1.00  0.00     0.135 A 
ATOM     94  C   UNL A   1      47.022  30.590  29.169  1.00  0.00     0.135 A 
ATOM     95  F   UNL A   1      48.886  29.113  26.414  1.00  0.00    -0.206 F 
ATOM     96  C   UNL A   1      48.790  31.335  27.152  1.00  0.00     0.059 A 
ATOM     97  C   UNL A   1      47.370  31.932  29.027  1.00  0.00     0.059 A 
ATOM     98  F   UNL A   1      46.180  30.270  30.167  1.00  0.00    -0.206 F 
ATOM     99  C   UNL A   1      48.257  32.294  28.014  1.00  0.00     0.060 A 
BRANCH  99 100
ATOM    100  S   UNL A   1      48.692  34.025  27.748  1.00  0.00     0.124 S 
ATOM    101  O   UNL A   1      47.642  34.468  26.837  1.00  0.00    -0.237 OA
ATOM    102  O   UNL A   1      48.629  34.572  29.100  1.00  0.00    -0.237 OA
ATOM    103  O   UNL A   1      50.032  33.959  27.172  1.00  0.00    -0.744 OA
ENDBRANCH  99 100
ENDBRANCH  67  92
ENDBRANCH  41  42
ENDBRANCH  34  36
ENDBRANCH  33  34
ENDBRANCH  32  33
ENDBRANCH  31  32
ENDBRANCH  30  31
ENDBRANCH   1  30
TORSDOF 22
ENDMDL
MODEL 2
REMARK VINA RESULT:      -9.7      5.748     10.221
REMARK SMILES Cc1cc(N2CCCC2)nc2sc3c(=O)n(CC(=O)OCCOCCOCCOC(=O)c4ccc(-c5c6nc(c(-c7c(F)cc(S(=O)(=O)[O-])cc7F)c7ccc([nH]7)c(-c7c(F)cc(S(=O)(=O)[O-])cc7F)c7nc(c(-c8c(F)cc(S(=O)(=O)[O-])cc8F)c8ccc5[nH]8)C=C7)C=C6)cc4)cnc3c12
REMARK SMILES IDX 25 1 24 2 23 3 22 4 21 5 20 6 18 7 19 8 17 9 16 10 1 11 2 12
REMARK SMILES IDX 3 13 101 14 4 15 11 16 100 17 10 18 12 19 13 20 99 21 14 22
REMARK SMILES IDX 98 23 15 24 5 25 6 26 9 27 7 28 8 29 26 30 27 31 28 32 29 33
REMARK SMILES IDX 30 34 31 35 32 36 33 37 97 38 34 39 96 40 35 41 36 42 37 43
REMARK SMILES IDX 90 44 38 45 95 46 89 47 91 48 39 49 94 50 88 51 87 52 40 54
REMARK SMILES IDX 74 55 53 56 73 57 54 58 57 59 72 60 92 61 55 62 56 63 71 65
REMARK SMILES IDX 93 66 58 67 41 68 42 69 51 70 43 71 44 72 50 73 52 74 45 75
REMARK SMILES IDX 46 76 47 77 48 78 49 79 75 80 76 81 85 82 77 83 78 84 84 85
REMARK SMILES IDX 86 86 79 87 80 88 81 89 82 90 83 91 59 92 60 93 69 94 61 95
REMARK SMILES IDX 62 96 68 97 70 98 63 99 64 100 65 101 66 102 67 103
REMARK H PARENT 91 53 57 64
REMARK Flexibility Score: inf
ROOT
ATOM      1  C   UNL A   1      37.520  29.225  28.765  1.00  0.00     0.188 C 
ENDROOT
BRANCH   1   2
ATOM      2  C   UNL A   1      36.592  29.805  27.681  1.00  0.00     0.188 C 
BRANCH   2   3
ATOM      3  O   UNL A   1      35.875  31.014  27.924  1.00  0.00    -0.376 OA
BRANCH   3   4
ATOM      4  C   UNL A   1      34.487  31.063  27.638  1.00  0.00     0.202 C 
BRANCH   4   5
ATOM      5  C   UNL A   1      33.835  29.748  27.180  1.00  0.00     0.261 C 
BRANCH   5   6
ATOM      6  O   UNL A   1      33.642  29.614  25.748  1.00  0.00    -0.462 OA
BRANCH   6   7
ATOM      7  C   UNL A   1      32.386  29.331  25.322  1.00  0.00     0.326 C 
ATOM      8  O   UNL A   1      31.392  29.962  25.675  1.00  0.00    -0.250 OA
BRANCH   7   9
ATOM      9  C   UNL A   1      32.263  28.202  24.278  1.00  0.00     0.249 C 
BRANCH   9  10
ATOM     10  N   UNL A   1      32.422  26.774  24.580  1.00  0.00    -0.287 N 
ATOM     11  C   UNL A   1      33.363  22.360  28.015  1.00  0.00     0.045 C 
ATOM     12  C   UNL A   1      33.283  21.905  26.581  1.00  0.00    -0.035 A 
ATOM     13  C   UNL A   1      33.400  20.520  26.328  1.00  0.00     0.051 A 
ATOM     14  C   UNL A   1      33.038  22.741  25.460  1.00  0.00     0.041 A 
ATOM     15  C   UNL A   1      33.319  20.000  25.039  1.00  0.00     0.130 A 
ATOM     16  C   UNL A   1      32.905  22.093  24.230  1.00  0.00     0.128 A 
ATOM     17  C   UNL A   1      32.902  24.158  25.248  1.00  0.00     0.098 A 
ATOM     18  N   UNL A   1      33.077  20.779  23.974  1.00  0.00    -0.220 NA
ATOM     19  S   UNL A   1      32.428  23.146  22.965  1.00  0.00    -0.108 S 
ATOM     20  C   UNL A   1      32.470  24.489  23.991  1.00  0.00     0.121 A 
ATOM     21  N   UNL A   1      33.198  25.157  26.191  1.00  0.00    -0.236 NA
ATOM     22  C   UNL A   1      32.146  25.834  23.594  1.00  0.00     0.271 A 
ATOM     23  C   UNL A   1      32.996  26.369  25.774  1.00  0.00     0.203 A 
ATOM     24  O   UNL A   1      31.688  26.159  22.496  1.00  0.00    -0.268 OA
BRANCH  15  25
ATOM     25  N   UNL A   1      33.516  18.662  24.808  1.00  0.00    -0.357 N 
ATOM     26  C   UNL A   1      34.740  18.072  24.306  1.00  0.00     0.118 C 
ATOM     27  C   UNL A   1      32.364  17.786  24.667  1.00  0.00     0.118 C 
ATOM     28  C   UNL A   1      34.252  16.887  23.478  1.00  0.00     0.023 C 
ATOM     29  C   UNL A   1      32.965  16.467  24.176  1.00  0.00     0.023 C 
ENDBRANCH  15  25
ENDBRANCH   9  10
ENDBRANCH   7   9
ENDBRANCH   6   7
ENDBRANCH   5   6
ENDBRANCH   4   5
ENDBRANCH   3   4
ENDBRANCH   2   3
ENDBRANCH   1   2
BRANCH   1  30
ATOM     30  O   UNL A   1      38.095  27.982  28.417  1.00  0.00    -0.376 OA
BRANCH  30  31
ATOM     31  C   UNL A   1      39.456  27.820  28.771  1.00  0.00     0.202 C 
BRANCH  31  32
ATOM     32  C   UNL A   1      40.378  27.671  27.556  1.00  0.00     0.261 C 
BRANCH  32  33
ATOM     33  O   UNL A   1      41.779  27.852  27.837  1.00  0.00    -0.460 OA
BRANCH  33  34
ATOM     34  C   UNL A   1      42.345  28.886  27.176  1.00  0.00     0.338 C 
ATOM     35  O   UNL A   1      42.512  28.973  25.973  1.00  0.00    -0.246 OA
BRANCH  34  36
ATOM     36  C   UNL A   1      42.717  29.958  28.105  1.00  0.00     0.060 A 
ATOM     37  C   UNL A   1      42.050  30.123  29.324  1.00  0.00     0.016 A 
ATOM     38  C   UNL A   1      43.547  30.950  27.610  1.00  0.00     0.016 A 
ATOM     39  C   UNL A   1      42.136  31.330  30.010  1.00  0.00     0.010 A 
ATOM     40  C   UNL A   1      43.619  32.159  28.286  1.00  0.00     0.010 A 
ATOM     41  C   UNL A   1      42.890  32.374  29.469  1.00  0.00    -0.014 A 
BRANCH  41  42
ATOM     42  C   UNL A   1      42.893  33.676  30.178  1.00  0.00     0.031 A 
ATOM     43  C   UNL A   1      41.517  34.129  30.577  1.00  0.00     0.074 A 
ATOM     44  C   UNL A   1      43.932  33.984  30.990  1.00  0.00     0.049 A 
ATOM     45  N   UNL A   1      40.878  33.589  31.573  1.00  0.00    -0.248 NA
ATOM     46  C   UNL A   1      40.655  34.909  29.689  1.00  0.00     0.031 C 
ATOM     47  C   UNL A   1      44.694  32.982  31.755  1.00  0.00     0.029 A 
ATOM     48  N   UNL A   1      44.389  35.191  31.475  1.00  0.00    -0.354 N 
ATOM     49  C   UNL A   1      39.530  33.855  31.403  1.00  0.00     0.074 A 
ATOM     50  C   UNL A   1      39.444  34.707  30.237  1.00  0.00     0.031 C 
ATOM     51  C   UNL A   1      45.370  33.608  32.738  1.00  0.00     0.029 A 
ATOM     52  C   UNL A   1      45.189  35.052  32.612  1.00  0.00     0.049 A 
ATOM     53  H   UNL A   1      44.175  36.059  31.063  1.00  0.00     0.167 HD
ATOM     54  C   UNL A   1      38.582  33.320  32.217  1.00  0.00     0.037 A 
ATOM     55  C   UNL A   1      45.194  35.929  33.658  1.00  0.00     0.037 A 
ATOM     56  C   UNL A   1      39.084  32.482  33.271  1.00  0.00     0.049 A 
ATOM     57  C   UNL A   1      43.918  35.521  34.359  1.00  0.00     0.074 A 
ATOM     58  C   UNL A   1      39.153  31.141  33.577  1.00  0.00     0.029 A 
ATOM     59  N   UNL A   1      39.690  33.109  34.334  1.00  0.00    -0.354 N 
ATOM     60  N   UNL A   1      43.762  34.470  35.122  1.00  0.00    -0.248 NA
ATOM     61  C   UNL A   1      42.665  36.099  33.867  1.00  0.00     0.031 C 
ATOM     62  C   UNL A   1      40.193  31.026  34.557  1.00  0.00     0.029 A 
ATOM     63  C   UNL A   1      40.710  32.303  34.770  1.00  0.00     0.049 A 
ATOM     64  H   UNL A   1      39.437  33.981  34.715  1.00  0.00     0.167 HD
ATOM     65  C   UNL A   1      42.428  34.082  34.958  1.00  0.00     0.074 A 
ATOM     66  C   UNL A   1      41.803  35.150  34.205  1.00  0.00     0.031 C 
ATOM     67  C   UNL A   1      41.958  32.838  35.274  1.00  0.00     0.037 A 
BRANCH  54  68
ATOM     68  C   UNL A   1      37.145  33.671  32.230  1.00  0.00     0.058 A 
ATOM     69  C   UNL A   1      36.362  33.138  31.194  1.00  0.00     0.135 A 
ATOM     70  C   UNL A   1      36.592  34.681  33.023  1.00  0.00     0.135 A 
ATOM     71  F   UNL A   1      36.860  32.168  30.409  1.00  0.00    -0.206 F 
ATOM     72  C   UNL A   1      35.101  33.634  30.902  1.00  0.00     0.059 A 
ATOM     73  C   UNL A   1      35.315  35.186  32.759  1.00  0.00     0.059 A 
ATOM     74  F   UNL A   1      37.305  35.231  34.019  1.00  0.00    -0.206 F 
ATOM     75  C   UNL A   1      34.593  34.675  31.676  1.00  0.00     0.060 A 
BRANCH  75  76
ATOM     76  S   UNL A   1      32.998  35.370  31.194  1.00  0.00     0.124 S 
ATOM     77  O   UNL A   1      32.743  34.690  29.930  1.00  0.00    -0.237 OA
ATOM     78  O   UNL A   1      32.149  34.972  32.312  1.00  0.00    -0.237 OA
ATOM     79  O   UNL A   1      33.267  36.801  31.095  1.00  0.00    -0.744 OA
ENDBRANCH  75  76
ENDBRANCH  54  68
BRANCH  55  80
ATOM     80  C   UNL A   1      45.550  37.339  33.300  1.00  0.00     0.058 A 
ATOM     81  C   UNL A   1      46.530  37.529  32.302  1.00  0.00     0.135 A 
ATOM     82  C   UNL A   1      44.967  38.504  33.819  1.00  0.00     0.135 A 
ATOM     83  F   UNL A   1      47.251  36.487  31.854  1.00  0.00    -0.206 F 
ATOM     84  C   UNL A   1      46.760  38.764  31.708  1.00  0.00     0.059 A 
ATOM     85  C   UNL A   1      45.161  39.753  33.226  1.00  0.00     0.059 A 
ATOM     86  F   UNL A   1      44.163  38.460  34.890  1.00  0.00    -0.206 F 
ATOM     87  C   UNL A   1      46.019  39.860  32.134  1.00  0.00     0.060 A 
BRANCH  87  88
ATOM     88  S   UNL A   1      46.127  41.383  31.174  1.00  0.00     0.124 S 
ATOM     89  O   UNL A   1      47.394  41.943  31.632  1.00  0.00    -0.237 OA
ATOM     90  O   UNL A   1      46.116  40.865  29.808  1.00  0.00    -0.237 OA
ATOM     91  O   UNL A   1      44.931  42.118  31.570  1.00  0.00    -0.744 OA
ENDBRANCH  87  88
ENDBRANCH  55  80
BRANCH  67  92
ATOM     92  C   UNL A   1      42.914  31.954  36.007  1.00  0.00     0.058 A 
ATOM     93  C   UNL A   1      43.026  32.050  37.401  1.00  0.00     0.135 A 
ATOM     94  C   UNL A   1      43.694  30.982  35.356  1.00  0.00     0.135 A 
ATOM     95  F   UNL A   1      42.289  32.945  38.081  1.00  0.00    -0.206 F 
ATOM     96  C   UNL A   1      43.867  31.213  38.125  1.00  0.00     0.059 A 
ATOM     97  C   UNL A   1      44.518  30.111  36.064  1.00  0.00     0.059 A 
ATOM     98  F   UNL A   1      43.653  30.850  34.020  1.00  0.00    -0.206 F 
ATOM     99  C   UNL A   1      44.599  30.235  37.451  1.00  0.00     0.060 A 
BRANCH  99 100
ATOM    100  S   UNL A   1      45.603  29.092  38.420  1.00  0.00     0.124 S 
ATOM    101  O   UNL A   1      46.888  29.780  38.471  1.00  0.00    -0.237 OA
ATOM    102  O   UNL A   1      44.869  29.027  39.681  1.00  0.00    -0.237 OA
ATOM    103  O   UNL A   1      45.583  27.863  37.632  1.00  0.00    -0.744 OA
ENDBRANCH  99 100
ENDBRANCH  67  92
ENDBRANCH  41  42
ENDBRANCH  34  36
ENDBRANCH  33  34
ENDBRANCH  32  33
ENDBRANCH  31  32
ENDBRANCH  30  31
ENDBRANCH   1  30
TORSDOF 22
ENDMDL
MODEL 3
REMARK VINA RESULT:      -9.5      6.604     14.298
REMARK SMILES Cc1cc(N2CCCC2)nc2sc3c(=O)n(CC(=O)OCCOCCOCCOC(=O)c4ccc(-c5c6nc(c(-c7c(F)cc(S(=O)(=O)[O-])cc7F)c7ccc([nH]7)c(-c7c(F)cc(S(=O)(=O)[O-])cc7F)c7nc(c(-c8c(F)cc(S(=O)(=O)[O-])cc8F)c8ccc5[nH]8)C=C7)C=C6)cc4)cnc3c12
REMARK SMILES IDX 25 1 24 2 23 3 22 4 21 5 20 6 18 7 19 8 17 9 16 10 1 11 2 12
REMARK SMILES IDX 3 13 101 14 4 15 11 16 100 17 10 18 12 19 13 20 99 21 14 22
REMARK SMILES IDX 98 23 15 24 5 25 6 26 9 27 7 28 8 29 26 30 27 31 28 32 29 33
REMARK SMILES IDX 30 34 31 35 32 36 33 37 97 38 34 39 96 40 35 41 36 42 37 43
REMARK SMILES IDX 90 44 38 45 95 46 89 47 91 48 39 49 94 50 88 51 87 52 40 54
REMARK SMILES IDX 74 55 53 56 73 57 54 58 57 59 72 60 92 61 55 62 56 63 71 65
REMARK SMILES IDX 93 66 58 67 41 68 42 69 51 70 43 71 44 72 50 73 52 74 45 75
REMARK SMILES IDX 46 76 47 77 48 78 49 79 75 80 76 81 85 82 77 83 78 84 84 85
REMARK SMILES IDX 86 86 79 87 80 88 81 89 82 90 83 91 59 92 60 93 69 94 61 95
REMARK SMILES IDX 62 96 68 97 70 98 63 99 64 100 65 101 66 102 67 103
REMARK H PARENT 91 53 57 64
REMARK Flexibility Score: inf
ROOT
ATOM      1  C   UNL A   1      46.340  39.244  25.660  1.00  0.00     0.188 C 
ENDROOT
BRANCH   1   2
ATOM      2  C   UNL A   1      46.890  40.410  24.817  1.00  0.00     0.188 C 
BRANCH   2   3
ATOM      3  O   UNL A   1      46.422  40.616  23.486  1.00  0.00    -0.376 OA
BRANCH   3   4
ATOM      4  C   UNL A   1      47.142  41.484  22.627  1.00  0.00     0.202 C 
BRANCH   4   5
ATOM      5  C   UNL A   1      46.336  42.608  21.955  1.00  0.00     0.261 C 
BRANCH   5   6
ATOM      6  O   UNL A   1      45.117  42.189  21.291  1.00  0.00    -0.462 OA
BRANCH   6   7
ATOM      7  C   UNL A   1      44.032  42.990  21.435  1.00  0.00     0.326 C 
ATOM      8  O   UNL A   1      43.208  43.183  20.543  1.00  0.00    -0.250 OA
BRANCH   7   9
ATOM      9  C   UNL A   1      43.825  43.605  22.835  1.00  0.00     0.249 C 
BRANCH   9  10
ATOM     10  N   UNL A   1      43.762  42.827  24.079  1.00  0.00    -0.287 N 
ATOM     11  C   UNL A   1      42.099  38.453  27.283  1.00  0.00     0.045 C 
ATOM     12  C   UNL A   1      42.848  39.461  28.114  1.00  0.00    -0.035 A 
ATOM     13  C   UNL A   1      43.053  39.158  29.479  1.00  0.00     0.051 A 
ATOM     14  C   UNL A   1      43.424  40.667  27.633  1.00  0.00     0.041 A 
ATOM     15  C   UNL A   1      43.752  40.017  30.324  1.00  0.00     0.130 A 
ATOM     16  C   UNL A   1      44.162  41.405  28.561  1.00  0.00     0.128 A 
ATOM     17  C   UNL A   1      43.429  41.370  26.378  1.00  0.00     0.098 A 
ATOM     18  N   UNL A   1      44.309  41.153  29.878  1.00  0.00    -0.220 NA
ATOM     19  S   UNL A   1      44.974  42.742  27.860  1.00  0.00    -0.108 S 
ATOM     20  C   UNL A   1      44.303  42.424  26.341  1.00  0.00     0.121 A 
ATOM     21  N   UNL A   1      42.617  41.073  25.271  1.00  0.00    -0.236 NA
ATOM     22  C   UNL A   1      44.566  43.192  25.152  1.00  0.00     0.271 A 
ATOM     23  C   UNL A   1      42.800  41.845  24.245  1.00  0.00     0.203 A 
ATOM     24  O   UNL A   1      45.397  44.101  25.063  1.00  0.00    -0.268 OA
BRANCH  15  25
ATOM     25  N   UNL A   1      43.870  39.741  31.663  1.00  0.00    -0.357 N 
ATOM     26  C   UNL A   1      44.038  38.420  32.232  1.00  0.00     0.118 C 
ATOM     27  C   UNL A   1      43.424  40.726  32.635  1.00  0.00     0.118 C 
ATOM     28  C   UNL A   1      43.312  38.512  33.571  1.00  0.00     0.023 C 
ATOM     29  C   UNL A   1      43.476  39.974  33.968  1.00  0.00     0.023 C 
ENDBRANCH  15  25
ENDBRANCH   9  10
ENDBRANCH   7   9
ENDBRANCH   6   7
ENDBRANCH   5   6
ENDBRANCH   4   5
ENDBRANCH   3   4
ENDBRANCH   2   3
ENDBRANCH   1   2
BRANCH   1  30
ATOM     30  O   UNL A   1      47.112  38.064  25.575  1.00  0.00    -0.376 OA
BRANCH  30  31
ATOM     31  C   UNL A   1      47.692  37.626  26.789  1.00  0.00     0.202 C 
BRANCH  31  32
ATOM     32  C   UNL A   1      47.378  36.160  27.108  1.00  0.00     0.261 C 
BRANCH  32  33
ATOM     33  O   UNL A   1      46.152  35.951  27.836  1.00  0.00    -0.460 OA
BRANCH  33  34
ATOM     34  C   UNL A   1      45.245  35.195  27.181  1.00  0.00     0.338 C 
ATOM     35  O   UNL A   1      44.421  35.586  26.373  1.00  0.00    -0.246 OA
BRANCH  34  36
ATOM     36  C   UNL A   1      45.392  33.779  27.535  1.00  0.00     0.060 A 
ATOM     37  C   UNL A   1      45.864  32.846  26.605  1.00  0.00     0.016 A 
ATOM     38  C   UNL A   1      44.792  33.366  28.713  1.00  0.00     0.016 A 
ATOM     39  C   UNL A   1      45.648  31.487  26.807  1.00  0.00     0.010 A 
ATOM     40  C   UNL A   1      44.561  32.012  28.905  1.00  0.00     0.010 A 
ATOM     41  C   UNL A   1      44.953  31.064  27.942  1.00  0.00    -0.014 A 
BRANCH  41  42
ATOM     42  C   UNL A   1      44.662  29.618  28.086  1.00  0.00     0.031 A 
ATOM     43  C   UNL A   1      44.890  29.110  29.482  1.00  0.00     0.074 A 
ATOM     44  C   UNL A   1      43.660  29.070  27.358  1.00  0.00     0.049 A 
ATOM     45  N   UNL A   1      44.063  29.372  30.452  1.00  0.00    -0.248 NA
ATOM     46  C   UNL A   1      46.191  28.629  29.943  1.00  0.00     0.031 C 
ATOM     47  C   UNL A   1      42.444  29.801  26.965  1.00  0.00     0.029 A 
ATOM     48  N   UNL A   1      43.392  27.765  27.006  1.00  0.00    -0.354 N 
ATOM     49  C   UNL A   1      44.745  29.200  31.644  1.00  0.00     0.074 A 
ATOM     50  C   UNL A   1      46.054  28.704  31.279  1.00  0.00     0.031 C 
ATOM     51  C   UNL A   1      41.496  28.911  26.613  1.00  0.00     0.029 A 
ATOM     52  C   UNL A   1      42.058  27.563  26.642  1.00  0.00     0.049 A 
ATOM     53  H   UNL A   1      44.069  27.050  27.011  1.00  0.00     0.167 HD
ATOM     54  C   UNL A   1      44.188  29.515  32.844  1.00  0.00     0.037 A 
ATOM     55  C   UNL A   1      41.349  26.432  26.925  1.00  0.00     0.037 A 
ATOM     56  C   UNL A   1      42.842  30.016  32.780  1.00  0.00     0.049 A 
ATOM     57  C   UNL A   1      41.039  26.665  28.387  1.00  0.00     0.074 A 
ATOM     58  C   UNL A   1      42.184  31.219  32.909  1.00  0.00     0.029 A 
ATOM     59  N   UNL A   1      41.847  29.105  32.521  1.00  0.00    -0.354 N 
ATOM     60  N   UNL A   1      40.122  27.470  28.859  1.00  0.00    -0.248 NA
ATOM     61  C   UNL A   1      42.062  26.279  29.361  1.00  0.00     0.031 C 
ATOM     62  C   UNL A   1      40.917  31.031  32.266  1.00  0.00     0.029 A 
ATOM     63  C   UNL A   1      40.892  29.731  31.762  1.00  0.00     0.049 A 
ATOM     64  H   UNL A   1      41.823  28.169  32.825  1.00  0.00     0.167 HD
ATOM     65  C   UNL A   1      40.618  27.924  30.086  1.00  0.00     0.074 A 
ATOM     66  C   UNL A   1      41.795  27.122  30.349  1.00  0.00     0.031 C 
ATOM     67  C   UNL A   1      40.159  29.045  30.719  1.00  0.00     0.037 A 
BRANCH  54  68
ATOM     68  C   UNL A   1      44.757  29.213  34.175  1.00  0.00     0.058 A 
ATOM     69  C   UNL A   1      44.706  27.871  34.587  1.00  0.00     0.135 A 
ATOM     70  C   UNL A   1      45.084  30.183  35.127  1.00  0.00     0.135 A 
ATOM     71  F   UNL A   1      44.392  26.910  33.702  1.00  0.00    -0.206 F 
ATOM     72  C   UNL A   1      44.900  27.505  35.909  1.00  0.00     0.059 A 
ATOM     73  C   UNL A   1      45.301  29.837  36.464  1.00  0.00     0.059 A 
ATOM     74  F   UNL A   1      45.135  31.481  34.786  1.00  0.00    -0.206 F 
ATOM     75  C   UNL A   1      45.175  28.497  36.847  1.00  0.00     0.060 A 
BRANCH  75  76
ATOM     76  S   UNL A   1      45.309  27.996  38.576  1.00  0.00     0.124 S 
ATOM     77  O   UNL A   1      45.031  29.246  39.274  1.00  0.00    -0.237 OA
ATOM     78  O   UNL A   1      44.274  26.971  38.672  1.00  0.00    -0.237 OA
ATOM     79  O   UNL A   1      46.680  27.508  38.684  1.00  0.00    -0.744 OA
ENDBRANCH  75  76
ENDBRANCH  54  68
BRANCH  55  80
ATOM     80  C   UNL A   1      41.929  25.166  26.373  1.00  0.00     0.058 A 
ATOM     81  C   UNL A   1      42.722  25.267  25.210  1.00  0.00     0.135 A 
ATOM     82  C   UNL A   1      41.811  23.884  26.928  1.00  0.00     0.135 A 
ATOM     83  F   UNL A   1      42.771  26.420  24.522  1.00  0.00    -0.206 F 
ATOM     84  C   UNL A   1      43.514  24.220  24.755  1.00  0.00     0.059 A 
ATOM     85  C   UNL A   1      42.612  22.821  26.507  1.00  0.00     0.059 A 
ATOM     86  F   UNL A   1      40.944  23.633  27.919  1.00  0.00    -0.206 F 
ATOM     87  C   UNL A   1      43.501  23.019  25.454  1.00  0.00     0.060 A 
BRANCH  87  88
ATOM     88  S   UNL A   1      44.732  21.773  25.021  1.00  0.00     0.124 S 
ATOM     89  O   UNL A   1      45.259  22.288  23.762  1.00  0.00    -0.237 OA
ATOM     90  O   UNL A   1      45.634  21.846  26.167  1.00  0.00    -0.237 OA
ATOM     91  O   UNL A   1      43.950  20.545  24.923  1.00  0.00    -0.744 OA
ENDBRANCH  87  88
ENDBRANCH  55  80
BRANCH  67  92
ATOM     92  C   UNL A   1      38.936  29.666  30.125  1.00  0.00     0.058 A 
ATOM     93  C   UNL A   1      37.668  29.168  30.455  1.00  0.00     0.135 A 
ATOM     94  C   UNL A   1      38.997  30.776  29.265  1.00  0.00     0.135 A 
ATOM     95  F   UNL A   1      37.546  28.123  31.291  1.00  0.00    -0.206 F 
ATOM     96  C   UNL A   1      36.505  29.749  29.963  1.00  0.00     0.059 A 
ATOM     97  C   UNL A   1      37.844  31.394  28.785  1.00  0.00     0.059 A 
ATOM     98  F   UNL A   1      40.179  31.291  28.889  1.00  0.00    -0.206 F 
ATOM     99  C   UNL A   1      36.601  30.871  29.140  1.00  0.00     0.060 A 
BRANCH  99 100
ATOM    100  S   UNL A   1      35.078  31.672  28.598  1.00  0.00     0.124 S 
ATOM    101  O   UNL A   1      35.574  32.670  27.657  1.00  0.00    -0.237 OA
ATOM    102  O   UNL A   1      34.336  30.560  28.009  1.00  0.00    -0.237 OA
ATOM    103  O   UNL A   1      34.510  32.205  29.833  1.00  0.00    -0.744 OA
ENDBRANCH  99 100
ENDBRANCH  67  92
ENDBRANCH  41  42
ENDBRANCH  34  36
ENDBRANCH  33  34
ENDBRANCH  32  33
ENDBRANCH  31  32
ENDBRANCH  30  31
ENDBRANCH   1  30
TORSDOF 22
ENDMDL
