MODEL 1
REMARK VINA RESULT:     -10.4      0.000      0.000
REMARK SMILES Cc1c(C[C@@H](C)O)c(=O)oc2cc(OCC(=O)OCCOCCOCCOC(=O)c3ccc(-c4c5nc(c(-c6c(F)cc(S(=O)(=O)[O-])cc6F)c6ccc([nH]6)c(-c6c(F)cc(S(=O)(=O)[O-])cc6F)c6nc(c(-c7c(F)cc(S(=O)(=O)[O-])cc7F)c7ccc4[nH]7)C=C6)C=C5)cc3)ccc12
REMARK SMILES IDX 22 1 21 2 20 3 19 4 18 5 16 6 17 7 15 8 14 9 13 10 1 11 2 12
REMARK SMILES IDX 3 13 98 14 8 15 11 16 97 17 9 18 10 19 12 20 96 21 4 22 5 23
REMARK SMILES IDX 6 24 7 25 23 27 24 28 25 29 26 30 27 31 28 32 29 33 30 34
REMARK SMILES IDX 31 35 95 36 32 37 94 38 33 39 34 40 35 41 88 42 36 43 93 44
REMARK SMILES IDX 87 45 89 46 37 47 92 48 86 49 85 50 38 52 72 53 51 54 71 55
REMARK SMILES IDX 52 56 55 57 70 58 90 59 53 60 54 61 69 63 91 64 56 65 39 66
REMARK SMILES IDX 40 67 49 68 41 69 42 70 48 71 50 72 43 73 44 74 45 75 46 76
REMARK SMILES IDX 47 77 73 78 74 79 83 80 75 81 76 82 82 83 84 84 77 85 78 86
REMARK SMILES IDX 79 87 80 88 81 89 57 90 58 91 67 92 59 93 60 94 66 95 68 96
REMARK SMILES IDX 61 97 62 98 63 99 64 100 65 101
REMARK H PARENT 7 26 89 51 55 62
REMARK Flexibility Score: inf
ROOT
ATOM      1  C   UNL A   1      45.792  19.640  24.726  1.00  0.00     0.188 C 
ENDROOT
BRANCH   1   2
ATOM      2  O   UNL A   1      44.527  19.143  24.315  1.00  0.00    -0.376 OA
BRANCH   2   3
ATOM      3  C   UNL A   1      43.697  18.549  25.306  1.00  0.00     0.202 C 
BRANCH   3   4
ATOM      4  C   UNL A   1      42.834  19.525  26.114  1.00  0.00     0.261 C 
BRANCH   4   5
ATOM      5  O   UNL A   1      41.453  19.443  25.697  1.00  0.00    -0.461 OA
BRANCH   5   6
ATOM      6  C   UNL A   1      40.548  20.137  26.440  1.00  0.00     0.344 C 
ATOM      7  O   UNL A   1      40.700  20.401  27.628  1.00  0.00    -0.248 OA
BRANCH   6   8
ATOM      8  C   UNL A   1      39.396  20.714  25.588  1.00  0.00     0.351 C 
BRANCH   8   9
ATOM      9  O   UNL A   1      38.727  21.868  26.084  1.00  0.00    -0.482 OA
BRANCH   9  10
ATOM     10  C   UNL A   1      37.473  22.214  25.646  1.00  0.00     0.123 A 
ATOM     11  C   UNL A   1      33.097  25.096  24.970  1.00  0.00     0.046 C 
ATOM     12  C   UNL A   1      33.409  23.636  25.104  1.00  0.00    -0.030 A 
ATOM     13  C   UNL A   1      32.461  22.685  25.230  1.00  0.00     0.044 A 
ATOM     14  C   UNL A   1      34.831  23.225  25.183  1.00  0.00     0.021 A 
ATOM     15  C   UNL A   1      32.847  21.256  25.143  1.00  0.00     0.339 A 
ATOM     16  C   UNL A   1      35.159  21.884  25.015  1.00  0.00     0.142 A 
ATOM     17  C   UNL A   1      35.880  24.080  25.521  1.00  0.00     0.016 A 
ATOM     18  O   UNL A   1      32.019  20.386  25.324  1.00  0.00    -0.246 OA
ATOM     19  O   UNL A   1      34.145  20.956  24.749  1.00  0.00    -0.422 OA
ATOM     20  C   UNL A   1      36.463  21.373  25.191  1.00  0.00     0.094 A 
ATOM     21  C   UNL A   1      37.174  23.576  25.767  1.00  0.00     0.047 A 
BRANCH  13  22
ATOM     22  C   UNL A   1      30.961  22.878  25.418  1.00  0.00     0.075 C 
BRANCH  22  23
ATOM     23  C   UNL A   1      30.528  23.133  26.883  1.00  0.00     0.116 C 
ATOM     24  C   UNL A   1      29.146  22.578  27.198  1.00  0.00     0.038 C 
BRANCH  23  25
ATOM     25  O   UNL A   1      31.448  22.528  27.800  1.00  0.00    -0.393 OA
ATOM     26  H   UNL A   1      31.023  21.768  28.230  1.00  0.00     0.210 HD
ENDBRANCH  23  25
ENDBRANCH  22  23
ENDBRANCH  13  22
ENDBRANCH   9  10
ENDBRANCH   8   9
ENDBRANCH   6   8
ENDBRANCH   5   6
ENDBRANCH   4   5
ENDBRANCH   3   4
ENDBRANCH   2   3
ENDBRANCH   1   2
BRANCH   1  27
ATOM     27  C   UNL A   1      46.036  21.164  24.689  1.00  0.00     0.188 C 
BRANCH  27  28
ATOM     28  O   UNL A   1      45.070  22.043  25.238  1.00  0.00    -0.376 OA
BRANCH  28  29
ATOM     29  C   UNL A   1      44.674  23.157  24.455  1.00  0.00     0.202 C 
BRANCH  29  30
ATOM     30  C   UNL A   1      44.896  24.536  25.074  1.00  0.00     0.261 C 
BRANCH  30  31
ATOM     31  O   UNL A   1      43.740  25.039  25.788  1.00  0.00    -0.460 OA
BRANCH  31  32
ATOM     32  C   UNL A   1      43.982  25.288  27.097  1.00  0.00     0.338 C 
ATOM     33  O   UNL A   1      44.908  24.809  27.733  1.00  0.00    -0.246 OA
BRANCH  32  34
ATOM     34  C   UNL A   1      43.109  26.320  27.706  1.00  0.00     0.060 A 
ATOM     35  C   UNL A   1      43.691  27.542  28.056  1.00  0.00     0.016 A 
ATOM     36  C   UNL A   1      41.924  25.922  28.330  1.00  0.00     0.016 A 
ATOM     37  C   UNL A   1      43.186  28.280  29.132  1.00  0.00     0.010 A 
ATOM     38  C   UNL A   1      41.386  26.700  29.372  1.00  0.00     0.010 A 
ATOM     39  C   UNL A   1      42.049  27.848  29.833  1.00  0.00    -0.014 A 
BRANCH  39  40
ATOM     40  C   UNL A   1      41.563  28.600  31.028  1.00  0.00     0.031 A 
ATOM     41  C   UNL A   1      40.404  29.573  30.963  1.00  0.00     0.074 A 
ATOM     42  C   UNL A   1      42.171  28.387  32.210  1.00  0.00     0.049 A 
ATOM     43  N   UNL A   1      39.961  30.416  31.865  1.00  0.00    -0.248 NA
ATOM     44  C   UNL A   1      39.613  29.586  29.730  1.00  0.00     0.031 C 
ATOM     45  C   UNL A   1      43.237  27.413  32.449  1.00  0.00     0.029 A 
ATOM     46  N   UNL A   1      41.999  29.000  33.425  1.00  0.00    -0.354 N 
ATOM     47  C   UNL A   1      38.853  31.052  31.298  1.00  0.00     0.074 A 
ATOM     48  C   UNL A   1      38.673  30.483  29.985  1.00  0.00     0.031 C 
ATOM     49  C   UNL A   1      43.646  27.514  33.719  1.00  0.00     0.029 A 
ATOM     50  C   UNL A   1      42.938  28.621  34.351  1.00  0.00     0.049 A 
ATOM     51  H   UNL A   1      41.278  29.644  33.613  1.00  0.00     0.167 HD
ATOM     52  C   UNL A   1      38.077  32.039  31.812  1.00  0.00     0.037 A 
ATOM     53  C   UNL A   1      43.264  29.159  35.540  1.00  0.00     0.037 A 
ATOM     54  C   UNL A   1      38.295  32.629  33.109  1.00  0.00     0.049 A 
ATOM     55  C   UNL A   1      42.496  30.345  36.040  1.00  0.00     0.074 A 
ATOM     56  C   UNL A   1      37.594  33.651  33.724  1.00  0.00     0.029 A 
ATOM     57  N   UNL A   1      39.306  32.256  33.981  1.00  0.00    -0.354 N 
ATOM     58  N   UNL A   1      41.495  30.975  35.475  1.00  0.00    -0.248 NA
ATOM     59  C   UNL A   1      42.909  30.897  37.335  1.00  0.00     0.031 C 
ATOM     60  C   UNL A   1      38.216  33.933  34.946  1.00  0.00     0.029 A 
ATOM     61  C   UNL A   1      39.268  33.047  35.116  1.00  0.00     0.049 A 
ATOM     62  H   UNL A   1      39.955  31.534  33.818  1.00  0.00     0.167 HD
ATOM     63  C   UNL A   1      41.146  31.994  36.352  1.00  0.00     0.074 A 
ATOM     64  C   UNL A   1      42.036  31.883  37.491  1.00  0.00     0.031 C 
ATOM     65  C   UNL A   1      40.174  32.932  36.230  1.00  0.00     0.037 A 
BRANCH  52  66
ATOM     66  C   UNL A   1      36.967  32.602  30.959  1.00  0.00     0.058 A 
ATOM     67  C   UNL A   1      35.627  32.214  31.118  1.00  0.00     0.135 A 
ATOM     68  C   UNL A   1      37.240  33.607  30.013  1.00  0.00     0.135 A 
ATOM     69  F   UNL A   1      35.302  31.252  31.996  1.00  0.00    -0.206 F 
ATOM     70  C   UNL A   1      34.603  32.794  30.368  1.00  0.00     0.059 A 
ATOM     71  C   UNL A   1      36.232  34.215  29.268  1.00  0.00     0.059 A 
ATOM     72  F   UNL A   1      38.503  34.020  29.816  1.00  0.00    -0.206 F 
ATOM     73  C   UNL A   1      34.916  33.795  29.447  1.00  0.00     0.060 A 
BRANCH  73  74
ATOM     74  S   UNL A   1      33.576  34.552  28.497  1.00  0.00     0.124 S 
ATOM     75  O   UNL A   1      34.257  35.687  27.883  1.00  0.00    -0.237 OA
ATOM     76  O   UNL A   1      33.190  33.478  27.587  1.00  0.00    -0.237 OA
ATOM     77  O   UNL A   1      32.585  34.894  29.514  1.00  0.00    -0.744 OA
ENDBRANCH  73  74
ENDBRANCH  52  66
BRANCH  53  78
ATOM     78  C   UNL A   1      44.430  28.611  36.278  1.00  0.00     0.058 A 
ATOM     79  C   UNL A   1      44.299  27.505  37.124  1.00  0.00     0.135 A 
ATOM     80  C   UNL A   1      45.717  29.140  36.077  1.00  0.00     0.135 A 
ATOM     81  F   UNL A   1      43.088  26.974  37.352  1.00  0.00    -0.206 F 
ATOM     82  C   UNL A   1      45.405  26.931  37.740  1.00  0.00     0.059 A 
ATOM     83  C   UNL A   1      46.841  28.565  36.656  1.00  0.00     0.059 A 
ATOM     84  F   UNL A   1      45.895  30.190  35.260  1.00  0.00    -0.206 F 
ATOM     85  C   UNL A   1      46.673  27.461  37.490  1.00  0.00     0.060 A 
BRANCH  85  86
ATOM     86  S   UNL A   1      48.113  26.648  38.215  1.00  0.00     0.124 S 
ATOM     87  O   UNL A   1      47.964  25.287  37.714  1.00  0.00    -0.237 OA
ATOM     88  O   UNL A   1      49.217  27.420  37.652  1.00  0.00    -0.237 OA
ATOM     89  O   UNL A   1      47.908  26.821  39.650  1.00  0.00    -0.744 OA
ENDBRANCH  85  86
ENDBRANCH  53  78
BRANCH  65  90
ATOM     90  C   UNL A   1      40.013  33.891  37.373  1.00  0.00     0.058 A 
ATOM     91  C   UNL A   1      39.124  33.636  38.429  1.00  0.00     0.135 A 
ATOM     92  C   UNL A   1      40.759  35.079  37.411  1.00  0.00     0.135 A 
ATOM     93  F   UNL A   1      38.382  32.516  38.433  1.00  0.00    -0.206 F 
ATOM     94  C   UNL A   1      38.949  34.548  39.463  1.00  0.00     0.059 A 
ATOM     95  C   UNL A   1      40.621  35.992  38.450  1.00  0.00     0.059 A 
ATOM     96  F   UNL A   1      41.633  35.362  36.431  1.00  0.00    -0.206 F 
ATOM     97  C   UNL A   1      39.697  35.727  39.461  1.00  0.00     0.060 A 
BRANCH  97  98
ATOM     98  S   UNL A   1      39.454  36.911  40.800  1.00  0.00     0.124 S 
ATOM     99  O   UNL A   1      38.546  37.870  40.181  1.00  0.00    -0.237 OA
ATOM    100  O   UNL A   1      38.876  36.080  41.852  1.00  0.00    -0.237 OA
ATOM    101  O   UNL A   1      40.802  37.403  41.068  1.00  0.00    -0.744 OA
ENDBRANCH  97  98
ENDBRANCH  65  90
ENDBRANCH  39  40
ENDBRANCH  32  34
ENDBRANCH  31  32
ENDBRANCH  30  31
ENDBRANCH  29  30
ENDBRANCH  28  29
ENDBRANCH  27  28
ENDBRANCH   1  27
TORSDOF 25
ENDMDL
MODEL 2
REMARK VINA RESULT:     -10.2      5.668     13.782
REMARK SMILES Cc1c(C[C@@H](C)O)c(=O)oc2cc(OCC(=O)OCCOCCOCCOC(=O)c3ccc(-c4c5nc(c(-c6c(F)cc(S(=O)(=O)[O-])cc6F)c6ccc([nH]6)c(-c6c(F)cc(S(=O)(=O)[O-])cc6F)c6nc(c(-c7c(F)cc(S(=O)(=O)[O-])cc7F)c7ccc4[nH]7)C=C6)C=C5)cc3)ccc12
REMARK SMILES IDX 22 1 21 2 20 3 19 4 18 5 16 6 17 7 15 8 14 9 13 10 1 11 2 12
REMARK SMILES IDX 3 13 98 14 8 15 11 16 97 17 9 18 10 19 12 20 96 21 4 22 5 23
REMARK SMILES IDX 6 24 7 25 23 27 24 28 25 29 26 30 27 31 28 32 29 33 30 34
REMARK SMILES IDX 31 35 95 36 32 37 94 38 33 39 34 40 35 41 88 42 36 43 93 44
REMARK SMILES IDX 87 45 89 46 37 47 92 48 86 49 85 50 38 52 72 53 51 54 71 55
REMARK SMILES IDX 52 56 55 57 70 58 90 59 53 60 54 61 69 63 91 64 56 65 39 66
REMARK SMILES IDX 40 67 49 68 41 69 42 70 48 71 50 72 43 73 44 74 45 75 46 76
REMARK SMILES IDX 47 77 73 78 74 79 83 80 75 81 76 82 82 83 84 84 77 85 78 86
REMARK SMILES IDX 79 87 80 88 81 89 57 90 58 91 67 92 59 93 60 94 66 95 68 96
REMARK SMILES IDX 61 97 62 98 63 99 64 100 65 101
REMARK H PARENT 7 26 89 51 55 62
REMARK Flexibility Score: inf
ROOT
ATOM      1  C   UNL A   1      32.328  36.070  31.089  1.00  0.00     0.188 C 
ENDROOT
BRANCH   1   2
ATOM      2  O   UNL A   1      32.425  37.257  31.863  1.00  0.00    -0.376 OA
BRANCH   2   3
ATOM      3  C   UNL A   1      33.693  37.583  32.418  1.00  0.00     0.202 C 
BRANCH   3   4
ATOM      4  C   UNL A   1      34.248  36.572  33.428  1.00  0.00     0.261 C 
BRANCH   4   5
ATOM      5  O   UNL A   1      35.413  35.908  32.891  1.00  0.00    -0.461 OA
BRANCH   5   6
ATOM      6  C   UNL A   1      35.740  34.706  33.440  1.00  0.00     0.344 C 
ATOM      7  O   UNL A   1      35.117  34.185  34.359  1.00  0.00    -0.248 OA
BRANCH   6   8
ATOM      8  C   UNL A   1      36.865  33.983  32.665  1.00  0.00     0.351 C 
BRANCH   8   9
ATOM      9  O   UNL A   1      38.208  34.318  32.995  1.00  0.00    -0.482 OA
BRANCH   9  10
ATOM     10  C   UNL A   1      39.138  33.351  33.281  1.00  0.00     0.123 A 
ATOM     11  C   UNL A   1      43.723  30.726  33.193  1.00  0.00     0.046 C 
ATOM     12  C   UNL A   1      42.275  30.352  33.298  1.00  0.00    -0.030 A 
ATOM     13  C   UNL A   1      41.834  29.079  33.239  1.00  0.00     0.044 A 
ATOM     14  C   UNL A   1      41.272  31.439  33.388  1.00  0.00     0.021 A 
ATOM     15  C   UNL A   1      40.418  28.784  33.562  1.00  0.00     0.339 A 
ATOM     16  C   UNL A   1      39.972  31.131  33.774  1.00  0.00     0.142 A 
ATOM     17  C   UNL A   1      41.508  32.762  33.011  1.00  0.00     0.016 A 
ATOM     18  O   UNL A   1      39.986  27.655  33.448  1.00  0.00    -0.246 OA
ATOM     19  O   UNL A   1      39.645  29.808  34.094  1.00  0.00    -0.422 OA
ATOM     20  C   UNL A   1      38.917  32.069  33.774  1.00  0.00     0.094 A 
ATOM     21  C   UNL A   1      40.452  33.694  32.940  1.00  0.00     0.047 A 
BRANCH  13  22
ATOM     22  C   UNL A   1      42.636  27.824  32.911  1.00  0.00     0.075 C 
BRANCH  22  23
ATOM     23  C   UNL A   1      42.987  26.951  34.139  1.00  0.00     0.116 C 
ATOM     24  C   UNL A   1      43.763  25.693  33.771  1.00  0.00     0.038 C 
BRANCH  23  25
ATOM     25  O   UNL A   1      43.788  27.684  35.075  1.00  0.00    -0.393 OA
ATOM     26  H   UNL A   1      44.659  27.264  35.155  1.00  0.00     0.210 HD
ENDBRANCH  23  25
ENDBRANCH  22  23
ENDBRANCH  13  22
ENDBRANCH   9  10
ENDBRANCH   8   9
ENDBRANCH   6   8
ENDBRANCH   5   6
ENDBRANCH   4   5
ENDBRANCH   3   4
ENDBRANCH   2   3
ENDBRANCH   1   2
BRANCH   1  27
ATOM     27  C   UNL A   1      33.099  35.995  29.753  1.00  0.00     0.188 C 
BRANCH  27  28
ATOM     28  O   UNL A   1      32.981  34.842  28.939  1.00  0.00    -0.376 OA
BRANCH  28  29
ATOM     29  C   UNL A   1      34.159  34.094  28.682  1.00  0.00     0.202 C 
BRANCH  29  30
ATOM     30  C   UNL A   1      34.570  33.084  29.752  1.00  0.00     0.261 C 
BRANCH  30  31
ATOM     31  O   UNL A   1      35.487  32.073  29.267  1.00  0.00    -0.460 OA
BRANCH  31  32
ATOM     32  C   UNL A   1      35.959  31.261  30.243  1.00  0.00     0.338 C 
ATOM     33  O   UNL A   1      35.505  31.205  31.376  1.00  0.00    -0.246 OA
BRANCH  32  34
ATOM     34  C   UNL A   1      37.008  30.309  29.808  1.00  0.00     0.060 A 
ATOM     35  C   UNL A   1      37.708  29.613  30.798  1.00  0.00     0.016 A 
ATOM     36  C   UNL A   1      37.584  30.466  28.545  1.00  0.00     0.016 A 
ATOM     37  C   UNL A   1      39.034  29.222  30.581  1.00  0.00     0.010 A 
ATOM     38  C   UNL A   1      38.896  30.016  28.312  1.00  0.00     0.010 A 
ATOM     39  C   UNL A   1      39.661  29.455  29.347  1.00  0.00    -0.014 A 
BRANCH  39  40
ATOM     40  C   UNL A   1      41.100  29.106  29.149  1.00  0.00     0.031 A 
ATOM     41  C   UNL A   1      42.206  30.138  29.216  1.00  0.00     0.074 A 
ATOM     42  C   UNL A   1      41.421  27.818  28.921  1.00  0.00     0.049 A 
ATOM     43  N   UNL A   1      43.479  30.028  28.915  1.00  0.00    -0.248 NA
ATOM     44  C   UNL A   1      41.847  31.468  29.714  1.00  0.00     0.031 C 
ATOM     45  C   UNL A   1      40.477  26.699  28.923  1.00  0.00     0.029 A 
ATOM     46  N   UNL A   1      42.626  27.240  28.614  1.00  0.00    -0.354 N 
ATOM     47  C   UNL A   1      44.054  31.273  29.184  1.00  0.00     0.074 A 
ATOM     48  C   UNL A   1      43.003  32.117  29.695  1.00  0.00     0.031 C 
ATOM     49  C   UNL A   1      41.130  25.576  28.600  1.00  0.00     0.029 A 
ATOM     50  C   UNL A   1      42.511  25.915  28.278  1.00  0.00     0.049 A 
ATOM     51  H   UNL A   1      43.483  27.725  28.631  1.00  0.00     0.167 HD
ATOM     52  C   UNL A   1      45.333  31.683  28.994  1.00  0.00     0.037 A 
ATOM     53  C   UNL A   1      43.386  25.080  27.688  1.00  0.00     0.037 A 
ATOM     54  C   UNL A   1      46.365  30.842  28.441  1.00  0.00     0.049 A 
ATOM     55  C   UNL A   1      44.756  25.582  27.346  1.00  0.00     0.074 A 
ATOM     56  C   UNL A   1      47.687  31.154  28.177  1.00  0.00     0.029 A 
ATOM     57  N   UNL A   1      46.179  29.525  28.051  1.00  0.00    -0.354 N 
ATOM     58  N   UNL A   1      45.271  26.771  27.546  1.00  0.00    -0.248 NA
ATOM     59  C   UNL A   1      45.659  24.631  26.689  1.00  0.00     0.031 C 
ATOM     60  C   UNL A   1      48.286  30.041  27.576  1.00  0.00     0.029 A 
ATOM     61  C   UNL A   1      47.352  29.018  27.520  1.00  0.00     0.049 A 
ATOM     62  H   UNL A   1      45.337  29.024  28.140  1.00  0.00     0.167 HD
ATOM     63  C   UNL A   1      46.568  26.709  27.052  1.00  0.00     0.074 A 
ATOM     64  C   UNL A   1      46.759  25.360  26.557  1.00  0.00     0.031 C 
ATOM     65  C   UNL A   1      47.516  27.679  27.017  1.00  0.00     0.037 A 
BRANCH  52  66
ATOM     66  C   UNL A   1      45.686  33.116  29.311  1.00  0.00     0.058 A 
ATOM     67  C   UNL A   1      46.217  33.501  30.552  1.00  0.00     0.135 A 
ATOM     68  C   UNL A   1      45.561  34.111  28.325  1.00  0.00     0.135 A 
ATOM     69  F   UNL A   1      46.351  32.601  31.539  1.00  0.00    -0.206 F 
ATOM     70  C   UNL A   1      46.602  34.818  30.807  1.00  0.00     0.059 A 
ATOM     71  C   UNL A   1      45.958  35.428  28.550  1.00  0.00     0.059 A 
ATOM     72  F   UNL A   1      45.060  33.804  27.118  1.00  0.00    -0.206 F 
ATOM     73  C   UNL A   1      46.470  35.774  29.798  1.00  0.00     0.060 A 
BRANCH  73  74
ATOM     74  S   UNL A   1      46.993  37.472  30.135  1.00  0.00     0.124 S 
ATOM     75  O   UNL A   1      48.439  37.373  29.961  1.00  0.00    -0.237 OA
ATOM     76  O   UNL A   1      46.283  38.229  29.109  1.00  0.00    -0.237 OA
ATOM     77  O   UNL A   1      46.543  37.704  31.505  1.00  0.00    -0.744 OA
ENDBRANCH  73  74
ENDBRANCH  52  66
BRANCH  53  78
ATOM     78  C   UNL A   1      42.935  23.715  27.319  1.00  0.00     0.058 A 
ATOM     79  C   UNL A   1      42.593  23.395  26.001  1.00  0.00     0.135 A 
ATOM     80  C   UNL A   1      42.923  22.683  28.273  1.00  0.00     0.135 A 
ATOM     81  F   UNL A   1      42.583  24.350  25.059  1.00  0.00    -0.206 F 
ATOM     82  C   UNL A   1      42.263  22.095  25.634  1.00  0.00     0.059 A 
ATOM     83  C   UNL A   1      42.627  21.371  27.926  1.00  0.00     0.059 A 
ATOM     84  F   UNL A   1      43.260  22.939  29.547  1.00  0.00    -0.206 F 
ATOM     85  C   UNL A   1      42.296  21.088  26.602  1.00  0.00     0.060 A 
BRANCH  85  86
ATOM     86  S   UNL A   1      41.964  19.386  26.097  1.00  0.00     0.124 S 
ATOM     87  O   UNL A   1      42.488  18.637  27.232  1.00  0.00    -0.237 OA
ATOM     88  O   UNL A   1      40.511  19.389  25.948  1.00  0.00    -0.237 OA
ATOM     89  O   UNL A   1      42.712  19.256  24.850  1.00  0.00    -0.744 OA
ENDBRANCH  85  86
ENDBRANCH  53  78
BRANCH  65  90
ATOM     90  C   UNL A   1      48.851  27.297  26.445  1.00  0.00     0.058 A 
ATOM     91  C   UNL A   1      49.881  26.792  27.253  1.00  0.00     0.135 A 
ATOM     92  C   UNL A   1      49.099  27.440  25.072  1.00  0.00     0.135 A 
ATOM     93  F   UNL A   1      49.693  26.645  28.575  1.00  0.00    -0.206 F 
ATOM     94  C   UNL A   1      51.128  26.480  26.725  1.00  0.00     0.059 A 
ATOM     95  C   UNL A   1      50.330  27.108  24.516  1.00  0.00     0.059 A 
ATOM     96  F   UNL A   1      48.141  27.907  24.254  1.00  0.00    -0.206 F 
ATOM     97  C   UNL A   1      51.345  26.649  25.355  1.00  0.00     0.060 A 
BRANCH  97  98
ATOM     98  S   UNL A   1      52.971  26.254  24.680  1.00  0.00     0.124 S 
ATOM     99  O   UNL A   1      53.271  24.998  25.358  1.00  0.00    -0.237 OA
ATOM    100  O   UNL A   1      52.701  26.154  23.249  1.00  0.00    -0.237 OA
ATOM    101  O   UNL A   1      53.790  27.394  25.079  1.00  0.00    -0.744 OA
ENDBRANCH  97  98
ENDBRANCH  65  90
ENDBRANCH  39  40
ENDBRANCH  32  34
ENDBRANCH  31  32
ENDBRANCH  30  31
ENDBRANCH  29  30
ENDBRANCH  28  29
ENDBRANCH  27  28
ENDBRANCH   1  27
TORSDOF 25
ENDMDL
MODEL 3
REMARK VINA RESULT:      -9.8      1.362      2.085
REMARK SMILES Cc1c(C[C@@H](C)O)c(=O)oc2cc(OCC(=O)OCCOCCOCCOC(=O)c3ccc(-c4c5nc(c(-c6c(F)cc(S(=O)(=O)[O-])cc6F)c6ccc([nH]6)c(-c6c(F)cc(S(=O)(=O)[O-])cc6F)c6nc(c(-c7c(F)cc(S(=O)(=O)[O-])cc7F)c7ccc4[nH]7)C=C6)C=C5)cc3)ccc12
REMARK SMILES IDX 22 1 21 2 20 3 19 4 18 5 16 6 17 7 15 8 14 9 13 10 1 11 2 12
REMARK SMILES IDX 3 13 98 14 8 15 11 16 97 17 9 18 10 19 12 20 96 21 4 22 5 23
REMARK SMILES IDX 6 24 7 25 23 27 24 28 25 29 26 30 27 31 28 32 29 33 30 34
REMARK SMILES IDX 31 35 95 36 32 37 94 38 33 39 34 40 35 41 88 42 36 43 93 44
REMARK SMILES IDX 87 45 89 46 37 47 92 48 86 49 85 50 38 52 72 53 51 54 71 55
REMARK SMILES IDX 52 56 55 57 70 58 90 59 53 60 54 61 69 63 91 64 56 65 39 66
REMARK SMILES IDX 40 67 49 68 41 69 42 70 48 71 50 72 43 73 44 74 45 75 46 76
REMARK SMILES IDX 47 77 73 78 74 79 83 80 75 81 76 82 82 83 84 84 77 85 78 86
REMARK SMILES IDX 79 87 80 88 81 89 57 90 58 91 67 92 59 93 60 94 66 95 68 96
REMARK SMILES IDX 61 97 62 98 63 99 64 100 65 101
REMARK H PARENT 7 26 89 51 55 62
REMARK Flexibility Score: inf
ROOT
ATOM      1  C   UNL A   1      44.850  19.686  24.915  1.00  0.00     0.188 C 
ENDROOT
BRANCH   1   2
ATOM      2  O   UNL A   1      43.457  19.519  24.692  1.00  0.00    -0.376 OA
BRANCH   2   3
ATOM      3  C   UNL A   1      42.632  19.269  25.823  1.00  0.00     0.202 C 
BRANCH   3   4
ATOM      4  C   UNL A   1      41.918  20.497  26.401  1.00  0.00     0.261 C 
BRANCH   4   5
ATOM      5  O   UNL A   1      40.526  20.501  26.015  1.00  0.00    -0.461 OA
BRANCH   5   6
ATOM      6  C   UNL A   1      39.768  21.534  26.472  1.00  0.00     0.344 C 
ATOM      7  O   UNL A   1      40.046  22.197  27.466  1.00  0.00    -0.248 OA
BRANCH   6   8
ATOM      8  C   UNL A   1      38.619  21.903  25.507  1.00  0.00     0.351 C 
BRANCH   8   9
ATOM      9  O   UNL A   1      37.287  21.760  25.987  1.00  0.00    -0.482 OA
BRANCH   9  10
ATOM     10  C   UNL A   1      36.255  22.505  25.472  1.00  0.00     0.123 A 
ATOM     11  C   UNL A   1      33.154  24.829  21.882  1.00  0.00     0.046 C 
ATOM     12  C   UNL A   1      33.629  25.161  23.264  1.00  0.00    -0.030 A 
ATOM     13  C   UNL A   1      33.420  26.357  23.851  1.00  0.00     0.044 A 
ATOM     14  C   UNL A   1      34.440  24.155  23.990  1.00  0.00     0.021 A 
ATOM     15  C   UNL A   1      33.735  26.528  25.289  1.00  0.00     0.339 A 
ATOM     16  C   UNL A   1      34.645  24.309  25.356  1.00  0.00     0.142 A 
ATOM     17  C   UNL A   1      35.113  23.097  23.379  1.00  0.00     0.016 A 
ATOM     18  O   UNL A   1      33.618  27.615  25.817  1.00  0.00    -0.246 OA
ATOM     19  O   UNL A   1      34.061  25.393  26.022  1.00  0.00    -0.422 OA
ATOM     20  C   UNL A   1      35.498  23.478  26.115  1.00  0.00     0.094 A 
ATOM     21  C   UNL A   1      36.021  22.300  24.107  1.00  0.00     0.047 A 
BRANCH  13  22
ATOM     22  C   UNL A   1      32.833  27.617  23.224  1.00  0.00     0.075 C 
BRANCH  22  23
ATOM     23  C   UNL A   1      31.321  27.818  23.487  1.00  0.00     0.116 C 
ATOM     24  C   UNL A   1      30.616  26.536  23.909  1.00  0.00     0.038 C 
BRANCH  23  25
ATOM     25  O   UNL A   1      31.108  28.781  24.527  1.00  0.00    -0.393 OA
ATOM     26  H   UNL A   1      30.405  29.395  24.260  1.00  0.00     0.210 HD
ENDBRANCH  23  25
ENDBRANCH  22  23
ENDBRANCH  13  22
ENDBRANCH   9  10
ENDBRANCH   8   9
ENDBRANCH   6   8
ENDBRANCH   5   6
ENDBRANCH   4   5
ENDBRANCH   3   4
ENDBRANCH   2   3
ENDBRANCH   1   2
BRANCH   1  27
ATOM     27  C   UNL A   1      45.455  21.100  24.786  1.00  0.00     0.188 C 
BRANCH  27  28
ATOM     28  O   UNL A   1      44.894  22.174  25.520  1.00  0.00    -0.376 OA
BRANCH  28  29
ATOM     29  C   UNL A   1      44.316  23.241  24.786  1.00  0.00     0.202 C 
BRANCH  29  30
ATOM     30  C   UNL A   1      44.918  24.627  25.014  1.00  0.00     0.261 C 
BRANCH  30  31
ATOM     31  O   UNL A   1      43.990  25.568  25.607  1.00  0.00    -0.460 OA
BRANCH  31  32
ATOM     32  C   UNL A   1      43.999  25.552  26.961  1.00  0.00     0.338 C 
ATOM     33  O   UNL A   1      44.779  24.902  27.640  1.00  0.00    -0.246 OA
BRANCH  32  34
ATOM     34  C   UNL A   1      43.065  26.509  27.601  1.00  0.00     0.060 A 
ATOM     35  C   UNL A   1      43.534  27.799  27.867  1.00  0.00     0.016 A 
ATOM     36  C   UNL A   1      41.978  26.013  28.325  1.00  0.00     0.016 A 
ATOM     37  C   UNL A   1      43.030  28.521  28.954  1.00  0.00     0.010 A 
ATOM     38  C   UNL A   1      41.434  26.769  29.379  1.00  0.00     0.010 A 
ATOM     39  C   UNL A   1      42.000  27.999  29.752  1.00  0.00    -0.014 A 
BRANCH  39  40
ATOM     40  C   UNL A   1      41.521  28.742  30.956  1.00  0.00     0.031 A 
ATOM     41  C   UNL A   1      40.363  29.717  30.905  1.00  0.00     0.074 A 
ATOM     42  C   UNL A   1      42.136  28.519  32.133  1.00  0.00     0.049 A 
ATOM     43  N   UNL A   1      39.926  30.553  31.817  1.00  0.00    -0.248 NA
ATOM     44  C   UNL A   1      39.566  29.740  29.677  1.00  0.00     0.031 C 
ATOM     45  C   UNL A   1      43.202  27.541  32.358  1.00  0.00     0.029 A 
ATOM     46  N   UNL A   1      41.971  29.123  33.354  1.00  0.00    -0.354 N 
ATOM     47  C   UNL A   1      38.816  31.195  31.261  1.00  0.00     0.074 A 
ATOM     48  C   UNL A   1      38.628  30.637  29.945  1.00  0.00     0.031 C 
ATOM     49  C   UNL A   1      43.618  27.632  33.626  1.00  0.00     0.029 A 
ATOM     50  C   UNL A   1      42.916  28.735  34.271  1.00  0.00     0.049 A 
ATOM     51  H   UNL A   1      41.253  29.766  33.551  1.00  0.00     0.167 HD
ATOM     52  C   UNL A   1      38.044  32.179  31.787  1.00  0.00     0.037 A 
ATOM     53  C   UNL A   1      43.249  29.263  35.463  1.00  0.00     0.037 A 
ATOM     54  C   UNL A   1      38.271  32.758  33.087  1.00  0.00     0.049 A 
ATOM     55  C   UNL A   1      42.485  30.445  35.977  1.00  0.00     0.074 A 
ATOM     56  C   UNL A   1      37.574  33.776  33.715  1.00  0.00     0.029 A 
ATOM     57  N   UNL A   1      39.286  32.377  33.952  1.00  0.00    -0.354 N 
ATOM     58  N   UNL A   1      41.482  31.082  35.422  1.00  0.00    -0.248 NA
ATOM     59  C   UNL A   1      42.906  30.987  37.273  1.00  0.00     0.031 C 
ATOM     60  C   UNL A   1      38.204  34.047  34.935  1.00  0.00     0.029 A 
ATOM     61  C   UNL A   1      39.255  33.159  35.093  1.00  0.00     0.049 A 
ATOM     62  H   UNL A   1      39.933  31.656  33.778  1.00  0.00     0.167 HD
ATOM     63  C   UNL A   1      41.139  32.094  36.310  1.00  0.00     0.074 A 
ATOM     64  C   UNL A   1      42.035  31.972  37.443  1.00  0.00     0.031 C 
ATOM     65  C   UNL A   1      40.167  33.034  36.200  1.00  0.00     0.037 A 
BRANCH  52  66
ATOM     66  C   UNL A   1      36.930  32.750  30.945  1.00  0.00     0.058 A 
ATOM     67  C   UNL A   1      37.153  33.741  29.977  1.00  0.00     0.135 A 
ATOM     68  C   UNL A   1      35.624  32.241  31.060  1.00  0.00     0.135 A 
ATOM     69  F   UNL A   1      38.375  34.277  29.827  1.00  0.00    -0.206 F 
ATOM     70  C   UNL A   1      36.125  34.211  29.160  1.00  0.00     0.059 A 
ATOM     71  C   UNL A   1      34.585  32.680  30.240  1.00  0.00     0.059 A 
ATOM     72  F   UNL A   1      35.348  31.292  31.968  1.00  0.00    -0.206 F 
ATOM     73  C   UNL A   1      34.843  33.673  29.298  1.00  0.00     0.060 A 
BRANCH  73  74
ATOM     74  S   UNL A   1      33.525  34.276  28.218  1.00  0.00     0.124 S 
ATOM     75  O   UNL A   1      33.017  33.031  27.652  1.00  0.00    -0.237 OA
ATOM     76  O   UNL A   1      32.636  34.953  29.156  1.00  0.00    -0.237 OA
ATOM     77  O   UNL A   1      34.223  35.150  27.280  1.00  0.00    -0.744 OA
ENDBRANCH  73  74
ENDBRANCH  52  66
BRANCH  53  78
ATOM     78  C   UNL A   1      44.418  28.708  36.189  1.00  0.00     0.058 A 
ATOM     79  C   UNL A   1      44.288  27.603  37.037  1.00  0.00     0.135 A 
ATOM     80  C   UNL A   1      45.707  29.228  35.976  1.00  0.00     0.135 A 
ATOM     81  F   UNL A   1      43.077  27.079  37.276  1.00  0.00    -0.206 F 
ATOM     82  C   UNL A   1      45.396  27.021  37.643  1.00  0.00     0.059 A 
ATOM     83  C   UNL A   1      46.832  28.646  36.545  1.00  0.00     0.059 A 
ATOM     84  F   UNL A   1      45.883  30.277  35.158  1.00  0.00    -0.206 F 
ATOM     85  C   UNL A   1      46.666  27.543  37.380  1.00  0.00     0.060 A 
BRANCH  85  86
ATOM     86  S   UNL A   1      48.107  26.721  38.092  1.00  0.00     0.124 S 
ATOM     87  O   UNL A   1      48.802  26.262  36.896  1.00  0.00    -0.237 OA
ATOM     88  O   UNL A   1      48.748  27.808  38.827  1.00  0.00    -0.237 OA
ATOM     89  O   UNL A   1      47.519  25.676  38.924  1.00  0.00    -0.744 OA
ENDBRANCH  85  86
ENDBRANCH  53  78
BRANCH  65  90
ATOM     90  C   UNL A   1      40.014  33.984  37.352  1.00  0.00     0.058 A 
ATOM     91  C   UNL A   1      39.163  33.701  38.432  1.00  0.00     0.135 A 
ATOM     92  C   UNL A   1      40.730  35.191  37.374  1.00  0.00     0.135 A 
ATOM     93  F   UNL A   1      38.451  32.562  38.452  1.00  0.00    -0.206 F 
ATOM     94  C   UNL A   1      38.993  34.604  39.475  1.00  0.00     0.059 A 
ATOM     95  C   UNL A   1      40.597  36.096  38.421  1.00  0.00     0.059 A 
ATOM     96  F   UNL A   1      41.567  35.501  36.371  1.00  0.00    -0.206 F 
ATOM     97  C   UNL A   1      39.710  35.803  39.456  1.00  0.00     0.060 A 
BRANCH  97  98
ATOM     98  S   UNL A   1      39.474  36.974  40.808  1.00  0.00     0.124 S 
ATOM     99  O   UNL A   1      38.888  38.113  40.109  1.00  0.00    -0.237 OA
ATOM    100  O   UNL A   1      38.577  36.247  41.700  1.00  0.00    -0.237 OA
ATOM    101  O   UNL A   1      40.826  37.180  41.319  1.00  0.00    -0.744 OA
ENDBRANCH  97  98
ENDBRANCH  65  90
ENDBRANCH  39  40
ENDBRANCH  32  34
ENDBRANCH  31  32
ENDBRANCH  30  31
ENDBRANCH  29  30
ENDBRANCH  28  29
ENDBRANCH  27  28
ENDBRANCH   1  27
TORSDOF 25
ENDMDL
