MODEL 1
REMARK VINA RESULT:     -10.0      0.000      0.000
REMARK SMILES Cc1ccc(NC(=O)C[NH+]2CCN(c3ccc(C(=O)OCCOCCOCCOC(=O)c4ccc(-c5c6nc(c(-c7c(F)cc(S(=O)(=O)[O-])cc7F)c7ccc([nH]7)c(-c7c(F)cc(S(=O)(=O)[O-])cc7F)c7nc(c(-c8c(F)cc(S(=O)(=O)[O-])cc8F)c8ccc5[nH]8)C=C7)C=C6)cc4)cc3NS(C)(=O)=O)CC2)cc1
REMARK SMILES IDX 24 1 23 2 22 3 21 4 20 5 18 6 19 7 17 8 14 9 15 10 99 11
REMARK SMILES IDX 16 12 98 13 13 14 10 15 11 16 106 17 12 19 105 20 9 21 7 22
REMARK SMILES IDX 6 23 8 25 5 26 1 27 2 28 3 29 108 30 4 31 107 32 100 33
REMARK SMILES IDX 101 35 102 36 103 37 104 38 25 39 26 40 27 41 28 42 29 43
REMARK SMILES IDX 30 44 31 45 32 46 33 47 97 48 34 49 96 50 35 51 36 52 37 53
REMARK SMILES IDX 90 54 38 55 95 56 89 57 91 58 39 59 94 60 88 61 87 62 40 64
REMARK SMILES IDX 74 65 53 66 73 67 54 68 57 69 72 70 92 71 55 72 56 73 71 75
REMARK SMILES IDX 93 76 58 77 41 78 42 79 51 80 43 81 44 82 50 83 52 84 45 85
REMARK SMILES IDX 46 86 47 87 48 88 49 89 75 90 76 91 85 92 77 93 78 94 84 95
REMARK SMILES IDX 86 96 79 97 80 98 81 99 82 100 83 101 59 102 60 103 69 104
REMARK SMILES IDX 61 105 62 106 68 107 70 108 63 109 64 110 65 111 66 112
REMARK SMILES IDX 67 113
REMARK H PARENT 10 18 6 24 100 34 91 63 57 74
REMARK Flexibility Score: inf
ROOT
ATOM      1  C   UNL A   1      31.173  25.621  26.104  1.00  0.00     0.188 C 
ENDROOT
BRANCH   1   2
ATOM      2  O   UNL A   1      31.890  24.523  26.666  1.00  0.00    -0.376 OA
BRANCH   2   3
ATOM      3  C   UNL A   1      32.707  23.940  25.603  1.00  0.00     0.202 C 
BRANCH   3   4
ATOM      4  C   UNL A   1      34.280  23.942  26.007  1.00  0.00     0.261 C 
BRANCH   4   5
ATOM      5  O   UNL A   1      35.322  22.749  26.299  1.00  0.00    -0.460 OA
BRANCH   5   6
ATOM      6  C   UNL A   1      36.416  22.067  25.802  1.00  0.00     0.338 C 
ATOM      7  O   UNL A   1      36.558  21.067  25.130  1.00  0.00    -0.246 OA
BRANCH   6   8
ATOM      8  C   UNL A   1      37.745  22.639  25.874  1.00  0.00     0.062 A 
ATOM      9  C   UNL A   1      40.173  23.544  26.692  1.00  0.00     0.062 A 
ATOM     10  C   UNL A   1      39.013  24.372  26.739  1.00  0.00     0.029 A 
ATOM     11  C   UNL A   1      40.134  22.188  26.294  1.00  0.00     0.073 A 
ATOM     12  C   UNL A   1      37.791  23.929  26.320  1.00  0.00     0.018 A 
ATOM     13  C   UNL A   1      38.900  21.755  25.856  1.00  0.00     0.044 A 
BRANCH   9  14
ATOM     14  N   UNL A   1      41.394  24.191  26.972  1.00  0.00    -0.359 N 
ATOM     15  N   UNL A   1      42.911  26.619  27.388  1.00  0.00    -0.324 N 
ATOM     16  C   UNL A   1      42.338  26.379  26.053  1.00  0.00     0.284 C 
ATOM     17  C   UNL A   1      41.853  26.236  28.356  1.00  0.00     0.284 C 
ATOM     18  H   UNL A   1      43.193  27.595  27.481  1.00  0.00     0.348 HD
ATOM     19  C   UNL A   1      41.806  24.969  25.783  1.00  0.00     0.178 C 
ATOM     20  C   UNL A   1      41.465  24.746  28.335  1.00  0.00     0.178 C 
BRANCH  15  21
ATOM     21  C   UNL A   1      44.139  25.810  27.631  1.00  0.00     0.364 C 
BRANCH  21  22
ATOM     22  C   UNL A   1      45.361  26.670  27.987  1.00  0.00     0.279 C 
ATOM     23  N   UNL A   1      45.799  26.865  29.271  1.00  0.00    -0.321 N 
ATOM     24  H   UNL A   1      46.600  27.435  29.337  1.00  0.00     0.170 HD
ATOM     25  O   UNL A   1      46.054  27.170  27.088  1.00  0.00    -0.268 OA
BRANCH  23  26
ATOM     26  C   UNL A   1      45.325  26.411  30.510  1.00  0.00     0.041 A 
ATOM     27  C   UNL A   1      45.319  24.727  34.444  1.00  0.00     0.044 C 
ATOM     28  C   UNL A   1      45.098  25.391  33.113  1.00  0.00    -0.051 A 
ATOM     29  C   UNL A   1      44.619  24.675  32.014  1.00  0.00     0.005 A 
ATOM     30  C   UNL A   1      45.474  26.717  32.917  1.00  0.00     0.005 A 
ATOM     31  C   UNL A   1      44.716  25.182  30.715  1.00  0.00     0.026 A 
ATOM     32  C   UNL A   1      45.571  27.230  31.620  1.00  0.00     0.026 A 
ENDBRANCH  23  26
ENDBRANCH  21  22
ENDBRANCH  15  21
ENDBRANCH   9  14
BRANCH  11  33
ATOM     33  N   UNL A   1      41.395  21.458  26.228  1.00  0.00    -0.282 N 
ATOM     34  H   UNL A   1      42.200  22.005  26.084  1.00  0.00     0.180 HD
BRANCH  33  35
ATOM     35  S   UNL A   1      41.650  19.793  26.367  1.00  0.00     0.229 S 
ATOM     36  C   UNL A   1      43.241  19.555  25.575  1.00  0.00     0.183 C 
ATOM     37  O   UNL A   1      41.853  19.520  27.742  1.00  0.00    -0.207 OA
ATOM     38  O   UNL A   1      40.679  19.039  25.557  1.00  0.00    -0.207 OA
ENDBRANCH  33  35
ENDBRANCH  11  33
ENDBRANCH   6   8
ENDBRANCH   5   6
ENDBRANCH   4   5
ENDBRANCH   3   4
ENDBRANCH   2   3
ENDBRANCH   1   2
BRANCH   1  39
ATOM     39  C   UNL A   1      31.618  26.150  24.757  1.00  0.00     0.188 C 
BRANCH  39  40
ATOM     40  O   UNL A   1      32.201  27.440  24.702  1.00  0.00    -0.376 OA
BRANCH  40  41
ATOM     41  C   UNL A   1      33.463  27.638  25.334  1.00  0.00     0.202 C 
BRANCH  41  42
ATOM     42  C   UNL A   1      33.621  28.654  26.506  1.00  0.00     0.261 C 
BRANCH  42  43
ATOM     43  O   UNL A   1      34.802  28.495  27.323  1.00  0.00    -0.460 OA
BRANCH  43  44
ATOM     44  C   UNL A   1      35.457  29.609  27.817  1.00  0.00     0.338 C 
ATOM     45  O   UNL A   1      34.956  30.727  27.777  1.00  0.00    -0.246 OA
BRANCH  44  46
ATOM     46  C   UNL A   1      36.397  29.247  28.913  1.00  0.00     0.060 A 
ATOM     47  C   UNL A   1      36.290  29.432  30.276  1.00  0.00     0.016 A 
ATOM     48  C   UNL A   1      37.540  28.640  28.523  1.00  0.00     0.016 A 
ATOM     49  C   UNL A   1      37.433  29.354  31.157  1.00  0.00     0.010 A 
ATOM     50  C   UNL A   1      38.660  28.723  29.381  1.00  0.00     0.010 A 
ATOM     51  C   UNL A   1      38.751  29.219  30.709  1.00  0.00    -0.014 A 
BRANCH  51  52
ATOM     52  C   UNL A   1      40.071  29.796  31.619  1.00  0.00     0.031 A 
ATOM     53  C   UNL A   1      40.989  29.198  32.858  1.00  0.00     0.074 A 
ATOM     54  C   UNL A   1      40.368  31.094  31.400  1.00  0.00     0.049 A 
ATOM     55  N   UNL A   1      40.805  29.374  34.150  1.00  0.00    -0.248 NA
ATOM     56  C   UNL A   1      42.106  28.230  32.723  1.00  0.00     0.031 C 
ATOM     57  C   UNL A   1      41.297  31.937  32.135  1.00  0.00     0.029 A 
ATOM     58  N   UNL A   1      39.647  31.986  30.629  1.00  0.00    -0.354 N 
ATOM     59  C   UNL A   1      41.618  28.436  34.832  1.00  0.00     0.074 A 
ATOM     60  C   UNL A   1      42.072  27.507  33.847  1.00  0.00     0.031 C 
ATOM     61  C   UNL A   1      40.854  33.205  32.038  1.00  0.00     0.029 A 
ATOM     62  C   UNL A   1      39.610  33.212  31.275  1.00  0.00     0.049 A 
ATOM     63  H   UNL A   1      39.227  31.783  29.762  1.00  0.00     0.167 HD
ATOM     64  C   UNL A   1      42.295  28.659  36.005  1.00  0.00     0.037 A 
ATOM     65  C   UNL A   1      38.398  33.669  31.716  1.00  0.00     0.037 A 
ATOM     66  C   UNL A   1      42.171  30.072  36.282  1.00  0.00     0.049 A 
ATOM     67  C   UNL A   1      38.285  33.551  33.244  1.00  0.00     0.074 A 
ATOM     68  C   UNL A   1      42.903  31.142  35.789  1.00  0.00     0.029 A 
ATOM     69  N   UNL A   1      40.913  30.559  36.588  1.00  0.00    -0.354 N 
ATOM     70  N   UNL A   1      39.130  32.898  34.013  1.00  0.00    -0.248 NA
ATOM     71  C   UNL A   1      37.270  34.241  34.033  1.00  0.00     0.031 C 
ATOM     72  C   UNL A   1      42.002  32.235  35.625  1.00  0.00     0.029 A 
ATOM     73  C   UNL A   1      40.766  31.858  36.121  1.00  0.00     0.049 A 
ATOM     74  H   UNL A   1      40.219  30.055  37.069  1.00  0.00     0.167 HD
ATOM     75  C   UNL A   1      38.813  33.082  35.344  1.00  0.00     0.074 A 
ATOM     76  C   UNL A   1      37.655  33.957  35.291  1.00  0.00     0.031 C 
ATOM     77  C   UNL A   1      39.512  32.546  36.399  1.00  0.00     0.037 A 
BRANCH  64  78
ATOM     78  C   UNL A   1      43.411  27.706  36.487  1.00  0.00     0.058 A 
ATOM     79  C   UNL A   1      43.145  26.514  37.189  1.00  0.00     0.135 A 
ATOM     80  C   UNL A   1      44.793  28.009  36.362  1.00  0.00     0.135 A 
ATOM     81  F   UNL A   1      41.892  26.055  37.311  1.00  0.00    -0.206 F 
ATOM     82  C   UNL A   1      44.148  25.759  37.830  1.00  0.00     0.059 A 
ATOM     83  C   UNL A   1      45.807  27.303  37.037  1.00  0.00     0.059 A 
ATOM     84  F   UNL A   1      45.191  29.059  35.623  1.00  0.00    -0.206 F 
ATOM     85  C   UNL A   1      45.474  26.180  37.783  1.00  0.00     0.060 A 
BRANCH  85  86
ATOM     86  S   UNL A   1      46.733  25.279  38.730  1.00  0.00     0.124 S 
ATOM     87  O   UNL A   1      47.864  26.203  38.724  1.00  0.00    -0.237 OA
ATOM     88  O   UNL A   1      46.074  25.095  40.018  1.00  0.00    -0.237 OA
ATOM     89  O   UNL A   1      46.937  24.060  37.952  1.00  0.00    -0.744 OA
ENDBRANCH  85  86
ENDBRANCH  64  78
BRANCH  65  90
ATOM     90  C   UNL A   1      37.345  33.726  30.617  1.00  0.00     0.058 A 
ATOM     91  C   UNL A   1      36.118  33.069  30.902  1.00  0.00     0.135 A 
ATOM     92  C   UNL A   1      37.316  34.552  29.480  1.00  0.00     0.135 A 
ATOM     93  F   UNL A   1      36.060  32.171  31.900  1.00  0.00    -0.206 F 
ATOM     94  C   UNL A   1      34.908  33.386  30.286  1.00  0.00     0.059 A 
ATOM     95  C   UNL A   1      36.105  34.846  28.798  1.00  0.00     0.059 A 
ATOM     96  F   UNL A   1      38.415  35.213  29.091  1.00  0.00    -0.206 F 
ATOM     97  C   UNL A   1      34.893  34.327  29.271  1.00  0.00     0.060 A 
BRANCH  97  98
ATOM     98  S   UNL A   1      33.283  35.076  28.838  1.00  0.00     0.124 S 
ATOM     99  O   UNL A   1      33.677  36.358  28.274  1.00  0.00    -0.237 OA
ATOM    100  O   UNL A   1      32.732  34.102  27.897  1.00  0.00    -0.237 OA
ATOM    101  O   UNL A   1      32.591  35.125  30.120  1.00  0.00    -0.744 OA
ENDBRANCH  97  98
ENDBRANCH  65  90
BRANCH  77 102
ATOM    102  C   UNL A   1      39.136  32.595  37.879  1.00  0.00     0.058 A 
ATOM    103  C   UNL A   1      39.773  33.391  38.839  1.00  0.00     0.135 A 
ATOM    104  C   UNL A   1      37.936  31.962  38.319  1.00  0.00     0.135 A 
ATOM    105  F   UNL A   1      40.865  34.106  38.541  1.00  0.00    -0.206 F 
ATOM    106  C   UNL A   1      39.282  33.521  40.143  1.00  0.00     0.059 A 
ATOM    107  C   UNL A   1      37.376  32.164  39.574  1.00  0.00     0.059 A 
ATOM    108  F   UNL A   1      37.239  31.133  37.524  1.00  0.00    -0.206 F 
ATOM    109  C   UNL A   1      38.076  32.919  40.496  1.00  0.00     0.060 A 
BRANCH 109 110
ATOM    110  S   UNL A   1      37.395  33.113  42.150  1.00  0.00     0.124 S 
ATOM    111  O   UNL A   1      38.554  32.790  42.978  1.00  0.00    -0.237 OA
ATOM    112  O   UNL A   1      36.975  34.510  42.175  1.00  0.00    -0.237 OA
ATOM    113  O   UNL A   1      36.309  32.138  42.176  1.00  0.00    -0.744 OA
ENDBRANCH 109 110
ENDBRANCH  77 102
ENDBRANCH  51  52
ENDBRANCH  44  46
ENDBRANCH  43  44
ENDBRANCH  42  43
ENDBRANCH  41  42
ENDBRANCH  40  41
ENDBRANCH  39  40
ENDBRANCH   1  39
TORSDOF 26
ENDMDL
MODEL 2
REMARK VINA RESULT:      -9.9      4.983     11.705
REMARK SMILES Cc1ccc(NC(=O)C[NH+]2CCN(c3ccc(C(=O)OCCOCCOCCOC(=O)c4ccc(-c5c6nc(c(-c7c(F)cc(S(=O)(=O)[O-])cc7F)c7ccc([nH]7)c(-c7c(F)cc(S(=O)(=O)[O-])cc7F)c7nc(c(-c8c(F)cc(S(=O)(=O)[O-])cc8F)c8ccc5[nH]8)C=C7)C=C6)cc4)cc3NS(C)(=O)=O)CC2)cc1
REMARK SMILES IDX 24 1 23 2 22 3 21 4 20 5 18 6 19 7 17 8 14 9 15 10 99 11
REMARK SMILES IDX 16 12 98 13 13 14 10 15 11 16 106 17 12 19 105 20 9 21 7 22
REMARK SMILES IDX 6 23 8 25 5 26 1 27 2 28 3 29 108 30 4 31 107 32 100 33
REMARK SMILES IDX 101 35 102 36 103 37 104 38 25 39 26 40 27 41 28 42 29 43
REMARK SMILES IDX 30 44 31 45 32 46 33 47 97 48 34 49 96 50 35 51 36 52 37 53
REMARK SMILES IDX 90 54 38 55 95 56 89 57 91 58 39 59 94 60 88 61 87 62 40 64
REMARK SMILES IDX 74 65 53 66 73 67 54 68 57 69 72 70 92 71 55 72 56 73 71 75
REMARK SMILES IDX 93 76 58 77 41 78 42 79 51 80 43 81 44 82 50 83 52 84 45 85
REMARK SMILES IDX 46 86 47 87 48 88 49 89 75 90 76 91 85 92 77 93 78 94 84 95
REMARK SMILES IDX 86 96 79 97 80 98 81 99 82 100 83 101 59 102 60 103 69 104
REMARK SMILES IDX 61 105 62 106 68 107 70 108 63 109 64 110 65 111 66 112
REMARK SMILES IDX 67 113
REMARK H PARENT 10 18 6 24 100 34 91 63 57 74
REMARK Flexibility Score: inf
ROOT
ATOM      1  C   UNL A   1      43.673  19.522  24.924  1.00  0.00     0.188 C 
ENDROOT
BRANCH   1   2
ATOM      2  O   UNL A   1      42.803  18.528  25.461  1.00  0.00    -0.376 OA
BRANCH   2   3
ATOM      3  C   UNL A   1      42.568  18.860  26.865  1.00  0.00     0.202 C 
BRANCH   3   4
ATOM      4  C   UNL A   1      41.130  19.590  27.060  1.00  0.00     0.261 C 
BRANCH   4   5
ATOM      5  O   UNL A   1      40.410  20.788  26.261  1.00  0.00    -0.460 OA
BRANCH   5   6
ATOM      6  C   UNL A   1      39.933  22.080  26.367  1.00  0.00     0.338 C 
ATOM      7  O   UNL A   1      40.455  23.171  26.464  1.00  0.00    -0.246 OA
BRANCH   6   8
ATOM      8  C   UNL A   1      38.529  22.375  26.163  1.00  0.00     0.062 A 
ATOM      9  C   UNL A   1      36.110  23.026  25.114  1.00  0.00     0.062 A 
ATOM     10  C   UNL A   1      37.008  24.024  25.591  1.00  0.00     0.029 A 
ATOM     11  C   UNL A   1      36.434  21.650  25.081  1.00  0.00     0.073 A 
ATOM     12  C   UNL A   1      38.222  23.706  26.130  1.00  0.00     0.018 A 
ATOM     13  C   UNL A   1      37.654  21.336  25.643  1.00  0.00     0.044 A 
BRANCH   9  14
ATOM     14  N   UNL A   1      34.822  23.484  24.766  1.00  0.00    -0.359 N 
ATOM     15  N   UNL A   1      33.081  25.573  23.778  1.00  0.00    -0.324 N 
ATOM     16  C   UNL A   1      33.765  25.790  25.064  1.00  0.00     0.284 C 
ATOM     17  C   UNL A   1      34.097  24.973  22.877  1.00  0.00     0.284 C 
ATOM     18  H   UNL A   1      32.714  26.455  23.421  1.00  0.00     0.348 HD
ATOM     19  C   UNL A   1      34.431  24.564  25.697  1.00  0.00     0.178 C 
ATOM     20  C   UNL A   1      34.609  23.586  23.312  1.00  0.00     0.178 C 
BRANCH  15  21
ATOM     21  C   UNL A   1      31.912  24.659  23.906  1.00  0.00     0.364 C 
BRANCH  21  22
ATOM     22  C   UNL A   1      31.019  24.993  25.110  1.00  0.00     0.279 C 
ATOM     23  N   UNL A   1      30.318  26.166  25.229  1.00  0.00    -0.321 N 
ATOM     24  H   UNL A   1      29.785  26.230  26.054  1.00  0.00     0.170 HD
ATOM     25  O   UNL A   1      30.842  24.155  26.006  1.00  0.00    -0.268 OA
BRANCH  23  26
ATOM     26  C   UNL A   1      30.215  27.292  24.400  1.00  0.00     0.041 A 
ATOM     27  C   UNL A   1      29.028  31.153  22.987  1.00  0.00     0.044 C 
ATOM     28  C   UNL A   1      29.610  29.805  23.309  1.00  0.00    -0.051 A 
ATOM     29  C   UNL A   1      29.082  28.635  22.761  1.00  0.00     0.005 A 
ATOM     30  C   UNL A   1      30.624  29.685  24.256  1.00  0.00     0.005 A 
ATOM     31  C   UNL A   1      29.390  27.377  23.289  1.00  0.00     0.026 A 
ATOM     32  C   UNL A   1      30.937  28.429  24.787  1.00  0.00     0.026 A 
ENDBRANCH  23  26
ENDBRANCH  21  22
ENDBRANCH  15  21
ENDBRANCH   9  14
BRANCH  11  33
ATOM     33  N   UNL A   1      35.411  20.716  24.626  1.00  0.00    -0.282 N 
ATOM     34  H   UNL A   1      35.641  20.182  23.832  1.00  0.00     0.180 HD
BRANCH  33  35
ATOM     35  S   UNL A   1      33.881  20.436  25.285  1.00  0.00     0.229 S 
ATOM     36  C   UNL A   1      33.706  18.655  25.169  1.00  0.00     0.183 C 
ATOM     37  O   UNL A   1      33.968  20.730  26.668  1.00  0.00    -0.207 OA
ATOM     38  O   UNL A   1      32.824  21.002  24.432  1.00  0.00    -0.207 OA
ENDBRANCH  33  35
ENDBRANCH  11  33
ENDBRANCH   6   8
ENDBRANCH   5   6
ENDBRANCH   4   5
ENDBRANCH   3   4
ENDBRANCH   2   3
ENDBRANCH   1   2
BRANCH   1  39
ATOM     39  C   UNL A   1      45.148  19.435  25.255  1.00  0.00     0.188 C 
BRANCH  39  40
ATOM     40  O   UNL A   1      45.865  20.641  25.449  1.00  0.00    -0.376 OA
BRANCH  40  41
ATOM     41  C   UNL A   1      45.489  21.780  24.680  1.00  0.00     0.202 C 
BRANCH  41  42
ATOM     42  C   UNL A   1      44.367  22.745  25.175  1.00  0.00     0.261 C 
BRANCH  42  43
ATOM     43  O   UNL A   1      44.775  23.748  26.131  1.00  0.00    -0.460 OA
BRANCH  43  44
ATOM     44  C   UNL A   1      44.952  25.058  25.725  1.00  0.00     0.338 C 
ATOM     45  O   UNL A   1      45.479  25.341  24.655  1.00  0.00    -0.246 OA
BRANCH  44  46
ATOM     46  C   UNL A   1      43.921  25.957  26.314  1.00  0.00     0.060 A 
ATOM     47  C   UNL A   1      43.637  27.280  26.049  1.00  0.00     0.016 A 
ATOM     48  C   UNL A   1      43.131  25.397  27.257  1.00  0.00     0.016 A 
ATOM     49  C   UNL A   1      42.856  28.096  26.950  1.00  0.00     0.010 A 
ATOM     50  C   UNL A   1      42.506  26.253  28.190  1.00  0.00     0.010 A 
ATOM     51  C   UNL A   1      42.434  27.672  28.215  1.00  0.00    -0.014 A 
BRANCH  51  52
ATOM     52  C   UNL A   1      42.149  28.775  29.482  1.00  0.00     0.031 A 
ATOM     53  C   UNL A   1      40.932  29.827  29.866  1.00  0.00     0.074 A 
ATOM     54  C   UNL A   1      43.205  28.960  30.301  1.00  0.00     0.049 A 
ATOM     55  N   UNL A   1      40.848  31.103  29.552  1.00  0.00    -0.248 NA
ATOM     56  C   UNL A   1      39.646  29.469  30.513  1.00  0.00     0.031 C 
ATOM     57  C   UNL A   1      43.361  29.955  31.350  1.00  0.00     0.029 A 
ATOM     58  N   UNL A   1      44.478  28.451  30.133  1.00  0.00    -0.354 N 
ATOM     59  C   UNL A   1      39.516  31.519  29.800  1.00  0.00     0.074 A 
ATOM     60  C   UNL A   1      38.755  30.329  30.007  1.00  0.00     0.031 C 
ATOM     61  C   UNL A   1      44.677  30.213  31.468  1.00  0.00     0.029 A 
ATOM     62  C   UNL A   1      45.403  29.425  30.477  1.00  0.00     0.049 A 
ATOM     63  H   UNL A   1      44.694  27.543  29.819  1.00  0.00     0.167 HD
ATOM     64  C   UNL A   1      39.133  32.737  30.302  1.00  0.00     0.037 A 
ATOM     65  C   UNL A   1      46.210  29.921  29.490  1.00  0.00     0.037 A 
ATOM     66  C   UNL A   1      40.347  33.410  30.703  1.00  0.00     0.049 A 
ATOM     67  C   UNL A   1      45.781  31.340  29.084  1.00  0.00     0.074 A 
ATOM     68  C   UNL A   1      41.087  33.289  31.871  1.00  0.00     0.029 A 
ATOM     69  N   UNL A   1      41.234  33.784  29.710  1.00  0.00    -0.354 N 
ATOM     70  N   UNL A   1      44.663  31.924  29.459  1.00  0.00    -0.248 NA
ATOM     71  C   UNL A   1      46.622  32.246  28.308  1.00  0.00     0.031 C 
ATOM     72  C   UNL A   1      42.463  33.409  31.519  1.00  0.00     0.029 A 
ATOM     73  C   UNL A   1      42.542  33.712  30.169  1.00  0.00     0.049 A 
ATOM     74  H   UNL A   1      40.974  34.061  28.802  1.00  0.00     0.167 HD
ATOM     75  C   UNL A   1      44.632  33.233  29.022  1.00  0.00     0.074 A 
ATOM     76  C   UNL A   1      45.901  33.382  28.332  1.00  0.00     0.031 C 
ATOM     77  C   UNL A   1      43.608  34.117  29.264  1.00  0.00     0.037 A 
BRANCH  64  78
ATOM     78  C   UNL A   1      37.708  32.972  30.851  1.00  0.00     0.058 A 
ATOM     79  C   UNL A   1      36.640  33.405  30.040  1.00  0.00     0.135 A 
ATOM     80  C   UNL A   1      37.388  32.883  32.232  1.00  0.00     0.135 A 
ATOM     81  F   UNL A   1      36.769  33.455  28.707  1.00  0.00    -0.206 F 
ATOM     82  C   UNL A   1      35.407  33.841  30.562  1.00  0.00     0.059 A 
ATOM     83  C   UNL A   1      36.184  33.363  32.783  1.00  0.00     0.059 A 
ATOM     84  F   UNL A   1      38.281  32.381  33.102  1.00  0.00    -0.206 F 
ATOM     85  C   UNL A   1      35.197  33.855  31.938  1.00  0.00     0.060 A 
BRANCH  85  86
ATOM     86  S   UNL A   1      33.659  34.551  32.603  1.00  0.00     0.124 S 
ATOM     87  O   UNL A   1      32.980  35.035  31.404  1.00  0.00    -0.237 OA
ATOM     88  O   UNL A   1      33.053  33.393  33.249  1.00  0.00    -0.237 OA
ATOM     89  O   UNL A   1      34.123  35.601  33.507  1.00  0.00    -0.744 OA
ENDBRANCH  85  86
ENDBRANCH  64  78
BRANCH  65  90
ATOM     90  C   UNL A   1      46.980  28.837  28.747  1.00  0.00     0.058 A 
ATOM     91  C   UNL A   1      46.788  28.797  27.339  1.00  0.00     0.135 A 
ATOM     92  C   UNL A   1      48.045  28.048  29.214  1.00  0.00     0.135 A 
ATOM     93  F   UNL A   1      45.733  29.425  26.793  1.00  0.00    -0.206 F 
ATOM     94  C   UNL A   1      47.706  28.243  26.447  1.00  0.00     0.059 A 
ATOM     95  C   UNL A   1      48.962  27.425  28.326  1.00  0.00     0.059 A 
ATOM     96  F   UNL A   1      48.319  27.983  30.524  1.00  0.00    -0.206 F 
ATOM     97  C   UNL A   1      48.831  27.609  26.944  1.00  0.00     0.060 A 
BRANCH  97  98
ATOM     98  S   UNL A   1      50.228  27.347  25.794  1.00  0.00     0.124 S 
ATOM     99  O   UNL A   1      51.344  27.133  26.703  1.00  0.00    -0.237 OA
ATOM    100  O   UNL A   1      49.786  26.178  25.033  1.00  0.00    -0.237 OA
ATOM    101  O   UNL A   1      50.254  28.584  25.025  1.00  0.00    -0.744 OA
ENDBRANCH  97  98
ENDBRANCH  65  90
BRANCH  77 102
ATOM    102  C   UNL A   1      43.449  35.527  28.695  1.00  0.00     0.058 A 
ATOM    103  C   UNL A   1      42.926  35.824  27.430  1.00  0.00     0.135 A 
ATOM    104  C   UNL A   1      43.641  36.653  29.549  1.00  0.00     0.135 A 
ATOM    105  F   UNL A   1      42.622  34.856  26.555  1.00  0.00    -0.206 F 
ATOM    106  C   UNL A   1      42.651  37.135  27.027  1.00  0.00     0.059 A 
ATOM    107  C   UNL A   1      43.274  37.948  29.206  1.00  0.00     0.059 A 
ATOM    108  F   UNL A   1      44.176  36.530  30.775  1.00  0.00    -0.206 F 
ATOM    109  C   UNL A   1      42.811  38.187  27.926  1.00  0.00     0.060 A 
BRANCH 109 110
ATOM    110  S   UNL A   1      42.415  39.877  27.452  1.00  0.00     0.124 S 
ATOM    111  O   UNL A   1      41.160  40.090  28.167  1.00  0.00    -0.237 OA
ATOM    112  O   UNL A   1      43.557  40.638  27.946  1.00  0.00    -0.237 OA
ATOM    113  O   UNL A   1      42.308  39.795  25.998  1.00  0.00    -0.744 OA
ENDBRANCH 109 110
ENDBRANCH  77 102
ENDBRANCH  51  52
ENDBRANCH  44  46
ENDBRANCH  43  44
ENDBRANCH  42  43
ENDBRANCH  41  42
ENDBRANCH  40  41
ENDBRANCH  39  40
ENDBRANCH   1  39
TORSDOF 26
ENDMDL
MODEL 3
REMARK VINA RESULT:      -9.3      1.190      2.066
REMARK SMILES Cc1ccc(NC(=O)C[NH+]2CCN(c3ccc(C(=O)OCCOCCOCCOC(=O)c4ccc(-c5c6nc(c(-c7c(F)cc(S(=O)(=O)[O-])cc7F)c7ccc([nH]7)c(-c7c(F)cc(S(=O)(=O)[O-])cc7F)c7nc(c(-c8c(F)cc(S(=O)(=O)[O-])cc8F)c8ccc5[nH]8)C=C7)C=C6)cc4)cc3NS(C)(=O)=O)CC2)cc1
REMARK SMILES IDX 24 1 23 2 22 3 21 4 20 5 18 6 19 7 17 8 14 9 15 10 99 11
REMARK SMILES IDX 16 12 98 13 13 14 10 15 11 16 106 17 12 19 105 20 9 21 7 22
REMARK SMILES IDX 6 23 8 25 5 26 1 27 2 28 3 29 108 30 4 31 107 32 100 33
REMARK SMILES IDX 101 35 102 36 103 37 104 38 25 39 26 40 27 41 28 42 29 43
REMARK SMILES IDX 30 44 31 45 32 46 33 47 97 48 34 49 96 50 35 51 36 52 37 53
REMARK SMILES IDX 90 54 38 55 95 56 89 57 91 58 39 59 94 60 88 61 87 62 40 64
REMARK SMILES IDX 74 65 53 66 73 67 54 68 57 69 72 70 92 71 55 72 56 73 71 75
REMARK SMILES IDX 93 76 58 77 41 78 42 79 51 80 43 81 44 82 50 83 52 84 45 85
REMARK SMILES IDX 46 86 47 87 48 88 49 89 75 90 76 91 85 92 77 93 78 94 84 95
REMARK SMILES IDX 86 96 79 97 80 98 81 99 82 100 83 101 59 102 60 103 69 104
REMARK SMILES IDX 61 105 62 106 68 107 70 108 63 109 64 110 65 111 66 112
REMARK SMILES IDX 67 113
REMARK H PARENT 10 18 6 24 100 34 91 63 57 74
REMARK Flexibility Score: inf
ROOT
ATOM      1  C   UNL A   1      31.454  25.508  26.161  1.00  0.00     0.188 C 
ENDROOT
BRANCH   1   2
ATOM      2  O   UNL A   1      31.868  24.169  26.425  1.00  0.00    -0.376 OA
BRANCH   2   3
ATOM      3  C   UNL A   1      32.437  23.632  25.189  1.00  0.00     0.202 C 
BRANCH   3   4
ATOM      4  C   UNL A   1      34.033  23.375  25.346  1.00  0.00     0.261 C 
BRANCH   4   5
ATOM      5  O   UNL A   1      34.887  22.048  25.665  1.00  0.00    -0.460 OA
BRANCH   5   6
ATOM      6  C   UNL A   1      36.124  21.448  25.526  1.00  0.00     0.338 C 
ATOM      7  O   UNL A   1      36.499  20.358  25.148  1.00  0.00    -0.246 OA
BRANCH   6   8
ATOM      8  C   UNL A   1      37.344  22.217  25.663  1.00  0.00     0.062 A 
ATOM      9  C   UNL A   1      39.590  23.433  26.590  1.00  0.00     0.062 A 
ATOM     10  C   UNL A   1      38.313  24.061  26.674  1.00  0.00     0.029 A 
ATOM     11  C   UNL A   1      39.772  22.120  26.096  1.00  0.00     0.073 A 
ATOM     12  C   UNL A   1      37.180  23.462  26.201  1.00  0.00     0.018 A 
ATOM     13  C   UNL A   1      38.625  21.530  25.605  1.00  0.00     0.044 A 
BRANCH   9  14
ATOM     14  N   UNL A   1      40.690  24.243  26.938  1.00  0.00    -0.359 N 
ATOM     15  N   UNL A   1      42.266  26.639  26.552  1.00  0.00    -0.324 N 
ATOM     16  C   UNL A   1      42.221  25.655  25.458  1.00  0.00     0.284 C 
ATOM     17  C   UNL A   1      40.874  26.746  27.057  1.00  0.00     0.284 C 
ATOM     18  H   UNL A   1      42.628  27.529  26.211  1.00  0.00     0.348 HD
ATOM     19  C   UNL A   1      41.635  24.281  25.800  1.00  0.00     0.178 C 
ATOM     20  C   UNL A   1      40.313  25.456  27.684  1.00  0.00     0.178 C 
BRANCH  15  21
ATOM     21  C   UNL A   1      43.175  26.218  27.655  1.00  0.00     0.364 C 
BRANCH  21  22
ATOM     22  C   UNL A   1      44.624  26.685  27.446  1.00  0.00     0.279 C 
ATOM     23  N   UNL A   1      45.022  27.991  27.566  1.00  0.00    -0.321 N 
ATOM     24  H   UNL A   1      45.985  28.131  27.410  1.00  0.00     0.170 HD
ATOM     25  O   UNL A   1      45.520  25.856  27.227  1.00  0.00    -0.268 OA
BRANCH  23  26
ATOM     26  C   UNL A   1      44.322  29.168  27.868  1.00  0.00     0.041 A 
ATOM     27  C   UNL A   1      43.483  33.065  29.423  1.00  0.00     0.044 C 
ATOM     28  C   UNL A   1      43.575  31.724  28.751  1.00  0.00    -0.051 A 
ATOM     29  C   UNL A   1      43.056  30.574  29.350  1.00  0.00     0.005 A 
ATOM     30  C   UNL A   1      44.282  31.579  27.561  1.00  0.00     0.005 A 
ATOM     31  C   UNL A   1      43.413  29.296  28.907  1.00  0.00     0.026 A 
ATOM     32  C   UNL A   1      44.640  30.304  27.112  1.00  0.00     0.026 A 
ENDBRANCH  23  26
ENDBRANCH  21  22
ENDBRANCH  15  21
ENDBRANCH   9  14
BRANCH  11  33
ATOM     33  N   UNL A   1      41.133  21.606  26.003  1.00  0.00    -0.282 N 
ATOM     34  H   UNL A   1      41.824  22.264  25.761  1.00  0.00     0.180 HD
BRANCH  33  35
ATOM     35  S   UNL A   1      41.675  20.026  26.255  1.00  0.00     0.229 S 
ATOM     36  C   UNL A   1      41.367  19.761  28.002  1.00  0.00     0.183 C 
ATOM     37  O   UNL A   1      40.782  19.168  25.567  1.00  0.00    -0.207 OA
ATOM     38  O   UNL A   1      43.134  19.933  26.084  1.00  0.00    -0.207 OA
ENDBRANCH  33  35
ENDBRANCH  11  33
ENDBRANCH   6   8
ENDBRANCH   5   6
ENDBRANCH   4   5
ENDBRANCH   3   4
ENDBRANCH   2   3
ENDBRANCH   1   2
BRANCH   1  39
ATOM     39  C   UNL A   1      31.681  26.065  24.771  1.00  0.00     0.188 C 
BRANCH  39  40
ATOM     40  O   UNL A   1      32.710  27.022  24.591  1.00  0.00    -0.376 OA
BRANCH  40  41
ATOM     41  C   UNL A   1      33.657  27.200  25.641  1.00  0.00     0.202 C 
BRANCH  41  42
ATOM     42  C   UNL A   1      33.935  28.615  26.237  1.00  0.00     0.261 C 
BRANCH  42  43
ATOM     43  O   UNL A   1      34.639  28.639  27.498  1.00  0.00    -0.460 OA
BRANCH  43  44
ATOM     44  C   UNL A   1      35.511  29.674  27.784  1.00  0.00     0.338 C 
ATOM     45  O   UNL A   1      35.208  30.848  27.604  1.00  0.00    -0.246 OA
BRANCH  44  46
ATOM     46  C   UNL A   1      36.461  29.304  28.869  1.00  0.00     0.060 A 
ATOM     47  C   UNL A   1      36.340  29.424  30.238  1.00  0.00     0.016 A 
ATOM     48  C   UNL A   1      37.630  28.763  28.460  1.00  0.00     0.016 A 
ATOM     49  C   UNL A   1      37.481  29.354  31.122  1.00  0.00     0.010 A 
ATOM     50  C   UNL A   1      38.741  28.854  29.328  1.00  0.00     0.010 A 
ATOM     51  C   UNL A   1      38.806  29.294  30.677  1.00  0.00    -0.014 A 
BRANCH  51  52
ATOM     52  C   UNL A   1      40.097  29.885  31.620  1.00  0.00     0.031 A 
ATOM     53  C   UNL A   1      41.012  29.282  32.859  1.00  0.00     0.074 A 
ATOM     54  C   UNL A   1      40.362  31.194  31.434  1.00  0.00     0.049 A 
ATOM     55  N   UNL A   1      40.803  29.424  34.151  1.00  0.00    -0.248 NA
ATOM     56  C   UNL A   1      42.156  28.347  32.719  1.00  0.00     0.031 C 
ATOM     57  C   UNL A   1      41.257  32.044  32.203  1.00  0.00     0.029 A 
ATOM     58  N   UNL A   1      39.629  32.084  30.673  1.00  0.00    -0.354 N 
ATOM     59  C   UNL A   1      41.631  28.492  34.825  1.00  0.00     0.074 A 
ATOM     60  C   UNL A   1      42.124  27.598  33.827  1.00  0.00     0.031 C 
ATOM     61  C   UNL A   1      40.782  33.302  32.128  1.00  0.00     0.029 A 
ATOM     62  C   UNL A   1      39.550  33.294  31.346  1.00  0.00     0.049 A 
ATOM     63  H   UNL A   1      39.227  31.890  29.795  1.00  0.00     0.167 HD
ATOM     64  C   UNL A   1      42.285  28.706  36.012  1.00  0.00     0.037 A 
ATOM     65  C   UNL A   1      38.320  33.709  31.778  1.00  0.00     0.037 A 
ATOM     66  C   UNL A   1      42.119  30.108  36.320  1.00  0.00     0.049 A 
ATOM     67  C   UNL A   1      38.187  33.553  33.302  1.00  0.00     0.074 A 
ATOM     68  C   UNL A   1      42.830  31.208  35.862  1.00  0.00     0.029 A 
ATOM     69  N   UNL A   1      40.845  30.555  36.617  1.00  0.00    -0.354 N 
ATOM     70  N   UNL A   1      39.038  32.905  34.068  1.00  0.00    -0.248 NA
ATOM     71  C   UNL A   1      37.143  34.198  34.090  1.00  0.00     0.031 C 
ATOM     72  C   UNL A   1      41.903  32.281  35.709  1.00  0.00     0.029 A 
ATOM     73  C   UNL A   1      40.669  31.860  36.177  1.00  0.00     0.049 A 
ATOM     74  H   UNL A   1      40.156  30.022  37.076  1.00  0.00     0.167 HD
ATOM     75  C   UNL A   1      38.697  33.050  35.398  1.00  0.00     0.074 A 
ATOM     76  C   UNL A   1      37.517  33.895  35.347  1.00  0.00     0.031 C 
ATOM     77  C   UNL A   1      39.394  32.508  36.451  1.00  0.00     0.037 A 
BRANCH  64  78
ATOM     78  C   UNL A   1      43.418  27.772  36.490  1.00  0.00     0.058 A 
ATOM     79  C   UNL A   1      44.770  27.976  36.150  1.00  0.00     0.135 A 
ATOM     80  C   UNL A   1      43.177  26.572  37.212  1.00  0.00     0.135 A 
ATOM     81  F   UNL A   1      45.161  29.106  35.544  1.00  0.00    -0.206 F 
ATOM     82  C   UNL A   1      45.775  27.016  36.381  1.00  0.00     0.059 A 
ATOM     83  C   UNL A   1      44.152  25.574  37.407  1.00  0.00     0.059 A 
ATOM     84  F   UNL A   1      41.950  26.306  37.692  1.00  0.00    -0.206 F 
ATOM     85  C   UNL A   1      45.453  25.799  36.977  1.00  0.00     0.060 A 
BRANCH  85  86
ATOM     86  S   UNL A   1      46.728  24.517  37.140  1.00  0.00     0.124 S 
ATOM     87  O   UNL A   1      47.787  25.209  37.869  1.00  0.00    -0.237 OA
ATOM     88  O   UNL A   1      46.023  23.479  37.882  1.00  0.00    -0.237 OA
ATOM     89  O   UNL A   1      47.055  24.185  35.756  1.00  0.00    -0.744 OA
ENDBRANCH  85  86
ENDBRANCH  64  78
BRANCH  65  90
ATOM     90  C   UNL A   1      37.282  33.764  30.665  1.00  0.00     0.058 A 
ATOM     91  C   UNL A   1      36.055  33.099  30.931  1.00  0.00     0.135 A 
ATOM     92  C   UNL A   1      37.264  34.593  29.530  1.00  0.00     0.135 A 
ATOM     93  F   UNL A   1      35.987  32.198  31.925  1.00  0.00    -0.206 F 
ATOM     94  C   UNL A   1      34.852  33.411  30.298  1.00  0.00     0.059 A 
ATOM     95  C   UNL A   1      36.062  34.882  28.832  1.00  0.00     0.059 A 
ATOM     96  F   UNL A   1      38.365  35.261  29.158  1.00  0.00    -0.206 F 
ATOM     97  C   UNL A   1      34.846  34.355  29.286  1.00  0.00     0.060 A 
BRANCH  97  98
ATOM     98  S   UNL A   1      33.238  35.097  28.833  1.00  0.00     0.124 S 
ATOM     99  O   UNL A   1      33.631  36.394  28.304  1.00  0.00    -0.237 OA
ATOM    100  O   UNL A   1      32.718  34.137  27.860  1.00  0.00    -0.237 OA
ATOM    101  O   UNL A   1      32.518  35.112  30.100  1.00  0.00    -0.744 OA
ENDBRANCH  97  98
ENDBRANCH  65  90
BRANCH  77 102
ATOM    102  C   UNL A   1      38.995  32.514  37.926  1.00  0.00     0.058 A 
ATOM    103  C   UNL A   1      39.498  33.400  38.887  1.00  0.00     0.135 A 
ATOM    104  C   UNL A   1      37.892  31.718  38.357  1.00  0.00     0.135 A 
ATOM    105  F   UNL A   1      40.480  34.262  38.595  1.00  0.00    -0.206 F 
ATOM    106  C   UNL A   1      38.976  33.468  40.184  1.00  0.00     0.059 A 
ATOM    107  C   UNL A   1      37.293  31.847  39.603  1.00  0.00     0.059 A 
ATOM    108  F   UNL A   1      37.333  30.792  37.562  1.00  0.00    -0.206 F 
ATOM    109  C   UNL A   1      37.865  32.701  40.527  1.00  0.00     0.060 A 
BRANCH 109 110
ATOM    110  S   UNL A   1      37.141  32.807  42.171  1.00  0.00     0.124 S 
ATOM    111  O   UNL A   1      38.301  32.534  43.014  1.00  0.00    -0.237 OA
ATOM    112  O   UNL A   1      36.634  34.175  42.223  1.00  0.00    -0.237 OA
ATOM    113  O   UNL A   1      36.117  31.767  42.148  1.00  0.00    -0.744 OA
ENDBRANCH 109 110
ENDBRANCH  77 102
ENDBRANCH  51  52
ENDBRANCH  44  46
ENDBRANCH  43  44
ENDBRANCH  42  43
ENDBRANCH  41  42
ENDBRANCH  40  41
ENDBRANCH  39  40
ENDBRANCH   1  39
TORSDOF 26
ENDMDL
