MODEL 1
REMARK VINA RESULT:     -10.6      0.000      0.000
REMARK SMILES O=C(OCCOCCOCCOC(=O)c1ccccc1/C=C1\SC(=S)N(Cc2ccccc2)C1=O)c1ccc(-c2c3nc(c(-c4c(F)cc(S(=O)(=O)[O-])cc4F)c4ccc([nH]4)c(-c4c(F)cc(S(=O)(=O)[O-])cc4F)c4nc(c(-c5c(F)cc(S(=O)(=O)[O-])cc5F)c5ccc2[nH]5)C=C4)C=C3)cc1
REMARK SMILES IDX 7 1 6 2 5 3 4 4 3 5 2 6 1 7 36 8 37 9 101 10 38 11 100 12
REMARK SMILES IDX 39 13 40 14 41 15 94 16 42 17 99 18 93 19 95 20 43 21 98 22
REMARK SMILES IDX 92 23 91 24 44 26 78 27 57 28 77 29 58 30 61 31 76 32 96 33
REMARK SMILES IDX 59 34 60 35 75 37 97 38 62 39 45 40 46 41 55 42 47 43 48 44
REMARK SMILES IDX 54 45 56 46 49 47 50 48 51 49 52 50 53 51 79 52 80 53 89 54
REMARK SMILES IDX 81 55 82 56 88 57 90 58 83 59 84 60 85 61 86 62 87 63 63 64
REMARK SMILES IDX 64 65 73 66 65 67 66 68 72 69 74 70 67 71 68 72 69 73 70 74
REMARK SMILES IDX 71 75 8 76 9 77 10 78 11 79 12 80 13 81 14 82 15 83 16 84
REMARK SMILES IDX 20 85 17 86 19 87 18 88 21 89 22 90 23 91 34 92 24 93 26 94
REMARK SMILES IDX 35 95 25 96 27 97 28 98 29 99 33 100 30 101 32 102 31 103
REMARK H PARENT 95 25 61 36
REMARK Flexibility Score: inf
ROOT
ATOM      1  C   UNL A   1      34.595  33.165  28.392  1.00  0.00     0.188 C 
ENDROOT
BRANCH   1   2
ATOM      2  O   UNL A   1      33.971  33.704  29.553  1.00  0.00    -0.376 OA
BRANCH   2   3
ATOM      3  C   UNL A   1      34.449  33.162  30.790  1.00  0.00     0.202 C 
BRANCH   3   4
ATOM      4  C   UNL A   1      35.646  33.876  31.459  1.00  0.00     0.261 C 
BRANCH   4   5
ATOM      5  O   UNL A   1      36.893  33.153  31.433  1.00  0.00    -0.460 OA
BRANCH   5   6
ATOM      6  C   UNL A   1      37.160  31.855  31.723  1.00  0.00     0.338 C 
ATOM      7  O   UNL A   1      36.510  31.310  32.614  1.00  0.00    -0.246 OA
BRANCH   6   8
ATOM      8  C   UNL A   1      38.218  31.052  31.040  1.00  0.00     0.060 A 
ATOM      9  C   UNL A   1      39.164  30.271  31.698  1.00  0.00     0.016 A 
ATOM     10  C   UNL A   1      38.239  31.056  29.633  1.00  0.00     0.016 A 
ATOM     11  C   UNL A   1      40.177  29.626  31.018  1.00  0.00     0.010 A 
ATOM     12  C   UNL A   1      39.241  30.378  28.927  1.00  0.00     0.010 A 
ATOM     13  C   UNL A   1      40.251  29.719  29.635  1.00  0.00    -0.014 A 
BRANCH  13  14
ATOM     14  C   UNL A   1      41.538  29.340  29.027  1.00  0.00     0.031 A 
ATOM     15  C   UNL A   1      42.655  30.344  29.101  1.00  0.00     0.074 A 
ATOM     16  C   UNL A   1      41.746  28.068  28.645  1.00  0.00     0.049 A 
ATOM     17  N   UNL A   1      43.891  30.240  28.699  1.00  0.00    -0.248 NA
ATOM     18  C   UNL A   1      42.340  31.637  29.737  1.00  0.00     0.031 C 
ATOM     19  C   UNL A   1      40.746  26.996  28.701  1.00  0.00     0.029 A 
ATOM     20  N   UNL A   1      42.876  27.446  28.191  1.00  0.00    -0.354 N 
ATOM     21  C   UNL A   1      44.484  31.461  28.996  1.00  0.00     0.074 A 
ATOM     22  C   UNL A   1      43.479  32.296  29.605  1.00  0.00     0.031 C 
ATOM     23  C   UNL A   1      41.321  25.842  28.326  1.00  0.00     0.029 A 
ATOM     24  C   UNL A   1      42.702  26.107  27.937  1.00  0.00     0.049 A 
ATOM     25  H   UNL A   1      43.732  27.913  28.058  1.00  0.00     0.167 HD
ATOM     26  C   UNL A   1      45.761  31.847  28.771  1.00  0.00     0.037 A 
ATOM     27  C   UNL A   1      43.565  25.211  27.423  1.00  0.00     0.037 A 
ATOM     28  C   UNL A   1      46.740  30.979  28.176  1.00  0.00     0.049 A 
ATOM     29  C   UNL A   1      44.954  25.693  27.090  1.00  0.00     0.074 A 
ATOM     30  C   UNL A   1      48.049  31.256  27.835  1.00  0.00     0.029 A 
ATOM     31  N   UNL A   1      46.503  29.653  27.834  1.00  0.00    -0.354 N 
ATOM     32  N   UNL A   1      45.487  26.876  27.294  1.00  0.00    -0.248 NA
ATOM     33  C   UNL A   1      45.853  24.728  26.450  1.00  0.00     0.031 C 
ATOM     34  C   UNL A   1      48.587  30.113  27.235  1.00  0.00     0.029 A 
ATOM     35  C   UNL A   1      47.636  29.103  27.265  1.00  0.00     0.049 A 
ATOM     36  H   UNL A   1      45.654  29.175  27.976  1.00  0.00     0.167 HD
ATOM     37  C   UNL A   1      46.796  26.790  26.837  1.00  0.00     0.074 A 
ATOM     38  C   UNL A   1      46.973  25.432  26.356  1.00  0.00     0.031 C 
ATOM     39  C   UNL A   1      47.767  27.738  26.815  1.00  0.00     0.037 A 
BRANCH  26  40
ATOM     40  C   UNL A   1      46.119  33.273  29.084  1.00  0.00     0.058 A 
ATOM     41  C   UNL A   1      45.932  34.320  28.165  1.00  0.00     0.135 A 
ATOM     42  C   UNL A   1      46.702  33.589  30.322  1.00  0.00     0.135 A 
ATOM     43  F   UNL A   1      45.416  34.070  26.951  1.00  0.00    -0.206 F 
ATOM     44  C   UNL A   1      46.337  35.621  28.452  1.00  0.00     0.059 A 
ATOM     45  C   UNL A   1      47.087  34.886  30.641  1.00  0.00     0.059 A 
ATOM     46  F   UNL A   1      46.920  32.625  31.230  1.00  0.00    -0.206 F 
ATOM     47  C   UNL A   1      46.916  35.894  29.694  1.00  0.00     0.060 A 
BRANCH  47  48
ATOM     48  S   UNL A   1      47.448  37.582  30.050  1.00  0.00     0.124 S 
ATOM     49  O   UNL A   1      48.552  37.350  30.975  1.00  0.00    -0.237 OA
ATOM     50  O   UNL A   1      47.822  38.074  28.727  1.00  0.00    -0.237 OA
ATOM     51  O   UNL A   1      46.260  38.197  30.632  1.00  0.00    -0.744 OA
ENDBRANCH  47  48
ENDBRANCH  26  40
BRANCH  27  52
ATOM     52  C   UNL A   1      43.134  23.811  27.157  1.00  0.00     0.058 A 
ATOM     53  C   UNL A   1      42.947  23.336  25.851  1.00  0.00     0.135 A 
ATOM     54  C   UNL A   1      42.894  22.915  28.213  1.00  0.00     0.135 A 
ATOM     55  F   UNL A   1      43.156  24.149  24.804  1.00  0.00    -0.206 F 
ATOM     56  C   UNL A   1      42.522  22.034  25.601  1.00  0.00     0.059 A 
ATOM     57  C   UNL A   1      42.498  21.601  27.988  1.00  0.00     0.059 A 
ATOM     58  F   UNL A   1      43.069  23.309  29.484  1.00  0.00    -0.206 F 
ATOM     59  C   UNL A   1      42.301  21.173  26.677  1.00  0.00     0.060 A 
BRANCH  59  60
ATOM     60  S   UNL A   1      41.783  19.476  26.342  1.00  0.00     0.124 S 
ATOM     61  O   UNL A   1      42.478  19.199  25.091  1.00  0.00    -0.237 OA
ATOM     62  O   UNL A   1      42.276  18.769  27.520  1.00  0.00    -0.237 OA
ATOM     63  O   UNL A   1      40.330  19.583  26.246  1.00  0.00    -0.744 OA
ENDBRANCH  59  60
ENDBRANCH  27  52
BRANCH  39  64
ATOM     64  C   UNL A   1      49.116  27.317  26.307  1.00  0.00     0.058 A 
ATOM     65  C   UNL A   1      50.120  26.848  27.166  1.00  0.00     0.135 A 
ATOM     66  C   UNL A   1      49.383  27.341  24.928  1.00  0.00     0.135 A 
ATOM     67  F   UNL A   1      49.913  26.810  28.492  1.00  0.00    -0.206 F 
ATOM     68  C   UNL A   1      51.358  26.448  26.679  1.00  0.00     0.059 A 
ATOM     69  C   UNL A   1      50.600  26.913  24.416  1.00  0.00     0.059 A 
ATOM     70  F   UNL A   1      48.446  27.767  24.065  1.00  0.00    -0.206 F 
ATOM     71  C   UNL A   1      51.587  26.484  25.301  1.00  0.00     0.060 A 
BRANCH  71  72
ATOM     72  S   UNL A   1      53.191  25.942  24.678  1.00  0.00     0.124 S 
ATOM     73  O   UNL A   1      53.179  24.527  25.032  1.00  0.00    -0.237 OA
ATOM     74  O   UNL A   1      53.088  26.240  23.252  1.00  0.00    -0.237 OA
ATOM     75  O   UNL A   1      54.139  26.769  25.418  1.00  0.00    -0.744 OA
ENDBRANCH  71  72
ENDBRANCH  39  64
ENDBRANCH  13  14
ENDBRANCH   6   8
ENDBRANCH   5   6
ENDBRANCH   4   5
ENDBRANCH   3   4
ENDBRANCH   2   3
ENDBRANCH   1   2
BRANCH   1  76
ATOM     76  C   UNL A   1      34.616  31.646  28.266  1.00  0.00     0.188 C 
BRANCH  76  77
ATOM     77  O   UNL A   1      35.589  31.050  27.425  1.00  0.00    -0.376 OA
BRANCH  77  78
ATOM     78  C   UNL A   1      35.569  29.636  27.284  1.00  0.00     0.202 C 
BRANCH  78  79
ATOM     79  C   UNL A   1      34.248  28.916  26.980  1.00  0.00     0.261 C 
BRANCH  79  80
ATOM     80  O   UNL A   1      33.465  29.380  25.866  1.00  0.00    -0.460 OA
BRANCH  80  81
ATOM     81  C   UNL A   1      32.146  29.551  26.136  1.00  0.00     0.338 C 
ATOM     82  O   UNL A   1      31.671  29.978  27.178  1.00  0.00    -0.246 OA
BRANCH  81  83
ATOM     83  C   UNL A   1      31.281  29.133  25.015  1.00  0.00     0.067 A 
ATOM     84  C   UNL A   1      30.673  30.137  24.255  1.00  0.00     0.016 A 
ATOM     85  C   UNL A   1      30.928  27.781  24.830  1.00  0.00    -0.010 A 
ATOM     86  C   UNL A   1      29.695  29.801  23.321  1.00  0.00     0.001 A 
ATOM     87  C   UNL A   1      29.925  27.460  23.910  1.00  0.00     0.009 A 
ATOM     88  C   UNL A   1      29.304  28.470  23.169  1.00  0.00     0.001 A 
BRANCH  85  89
ATOM     89  C   UNL A   1      31.681  26.706  25.478  1.00  0.00     0.030 C 
ATOM     90  C   UNL A   1      32.327  25.710  24.861  1.00  0.00     0.081 C 
ATOM     91  S   UNL A   1      32.731  25.516  23.207  1.00  0.00    -0.054 SA
ATOM     92  C   UNL A   1      32.560  24.450  25.597  1.00  0.00     0.266 C 
ATOM     93  C   UNL A   1      33.021  23.791  23.393  1.00  0.00     0.148 C 
ATOM     94  N   UNL A   1      32.985  23.463  24.730  1.00  0.00    -0.288 N 
ATOM     95  O   UNL A   1      32.282  24.294  26.783  1.00  0.00    -0.268 OA
ATOM     96  S   UNL A   1      33.255  22.776  22.088  1.00  0.00    -0.052 S 
BRANCH  94  97
ATOM     97  C   UNL A   1      33.418  22.193  25.302  1.00  0.00     0.163 C 
BRANCH  97  98
ATOM     98  C   UNL A   1      34.922  22.087  25.170  1.00  0.00    -0.028 A 
ATOM     99  C   UNL A   1      35.744  23.190  25.432  1.00  0.00     0.005 A 
ATOM    100  C   UNL A   1      35.518  20.840  24.918  1.00  0.00     0.005 A 
ATOM    101  C   UNL A   1      37.130  23.037  25.469  1.00  0.00     0.000 A 
ATOM    102  C   UNL A   1      36.899  20.684  24.983  1.00  0.00     0.000 A 
ATOM    103  C   UNL A   1      37.705  21.783  25.260  1.00  0.00     0.000 A 
ENDBRANCH  97  98
ENDBRANCH  94  97
ENDBRANCH  85  89
ENDBRANCH  81  83
ENDBRANCH  80  81
ENDBRANCH  79  80
ENDBRANCH  78  79
ENDBRANCH  77  78
ENDBRANCH  76  77
ENDBRANCH   1  76
TORSDOF 23
ENDMDL
MODEL 2
REMARK VINA RESULT:     -10.6      5.656     12.055
REMARK SMILES O=C(OCCOCCOCCOC(=O)c1ccccc1/C=C1\SC(=S)N(Cc2ccccc2)C1=O)c1ccc(-c2c3nc(c(-c4c(F)cc(S(=O)(=O)[O-])cc4F)c4ccc([nH]4)c(-c4c(F)cc(S(=O)(=O)[O-])cc4F)c4nc(c(-c5c(F)cc(S(=O)(=O)[O-])cc5F)c5ccc2[nH]5)C=C4)C=C3)cc1
REMARK SMILES IDX 7 1 6 2 5 3 4 4 3 5 2 6 1 7 36 8 37 9 101 10 38 11 100 12
REMARK SMILES IDX 39 13 40 14 41 15 94 16 42 17 99 18 93 19 95 20 43 21 98 22
REMARK SMILES IDX 92 23 91 24 44 26 78 27 57 28 77 29 58 30 61 31 76 32 96 33
REMARK SMILES IDX 59 34 60 35 75 37 97 38 62 39 45 40 46 41 55 42 47 43 48 44
REMARK SMILES IDX 54 45 56 46 49 47 50 48 51 49 52 50 53 51 79 52 80 53 89 54
REMARK SMILES IDX 81 55 82 56 88 57 90 58 83 59 84 60 85 61 86 62 87 63 63 64
REMARK SMILES IDX 64 65 73 66 65 67 66 68 72 69 74 70 67 71 68 72 69 73 70 74
REMARK SMILES IDX 71 75 8 76 9 77 10 78 11 79 12 80 13 81 14 82 15 83 16 84
REMARK SMILES IDX 20 85 17 86 19 87 18 88 21 89 22 90 23 91 34 92 24 93 26 94
REMARK SMILES IDX 35 95 25 96 27 97 28 98 29 99 33 100 30 101 32 102 31 103
REMARK H PARENT 95 25 61 36
REMARK Flexibility Score: inf
ROOT
ATOM      1  C   UNL A   1      42.739  21.185  25.762  1.00  0.00     0.188 C 
ENDROOT
BRANCH   1   2
ATOM      2  O   UNL A   1      44.151  21.252  25.933  1.00  0.00    -0.376 OA
BRANCH   2   3
ATOM      3  C   UNL A   1      44.672  22.580  26.060  1.00  0.00     0.202 C 
BRANCH   3   4
ATOM      4  C   UNL A   1      44.053  23.481  27.154  1.00  0.00     0.261 C 
BRANCH   4   5
ATOM      5  O   UNL A   1      43.197  24.539  26.676  1.00  0.00    -0.460 OA
BRANCH   5   6
ATOM      6  C   UNL A   1      41.882  24.776  26.908  1.00  0.00     0.338 C 
ATOM      7  O   UNL A   1      41.054  24.041  26.372  1.00  0.00    -0.246 OA
BRANCH   6   8
ATOM      8  C   UNL A   1      41.375  25.895  27.757  1.00  0.00     0.060 A 
ATOM      9  C   UNL A   1      41.970  27.150  27.847  1.00  0.00     0.016 A 
ATOM     10  C   UNL A   1      40.195  25.678  28.491  1.00  0.00     0.016 A 
ATOM     11  C   UNL A   1      41.512  28.113  28.722  1.00  0.00     0.010 A 
ATOM     12  C   UNL A   1      39.696  26.659  29.358  1.00  0.00     0.010 A 
ATOM     13  C   UNL A   1      40.404  27.854  29.519  1.00  0.00    -0.014 A 
BRANCH  13  14
ATOM     14  C   UNL A   1      40.210  28.751  30.671  1.00  0.00     0.031 A 
ATOM     15  C   UNL A   1      41.215  28.666  31.784  1.00  0.00     0.074 A 
ATOM     16  C   UNL A   1      39.309  29.746  30.596  1.00  0.00     0.049 A 
ATOM     17  N   UNL A   1      41.307  29.376  32.875  1.00  0.00    -0.248 NA
ATOM     18  C   UNL A   1      42.281  27.656  31.638  1.00  0.00     0.031 C 
ATOM     19  C   UNL A   1      38.408  29.985  29.463  1.00  0.00     0.029 A 
ATOM     20  N   UNL A   1      39.043  30.775  31.456  1.00  0.00    -0.354 N 
ATOM     21  C   UNL A   1      42.408  28.873  33.557  1.00  0.00     0.074 A 
ATOM     22  C   UNL A   1      42.953  27.796  32.769  1.00  0.00     0.031 C 
ATOM     23  C   UNL A   1      37.711  31.110  29.689  1.00  0.00     0.029 A 
ATOM     24  C   UNL A   1      38.064  31.628  31.006  1.00  0.00     0.049 A 
ATOM     25  H   UNL A   1      39.507  30.892  32.317  1.00  0.00     0.167 HD
ATOM     26  C   UNL A   1      42.912  29.278  34.745  1.00  0.00     0.037 A 
ATOM     27  C   UNL A   1      37.507  32.692  31.615  1.00  0.00     0.037 A 
ATOM     28  C   UNL A   1      42.351  30.369  35.494  1.00  0.00     0.049 A 
ATOM     29  C   UNL A   1      38.022  33.063  32.981  1.00  0.00     0.074 A 
ATOM     30  C   UNL A   1      42.721  30.846  36.736  1.00  0.00     0.029 A 
ATOM     31  N   UNL A   1      41.290  31.152  35.057  1.00  0.00    -0.354 N 
ATOM     32  N   UNL A   1      39.010  32.529  33.663  1.00  0.00    -0.248 NA
ATOM     33  C   UNL A   1      37.345  34.169  33.666  1.00  0.00     0.031 C 
ATOM     34  C   UNL A   1      41.846  31.884  37.074  1.00  0.00     0.029 A 
ATOM     35  C   UNL A   1      40.976  32.098  36.014  1.00  0.00     0.049 A 
ATOM     36  H   UNL A   1      40.829  31.049  34.193  1.00  0.00     0.167 HD
ATOM     37  C   UNL A   1      39.096  33.254  34.844  1.00  0.00     0.074 A 
ATOM     38  C   UNL A   1      38.064  34.272  34.777  1.00  0.00     0.031 C 
ATOM     39  C   UNL A   1      39.945  33.102  35.892  1.00  0.00     0.037 A 
BRANCH  26  40
ATOM     40  C   UNL A   1      44.050  28.483  35.322  1.00  0.00     0.058 A 
ATOM     41  C   UNL A   1      45.393  28.739  35.000  1.00  0.00     0.135 A 
ATOM     42  C   UNL A   1      43.780  27.411  36.190  1.00  0.00     0.135 A 
ATOM     43  F   UNL A   1      45.708  29.725  34.145  1.00  0.00    -0.206 F 
ATOM     44  C   UNL A   1      46.424  27.943  35.494  1.00  0.00     0.059 A 
ATOM     45  C   UNL A   1      44.796  26.621  36.717  1.00  0.00     0.059 A 
ATOM     46  F   UNL A   1      42.514  27.111  36.517  1.00  0.00    -0.206 F 
ATOM     47  C   UNL A   1      46.115  26.884  36.350  1.00  0.00     0.060 A 
BRANCH  47  48
ATOM     48  S   UNL A   1      47.458  25.852  36.974  1.00  0.00     0.124 S 
ATOM     49  O   UNL A   1      47.354  24.684  36.107  1.00  0.00    -0.237 OA
ATOM     50  O   UNL A   1      48.627  26.700  36.757  1.00  0.00    -0.237 OA
ATOM     51  O   UNL A   1      47.098  25.632  38.371  1.00  0.00    -0.744 OA
ENDBRANCH  47  48
ENDBRANCH  26  40
BRANCH  27  52
ATOM     52  C   UNL A   1      36.392  33.436  30.966  1.00  0.00     0.058 A 
ATOM     53  C   UNL A   1      36.606  34.246  29.842  1.00  0.00     0.135 A 
ATOM     54  C   UNL A   1      35.081  33.355  31.467  1.00  0.00     0.135 A 
ATOM     55  F   UNL A   1      37.837  34.365  29.324  1.00  0.00    -0.206 F 
ATOM     56  C   UNL A   1      35.568  34.961  29.248  1.00  0.00     0.059 A 
ATOM     57  C   UNL A   1      34.023  34.036  30.874  1.00  0.00     0.059 A 
ATOM     58  F   UNL A   1      34.813  32.585  32.534  1.00  0.00    -0.206 F 
ATOM     59  C   UNL A   1      34.279  34.847  29.772  1.00  0.00     0.060 A 
BRANCH  59  60
ATOM     60  S   UNL A   1      32.934  35.751  28.975  1.00  0.00     0.124 S 
ATOM     61  O   UNL A   1      32.405  34.745  28.062  1.00  0.00    -0.237 OA
ATOM     62  O   UNL A   1      32.085  36.097  30.111  1.00  0.00    -0.237 OA
ATOM     63  O   UNL A   1      33.616  36.878  28.345  1.00  0.00    -0.744 OA
ENDBRANCH  59  60
ENDBRANCH  27  52
BRANCH  39  64
ATOM     64  C   UNL A   1      39.827  34.093  37.014  1.00  0.00     0.058 A 
ATOM     65  C   UNL A   1      40.463  35.341  36.972  1.00  0.00     0.135 A 
ATOM     66  C   UNL A   1      39.019  33.798  38.125  1.00  0.00     0.135 A 
ATOM     67  F   UNL A   1      41.248  35.667  35.933  1.00  0.00    -0.206 F 
ATOM     68  C   UNL A   1      40.331  36.254  38.012  1.00  0.00     0.059 A 
ATOM     69  C   UNL A   1      38.844  34.708  39.157  1.00  0.00     0.059 A 
ATOM     70  F   UNL A   1      38.376  32.621  38.201  1.00  0.00    -0.206 F 
ATOM     71  C   UNL A   1      39.517  35.927  39.100  1.00  0.00     0.060 A 
BRANCH  71  72
ATOM     72  S   UNL A   1      39.336  37.128  40.434  1.00  0.00     0.124 S 
ATOM     73  O   UNL A   1      38.654  36.335  41.450  1.00  0.00    -0.237 OA
ATOM     74  O   UNL A   1      40.723  37.479  40.726  1.00  0.00    -0.237 OA
ATOM     75  O   UNL A   1      38.542  38.191  39.826  1.00  0.00    -0.744 OA
ENDBRANCH  71  72
ENDBRANCH  39  64
ENDBRANCH  13  14
ENDBRANCH   6   8
ENDBRANCH   5   6
ENDBRANCH   4   5
ENDBRANCH   3   4
ENDBRANCH   2   3
ENDBRANCH   1   2
BRANCH   1  76
ATOM     76  C   UNL A   1      41.952  20.435  26.831  1.00  0.00     0.188 C 
BRANCH  76  77
ATOM     77  O   UNL A   1      40.619  20.837  27.097  1.00  0.00    -0.376 OA
BRANCH  77  78
ATOM     78  C   UNL A   1      39.636  20.575  26.105  1.00  0.00     0.202 C 
BRANCH  78  79
ATOM     79  C   UNL A   1      38.633  21.671  25.714  1.00  0.00     0.261 C 
BRANCH  79  80
ATOM     80  O   UNL A   1      37.232  21.345  25.735  1.00  0.00    -0.460 OA
BRANCH  80  81
ATOM     81  C   UNL A   1      36.551  21.714  24.620  1.00  0.00     0.338 C 
ATOM     82  O   UNL A   1      36.951  22.467  23.745  1.00  0.00    -0.246 OA
BRANCH  81  83
ATOM     83  C   UNL A   1      35.201  21.118  24.560  1.00  0.00     0.067 A 
ATOM     84  C   UNL A   1      35.075  19.766  24.894  1.00  0.00     0.016 A 
ATOM     85  C   UNL A   1      34.115  21.826  24.010  1.00  0.00    -0.010 A 
ATOM     86  C   UNL A   1      33.869  19.106  24.660  1.00  0.00     0.001 A 
ATOM     87  C   UNL A   1      32.919  21.145  23.755  1.00  0.00     0.009 A 
ATOM     88  C   UNL A   1      32.805  19.787  24.068  1.00  0.00     0.001 A 
BRANCH  85  89
ATOM     89  C   UNL A   1      34.168  23.277  23.830  1.00  0.00     0.030 C 
ATOM     90  C   UNL A   1      33.352  24.175  24.395  1.00  0.00     0.081 C 
ATOM     91  S   UNL A   1      32.226  23.990  25.674  1.00  0.00    -0.054 SA
ATOM     92  C   UNL A   1      33.166  25.483  23.732  1.00  0.00     0.266 C 
ATOM     93  C   UNL A   1      31.388  25.481  25.263  1.00  0.00     0.148 C 
ATOM     94  N   UNL A   1      32.102  26.157  24.298  1.00  0.00    -0.288 N 
ATOM     95  O   UNL A   1      33.794  25.837  22.738  1.00  0.00    -0.268 OA
ATOM     96  S   UNL A   1      29.934  25.912  25.960  1.00  0.00    -0.052 S 
BRANCH  94  97
ATOM     97  C   UNL A   1      31.868  27.534  23.879  1.00  0.00     0.163 C 
BRANCH  97  98
ATOM     98  C   UNL A   1      32.386  28.464  24.955  1.00  0.00    -0.028 A 
ATOM     99  C   UNL A   1      31.716  29.656  25.255  1.00  0.00     0.005 A 
ATOM    100  C   UNL A   1      33.468  28.072  25.760  1.00  0.00     0.005 A 
ATOM    101  C   UNL A   1      32.105  30.420  26.356  1.00  0.00     0.000 A 
ATOM    102  C   UNL A   1      33.837  28.821  26.873  1.00  0.00     0.000 A 
ATOM    103  C   UNL A   1      33.153  29.995  27.172  1.00  0.00     0.000 A 
ENDBRANCH  97  98
ENDBRANCH  94  97
ENDBRANCH  85  89
ENDBRANCH  81  83
ENDBRANCH  80  81
ENDBRANCH  79  80
ENDBRANCH  78  79
ENDBRANCH  77  78
ENDBRANCH  76  77
ENDBRANCH   1  76
TORSDOF 23
ENDMDL
MODEL 3
REMARK VINA RESULT:      -9.9      6.298      9.083
REMARK SMILES O=C(OCCOCCOCCOC(=O)c1ccccc1/C=C1\SC(=S)N(Cc2ccccc2)C1=O)c1ccc(-c2c3nc(c(-c4c(F)cc(S(=O)(=O)[O-])cc4F)c4ccc([nH]4)c(-c4c(F)cc(S(=O)(=O)[O-])cc4F)c4nc(c(-c5c(F)cc(S(=O)(=O)[O-])cc5F)c5ccc2[nH]5)C=C4)C=C3)cc1
REMARK SMILES IDX 7 1 6 2 5 3 4 4 3 5 2 6 1 7 36 8 37 9 101 10 38 11 100 12
REMARK SMILES IDX 39 13 40 14 41 15 94 16 42 17 99 18 93 19 95 20 43 21 98 22
REMARK SMILES IDX 92 23 91 24 44 26 78 27 57 28 77 29 58 30 61 31 76 32 96 33
REMARK SMILES IDX 59 34 60 35 75 37 97 38 62 39 45 40 46 41 55 42 47 43 48 44
REMARK SMILES IDX 54 45 56 46 49 47 50 48 51 49 52 50 53 51 79 52 80 53 89 54
REMARK SMILES IDX 81 55 82 56 88 57 90 58 83 59 84 60 85 61 86 62 87 63 63 64
REMARK SMILES IDX 64 65 73 66 65 67 66 68 72 69 74 70 67 71 68 72 69 73 70 74
REMARK SMILES IDX 71 75 8 76 9 77 10 78 11 79 12 80 13 81 14 82 15 83 16 84
REMARK SMILES IDX 20 85 17 86 19 87 18 88 21 89 22 90 23 91 34 92 24 93 26 94
REMARK SMILES IDX 35 95 25 96 27 97 28 98 29 99 33 100 30 101 32 102 31 103
REMARK H PARENT 95 25 61 36
REMARK Flexibility Score: inf
ROOT
ATOM      1  C   UNL A   1      36.909  32.973  28.680  1.00  0.00     0.188 C 
ENDROOT
BRANCH   1   2
ATOM      2  O   UNL A   1      35.752  33.544  29.283  1.00  0.00    -0.376 OA
BRANCH   2   3
ATOM      3  C   UNL A   1      34.992  34.398  28.419  1.00  0.00     0.202 C 
BRANCH   3   4
ATOM      4  C   UNL A   1      33.880  35.252  29.069  1.00  0.00     0.261 C 
BRANCH   4   5
ATOM      5  O   UNL A   1      33.110  34.592  30.094  1.00  0.00    -0.460 OA
BRANCH   5   6
ATOM      6  C   UNL A   1      33.131  34.742  31.442  1.00  0.00     0.338 C 
ATOM      7  O   UNL A   1      32.124  35.183  31.996  1.00  0.00    -0.246 OA
BRANCH   6   8
ATOM      8  C   UNL A   1      34.316  34.429  32.295  1.00  0.00     0.060 A 
ATOM      9  C   UNL A   1      35.354  35.317  32.561  1.00  0.00     0.016 A 
ATOM     10  C   UNL A   1      34.370  33.160  32.901  1.00  0.00     0.016 A 
ATOM     11  C   UNL A   1      36.471  34.938  33.279  1.00  0.00     0.010 A 
ATOM     12  C   UNL A   1      35.481  32.773  33.661  1.00  0.00     0.010 A 
ATOM     13  C   UNL A   1      36.563  33.650  33.788  1.00  0.00    -0.014 A 
BRANCH  13  14
ATOM     14  C   UNL A   1      37.907  33.209  34.198  1.00  0.00     0.031 A 
ATOM     15  C   UNL A   1      38.254  33.326  35.656  1.00  0.00     0.074 A 
ATOM     16  C   UNL A   1      38.675  32.523  33.334  1.00  0.00     0.049 A 
ATOM     17  N   UNL A   1      39.337  32.960  36.282  1.00  0.00    -0.248 NA
ATOM     18  C   UNL A   1      37.226  33.917  36.534  1.00  0.00     0.031 C 
ATOM     19  C   UNL A   1      38.323  32.230  31.941  1.00  0.00     0.029 A 
ATOM     20  N   UNL A   1      39.879  31.898  33.512  1.00  0.00    -0.354 N 
ATOM     21  C   UNL A   1      39.138  33.313  37.612  1.00  0.00     0.074 A 
ATOM     22  C   UNL A   1      37.836  33.926  37.708  1.00  0.00     0.031 C 
ATOM     23  C   UNL A   1      39.278  31.455  31.402  1.00  0.00     0.029 A 
ATOM     24  C   UNL A   1      40.337  31.257  32.386  1.00  0.00     0.049 A 
ATOM     25  H   UNL A   1      40.370  31.908  34.365  1.00  0.00     0.167 HD
ATOM     26  C   UNL A   1      39.977  33.140  38.657  1.00  0.00     0.037 A 
ATOM     27  C   UNL A   1      41.498  30.609  32.181  1.00  0.00     0.037 A 
ATOM     28  C   UNL A   1      41.262  32.508  38.524  1.00  0.00     0.049 A 
ATOM     29  C   UNL A   1      42.460  30.516  33.338  1.00  0.00     0.074 A 
ATOM     30  C   UNL A   1      42.237  32.322  39.484  1.00  0.00     0.029 A 
ATOM     31  N   UNL A   1      41.743  31.958  37.343  1.00  0.00    -0.354 N 
ATOM     32  N   UNL A   1      42.302  30.927  34.575  1.00  0.00    -0.248 NA
ATOM     33  C   UNL A   1      43.755  29.884  33.072  1.00  0.00     0.031 C 
ATOM     34  C   UNL A   1      43.333  31.708  38.867  1.00  0.00     0.029 A 
ATOM     35  C   UNL A   1      43.012  31.450  37.542  1.00  0.00     0.049 A 
ATOM     36  H   UNL A   1      41.252  31.933  36.489  1.00  0.00     0.167 HD
ATOM     37  C   UNL A   1      43.466  30.575  35.247  1.00  0.00     0.074 A 
ATOM     38  C   UNL A   1      44.313  29.907  34.276  1.00  0.00     0.031 C 
ATOM     39  C   UNL A   1      43.811  30.779  36.543  1.00  0.00     0.037 A 
BRANCH  26  40
ATOM     40  C   UNL A   1      39.564  33.720  39.982  1.00  0.00     0.058 A 
ATOM     41  C   UNL A   1      39.862  35.041  40.356  1.00  0.00     0.135 A 
ATOM     42  C   UNL A   1      38.887  32.916  40.913  1.00  0.00     0.135 A 
ATOM     43  F   UNL A   1      40.542  35.843  39.521  1.00  0.00    -0.206 F 
ATOM     44  C   UNL A   1      39.530  35.533  41.616  1.00  0.00     0.059 A 
ATOM     45  C   UNL A   1      38.520  33.395  42.165  1.00  0.00     0.059 A 
ATOM     46  F   UNL A   1      38.592  31.641  40.615  1.00  0.00    -0.206 F 
ATOM     47  C   UNL A   1      38.860  34.700  42.515  1.00  0.00     0.060 A 
BRANCH  47  48
ATOM     48  S   UNL A   1      38.445  35.346  44.149  1.00  0.00     0.124 S 
ATOM     49  O   UNL A   1      39.264  36.552  44.202  1.00  0.00    -0.237 OA
ATOM     50  O   UNL A   1      37.005  35.562  44.041  1.00  0.00    -0.237 OA
ATOM     51  O   UNL A   1      38.849  34.272  45.051  1.00  0.00    -0.744 OA
ENDBRANCH  47  48
ENDBRANCH  26  40
BRANCH  27  52
ATOM     52  C   UNL A   1      41.826  30.049  30.840  1.00  0.00     0.058 A 
ATOM     53  C   UNL A   1      41.416  28.763  30.461  1.00  0.00     0.135 A 
ATOM     54  C   UNL A   1      42.566  30.795  29.906  1.00  0.00     0.135 A 
ATOM     55  F   UNL A   1      40.711  28.004  31.314  1.00  0.00    -0.206 F 
ATOM     56  C   UNL A   1      41.741  28.229  29.217  1.00  0.00     0.059 A 
ATOM     57  C   UNL A   1      42.877  30.295  28.646  1.00  0.00     0.059 A 
ATOM     58  F   UNL A   1      42.975  32.038  30.208  1.00  0.00    -0.206 F 
ATOM     59  C   UNL A   1      42.472  29.005  28.315  1.00  0.00     0.060 A 
BRANCH  59  60
ATOM     60  S   UNL A   1      42.859  28.317  26.692  1.00  0.00     0.124 S 
ATOM     61  O   UNL A   1      41.527  28.086  26.145  1.00  0.00    -0.237 OA
ATOM     62  O   UNL A   1      43.625  29.398  26.078  1.00  0.00    -0.237 OA
ATOM     63  O   UNL A   1      43.627  27.117  27.011  1.00  0.00    -0.744 OA
ENDBRANCH  59  60
ENDBRANCH  27  52
BRANCH  39  64
ATOM     64  C   UNL A   1      45.131  30.222  36.992  1.00  0.00     0.058 A 
ATOM     65  C   UNL A   1      45.261  28.908  37.463  1.00  0.00     0.135 A 
ATOM     66  C   UNL A   1      46.290  31.010  36.898  1.00  0.00     0.135 A 
ATOM     67  F   UNL A   1      44.182  28.118  37.574  1.00  0.00    -0.206 F 
ATOM     68  C   UNL A   1      46.494  28.403  37.860  1.00  0.00     0.059 A 
ATOM     69  C   UNL A   1      47.536  30.514  37.255  1.00  0.00     0.059 A 
ATOM     70  F   UNL A   1      46.217  32.270  36.437  1.00  0.00    -0.206 F 
ATOM     71  C   UNL A   1      47.625  29.215  37.751  1.00  0.00     0.060 A 
BRANCH  71  72
ATOM     72  S   UNL A   1      49.223  28.541  38.249  1.00  0.00     0.124 S 
ATOM     73  O   UNL A   1      48.856  27.188  38.651  1.00  0.00    -0.237 OA
ATOM     74  O   UNL A   1      50.003  28.649  37.020  1.00  0.00    -0.237 OA
ATOM     75  O   UNL A   1      49.642  29.428  39.330  1.00  0.00    -0.744 OA
ENDBRANCH  71  72
ENDBRANCH  39  64
ENDBRANCH  13  14
ENDBRANCH   6   8
ENDBRANCH   5   6
ENDBRANCH   4   5
ENDBRANCH   3   4
ENDBRANCH   2   3
ENDBRANCH   1   2
BRANCH   1  76
ATOM     76  C   UNL A   1      36.867  31.477  28.391  1.00  0.00     0.188 C 
BRANCH  76  77
ATOM     77  O   UNL A   1      35.695  30.756  28.731  1.00  0.00    -0.376 OA
BRANCH  77  78
ATOM     78  C   UNL A   1      34.737  30.525  27.708  1.00  0.00     0.202 C 
BRANCH  78  79
ATOM     79  C   UNL A   1      34.259  29.095  27.416  1.00  0.00     0.261 C 
BRANCH  79  80
ATOM     80  O   UNL A   1      33.432  28.880  26.259  1.00  0.00    -0.460 OA
BRANCH  80  81
ATOM     81  C   UNL A   1      32.135  28.590  26.540  1.00  0.00     0.338 C 
ATOM     82  O   UNL A   1      31.590  28.699  27.628  1.00  0.00    -0.246 OA
BRANCH  81  83
ATOM     83  C   UNL A   1      31.403  28.082  25.362  1.00  0.00     0.067 A 
ATOM     84  C   UNL A   1      30.896  29.022  24.459  1.00  0.00     0.016 A 
ATOM     85  C   UNL A   1      31.064  26.720  25.247  1.00  0.00    -0.010 A 
ATOM     86  C   UNL A   1      30.030  28.610  23.447  1.00  0.00     0.001 A 
ATOM     87  C   UNL A   1      30.171  26.324  24.244  1.00  0.00     0.009 A 
ATOM     88  C   UNL A   1      29.649  27.271  23.357  1.00  0.00     0.001 A 
BRANCH  85  89
ATOM     89  C   UNL A   1      31.727  25.701  26.061  1.00  0.00     0.030 C 
ATOM     90  C   UNL A   1      32.847  25.041  25.745  1.00  0.00     0.081 C 
ATOM     91  S   UNL A   1      33.991  25.343  24.505  1.00  0.00    -0.054 SA
ATOM     92  C   UNL A   1      33.090  23.717  26.356  1.00  0.00     0.266 C 
ATOM     93  C   UNL A   1      34.668  23.723  24.621  1.00  0.00     0.148 C 
ATOM     94  N   UNL A   1      34.134  23.081  25.716  1.00  0.00    -0.288 N 
ATOM     95  O   UNL A   1      32.368  23.225  27.219  1.00  0.00    -0.268 OA
ATOM     96  S   UNL A   1      35.758  23.126  23.506  1.00  0.00    -0.052 S 
BRANCH  94  97
ATOM     97  C   UNL A   1      34.621  21.830  26.285  1.00  0.00     0.163 C 
BRANCH  97  98
ATOM     98  C   UNL A   1      34.183  20.687  25.394  1.00  0.00    -0.028 A 
ATOM     99  C   UNL A   1      35.083  19.679  25.027  1.00  0.00     0.005 A 
ATOM    100  C   UNL A   1      32.830  20.550  25.043  1.00  0.00     0.005 A 
ATOM    101  C   UNL A   1      34.630  18.548  24.347  1.00  0.00     0.000 A 
ATOM    102  C   UNL A   1      32.375  19.409  24.390  1.00  0.00     0.000 A 
ATOM    103  C   UNL A   1      33.276  18.407  24.043  1.00  0.00     0.000 A 
ENDBRANCH  97  98
ENDBRANCH  94  97
ENDBRANCH  85  89
ENDBRANCH  81  83
ENDBRANCH  80  81
ENDBRANCH  79  80
ENDBRANCH  78  79
ENDBRANCH  77  78
ENDBRANCH  76  77
ENDBRANCH   1  76
TORSDOF 23
ENDMDL
