MODEL 1
REMARK VINA RESULT:     -10.4      0.000      0.000
REMARK SMILES Cc1ccccc1/C=C1\SC(=S)N(CCC(=O)N[C@@H](C)C(=O)OCCOCCOCCOC(=O)c2ccc(-c3c4nc(c(-c5c(F)cc(S(=O)(=O)[O-])cc5F)c5ccc([nH]5)c(-c5c(F)cc(S(=O)(=O)[O-])cc5F)c5nc(c(-c6c(F)cc(S(=O)(=O)[O-])cc6F)c6ccc3[nH]6)C=C5)C=C4)cc2)C1=O
REMARK SMILES IDX 27 1 26 2 25 3 24 4 23 5 21 6 22 7 19 8 20 9 18 10 16 11
REMARK SMILES IDX 17 12 15 14 14 15 13 16 8 17 9 18 10 19 101 20 11 21 102 22
REMARK SMILES IDX 12 23 7 24 1 25 2 26 3 27 4 28 6 29 5 30 28 31 29 32 30 33
REMARK SMILES IDX 31 34 32 35 33 36 34 37 35 38 36 39 100 40 37 41 99 42 38 43
REMARK SMILES IDX 39 44 40 45 93 46 41 47 98 48 92 49 94 50 42 51 97 52 91 53
REMARK SMILES IDX 90 54 43 56 77 57 56 58 76 59 57 60 60 61 75 62 95 63 58 64
REMARK SMILES IDX 59 65 74 67 96 68 61 69 44 70 45 71 54 72 46 73 47 74 53 75
REMARK SMILES IDX 55 76 48 77 49 78 50 79 51 80 52 81 78 82 79 83 88 84 80 85
REMARK SMILES IDX 81 86 87 87 89 88 82 89 83 90 84 91 85 92 86 93 62 94 63 95
REMARK SMILES IDX 72 96 64 97 65 98 71 99 73 100 66 101 67 102 68 103 69 104
REMARK SMILES IDX 70 105
REMARK H PARENT 18 13 94 55 60 66
REMARK Flexibility Score: inf
ROOT
ATOM      1  C   UNL A   1      39.876  24.535  26.816  1.00  0.00     0.188 C 
ENDROOT
BRANCH   1   2
ATOM      2  O   UNL A   1      39.383  25.444  27.820  1.00  0.00    -0.376 OA
BRANCH   2   3
ATOM      3  C   UNL A   1      39.490  26.906  27.808  1.00  0.00     0.202 C 
BRANCH   3   4
ATOM      4  C   UNL A   1      38.565  28.348  28.370  1.00  0.00     0.261 C 
BRANCH   4   5
ATOM      5  O   UNL A   1      37.433  29.614  27.601  1.00  0.00    -0.462 OA
BRANCH   5   6
ATOM      6  C   UNL A   1      35.876  30.250  27.740  1.00  0.00     0.328 C 
ATOM      7  O   UNL A   1      35.544  31.193  28.490  1.00  0.00    -0.250 OA
BRANCH   6   8
ATOM      8  C   UNL A   1      34.650  29.667  27.071  1.00  0.00     0.189 C 
ATOM      9  C   UNL A   1      33.429  30.565  27.171  1.00  0.00     0.043 C 
BRANCH   8  10
ATOM     10  N   UNL A   1      34.303  28.299  26.884  1.00  0.00    -0.343 N 
ATOM     11  C   UNL A   1      33.736  27.777  25.749  1.00  0.00     0.222 C 
ATOM     12  O   UNL A   1      33.029  26.778  25.915  1.00  0.00    -0.275 OA
ATOM     13  H   UNL A   1      34.482  27.679  27.628  1.00  0.00     0.164 HD
BRANCH  11  14
ATOM     14  C   UNL A   1      34.011  28.317  24.316  1.00  0.00     0.122 C 
BRANCH  14  15
ATOM     15  C   UNL A   1      32.941  28.273  23.187  1.00  0.00     0.137 C 
BRANCH  15  16
ATOM     16  N   UNL A   1      32.172  26.988  23.037  1.00  0.00    -0.292 N 
ATOM     17  C   UNL A   1      32.678  23.436  22.854  1.00  0.00     0.029 C 
ATOM     18  C   UNL A   1      32.003  24.608  22.773  1.00  0.00     0.081 C 
ATOM     19  S   UNL A   1      30.396  25.064  23.106  1.00  0.00    -0.054 SA
ATOM     20  C   UNL A   1      32.735  25.892  22.412  1.00  0.00     0.266 C 
ATOM     21  C   UNL A   1      30.820  26.806  23.252  1.00  0.00     0.148 C 
ATOM     22  O   UNL A   1      33.660  25.953  21.611  1.00  0.00    -0.268 OA
ATOM     23  S   UNL A   1      29.677  28.006  23.492  1.00  0.00    -0.052 S 
BRANCH  17  24
ATOM     24  C   UNL A   1      32.596  21.941  23.119  1.00  0.00    -0.021 A 
ATOM     25  C   UNL A   1      34.731  22.643  24.742  1.00  0.00     0.045 C 
ATOM     26  C   UNL A   1      33.667  21.583  24.433  1.00  0.00    -0.044 A 
ATOM     27  C   UNL A   1      34.115  20.002  24.961  1.00  0.00     0.004 A 
ATOM     28  C   UNL A   1      33.639  18.549  24.262  1.00  0.00     0.000 A 
ATOM     29  C   UNL A   1      31.887  20.521  22.274  1.00  0.00     0.008 A 
ATOM     30  C   UNL A   1      32.583  18.606  22.866  1.00  0.00     0.001 A 
ENDBRANCH  17  24
ENDBRANCH  15  16
ENDBRANCH  14  15
ENDBRANCH  11  14
ENDBRANCH   8  10
ENDBRANCH   6   8
ENDBRANCH   5   6
ENDBRANCH   4   5
ENDBRANCH   3   4
ENDBRANCH   2   3
ENDBRANCH   1   2
BRANCH   1  31
ATOM     31  C   UNL A   1      39.214  23.211  26.784  1.00  0.00     0.188 C 
BRANCH  31  32
ATOM     32  O   UNL A   1      40.257  22.314  26.524  1.00  0.00    -0.376 OA
BRANCH  32  33
ATOM     33  C   UNL A   1      40.809  21.500  27.494  1.00  0.00     0.202 C 
BRANCH  33  34
ATOM     34  C   UNL A   1      42.255  21.251  27.211  1.00  0.00     0.261 C 
BRANCH  34  35
ATOM     35  O   UNL A   1      43.183  22.397  27.005  1.00  0.00    -0.460 OA
BRANCH  35  36
ATOM     36  C   UNL A   1      43.802  23.396  27.745  1.00  0.00     0.338 C 
ATOM     37  O   UNL A   1      44.992  23.293  28.019  1.00  0.00    -0.246 OA
BRANCH  36  38
ATOM     38  C   UNL A   1      43.128  24.715  27.933  1.00  0.00     0.060 A 
ATOM     39  C   UNL A   1      43.211  25.898  27.144  1.00  0.00     0.016 A 
ATOM     40  C   UNL A   1      42.615  24.867  29.142  1.00  0.00     0.016 A 
ATOM     41  C   UNL A   1      43.412  27.261  27.683  1.00  0.00     0.010 A 
ATOM     42  C   UNL A   1      43.051  26.069  29.644  1.00  0.00     0.010 A 
ATOM     43  C   UNL A   1      43.586  27.434  29.050  1.00  0.00    -0.014 A 
BRANCH  43  44
ATOM     44  C   UNL A   1      43.814  29.035  30.047  1.00  0.00     0.031 A 
ATOM     45  C   UNL A   1      42.430  29.688  31.235  1.00  0.00     0.074 A 
ATOM     46  C   UNL A   1      45.020  29.693  30.015  1.00  0.00     0.049 A 
ATOM     47  N   UNL A   1      42.503  30.297  32.384  1.00  0.00    -0.248 NA
ATOM     48  C   UNL A   1      40.834  29.198  31.379  1.00  0.00     0.031 C 
ATOM     49  C   UNL A   1      45.668  30.580  30.999  1.00  0.00     0.029 A 
ATOM     50  N   UNL A   1      46.083  29.518  29.125  1.00  0.00    -0.354 N 
ATOM     51  C   UNL A   1      41.197  30.634  32.893  1.00  0.00     0.074 A 
ATOM     52  C   UNL A   1      40.282  29.670  32.464  1.00  0.00     0.031 C 
ATOM     53  C   UNL A   1      46.791  31.123  30.474  1.00  0.00     0.029 A 
ATOM     54  C   UNL A   1      46.893  30.651  29.118  1.00  0.00     0.049 A 
ATOM     55  H   UNL A   1      46.237  28.712  28.582  1.00  0.00     0.167 HD
ATOM     56  C   UNL A   1      40.707  31.899  33.075  1.00  0.00     0.037 A 
ATOM     57  C   UNL A   1      47.078  31.318  27.958  1.00  0.00     0.037 A 
ATOM     58  C   UNL A   1      41.770  32.824  32.626  1.00  0.00     0.049 A 
ATOM     59  C   UNL A   1      46.415  32.679  28.103  1.00  0.00     0.074 A 
ATOM     60  C   UNL A   1      43.458  32.295  33.144  1.00  0.00     0.029 A 
ATOM     61  N   UNL A   1      42.158  34.286  31.255  1.00  0.00    -0.354 N 
ATOM     62  N   UNL A   1      45.611  33.038  29.080  1.00  0.00    -0.248 NA
ATOM     63  C   UNL A   1      46.640  33.760  27.159  1.00  0.00     0.031 C 
ATOM     64  C   UNL A   1      44.758  33.228  32.120  1.00  0.00     0.029 A 
ATOM     65  C   UNL A   1      44.025  34.337  31.006  1.00  0.00     0.049 A 
ATOM     66  H   UNL A   1      41.494  34.859  30.808  1.00  0.00     0.167 HD
ATOM     67  C   UNL A   1      45.261  34.364  28.948  1.00  0.00     0.074 A 
ATOM     68  C   UNL A   1      45.868  34.726  27.680  1.00  0.00     0.031 C 
ATOM     69  C   UNL A   1      44.521  35.071  29.869  1.00  0.00     0.037 A 
BRANCH  56  70
ATOM     70  C   UNL A   1      39.871  31.974  34.366  1.00  0.00     0.058 A 
ATOM     71  C   UNL A   1      38.591  32.549  34.283  1.00  0.00     0.135 A 
ATOM     72  C   UNL A   1      40.292  31.678  35.695  1.00  0.00     0.135 A 
ATOM     73  F   UNL A   1      38.118  33.015  33.121  1.00  0.00    -0.206 F 
ATOM     74  C   UNL A   1      37.762  32.737  35.387  1.00  0.00     0.059 A 
ATOM     75  C   UNL A   1      39.505  31.939  36.832  1.00  0.00     0.059 A 
ATOM     76  F   UNL A   1      41.490  31.132  35.958  1.00  0.00    -0.206 F 
ATOM     77  C   UNL A   1      38.222  32.436  36.660  1.00  0.00     0.060 A 
BRANCH  77  78
ATOM     78  S   UNL A   1      37.108  32.713  38.050  1.00  0.00     0.124 S 
ATOM     79  O   UNL A   1      36.014  33.454  37.426  1.00  0.00    -0.237 OA
ATOM     80  O   UNL A   1      36.796  31.349  38.460  1.00  0.00    -0.237 OA
ATOM     81  O   UNL A   1      37.916  33.481  38.993  1.00  0.00    -0.744 OA
ENDBRANCH  77  78
ENDBRANCH  56  70
BRANCH  57  82
ATOM     82  C   UNL A   1      47.074  30.330  26.805  1.00  0.00     0.058 A 
ATOM     83  C   UNL A   1      48.208  29.496  26.605  1.00  0.00     0.135 A 
ATOM     84  C   UNL A   1      45.875  29.843  26.283  1.00  0.00     0.135 A 
ATOM     85  F   UNL A   1      49.396  29.847  27.130  1.00  0.00    -0.206 F 
ATOM     86  C   UNL A   1      48.123  28.217  26.034  1.00  0.00     0.059 A 
ATOM     87  C   UNL A   1      45.771  28.585  25.666  1.00  0.00     0.059 A 
ATOM     88  F   UNL A   1      44.753  30.518  26.523  1.00  0.00    -0.206 F 
ATOM     89  C   UNL A   1      46.891  27.760  25.584  1.00  0.00     0.060 A 
BRANCH  89  90
ATOM     90  S   UNL A   1      46.741  26.027  25.069  1.00  0.00     0.124 S 
ATOM     91  O   UNL A   1      47.729  25.927  24.004  1.00  0.00    -0.237 OA
ATOM     92  O   UNL A   1      47.067  25.314  26.304  1.00  0.00    -0.237 OA
ATOM     93  O   UNL A   1      45.355  25.936  24.627  1.00  0.00    -0.744 OA
ENDBRANCH  89  90
ENDBRANCH  57  82
BRANCH  69  94
ATOM     94  C   UNL A   1      44.012  36.473  29.783  1.00  0.00     0.058 A 
ATOM     95  C   UNL A   1      44.460  37.547  30.518  1.00  0.00     0.135 A 
ATOM     96  C   UNL A   1      43.027  36.806  28.826  1.00  0.00     0.135 A 
ATOM     97  F   UNL A   1      44.956  37.380  31.747  1.00  0.00    -0.206 F 
ATOM     98  C   UNL A   1      44.221  38.847  30.105  1.00  0.00     0.059 A 
ATOM     99  C   UNL A   1      42.864  38.055  28.282  1.00  0.00     0.059 A 
ATOM    100  F   UNL A   1      42.044  35.948  28.536  1.00  0.00    -0.206 F 
ATOM    101  C   UNL A   1      43.465  39.087  28.957  1.00  0.00     0.060 A 
BRANCH 101 102
ATOM    102  S   UNL A   1      42.949  40.763  28.615  1.00  0.00     0.124 S 
ATOM    103  O   UNL A   1      41.505  40.583  28.511  1.00  0.00    -0.237 OA
ATOM    104  O   UNL A   1      43.425  41.470  29.799  1.00  0.00    -0.237 OA
ATOM    105  O   UNL A   1      43.635  41.088  27.369  1.00  0.00    -0.744 OA
ENDBRANCH 101 102
ENDBRANCH  69  94
ENDBRANCH  43  44
ENDBRANCH  36  38
ENDBRANCH  35  36
ENDBRANCH  34  35
ENDBRANCH  33  34
ENDBRANCH  32  33
ENDBRANCH  31  32
ENDBRANCH   1  31
TORSDOF 25
ENDMDL
MODEL 2
REMARK VINA RESULT:     -10.4      5.129     13.994
REMARK SMILES Cc1ccccc1/C=C1\SC(=S)N(CCC(=O)N[C@@H](C)C(=O)OCCOCCOCCOC(=O)c2ccc(-c3c4nc(c(-c5c(F)cc(S(=O)(=O)[O-])cc5F)c5ccc([nH]5)c(-c5c(F)cc(S(=O)(=O)[O-])cc5F)c5nc(c(-c6c(F)cc(S(=O)(=O)[O-])cc6F)c6ccc3[nH]6)C=C5)C=C4)cc2)C1=O
REMARK SMILES IDX 27 1 26 2 25 3 24 4 23 5 21 6 22 7 19 8 20 9 18 10 16 11
REMARK SMILES IDX 17 12 15 14 14 15 13 16 8 17 9 18 10 19 101 20 11 21 102 22
REMARK SMILES IDX 12 23 7 24 1 25 2 26 3 27 4 28 6 29 5 30 28 31 29 32 30 33
REMARK SMILES IDX 31 34 32 35 33 36 34 37 35 38 36 39 100 40 37 41 99 42 38 43
REMARK SMILES IDX 39 44 40 45 93 46 41 47 98 48 92 49 94 50 42 51 97 52 91 53
REMARK SMILES IDX 90 54 43 56 77 57 56 58 76 59 57 60 60 61 75 62 95 63 58 64
REMARK SMILES IDX 59 65 74 67 96 68 61 69 44 70 45 71 54 72 46 73 47 74 53 75
REMARK SMILES IDX 55 76 48 77 49 78 50 79 51 80 52 81 78 82 79 83 88 84 80 85
REMARK SMILES IDX 81 86 87 87 89 88 82 89 83 90 84 91 85 92 86 93 62 94 63 95
REMARK SMILES IDX 72 96 64 97 65 98 71 99 73 100 66 101 67 102 68 103 69 104
REMARK SMILES IDX 70 105
REMARK H PARENT 18 13 94 55 60 66
REMARK Flexibility Score: inf
ROOT
ATOM      1  C   UNL A   1      37.571  34.109  32.854  1.00  0.00     0.188 C 
ENDROOT
BRANCH   1   2
ATOM      2  O   UNL A   1      37.289  34.642  34.164  1.00  0.00    -0.376 OA
BRANCH   2   3
ATOM      3  C   UNL A   1      37.851  34.183  35.437  1.00  0.00     0.202 C 
BRANCH   3   4
ATOM      4  C   UNL A   1      39.439  34.127  36.289  1.00  0.00     0.261 C 
BRANCH   4   5
ATOM      5  O   UNL A   1      40.956  33.045  36.254  1.00  0.00    -0.462 OA
BRANCH   5   6
ATOM      6  C   UNL A   1      41.748  31.913  35.284  1.00  0.00     0.328 C 
ATOM      7  O   UNL A   1      41.630  31.814  34.044  1.00  0.00    -0.250 OA
BRANCH   6   8
ATOM      8  C   UNL A   1      42.602  30.781  35.811  1.00  0.00     0.189 C 
ATOM      9  C   UNL A   1      43.798  30.471  34.928  1.00  0.00     0.043 C 
BRANCH   8  10
ATOM     10  N   UNL A   1      42.211  29.666  36.606  1.00  0.00    -0.343 N 
ATOM     11  C   UNL A   1      41.890  28.424  36.119  1.00  0.00     0.222 C 
ATOM     12  O   UNL A   1      41.094  27.771  36.803  1.00  0.00    -0.275 OA
ATOM     13  H   UNL A   1      42.168  29.796  37.581  1.00  0.00     0.164 HD
BRANCH  11  14
ATOM     14  C   UNL A   1      42.528  27.800  34.845  1.00  0.00     0.122 C 
BRANCH  14  15
ATOM     15  C   UNL A   1      42.725  26.266  34.674  1.00  0.00     0.137 C 
BRANCH  15  16
ATOM     16  N   UNL A   1      44.135  25.751  34.777  1.00  0.00    -0.292 N 
ATOM     17  C   UNL A   1      47.247  25.756  32.982  1.00  0.00     0.029 C 
ATOM     18  C   UNL A   1      46.354  25.393  33.934  1.00  0.00     0.081 C 
ATOM     19  S   UNL A   1      46.499  24.950  35.572  1.00  0.00    -0.054 SA
ATOM     20  C   UNL A   1      44.862  25.439  33.644  1.00  0.00     0.266 C 
ATOM     21  C   UNL A   1      44.771  25.309  35.920  1.00  0.00     0.148 C 
ATOM     22  O   UNL A   1      44.364  25.161  32.559  1.00  0.00    -0.268 OA
ATOM     23  S   UNL A   1      44.059  25.014  37.407  1.00  0.00    -0.052 S 
BRANCH  17  24
ATOM     24  C   UNL A   1      48.713  25.924  32.616  1.00  0.00    -0.021 A 
ATOM     25  C   UNL A   1      47.660  28.301  31.654  1.00  0.00     0.045 C 
ATOM     26  C   UNL A   1      48.933  27.553  32.068  1.00  0.00    -0.044 A 
ATOM     27  C   UNL A   1      50.356  28.176  31.317  1.00  0.00     0.004 A 
ATOM     28  C   UNL A   1      51.745  27.305  30.941  1.00  0.00     0.000 A 
ATOM     29  C   UNL A   1      50.119  24.824  32.395  1.00  0.00     0.008 A 
ATOM     30  C   UNL A   1      51.787  25.599  31.338  1.00  0.00     0.001 A 
ENDBRANCH  17  24
ENDBRANCH  15  16
ENDBRANCH  14  15
ENDBRANCH  11  14
ENDBRANCH   8  10
ENDBRANCH   6   8
ENDBRANCH   5   6
ENDBRANCH   4   5
ENDBRANCH   3   4
ENDBRANCH   2   3
ENDBRANCH   1   2
BRANCH   1  31
ATOM     31  C   UNL A   1      38.918  33.517  32.690  1.00  0.00     0.188 C 
BRANCH  31  32
ATOM     32  O   UNL A   1      39.162  33.598  31.314  1.00  0.00    -0.376 OA
BRANCH  32  33
ATOM     33  C   UNL A   1      39.790  34.676  30.722  1.00  0.00     0.202 C 
BRANCH  33  34
ATOM     34  C   UNL A   1      40.201  34.344  29.325  1.00  0.00     0.261 C 
BRANCH  34  35
ATOM     35  O   UNL A   1      40.863  35.374  28.477  1.00  0.00    -0.460 OA
BRANCH  35  36
ATOM     36  C   UNL A   1      42.141  35.827  28.178  1.00  0.00     0.338 C 
ATOM     37  O   UNL A   1      42.416  37.009  28.346  1.00  0.00    -0.246 OA
BRANCH  36  38
ATOM     38  C   UNL A   1      43.251  34.849  27.965  1.00  0.00     0.060 A 
ATOM     39  C   UNL A   1      43.554  34.056  26.822  1.00  0.00     0.016 A 
ATOM     40  C   UNL A   1      43.843  34.486  29.090  1.00  0.00     0.016 A 
ATOM     41  C   UNL A   1      43.880  32.613  26.858  1.00  0.00     0.010 A 
ATOM     42  C   UNL A   1      43.890  33.115  29.126  1.00  0.00     0.010 A 
ATOM     43  C   UNL A   1      43.847  31.937  28.071  1.00  0.00    -0.014 A 
BRANCH  43  44
ATOM     44  C   UNL A   1      44.256  30.121  28.454  1.00  0.00     0.031 A 
ATOM     45  C   UNL A   1      45.843  29.273  27.737  1.00  0.00     0.074 A 
ATOM     46  C   UNL A   1      43.477  29.420  29.343  1.00  0.00     0.049 A 
ATOM     47  N   UNL A   1      46.646  28.384  28.249  1.00  0.00    -0.248 NA
ATOM     48  C   UNL A   1      46.886  29.808  26.540  1.00  0.00     0.031 C 
ATOM     49  C   UNL A   1      43.791  28.270  30.212  1.00  0.00     0.029 A 
ATOM     50  N   UNL A   1      42.215  29.751  29.844  1.00  0.00    -0.354 N 
ATOM     51  C   UNL A   1      47.686  28.010  27.323  1.00  0.00     0.074 A 
ATOM     52  C   UNL A   1      47.987  29.108  26.513  1.00  0.00     0.031 C 
ATOM     53  C   UNL A   1      42.666  27.811  30.809  1.00  0.00     0.029 A 
ATOM     54  C   UNL A   1      41.574  28.610  30.319  1.00  0.00     0.049 A 
ATOM     55  H   UNL A   1      41.835  30.659  29.859  1.00  0.00     0.167 HD
ATOM     56  C   UNL A   1      47.854  26.774  26.759  1.00  0.00     0.037 A 
ATOM     57  C   UNL A   1      40.386  28.255  29.783  1.00  0.00     0.037 A 
ATOM     58  C   UNL A   1      46.751  25.932  27.271  1.00  0.00     0.049 A 
ATOM     59  C   UNL A   1      40.594  26.947  29.036  1.00  0.00     0.074 A 
ATOM     60  C   UNL A   1      46.403  26.202  29.061  1.00  0.00     0.029 A 
ATOM     61  N   UNL A   1      45.131  24.851  26.657  1.00  0.00    -0.354 N 
ATOM     62  N   UNL A   1      41.758  26.400  28.763  1.00  0.00    -0.248 NA
ATOM     63  C   UNL A   1      39.487  26.135  28.563  1.00  0.00     0.031 C 
ATOM     64  C   UNL A   1      44.698  25.485  29.492  1.00  0.00     0.029 A 
ATOM     65  C   UNL A   1      43.943  24.750  28.114  1.00  0.00     0.049 A 
ATOM     66  H   UNL A   1      44.997  24.456  25.765  1.00  0.00     0.167 HD
ATOM     67  C   UNL A   1      41.581  25.176  28.153  1.00  0.00     0.074 A 
ATOM     68  C   UNL A   1      40.140  25.117  27.981  1.00  0.00     0.031 C 
ATOM     69  C   UNL A   1      42.599  24.304  27.843  1.00  0.00     0.037 A 
BRANCH  56  70
ATOM     70  C   UNL A   1      49.350  26.420  26.666  1.00  0.00     0.058 A 
ATOM     71  C   UNL A   1      49.966  26.514  25.406  1.00  0.00     0.135 A 
ATOM     72  C   UNL A   1      50.173  25.846  27.677  1.00  0.00     0.135 A 
ATOM     73  F   UNL A   1      49.274  26.895  24.326  1.00  0.00    -0.206 F 
ATOM     74  C   UNL A   1      51.293  26.160  25.174  1.00  0.00     0.059 A 
ATOM     75  C   UNL A   1      51.488  25.403  27.443  1.00  0.00     0.059 A 
ATOM     76  F   UNL A   1      49.742  25.676  28.937  1.00  0.00    -0.206 F 
ATOM     77  C   UNL A   1      52.052  25.601  26.192  1.00  0.00     0.060 A 
BRANCH  77  78
ATOM     78  S   UNL A   1      53.759  25.151  25.827  1.00  0.00     0.124 S 
ATOM     79  O   UNL A   1      54.388  25.236  27.142  1.00  0.00    -0.237 OA
ATOM     80  O   UNL A   1      53.603  23.807  25.284  1.00  0.00    -0.237 OA
ATOM     81  O   UNL A   1      54.186  26.168  24.870  1.00  0.00    -0.744 OA
ENDBRANCH  77  78
ENDBRANCH  56  70
BRANCH  57  82
ATOM     82  C   UNL A   1      39.614  29.505  29.399  1.00  0.00     0.058 A 
ATOM     83  C   UNL A   1      39.170  29.659  28.057  1.00  0.00     0.135 A 
ATOM     84  C   UNL A   1      38.891  30.221  30.353  1.00  0.00     0.135 A 
ATOM     85  F   UNL A   1      39.760  28.957  27.073  1.00  0.00    -0.206 F 
ATOM     86  C   UNL A   1      38.015  30.377  27.714  1.00  0.00     0.059 A 
ATOM     87  C   UNL A   1      37.757  30.985  30.031  1.00  0.00     0.059 A 
ATOM     88  F   UNL A   1      39.182  30.045  31.641  1.00  0.00    -0.206 F 
ATOM     89  C   UNL A   1      37.299  31.023  28.715  1.00  0.00     0.060 A 
BRANCH  89  90
ATOM     90  S   UNL A   1      35.687  31.746  28.304  1.00  0.00     0.124 S 
ATOM     91  O   UNL A   1      35.010  31.760  29.594  1.00  0.00    -0.237 OA
ATOM     92  O   UNL A   1      36.068  33.056  27.777  1.00  0.00    -0.237 OA
ATOM     93  O   UNL A   1      35.142  30.802  27.338  1.00  0.00    -0.744 OA
ENDBRANCH  89  90
ENDBRANCH  57  82
BRANCH  69  94
ATOM     94  C   UNL A   1      42.528  23.006  27.105  1.00  0.00     0.058 A 
ATOM     95  C   UNL A   1      43.049  22.750  25.858  1.00  0.00     0.135 A 
ATOM     96  C   UNL A   1      41.944  21.878  27.725  1.00  0.00     0.135 A 
ATOM     97  F   UNL A   1      43.155  23.719  24.945  1.00  0.00    -0.206 F 
ATOM     98  C   UNL A   1      43.283  21.453  25.432  1.00  0.00     0.059 A 
ATOM     99  C   UNL A   1      42.268  20.577  27.430  1.00  0.00     0.059 A 
ATOM    100  F   UNL A   1      40.872  22.012  28.511  1.00  0.00    -0.206 F 
ATOM    101  C   UNL A   1      42.935  20.376  26.249  1.00  0.00     0.060 A 
BRANCH 101 102
ATOM    102  S   UNL A   1      42.995  18.732  25.556  1.00  0.00     0.124 S 
ATOM    103  O   UNL A   1      44.066  18.144  26.355  1.00  0.00    -0.237 OA
ATOM    104  O   UNL A   1      41.649  18.242  25.829  1.00  0.00    -0.237 OA
ATOM    105  O   UNL A   1      43.310  18.960  24.151  1.00  0.00    -0.744 OA
ENDBRANCH 101 102
ENDBRANCH  69  94
ENDBRANCH  43  44
ENDBRANCH  36  38
ENDBRANCH  35  36
ENDBRANCH  34  35
ENDBRANCH  33  34
ENDBRANCH  32  33
ENDBRANCH  31  32
ENDBRANCH   1  31
TORSDOF 25
ENDMDL
MODEL 3
REMARK VINA RESULT:      -9.7      2.161      3.008
REMARK SMILES Cc1ccccc1/C=C1\SC(=S)N(CCC(=O)N[C@@H](C)C(=O)OCCOCCOCCOC(=O)c2ccc(-c3c4nc(c(-c5c(F)cc(S(=O)(=O)[O-])cc5F)c5ccc([nH]5)c(-c5c(F)cc(S(=O)(=O)[O-])cc5F)c5nc(c(-c6c(F)cc(S(=O)(=O)[O-])cc6F)c6ccc3[nH]6)C=C5)C=C4)cc2)C1=O
REMARK SMILES IDX 27 1 26 2 25 3 24 4 23 5 21 6 22 7 19 8 20 9 18 10 16 11
REMARK SMILES IDX 17 12 15 14 14 15 13 16 8 17 9 18 10 19 101 20 11 21 102 22
REMARK SMILES IDX 12 23 7 24 1 25 2 26 3 27 4 28 6 29 5 30 28 31 29 32 30 33
REMARK SMILES IDX 31 34 32 35 33 36 34 37 35 38 36 39 100 40 37 41 99 42 38 43
REMARK SMILES IDX 39 44 40 45 93 46 41 47 98 48 92 49 94 50 42 51 97 52 91 53
REMARK SMILES IDX 90 54 43 56 77 57 56 58 76 59 57 60 60 61 75 62 95 63 58 64
REMARK SMILES IDX 59 65 74 67 96 68 61 69 44 70 45 71 54 72 46 73 47 74 53 75
REMARK SMILES IDX 55 76 48 77 49 78 50 79 51 80 52 81 78 82 79 83 88 84 80 85
REMARK SMILES IDX 81 86 87 87 89 88 82 89 83 90 84 91 85 92 86 93 62 94 63 95
REMARK SMILES IDX 72 96 64 97 65 98 71 99 73 100 66 101 67 102 68 103 69 104
REMARK SMILES IDX 70 105
REMARK H PARENT 18 13 94 55 60 66
REMARK Flexibility Score: inf
ROOT
ATOM      1  C   UNL A   1      39.387  24.357  26.860  1.00  0.00     0.188 C 
ENDROOT
BRANCH   1   2
ATOM      2  O   UNL A   1      38.933  25.105  28.006  1.00  0.00    -0.376 OA
BRANCH   2   3
ATOM      3  C   UNL A   1      39.114  26.539  28.245  1.00  0.00     0.202 C 
BRANCH   3   4
ATOM      4  C   UNL A   1      38.141  27.977  28.732  1.00  0.00     0.261 C 
BRANCH   4   5
ATOM      5  O   UNL A   1      37.587  29.569  27.937  1.00  0.00    -0.462 OA
BRANCH   5   6
ATOM      6  C   UNL A   1      36.358  30.723  28.009  1.00  0.00     0.328 C 
ATOM      7  O   UNL A   1      36.482  31.886  28.448  1.00  0.00    -0.250 OA
BRANCH   6   8
ATOM      8  C   UNL A   1      34.907  30.451  27.675  1.00  0.00     0.189 C 
ATOM      9  C   UNL A   1      34.034  31.692  27.741  1.00  0.00     0.043 C 
BRANCH   8  10
ATOM     10  N   UNL A   1      34.160  29.253  27.859  1.00  0.00    -0.343 N 
ATOM     11  C   UNL A   1      33.477  28.590  26.871  1.00  0.00     0.222 C 
ATOM     12  O   UNL A   1      32.495  27.939  27.244  1.00  0.00    -0.275 OA
ATOM     13  H   UNL A   1      34.130  28.870  28.766  1.00  0.00     0.164 HD
BRANCH  11  14
ATOM     14  C   UNL A   1      33.924  28.556  25.381  1.00  0.00     0.122 C 
BRANCH  14  15
ATOM     15  C   UNL A   1      32.918  28.704  24.203  1.00  0.00     0.137 C 
BRANCH  15  16
ATOM     16  N   UNL A   1      32.226  27.449  23.745  1.00  0.00    -0.292 N 
ATOM     17  C   UNL A   1      32.763  23.907  23.469  1.00  0.00     0.029 C 
ATOM     18  C   UNL A   1      32.141  25.096  23.277  1.00  0.00     0.081 C 
ATOM     19  S   UNL A   1      30.508  25.561  23.157  1.00  0.00    -0.054 SA
ATOM     20  C   UNL A   1      32.947  26.385  23.237  1.00  0.00     0.266 C 
ATOM     21  C   UNL A   1      30.871  27.280  23.542  1.00  0.00     0.148 C 
ATOM     22  O   UNL A   1      34.067  26.481  22.747  1.00  0.00    -0.268 OA
ATOM     23  S   UNL A   1      29.708  28.486  23.522  1.00  0.00    -0.052 S 
BRANCH  17  24
ATOM     24  C   UNL A   1      32.606  22.400  23.593  1.00  0.00    -0.021 A 
ATOM     25  C   UNL A   1      34.758  22.842  25.285  1.00  0.00     0.045 C 
ATOM     26  C   UNL A   1      33.647  21.869  24.873  1.00  0.00    -0.044 A 
ATOM     27  C   UNL A   1      34.013  20.226  25.253  1.00  0.00     0.004 A 
ATOM     28  C   UNL A   1      33.473  18.869  24.420  1.00  0.00     0.000 A 
ATOM     29  C   UNL A   1      31.838  21.101  22.615  1.00  0.00     0.008 A 
ATOM     30  C   UNL A   1      32.434  19.107  23.029  1.00  0.00     0.001 A 
ENDBRANCH  17  24
ENDBRANCH  15  16
ENDBRANCH  14  15
ENDBRANCH  11  14
ENDBRANCH   8  10
ENDBRANCH   6   8
ENDBRANCH   5   6
ENDBRANCH   4   5
ENDBRANCH   3   4
ENDBRANCH   2   3
ENDBRANCH   1   2
BRANCH   1  31
ATOM     31  C   UNL A   1      38.540  23.204  26.483  1.00  0.00     0.188 C 
BRANCH  31  32
ATOM     32  O   UNL A   1      39.457  22.205  26.134  1.00  0.00    -0.376 OA
BRANCH  32  33
ATOM     33  C   UNL A   1      40.314  21.617  27.044  1.00  0.00     0.202 C 
BRANCH  33  34
ATOM     34  C   UNL A   1      41.420  20.902  26.340  1.00  0.00     0.261 C 
BRANCH  34  35
ATOM     35  O   UNL A   1      42.365  21.659  25.473  1.00  0.00    -0.460 OA
BRANCH  35  36
ATOM     36  C   UNL A   1      43.446  22.522  25.598  1.00  0.00     0.338 C 
ATOM     37  O   UNL A   1      44.580  22.097  25.416  1.00  0.00    -0.246 OA
BRANCH  36  38
ATOM     38  C   UNL A   1      43.224  23.998  25.636  1.00  0.00     0.060 A 
ATOM     39  C   UNL A   1      43.958  25.043  25.006  1.00  0.00     0.016 A 
ATOM     40  C   UNL A   1      42.409  24.374  26.607  1.00  0.00     0.016 A 
ATOM     41  C   UNL A   1      44.400  26.287  25.675  1.00  0.00     0.010 A 
ATOM     42  C   UNL A   1      43.017  25.386  27.309  1.00  0.00     0.010 A 
ATOM     43  C   UNL A   1      44.142  26.462  27.028  1.00  0.00    -0.014 A 
BRANCH  43  44
ATOM     44  C   UNL A   1      44.529  27.945  28.151  1.00  0.00     0.031 A 
ATOM     45  C   UNL A   1      43.114  29.012  28.934  1.00  0.00     0.074 A 
ATOM     46  C   UNL A   1      45.830  28.209  28.508  1.00  0.00     0.049 A 
ATOM     47  N   UNL A   1      43.025  29.599  30.094  1.00  0.00    -0.248 NA
ATOM     48  C   UNL A   1      41.477  29.028  28.584  1.00  0.00     0.031 C 
ATOM     49  C   UNL A   1      46.393  28.884  29.693  1.00  0.00     0.029 A 
ATOM     50  N   UNL A   1      47.006  27.701  27.950  1.00  0.00    -0.354 N 
ATOM     51  C   UNL A   1      41.786  30.325  30.228  1.00  0.00     0.074 A 
ATOM     52  C   UNL A   1      40.796  29.671  29.493  1.00  0.00     0.031 C 
ATOM     53  C   UNL A   1      47.728  29.051  29.547  1.00  0.00     0.029 A 
ATOM     54  C   UNL A   1      48.078  28.537  28.249  1.00  0.00     0.049 A 
ATOM     55  H   UNL A   1      47.067  26.873  27.422  1.00  0.00     0.167 HD
ATOM     56  C   UNL A   1      41.660  31.684  30.346  1.00  0.00     0.037 A 
ATOM     57  C   UNL A   1      48.781  29.089  27.237  1.00  0.00     0.037 A 
ATOM     58  C   UNL A   1      43.031  32.235  30.280  1.00  0.00     0.049 A 
ATOM     59  C   UNL A   1      48.537  30.589  27.275  1.00  0.00     0.074 A 
ATOM     60  C   UNL A   1      44.260  31.235  31.224  1.00  0.00     0.029 A 
ATOM     61  N   UNL A   1      44.215  33.479  29.177  1.00  0.00    -0.354 N 
ATOM     62  N   UNL A   1      47.625  31.197  28.002  1.00  0.00    -0.248 NA
ATOM     63  C   UNL A   1      49.336  31.529  26.507  1.00  0.00     0.031 C 
ATOM     64  C   UNL A   1      46.016  31.709  30.678  1.00  0.00     0.029 A 
ATOM     65  C   UNL A   1      46.001  32.960  29.476  1.00  0.00     0.049 A 
ATOM     66  H   UNL A   1      43.910  34.214  28.598  1.00  0.00     0.167 HD
ATOM     67  C   UNL A   1      47.736  32.564  27.864  1.00  0.00     0.074 A 
ATOM     68  C   UNL A   1      48.766  32.696  26.848  1.00  0.00     0.031 C 
ATOM     69  C   UNL A   1      47.001  33.482  28.579  1.00  0.00     0.037 A 
BRANCH  56  70
ATOM     70  C   UNL A   1      40.544  32.038  31.346  1.00  0.00     0.058 A 
ATOM     71  C   UNL A   1      39.333  32.527  30.827  1.00  0.00     0.135 A 
ATOM     72  C   UNL A   1      40.633  32.089  32.767  1.00  0.00     0.135 A 
ATOM     73  F   UNL A   1      39.158  32.679  29.509  1.00  0.00    -0.206 F 
ATOM     74  C   UNL A   1      38.270  32.946  31.625  1.00  0.00     0.059 A 
ATOM     75  C   UNL A   1      39.605  32.588  33.588  1.00  0.00     0.059 A 
ATOM     76  F   UNL A   1      41.722  31.668  33.429  1.00  0.00    -0.206 F 
ATOM     77  C   UNL A   1      38.409  32.980  33.005  1.00  0.00     0.060 A 
BRANCH  77  78
ATOM     78  S   UNL A   1      37.004  33.544  33.983  1.00  0.00     0.124 S 
ATOM     79  O   UNL A   1      37.383  34.917  34.303  1.00  0.00    -0.237 OA
ATOM     80  O   UNL A   1      35.904  33.393  33.038  1.00  0.00    -0.237 OA
ATOM     81  O   UNL A   1      36.984  32.627  35.119  1.00  0.00    -0.744 OA
ENDBRANCH  77  78
ENDBRANCH  56  70
BRANCH  57  82
ATOM     82  C   UNL A   1      48.824  28.120  26.068  1.00  0.00     0.058 A 
ATOM     83  C   UNL A   1      47.809  28.189  25.075  1.00  0.00     0.135 A 
ATOM     84  C   UNL A   1      50.030  27.555  25.652  1.00  0.00     0.135 A 
ATOM     85  F   UNL A   1      46.634  28.778  25.360  1.00  0.00    -0.206 F 
ATOM     86  C   UNL A   1      48.026  27.830  23.736  1.00  0.00     0.059 A 
ATOM     87  C   UNL A   1      50.259  27.145  24.328  1.00  0.00     0.059 A 
ATOM     88  F   UNL A   1      51.060  27.553  26.495  1.00  0.00    -0.206 F 
ATOM     89  C   UNL A   1      49.267  27.326  23.366  1.00  0.00     0.060 A 
BRANCH  89  90
ATOM     90  S   UNL A   1      49.618  27.088  21.602  1.00  0.00     0.124 S 
ATOM     91  O   UNL A   1      51.016  26.680  21.610  1.00  0.00    -0.237 OA
ATOM     92  O   UNL A   1      48.657  26.048  21.239  1.00  0.00    -0.237 OA
ATOM     93  O   UNL A   1      49.372  28.409  21.038  1.00  0.00    -0.744 OA
ENDBRANCH  89  90
ENDBRANCH  57  82
BRANCH  69  94
ATOM     94  C   UNL A   1      46.976  34.971  28.443  1.00  0.00     0.058 A 
ATOM     95  C   UNL A   1      46.519  35.680  27.357  1.00  0.00     0.135 A 
ATOM     96  C   UNL A   1      47.381  35.782  29.527  1.00  0.00     0.135 A 
ATOM     97  F   UNL A   1      46.589  35.171  26.124  1.00  0.00    -0.206 F 
ATOM     98  C   UNL A   1      46.168  37.015  27.469  1.00  0.00     0.059 A 
ATOM     99  C   UNL A   1      46.933  37.060  29.750  1.00  0.00     0.059 A 
ATOM    100  F   UNL A   1      48.404  35.415  30.306  1.00  0.00    -0.206 F 
ATOM    101  C   UNL A   1      46.333  37.681  28.685  1.00  0.00     0.060 A 
BRANCH 101 102
ATOM    102  S   UNL A   1      46.134  39.455  28.715  1.00  0.00     0.124 S 
ATOM    103  O   UNL A   1      46.452  39.736  30.112  1.00  0.00    -0.237 OA
ATOM    104  O   UNL A   1      47.123  39.884  27.732  1.00  0.00    -0.237 OA
ATOM    105  O   UNL A   1      44.740  39.653  28.335  1.00  0.00    -0.744 OA
ENDBRANCH 101 102
ENDBRANCH  69  94
ENDBRANCH  43  44
ENDBRANCH  36  38
ENDBRANCH  35  36
ENDBRANCH  34  35
ENDBRANCH  33  34
ENDBRANCH  32  33
ENDBRANCH  31  32
ENDBRANCH   1  31
TORSDOF 25
ENDMDL
