MODEL 1
REMARK VINA RESULT:      -9.6      0.000      0.000
REMARK SMILES CCc1ccc(CNC(=O)CCC(=O)OCCOCCOCCOC(=O)c2ccc(-c3c4nc(c(-c5c(F)cc(S(=O)(=O)[O-])cc5F)c5ccc([nH]5)c(-c5c(F)cc(S(=O)(=O)[O-])cc5F)c5nc(c(-c6c(F)cc(S(=O)(=O)[O-])cc6F)c6ccc3[nH]6)C=C5)C=C4)cc2)cc1
REMARK SMILES IDX 19 1 18 2 17 3 16 4 15 5 13 6 14 7 12 8 11 9 9 10 8 11 10 13
REMARK SMILES IDX 7 14 6 15 3 16 4 17 94 18 5 19 93 20 2 21 1 22 20 23 21 24
REMARK SMILES IDX 22 25 23 26 24 27 25 28 26 29 27 30 28 31 92 32 29 33 91 34
REMARK SMILES IDX 30 35 31 36 32 37 85 38 33 39 90 40 84 41 86 42 34 43 89 44
REMARK SMILES IDX 83 45 82 46 35 48 69 49 48 50 68 51 49 52 52 53 67 54 87 55
REMARK SMILES IDX 50 56 51 57 66 59 88 60 53 61 36 62 37 63 46 64 38 65 39 66
REMARK SMILES IDX 45 67 47 68 40 69 41 70 42 71 43 72 44 73 70 74 71 75 80 76
REMARK SMILES IDX 72 77 73 78 79 79 81 80 74 81 75 82 76 83 77 84 78 85 54 86
REMARK SMILES IDX 55 87 64 88 56 89 57 90 63 91 65 92 58 93 59 94 60 95 61 96
REMARK SMILES IDX 62 97
REMARK H PARENT 8 12 86 47 52 58
REMARK Flexibility Score: inf
ROOT
ATOM      1  C   UNL A   1      37.455  21.696  24.879  1.00  0.00     0.188 C 
ENDROOT
BRANCH   1   2
ATOM      2  O   UNL A   1      36.525  20.694  25.271  1.00  0.00    -0.376 OA
BRANCH   2   3
ATOM      3  C   UNL A   1      35.163  21.122  25.258  1.00  0.00     0.202 C 
BRANCH   3   4
ATOM      4  C   UNL A   1      34.896  22.103  24.114  1.00  0.00     0.261 C 
BRANCH   4   5
ATOM      5  O   UNL A   1      33.751  22.919  24.450  1.00  0.00    -0.463 OA
BRANCH   5   6
ATOM      6  C   UNL A   1      33.975  24.206  24.806  1.00  0.00     0.306 C 
ATOM      7  O   UNL A   1      34.286  24.576  25.929  1.00  0.00    -0.252 OA
BRANCH   6   8
ATOM      8  C   UNL A   1      33.756  25.158  23.652  1.00  0.00     0.132 C 
BRANCH   8   9
ATOM      9  C   UNL A   1      32.512  24.901  22.800  1.00  0.00     0.111 C 
BRANCH   9  10
ATOM     10  C   UNL A   1      32.472  25.830  21.604  1.00  0.00     0.220 C 
ATOM     11  N   UNL A   1      31.654  26.915  21.577  1.00  0.00    -0.352 N 
ATOM     12  H   UNL A   1      31.740  27.481  20.776  1.00  0.00     0.163 HD
ATOM     13  O   UNL A   1      33.214  25.639  20.638  1.00  0.00    -0.275 OA
BRANCH  11  14
ATOM     14  C   UNL A   1      30.676  27.367  22.543  1.00  0.00     0.151 C 
BRANCH  14  15
ATOM     15  C   UNL A   1      31.261  27.913  23.825  1.00  0.00    -0.029 A 
ATOM     16  C   UNL A   1      32.765  28.439  26.162  1.00  0.00    -0.048 A 
ATOM     17  C   UNL A   1      32.986  29.171  24.989  1.00  0.00     0.004 A 
ATOM     18  C   UNL A   1      31.722  27.505  26.182  1.00  0.00     0.004 A 
ATOM     19  C   UNL A   1      32.232  28.922  23.838  1.00  0.00     0.006 A 
ATOM     20  C   UNL A   1      30.977  27.248  25.027  1.00  0.00     0.006 A 
BRANCH  16  21
ATOM     21  C   UNL A   1      33.721  28.525  27.328  1.00  0.00     0.032 C 
ATOM     22  C   UNL A   1      34.926  29.420  27.092  1.00  0.00     0.009 C 
ENDBRANCH  16  21
ENDBRANCH  14  15
ENDBRANCH  11  14
ENDBRANCH   9  10
ENDBRANCH   8   9
ENDBRANCH   6   8
ENDBRANCH   5   6
ENDBRANCH   4   5
ENDBRANCH   3   4
ENDBRANCH   2   3
ENDBRANCH   1   2
BRANCH   1  23
ATOM     23  C   UNL A   1      38.486  21.947  25.958  1.00  0.00     0.188 C 
BRANCH  23  24
ATOM     24  O   UNL A   1      39.751  21.305  25.863  1.00  0.00    -0.376 OA
BRANCH  24  25
ATOM     25  C   UNL A   1      40.694  21.763  26.844  1.00  0.00     0.202 C 
BRANCH  25  26
ATOM     26  C   UNL A   1      41.594  22.985  26.504  1.00  0.00     0.261 C 
BRANCH  26  27
ATOM     27  O   UNL A   1      40.864  24.223  26.348  1.00  0.00    -0.460 OA
BRANCH  27  28
ATOM     28  C   UNL A   1      41.626  25.328  26.080  1.00  0.00     0.338 C 
ATOM     29  O   UNL A   1      42.033  25.662  24.995  1.00  0.00    -0.246 OA
BRANCH  28  30
ATOM     30  C   UNL A   1      41.612  26.243  27.270  1.00  0.00     0.060 A 
ATOM     31  C   UNL A   1      40.712  25.937  28.306  1.00  0.00     0.016 A 
ATOM     32  C   UNL A   1      42.524  27.287  27.441  1.00  0.00     0.016 A 
ATOM     33  C   UNL A   1      40.705  26.674  29.494  1.00  0.00     0.010 A 
ATOM     34  C   UNL A   1      42.489  28.056  28.614  1.00  0.00     0.010 A 
ATOM     35  C   UNL A   1      41.558  27.774  29.632  1.00  0.00    -0.014 A 
BRANCH  35  36
ATOM     36  C   UNL A   1      41.260  28.800  30.667  1.00  0.00     0.031 A 
ATOM     37  C   UNL A   1      42.122  28.781  31.906  1.00  0.00     0.074 A 
ATOM     38  C   UNL A   1      40.292  29.726  30.534  1.00  0.00     0.049 A 
ATOM     39  N   UNL A   1      42.036  29.497  32.995  1.00  0.00    -0.248 NA
ATOM     40  C   UNL A   1      43.234  27.813  31.909  1.00  0.00     0.031 C 
ATOM     41  C   UNL A   1      39.431  29.901  29.367  1.00  0.00     0.029 A 
ATOM     42  N   UNL A   1      39.867  30.698  31.411  1.00  0.00    -0.354 N 
ATOM     43  C   UNL A   1      43.075  29.062  33.811  1.00  0.00     0.074 A 
ATOM     44  C   UNL A   1      43.762  28.006  33.106  1.00  0.00     0.031 C 
ATOM     45  C   UNL A   1      38.564  30.903  29.611  1.00  0.00     0.029 A 
ATOM     46  C   UNL A   1      38.787  31.421  30.960  1.00  0.00     0.049 A 
ATOM     47  H   UNL A   1      40.298  30.862  32.282  1.00  0.00     0.167 HD
ATOM     48  C   UNL A   1      43.430  29.505  35.038  1.00  0.00     0.037 A 
ATOM     49  C   UNL A   1      38.050  32.369  31.580  1.00  0.00     0.037 A 
ATOM     50  C   UNL A   1      42.741  30.546  35.749  1.00  0.00     0.049 A 
ATOM     51  C   UNL A   1      38.410  32.784  32.990  1.00  0.00     0.074 A 
ATOM     52  C   UNL A   1      43.017  31.057  37.004  1.00  0.00     0.029 A 
ATOM     53  N   UNL A   1      41.634  31.229  35.269  1.00  0.00    -0.354 N 
ATOM     54  N   UNL A   1      39.398  32.368  33.750  1.00  0.00    -0.248 NA
ATOM     55  C   UNL A   1      37.555  33.797  33.629  1.00  0.00     0.031 C 
ATOM     56  C   UNL A   1      42.048  32.018  37.303  1.00  0.00     0.029 A 
ATOM     57  C   UNL A   1      41.203  32.145  36.212  1.00  0.00     0.049 A 
ATOM     58  H   UNL A   1      41.217  31.085  34.389  1.00  0.00     0.167 HD
ATOM     59  C   UNL A   1      39.300  33.093  34.936  1.00  0.00     0.074 A 
ATOM     60  C   UNL A   1      38.164  33.978  34.792  1.00  0.00     0.031 C 
ATOM     61  C   UNL A   1      40.082  33.035  36.044  1.00  0.00     0.037 A 
BRANCH  48  62
ATOM     62  C   UNL A   1      44.603  28.839  35.700  1.00  0.00     0.058 A 
ATOM     63  C   UNL A   1      45.902  29.363  35.599  1.00  0.00     0.135 A 
ATOM     64  C   UNL A   1      44.421  27.676  36.464  1.00  0.00     0.135 A 
ATOM     65  F   UNL A   1      46.134  30.455  34.854  1.00  0.00    -0.206 F 
ATOM     66  C   UNL A   1      46.982  28.748  36.222  1.00  0.00     0.059 A 
ATOM     67  C   UNL A   1      45.482  27.059  37.119  1.00  0.00     0.059 A 
ATOM     68  F   UNL A   1      43.202  27.127  36.580  1.00  0.00    -0.206 F 
ATOM     69  C   UNL A   1      46.761  27.599  36.983  1.00  0.00     0.060 A 
BRANCH  69  70
ATOM     70  S   UNL A   1      48.170  26.826  37.804  1.00  0.00     0.124 S 
ATOM     71  O   UNL A   1      47.972  27.252  39.185  1.00  0.00    -0.237 OA
ATOM     72  O   UNL A   1      47.944  25.409  37.539  1.00  0.00    -0.237 OA
ATOM     73  O   UNL A   1      49.322  27.411  37.126  1.00  0.00    -0.744 OA
ENDBRANCH  69  70
ENDBRANCH  48  62
BRANCH  49  74
ATOM     74  C   UNL A   1      36.872  32.981  30.902  1.00  0.00     0.058 A 
ATOM     75  C   UNL A   1      37.029  33.967  29.915  1.00  0.00     0.135 A 
ATOM     76  C   UNL A   1      35.561  32.630  31.262  1.00  0.00     0.135 A 
ATOM     77  F   UNL A   1      38.260  34.356  29.547  1.00  0.00    -0.206 F 
ATOM     78  C   UNL A   1      35.935  34.599  29.328  1.00  0.00     0.059 A 
ATOM     79  C   UNL A   1      34.451  33.227  30.671  1.00  0.00     0.059 A 
ATOM     80  F   UNL A   1      35.349  31.695  32.201  1.00  0.00    -0.206 F 
ATOM     81  C   UNL A   1      34.648  34.222  29.715  1.00  0.00     0.060 A 
BRANCH  81  82
ATOM     82  S   UNL A   1      33.233  35.032  28.934  1.00  0.00     0.124 S 
ATOM     83  O   UNL A   1      32.356  35.260  30.076  1.00  0.00    -0.237 OA
ATOM     84  O   UNL A   1      33.844  36.222  28.351  1.00  0.00    -0.237 OA
ATOM     85  O   UNL A   1      32.769  34.039  27.970  1.00  0.00    -0.744 OA
ENDBRANCH  81  82
ENDBRANCH  49  74
BRANCH  61  86
ATOM     86  C   UNL A   1      39.778  33.983  37.173  1.00  0.00     0.058 A 
ATOM     87  C   UNL A   1      38.957  33.617  38.249  1.00  0.00     0.135 A 
ATOM     88  C   UNL A   1      40.382  35.251  37.212  1.00  0.00     0.135 A 
ATOM     89  F   UNL A   1      38.355  32.418  38.262  1.00  0.00    -0.206 F 
ATOM     90  C   UNL A   1      38.727  34.483  39.316  1.00  0.00     0.059 A 
ATOM     91  C   UNL A   1      40.191  36.122  38.281  1.00  0.00     0.059 A 
ATOM     92  F   UNL A   1      41.190  35.647  36.215  1.00  0.00    -0.206 F 
ATOM     93  C   UNL A   1      39.352  35.732  39.324  1.00  0.00     0.060 A 
BRANCH  93  94
ATOM     94  S   UNL A   1      39.078  36.829  40.732  1.00  0.00     0.124 S 
ATOM     95  O   UNL A   1      38.312  37.909  40.119  1.00  0.00    -0.237 OA
ATOM     96  O   UNL A   1      38.340  35.974  41.656  1.00  0.00    -0.237 OA
ATOM     97  O   UNL A   1      40.430  37.181  41.157  1.00  0.00    -0.744 OA
ENDBRANCH  93  94
ENDBRANCH  61  86
ENDBRANCH  35  36
ENDBRANCH  28  30
ENDBRANCH  27  28
ENDBRANCH  26  27
ENDBRANCH  25  26
ENDBRANCH  24  25
ENDBRANCH  23  24
ENDBRANCH   1  23
TORSDOF 25
ENDMDL
MODEL 2
REMARK VINA RESULT:      -9.2      1.333      2.192
REMARK SMILES CCc1ccc(CNC(=O)CCC(=O)OCCOCCOCCOC(=O)c2ccc(-c3c4nc(c(-c5c(F)cc(S(=O)(=O)[O-])cc5F)c5ccc([nH]5)c(-c5c(F)cc(S(=O)(=O)[O-])cc5F)c5nc(c(-c6c(F)cc(S(=O)(=O)[O-])cc6F)c6ccc3[nH]6)C=C5)C=C4)cc2)cc1
REMARK SMILES IDX 19 1 18 2 17 3 16 4 15 5 13 6 14 7 12 8 11 9 9 10 8 11 10 13
REMARK SMILES IDX 7 14 6 15 3 16 4 17 94 18 5 19 93 20 2 21 1 22 20 23 21 24
REMARK SMILES IDX 22 25 23 26 24 27 25 28 26 29 27 30 28 31 92 32 29 33 91 34
REMARK SMILES IDX 30 35 31 36 32 37 85 38 33 39 90 40 84 41 86 42 34 43 89 44
REMARK SMILES IDX 83 45 82 46 35 48 69 49 48 50 68 51 49 52 52 53 67 54 87 55
REMARK SMILES IDX 50 56 51 57 66 59 88 60 53 61 36 62 37 63 46 64 38 65 39 66
REMARK SMILES IDX 45 67 47 68 40 69 41 70 42 71 43 72 44 73 70 74 71 75 80 76
REMARK SMILES IDX 72 77 73 78 79 79 81 80 74 81 75 82 76 83 77 84 78 85 54 86
REMARK SMILES IDX 55 87 64 88 56 89 57 90 63 91 65 92 58 93 59 94 60 95 61 96
REMARK SMILES IDX 62 97
REMARK H PARENT 8 12 86 47 52 58
REMARK Flexibility Score: inf
ROOT
ATOM      1  C   UNL A   1      37.042  22.196  24.663  1.00  0.00     0.188 C 
ENDROOT
BRANCH   1   2
ATOM      2  O   UNL A   1      35.893  21.360  24.591  1.00  0.00    -0.376 OA
BRANCH   2   3
ATOM      3  C   UNL A   1      34.703  22.035  24.186  1.00  0.00     0.202 C 
BRANCH   3   4
ATOM      4  C   UNL A   1      35.014  23.203  23.247  1.00  0.00     0.261 C 
BRANCH   4   5
ATOM      5  O   UNL A   1      33.804  23.586  22.553  1.00  0.00    -0.463 OA
BRANCH   5   6
ATOM      6  C   UNL A   1      33.365  24.857  22.704  1.00  0.00     0.306 C 
ATOM      7  O   UNL A   1      33.433  25.727  21.847  1.00  0.00    -0.252 OA
BRANCH   6   8
ATOM      8  C   UNL A   1      32.807  25.102  24.088  1.00  0.00     0.132 C 
BRANCH   8   9
ATOM      9  C   UNL A   1      31.575  24.280  24.468  1.00  0.00     0.111 C 
BRANCH   9  10
ATOM     10  C   UNL A   1      30.689  25.043  25.431  1.00  0.00     0.220 C 
ATOM     11  N   UNL A   1      29.664  25.819  24.990  1.00  0.00    -0.352 N 
ATOM     12  H   UNL A   1      29.119  26.231  25.698  1.00  0.00     0.163 HD
ATOM     13  O   UNL A   1      30.860  24.945  26.648  1.00  0.00    -0.275 OA
BRANCH  11  14
ATOM     14  C   UNL A   1      29.250  26.132  23.639  1.00  0.00     0.151 C 
BRANCH  14  15
ATOM     15  C   UNL A   1      29.202  27.608  23.319  1.00  0.00    -0.029 A 
ATOM     16  C   UNL A   1      28.932  30.424  23.340  1.00  0.00    -0.048 A 
ATOM     17  C   UNL A   1      30.195  29.825  23.433  1.00  0.00     0.004 A 
ATOM     18  C   UNL A   1      27.815  29.603  23.145  1.00  0.00     0.004 A 
ATOM     19  C   UNL A   1      30.330  28.434  23.407  1.00  0.00     0.006 A 
ATOM     20  C   UNL A   1      27.949  28.212  23.131  1.00  0.00     0.006 A 
BRANCH  16  21
ATOM     21  C   UNL A   1      28.746  31.898  23.607  1.00  0.00     0.032 C 
ATOM     22  C   UNL A   1      28.562  32.747  22.360  1.00  0.00     0.009 C 
ENDBRANCH  16  21
ENDBRANCH  14  15
ENDBRANCH  11  14
ENDBRANCH   9  10
ENDBRANCH   8   9
ENDBRANCH   6   8
ENDBRANCH   5   6
ENDBRANCH   4   5
ENDBRANCH   3   4
ENDBRANCH   2   3
ENDBRANCH   1   2
BRANCH   1  23
ATOM     23  C   UNL A   1      37.942  21.803  25.814  1.00  0.00     0.188 C 
BRANCH  23  24
ATOM     24  O   UNL A   1      39.314  21.537  25.554  1.00  0.00    -0.376 OA
BRANCH  24  25
ATOM     25  C   UNL A   1      40.126  21.537  26.738  1.00  0.00     0.202 C 
BRANCH  25  26
ATOM     26  C   UNL A   1      41.072  22.743  26.997  1.00  0.00     0.261 C 
BRANCH  26  27
ATOM     27  O   UNL A   1      40.546  24.008  26.539  1.00  0.00    -0.460 OA
BRANCH  27  28
ATOM     28  C   UNL A   1      41.470  25.000  26.351  1.00  0.00     0.338 C 
ATOM     29  O   UNL A   1      42.038  25.253  25.316  1.00  0.00    -0.246 OA
BRANCH  28  30
ATOM     30  C   UNL A   1      41.442  25.937  27.522  1.00  0.00     0.060 A 
ATOM     31  C   UNL A   1      40.257  25.984  28.280  1.00  0.00     0.016 A 
ATOM     32  C   UNL A   1      42.560  26.652  27.956  1.00  0.00     0.016 A 
ATOM     33  C   UNL A   1      40.179  26.750  29.447  1.00  0.00     0.010 A 
ATOM     34  C   UNL A   1      42.470  27.456  29.103  1.00  0.00     0.010 A 
ATOM     35  C   UNL A   1      41.270  27.535  29.835  1.00  0.00    -0.014 A 
BRANCH  35  36
ATOM     36  C   UNL A   1      41.056  28.657  30.787  1.00  0.00     0.031 A 
ATOM     37  C   UNL A   1      41.969  28.709  31.987  1.00  0.00     0.074 A 
ATOM     38  C   UNL A   1      40.119  29.608  30.612  1.00  0.00     0.049 A 
ATOM     39  N   UNL A   1      41.957  29.518  33.012  1.00  0.00    -0.248 NA
ATOM     40  C   UNL A   1      43.042  27.699  32.031  1.00  0.00     0.031 C 
ATOM     41  C   UNL A   1      39.215  29.717  29.469  1.00  0.00     0.029 A 
ATOM     42  N   UNL A   1      39.769  30.668  31.416  1.00  0.00    -0.354 N 
ATOM     43  C   UNL A   1      43.012  29.113  33.821  1.00  0.00     0.074 A 
ATOM     44  C   UNL A   1      43.629  27.973  33.185  1.00  0.00     0.031 C 
ATOM     45  C   UNL A   1      38.398  30.771  29.658  1.00  0.00     0.029 A 
ATOM     46  C   UNL A   1      38.698  31.394  30.948  1.00  0.00     0.049 A 
ATOM     47  H   UNL A   1      40.242  30.888  32.252  1.00  0.00     0.167 HD
ATOM     48  C   UNL A   1      43.437  29.645  34.990  1.00  0.00     0.037 A 
ATOM     49  C   UNL A   1      38.025  32.421  31.511  1.00  0.00     0.037 A 
ATOM     50  C   UNL A   1      42.819  30.770  35.634  1.00  0.00     0.049 A 
ATOM     51  C   UNL A   1      38.461  32.940  32.864  1.00  0.00     0.074 A 
ATOM     52  C   UNL A   1      43.168  31.375  36.827  1.00  0.00     0.029 A 
ATOM     53  N   UNL A   1      41.719  31.455  35.140  1.00  0.00    -0.354 N 
ATOM     54  N   UNL A   1      39.464  32.551  33.617  1.00  0.00    -0.248 NA
ATOM     55  C   UNL A   1      37.673  34.039  33.445  1.00  0.00     0.031 C 
ATOM     56  C   UNL A   1      42.250  32.398  37.079  1.00  0.00     0.029 A 
ATOM     57  C   UNL A   1      41.364  32.466  36.015  1.00  0.00     0.049 A 
ATOM     58  H   UNL A   1      41.259  31.253  34.293  1.00  0.00     0.167 HD
ATOM     59  C   UNL A   1      39.445  33.379  34.738  1.00  0.00     0.074 A 
ATOM     60  C   UNL A   1      38.338  34.295  34.563  1.00  0.00     0.031 C 
ATOM     61  C   UNL A   1      40.271  33.383  35.815  1.00  0.00     0.037 A 
BRANCH  48  62
ATOM     62  C   UNL A   1      44.611  28.990  35.660  1.00  0.00     0.058 A 
ATOM     63  C   UNL A   1      44.449  27.905  36.537  1.00  0.00     0.135 A 
ATOM     64  C   UNL A   1      45.916  29.438  35.404  1.00  0.00     0.135 A 
ATOM     65  F   UNL A   1      43.219  27.458  36.840  1.00  0.00    -0.206 F 
ATOM     66  C   UNL A   1      45.540  27.296  37.147  1.00  0.00     0.059 A 
ATOM     67  C   UNL A   1      47.024  28.826  35.982  1.00  0.00     0.059 A 
ATOM     68  F   UNL A   1      46.125  30.480  34.585  1.00  0.00    -0.206 F 
ATOM     69  C   UNL A   1      46.824  27.761  36.859  1.00  0.00     0.060 A 
BRANCH  69  70
ATOM     70  S   UNL A   1      48.230  26.946  37.642  1.00  0.00     0.124 S 
ATOM     71  O   UNL A   1      47.650  25.660  38.016  1.00  0.00    -0.237 OA
ATOM     72  O   UNL A   1      49.209  26.909  36.560  1.00  0.00    -0.237 OA
ATOM     73  O   UNL A   1      48.562  27.831  38.753  1.00  0.00    -0.744 OA
ENDBRANCH  69  70
ENDBRANCH  48  62
BRANCH  49  74
ATOM     74  C   UNL A   1      36.843  33.021  30.828  1.00  0.00     0.058 A 
ATOM     75  C   UNL A   1      36.994  33.982  29.816  1.00  0.00     0.135 A 
ATOM     76  C   UNL A   1      35.534  32.685  31.210  1.00  0.00     0.135 A 
ATOM     77  F   UNL A   1      38.222  34.357  29.427  1.00  0.00    -0.206 F 
ATOM     78  C   UNL A   1      35.897  34.603  29.224  1.00  0.00     0.059 A 
ATOM     79  C   UNL A   1      34.420  33.271  30.614  1.00  0.00     0.059 A 
ATOM     80  F   UNL A   1      35.328  31.774  32.173  1.00  0.00    -0.206 F 
ATOM     81  C   UNL A   1      34.612  34.241  29.632  1.00  0.00     0.060 A 
BRANCH  81  82
ATOM     82  S   UNL A   1      33.193  35.037  28.845  1.00  0.00     0.124 S 
ATOM     83  O   UNL A   1      33.824  36.164  28.169  1.00  0.00    -0.237 OA
ATOM     84  O   UNL A   1      32.687  33.976  27.980  1.00  0.00    -0.237 OA
ATOM     85  O   UNL A   1      32.332  35.380  29.973  1.00  0.00    -0.744 OA
ENDBRANCH  81  82
ENDBRANCH  49  74
BRANCH  61  86
ATOM     86  C   UNL A   1      40.052  34.437  36.867  1.00  0.00     0.058 A 
ATOM     87  C   UNL A   1      39.182  34.237  37.949  1.00  0.00     0.135 A 
ATOM     88  C   UNL A   1      40.785  35.635  36.830  1.00  0.00     0.135 A 
ATOM     89  F   UNL A   1      38.457  33.110  38.033  1.00  0.00    -0.206 F 
ATOM     90  C   UNL A   1      39.029  35.196  38.947  1.00  0.00     0.059 A 
ATOM     91  C   UNL A   1      40.671  36.595  37.831  1.00  0.00     0.059 A 
ATOM     92  F   UNL A   1      41.644  35.872  35.826  1.00  0.00    -0.206 F 
ATOM     93  C   UNL A   1      39.781  36.371  38.881  1.00  0.00     0.060 A 
BRANCH  93  94
ATOM     94  S   UNL A   1      39.603  37.589  40.202  1.00  0.00     0.124 S 
ATOM     95  O   UNL A   1      38.262  38.105  39.949  1.00  0.00    -0.237 OA
ATOM     96  O   UNL A   1      39.752  36.773  41.402  1.00  0.00    -0.237 OA
ATOM     97  O   UNL A   1      40.695  38.526  39.949  1.00  0.00    -0.744 OA
ENDBRANCH  93  94
ENDBRANCH  61  86
ENDBRANCH  35  36
ENDBRANCH  28  30
ENDBRANCH  27  28
ENDBRANCH  26  27
ENDBRANCH  25  26
ENDBRANCH  24  25
ENDBRANCH  23  24
ENDBRANCH   1  23
TORSDOF 25
ENDMDL
MODEL 3
REMARK VINA RESULT:      -8.7      5.894     11.021
REMARK SMILES CCc1ccc(CNC(=O)CCC(=O)OCCOCCOCCOC(=O)c2ccc(-c3c4nc(c(-c5c(F)cc(S(=O)(=O)[O-])cc5F)c5ccc([nH]5)c(-c5c(F)cc(S(=O)(=O)[O-])cc5F)c5nc(c(-c6c(F)cc(S(=O)(=O)[O-])cc6F)c6ccc3[nH]6)C=C5)C=C4)cc2)cc1
REMARK SMILES IDX 19 1 18 2 17 3 16 4 15 5 13 6 14 7 12 8 11 9 9 10 8 11 10 13
REMARK SMILES IDX 7 14 6 15 3 16 4 17 94 18 5 19 93 20 2 21 1 22 20 23 21 24
REMARK SMILES IDX 22 25 23 26 24 27 25 28 26 29 27 30 28 31 92 32 29 33 91 34
REMARK SMILES IDX 30 35 31 36 32 37 85 38 33 39 90 40 84 41 86 42 34 43 89 44
REMARK SMILES IDX 83 45 82 46 35 48 69 49 48 50 68 51 49 52 52 53 67 54 87 55
REMARK SMILES IDX 50 56 51 57 66 59 88 60 53 61 36 62 37 63 46 64 38 65 39 66
REMARK SMILES IDX 45 67 47 68 40 69 41 70 42 71 43 72 44 73 70 74 71 75 80 76
REMARK SMILES IDX 72 77 73 78 79 79 81 80 74 81 75 82 76 83 77 84 78 85 54 86
REMARK SMILES IDX 55 87 64 88 56 89 57 90 63 91 65 92 58 93 59 94 60 95 61 96
REMARK SMILES IDX 62 97
REMARK H PARENT 8 12 86 47 52 58
REMARK Flexibility Score: inf
ROOT
ATOM      1  C   UNL A   1      36.352  23.362  23.699  1.00  0.00     0.188 C 
ENDROOT
BRANCH   1   2
ATOM      2  O   UNL A   1      35.105  23.880  24.144  1.00  0.00    -0.376 OA
BRANCH   2   3
ATOM      3  C   UNL A   1      34.126  24.016  23.115  1.00  0.00     0.202 C 
BRANCH   3   4
ATOM      4  C   UNL A   1      33.779  25.485  22.863  1.00  0.00     0.261 C 
BRANCH   4   5
ATOM      5  O   UNL A   1      32.371  25.590  22.549  1.00  0.00    -0.463 OA
BRANCH   5   6
ATOM      6  C   UNL A   1      31.709  26.689  22.980  1.00  0.00     0.306 C 
ATOM      7  O   UNL A   1      31.601  27.732  22.350  1.00  0.00    -0.252 OA
BRANCH   6   8
ATOM      8  C   UNL A   1      31.141  26.499  24.369  1.00  0.00     0.132 C 
BRANCH   8   9
ATOM      9  C   UNL A   1      30.425  25.173  24.623  1.00  0.00     0.111 C 
BRANCH   9  10
ATOM     10  C   UNL A   1      30.242  24.929  26.106  1.00  0.00     0.220 C 
ATOM     11  N   UNL A   1      31.255  24.453  26.877  1.00  0.00    -0.352 N 
ATOM     12  H   UNL A   1      31.048  24.378  27.837  1.00  0.00     0.163 HD
ATOM     13  O   UNL A   1      29.170  25.195  26.656  1.00  0.00    -0.275 OA
BRANCH  11  14
ATOM     14  C   UNL A   1      32.591  24.040  26.505  1.00  0.00     0.151 C 
BRANCH  14  15
ATOM     15  C   UNL A   1      32.750  22.556  26.268  1.00  0.00    -0.029 A 
ATOM     16  C   UNL A   1      33.315  19.971  25.268  1.00  0.00    -0.048 A 
ATOM     17  C   UNL A   1      34.142  20.563  26.231  1.00  0.00     0.004 A 
ATOM     18  C   UNL A   1      32.152  20.647  24.879  1.00  0.00     0.004 A 
ATOM     19  C   UNL A   1      33.854  21.834  26.737  1.00  0.00     0.006 A 
ATOM     20  C   UNL A   1      31.872  21.923  25.375  1.00  0.00     0.006 A 
BRANCH  16  21
ATOM     21  C   UNL A   1      33.737  18.717  24.541  1.00  0.00     0.032 C 
ATOM     22  C   UNL A   1      32.850  17.509  24.797  1.00  0.00     0.009 C 
ENDBRANCH  16  21
ENDBRANCH  14  15
ENDBRANCH  11  14
ENDBRANCH   9  10
ENDBRANCH   8   9
ENDBRANCH   6   8
ENDBRANCH   5   6
ENDBRANCH   4   5
ENDBRANCH   3   4
ENDBRANCH   2   3
ENDBRANCH   1   2
BRANCH   1  23
ATOM     23  C   UNL A   1      36.967  22.438  24.727  1.00  0.00     0.188 C 
BRANCH  23  24
ATOM     24  O   UNL A   1      37.494  21.188  24.300  1.00  0.00    -0.376 OA
BRANCH  24  25
ATOM     25  C   UNL A   1      38.065  20.419  25.369  1.00  0.00     0.202 C 
BRANCH  25  26
ATOM     26  C   UNL A   1      39.486  20.788  25.880  1.00  0.00     0.261 C 
BRANCH  26  27
ATOM     27  O   UNL A   1      40.264  19.650  26.315  1.00  0.00    -0.460 OA
BRANCH  27  28
ATOM     28  C   UNL A   1      41.616  19.752  26.125  1.00  0.00     0.338 C 
ATOM     29  O   UNL A   1      42.304  18.985  25.496  1.00  0.00    -0.246 OA
BRANCH  28  30
ATOM     30  C   UNL A   1      42.075  21.122  26.532  1.00  0.00     0.060 A 
ATOM     31  C   UNL A   1      42.097  22.115  25.536  1.00  0.00     0.016 A 
ATOM     32  C   UNL A   1      42.352  21.472  27.856  1.00  0.00     0.016 A 
ATOM     33  C   UNL A   1      42.411  23.441  25.850  1.00  0.00     0.010 A 
ATOM     34  C   UNL A   1      42.710  22.794  28.164  1.00  0.00     0.010 A 
ATOM     35  C   UNL A   1      42.774  23.777  27.158  1.00  0.00    -0.014 A 
BRANCH  35  36
ATOM     36  C   UNL A   1      43.516  25.042  27.405  1.00  0.00     0.031 A 
ATOM     37  C   UNL A   1      42.706  26.215  27.902  1.00  0.00     0.074 A 
ATOM     38  C   UNL A   1      44.844  25.168  27.224  1.00  0.00     0.049 A 
ATOM     39  N   UNL A   1      43.071  27.450  28.120  1.00  0.00    -0.248 NA
ATOM     40  C   UNL A   1      41.285  25.948  28.188  1.00  0.00     0.031 C 
ATOM     41  C   UNL A   1      45.755  24.104  26.812  1.00  0.00     0.029 A 
ATOM     42  N   UNL A   1      45.657  26.270  27.360  1.00  0.00    -0.354 N 
ATOM     43  C   UNL A   1      41.927  28.105  28.561  1.00  0.00     0.074 A 
ATOM     44  C   UNL A   1      40.851  27.142  28.557  1.00  0.00     0.031 C 
ATOM     45  C   UNL A   1      46.999  24.611  26.706  1.00  0.00     0.029 A 
ATOM     46  C   UNL A   1      46.968  26.041  27.011  1.00  0.00     0.049 A 
ATOM     47  H   UNL A   1      45.330  27.143  27.679  1.00  0.00     0.167 HD
ATOM     48  C   UNL A   1      41.783  29.394  28.942  1.00  0.00     0.037 A 
ATOM     49  C   UNL A   1      48.010  26.896  26.923  1.00  0.00     0.037 A 
ATOM     50  C   UNL A   1      42.847  30.359  28.935  1.00  0.00     0.049 A 
ATOM     51  C   UNL A   1      47.804  28.356  27.266  1.00  0.00     0.074 A 
ATOM     52  C   UNL A   1      42.798  31.695  29.291  1.00  0.00     0.029 A 
ATOM     53  N   UNL A   1      44.150  30.093  28.545  1.00  0.00    -0.354 N 
ATOM     54  N   UNL A   1      46.718  28.963  27.686  1.00  0.00    -0.248 NA
ATOM     55  C   UNL A   1      48.965  29.248  27.121  1.00  0.00     0.031 C 
ATOM     56  C   UNL A   1      44.062  32.249  29.072  1.00  0.00     0.029 A 
ATOM     57  C   UNL A   1      44.912  31.245  28.634  1.00  0.00     0.049 A 
ATOM     58  H   UNL A   1      44.485  29.216  28.250  1.00  0.00     0.167 HD
ATOM     59  C   UNL A   1      47.077  30.294  27.888  1.00  0.00     0.074 A 
ATOM     60  C   UNL A   1      48.480  30.404  27.551  1.00  0.00     0.031 C 
ATOM     61  C   UNL A   1      46.314  31.333  28.315  1.00  0.00     0.037 A 
BRANCH  48  62
ATOM     62  C   UNL A   1      40.413  29.840  29.369  1.00  0.00     0.058 A 
ATOM     63  C   UNL A   1      39.359  29.968  28.450  1.00  0.00     0.135 A 
ATOM     64  C   UNL A   1      40.146  30.118  30.718  1.00  0.00     0.135 A 
ATOM     65  F   UNL A   1      39.571  29.743  27.143  1.00  0.00    -0.206 F 
ATOM     66  C   UNL A   1      38.091  30.370  28.852  1.00  0.00     0.059 A 
ATOM     67  C   UNL A   1      38.877  30.496  31.148  1.00  0.00     0.059 A 
ATOM     68  F   UNL A   1      41.122  30.024  31.635  1.00  0.00    -0.206 F 
ATOM     69  C   UNL A   1      37.859  30.628  30.205  1.00  0.00     0.060 A 
BRANCH  69  70
ATOM     70  S   UNL A   1      36.201  31.128  30.713  1.00  0.00     0.124 S 
ATOM     71  O   UNL A   1      35.901  30.137  31.742  1.00  0.00    -0.237 OA
ATOM     72  O   UNL A   1      36.421  32.490  31.190  1.00  0.00    -0.237 OA
ATOM     73  O   UNL A   1      35.420  31.014  29.487  1.00  0.00    -0.744 OA
ENDBRANCH  69  70
ENDBRANCH  48  62
BRANCH  49  74
ATOM     74  C   UNL A   1      49.346  26.422  26.461  1.00  0.00     0.058 A 
ATOM     75  C   UNL A   1      50.300  25.931  27.367  1.00  0.00     0.135 A 
ATOM     76  C   UNL A   1      49.718  26.496  25.109  1.00  0.00     0.135 A 
ATOM     77  F   UNL A   1      50.006  25.858  28.675  1.00  0.00    -0.206 F 
ATOM     78  C   UNL A   1      51.577  25.555  26.957  1.00  0.00     0.059 A 
ATOM     79  C   UNL A   1      50.979  26.101  24.670  1.00  0.00     0.059 A 
ATOM     80  F   UNL A   1      48.849  26.959  24.198  1.00  0.00    -0.206 F 
ATOM     81  C   UNL A   1      51.907  25.645  25.603  1.00  0.00     0.060 A 
BRANCH  81  82
ATOM     82  S   UNL A   1      53.559  25.136  25.076  1.00  0.00     0.124 S 
ATOM     83  O   UNL A   1      53.527  23.704  25.347  1.00  0.00    -0.237 OA
ATOM     84  O   UNL A   1      53.563  25.518  23.667  1.00  0.00    -0.237 OA
ATOM     85  O   UNL A   1      54.442  25.922  25.933  1.00  0.00    -0.744 OA
ENDBRANCH  81  82
ENDBRANCH  49  74
BRANCH  61  86
ATOM     86  C   UNL A   1      46.982  32.669  28.498  1.00  0.00     0.058 A 
ATOM     87  C   UNL A   1      47.587  33.036  29.709  1.00  0.00     0.135 A 
ATOM     88  C   UNL A   1      47.082  33.563  27.419  1.00  0.00     0.135 A 
ATOM     89  F   UNL A   1      47.521  32.219  30.773  1.00  0.00    -0.206 F 
ATOM     90  C   UNL A   1      48.250  34.252  29.852  1.00  0.00     0.059 A 
ATOM     91  C   UNL A   1      47.764  34.771  27.529  1.00  0.00     0.059 A 
ATOM     92  F   UNL A   1      46.534  33.256  26.233  1.00  0.00    -0.206 F 
ATOM     93  C   UNL A   1      48.336  35.112  28.755  1.00  0.00     0.060 A 
BRANCH  93  94
ATOM     94  S   UNL A   1      49.233  36.668  28.940  1.00  0.00     0.124 S 
ATOM     95  O   UNL A   1      48.145  37.640  28.915  1.00  0.00    -0.237 OA
ATOM     96  O   UNL A   1      49.897  36.494  30.228  1.00  0.00    -0.237 OA
ATOM     97  O   UNL A   1      50.122  36.689  27.781  1.00  0.00    -0.744 OA
ENDBRANCH  93  94
ENDBRANCH  61  86
ENDBRANCH  35  36
ENDBRANCH  28  30
ENDBRANCH  27  28
ENDBRANCH  26  27
ENDBRANCH  25  26
ENDBRANCH  24  25
ENDBRANCH  23  24
ENDBRANCH   1  23
TORSDOF 25
ENDMDL
