MODEL 1
REMARK VINA RESULT:     -10.1      0.000      0.000
REMARK SMILES CS(=O)(=O)c1ccc(-n2nc(C(F)(F)F)cc2-c2ccc(CC(=O)OCCOCCOCCOC(=O)c3ccc(-c4c5nc(c(-c6c(F)cc(S(=O)(=O)[O-])cc6F)c6ccc([nH]6)c(-c6c(F)cc(S(=O)(=O)[O-])cc6F)c6nc(c(-c7c(F)cc(S(=O)(=O)[O-])cc7F)c7ccc4[nH]7)C=C6)C=C5)cc3)cc2)cc1
REMARK SMILES IDX 29 1 28 2 27 3 26 4 25 5 23 6 24 7 22 8 21 9 18 10 19 11
REMARK SMILES IDX 104 12 20 13 103 14 17 15 9 16 10 17 11 18 16 19 8 20 5 21
REMARK SMILES IDX 6 22 106 23 7 24 105 25 2 26 1 27 3 28 4 29 12 30 13 31
REMARK SMILES IDX 14 32 15 33 30 34 31 35 32 36 33 37 34 38 35 39 36 40 37 41
REMARK SMILES IDX 38 42 102 43 39 44 101 45 40 46 41 47 42 48 95 49 43 50
REMARK SMILES IDX 100 51 94 52 96 53 44 54 99 55 93 56 92 57 45 59 79 60 58 61
REMARK SMILES IDX 78 62 59 63 62 64 77 65 97 66 60 67 61 68 76 70 98 71 63 72
REMARK SMILES IDX 46 73 47 74 56 75 48 76 49 77 55 78 57 79 50 80 51 81 52 82
REMARK SMILES IDX 53 83 54 84 80 85 81 86 90 87 82 88 83 89 89 90 91 91 84 92
REMARK SMILES IDX 85 93 86 94 87 95 88 96 64 97 65 98 74 99 66 100 67 101
REMARK SMILES IDX 73 102 75 103 68 104 69 105 70 106 71 107 72 108
REMARK H PARENT 96 58 62 69
REMARK Flexibility Score: inf
ROOT
ATOM      1  C   UNL A   1      40.173  21.108  26.407  1.00  0.00     0.188 C 
ENDROOT
BRANCH   1   2
ATOM      2  O   UNL A   1      39.116  22.059  26.277  1.00  0.00    -0.376 OA
BRANCH   2   3
ATOM      3  C   UNL A   1      38.148  21.805  25.277  1.00  0.00     0.202 C 
BRANCH   3   4
ATOM      4  C   UNL A   1      36.781  22.393  25.649  1.00  0.00     0.261 C 
BRANCH   4   5
ATOM      5  O   UNL A   1      35.824  21.415  26.120  1.00  0.00    -0.463 OA
BRANCH   5   6
ATOM      6  C   UNL A   1      34.514  21.746  25.983  1.00  0.00     0.310 C 
ATOM      7  O   UNL A   1      33.655  21.481  26.822  1.00  0.00    -0.252 OA
BRANCH   6   8
ATOM      8  C   UNL A   1      34.128  22.394  24.664  1.00  0.00     0.158 C 
BRANCH   8   9
ATOM      9  C   UNL A   1      33.562  23.802  24.585  1.00  0.00    -0.037 A 
ATOM     10  C   UNL A   1      32.335  26.362  24.311  1.00  0.00     0.000 A 
ATOM     11  C   UNL A   1      31.924  25.476  25.313  1.00  0.00     0.010 A 
ATOM     12  C   UNL A   1      33.373  25.963  23.459  1.00  0.00     0.010 A 
ATOM     13  C   UNL A   1      32.516  24.207  25.436  1.00  0.00     0.005 A 
ATOM     14  C   UNL A   1      33.991  24.708  23.605  1.00  0.00     0.005 A 
BRANCH  10  15
ATOM     15  C   UNL A   1      31.576  27.594  24.054  1.00  0.00     0.075 A 
ATOM     16  N   UNL A   1      31.632  28.794  24.763  1.00  0.00    -0.233 N 
ATOM     17  N   UNL A   1      30.586  29.608  24.453  1.00  0.00    -0.163 NA
ATOM     18  C   UNL A   1      29.948  29.011  23.435  1.00  0.00     0.167 A 
ATOM     19  C   UNL A   1      30.517  27.743  23.173  1.00  0.00     0.064 A 
BRANCH  16  20
ATOM     20  C   UNL A   1      32.636  29.313  25.622  1.00  0.00     0.065 A 
ATOM     21  C   UNL A   1      34.614  30.213  27.374  1.00  0.00     0.067 A 
ATOM     22  C   UNL A   1      33.364  30.850  27.335  1.00  0.00     0.022 A 
ATOM     23  C   UNL A   1      34.876  29.116  26.554  1.00  0.00     0.022 A 
ATOM     24  C   UNL A   1      32.385  30.424  26.433  1.00  0.00     0.030 A 
ATOM     25  C   UNL A   1      33.870  28.643  25.708  1.00  0.00     0.030 A 
BRANCH  21  26
ATOM     26  S   UNL A   1      35.933  30.907  28.349  1.00  0.00     0.175 S 
ATOM     27  C   UNL A   1      37.360  29.933  27.988  1.00  0.00     0.163 C 
ATOM     28  O   UNL A   1      35.601  30.686  29.747  1.00  0.00    -0.224 OA
ATOM     29  O   UNL A   1      36.158  32.255  27.863  1.00  0.00    -0.224 OA
ENDBRANCH  21  26
ENDBRANCH  16  20
BRANCH  18  30
ATOM     30  C   UNL A   1      28.792  29.650  22.714  1.00  0.00     0.435 C 
ATOM     31  F   UNL A   1      28.365  30.808  23.278  1.00  0.00    -0.164 F 
ATOM     32  F   UNL A   1      29.106  29.934  21.419  1.00  0.00    -0.164 F 
ATOM     33  F   UNL A   1      27.710  28.821  22.663  1.00  0.00    -0.164 F 
ENDBRANCH  18  30
ENDBRANCH  10  15
ENDBRANCH   8   9
ENDBRANCH   6   8
ENDBRANCH   5   6
ENDBRANCH   4   5
ENDBRANCH   3   4
ENDBRANCH   2   3
ENDBRANCH   1   2
BRANCH   1  34
ATOM     34  C   UNL A   1      41.636  21.591  26.410  1.00  0.00     0.188 C 
BRANCH  34  35
ATOM     35  O   UNL A   1      42.460  21.473  25.259  1.00  0.00    -0.376 OA
BRANCH  35  36
ATOM     36  C   UNL A   1      43.730  22.105  25.222  1.00  0.00     0.202 C 
BRANCH  36  37
ATOM     37  C   UNL A   1      43.800  23.531  24.736  1.00  0.00     0.261 C 
BRANCH  37  38
ATOM     38  O   UNL A   1      43.604  24.482  25.765  1.00  0.00    -0.460 OA
BRANCH  38  39
ATOM     39  C   UNL A   1      44.220  25.660  25.540  1.00  0.00     0.338 C 
ATOM     40  O   UNL A   1      45.136  25.896  24.756  1.00  0.00    -0.246 OA
BRANCH  39  41
ATOM     41  C   UNL A   1      43.722  26.632  26.494  1.00  0.00     0.060 A 
ATOM     42  C   UNL A   1      42.810  27.578  26.023  1.00  0.00     0.016 A 
ATOM     43  C   UNL A   1      44.349  26.738  27.745  1.00  0.00     0.016 A 
ATOM     44  C   UNL A   1      42.618  28.717  26.766  1.00  0.00     0.010 A 
ATOM     45  C   UNL A   1      44.167  27.880  28.477  1.00  0.00     0.010 A 
ATOM     46  C   UNL A   1      43.345  28.874  27.950  1.00  0.00    -0.014 A 
BRANCH  46  47
ATOM     47  C   UNL A   1      43.169  30.102  28.689  1.00  0.00     0.031 A 
ATOM     48  C   UNL A   1      44.068  31.187  28.254  1.00  0.00     0.074 A 
ATOM     49  C   UNL A   1      42.173  30.251  29.580  1.00  0.00     0.049 A 
ATOM     50  N   UNL A   1      44.976  31.789  28.944  1.00  0.00    -0.248 NA
ATOM     51  C   UNL A   1      44.045  31.558  26.829  1.00  0.00     0.031 C 
ATOM     52  C   UNL A   1      41.056  29.326  29.797  1.00  0.00     0.029 A 
ATOM     53  N   UNL A   1      41.873  31.310  30.382  1.00  0.00    -0.354 N 
ATOM     54  C   UNL A   1      45.459  32.789  28.109  1.00  0.00     0.074 A 
ATOM     55  C   UNL A   1      45.011  32.474  26.780  1.00  0.00     0.031 C 
ATOM     56  C   UNL A   1      40.098  29.956  30.508  1.00  0.00     0.029 A 
ATOM     57  C   UNL A   1      40.586  31.270  30.898  1.00  0.00     0.049 A 
ATOM     58  H   UNL A   1      42.509  32.036  30.576  1.00  0.00     0.167 HD
ATOM     59  C   UNL A   1      45.916  33.958  28.625  1.00  0.00     0.037 A 
ATOM     60  C   UNL A   1      39.938  32.263  31.546  1.00  0.00     0.037 A 
ATOM     61  C   UNL A   1      46.191  33.842  30.033  1.00  0.00     0.049 A 
ATOM     62  C   UNL A   1      40.947  33.215  32.075  1.00  0.00     0.074 A 
ATOM     63  C   UNL A   1      47.195  33.312  30.811  1.00  0.00     0.029 A 
ATOM     64  N   UNL A   1      45.116  34.073  30.849  1.00  0.00    -0.354 N 
ATOM     65  N   UNL A   1      41.808  32.918  33.010  1.00  0.00    -0.248 NA
ATOM     66  C   UNL A   1      41.222  34.452  31.350  1.00  0.00     0.031 C 
ATOM     67  C   UNL A   1      46.635  33.104  32.105  1.00  0.00     0.029 A 
ATOM     68  C   UNL A   1      45.302  33.509  32.084  1.00  0.00     0.049 A 
ATOM     69  H   UNL A   1      44.314  34.579  30.583  1.00  0.00     0.167 HD
ATOM     70  C   UNL A   1      42.918  33.685  32.716  1.00  0.00     0.074 A 
ATOM     71  C   UNL A   1      42.445  34.722  31.813  1.00  0.00     0.031 C 
ATOM     72  C   UNL A   1      44.177  33.223  32.952  1.00  0.00     0.037 A 
BRANCH  59  73
ATOM     73  C   UNL A   1      45.683  35.308  27.987  1.00  0.00     0.058 A 
ATOM     74  C   UNL A   1      46.790  36.145  27.746  1.00  0.00     0.135 A 
ATOM     75  C   UNL A   1      44.415  35.929  27.891  1.00  0.00     0.135 A 
ATOM     76  F   UNL A   1      48.040  35.660  27.813  1.00  0.00    -0.206 F 
ATOM     77  C   UNL A   1      46.652  37.512  27.505  1.00  0.00     0.059 A 
ATOM     78  C   UNL A   1      44.254  37.276  27.594  1.00  0.00     0.059 A 
ATOM     79  F   UNL A   1      43.277  35.289  28.183  1.00  0.00    -0.206 F 
ATOM     80  C   UNL A   1      45.378  38.070  27.452  1.00  0.00     0.060 A 
BRANCH  80  81
ATOM     81  S   UNL A   1      45.193  39.851  27.268  1.00  0.00     0.124 S 
ATOM     82  O   UNL A   1      44.356  39.932  26.077  1.00  0.00    -0.237 OA
ATOM     83  O   UNL A   1      44.556  40.225  28.526  1.00  0.00    -0.237 OA
ATOM     84  O   UNL A   1      46.569  40.314  27.107  1.00  0.00    -0.744 OA
ENDBRANCH  80  81
ENDBRANCH  59  73
BRANCH  60  85
ATOM     85  C   UNL A   1      38.483  32.541  31.569  1.00  0.00     0.058 A 
ATOM     86  C   UNL A   1      37.691  32.172  32.668  1.00  0.00     0.135 A 
ATOM     87  C   UNL A   1      37.878  33.393  30.620  1.00  0.00     0.135 A 
ATOM     88  F   UNL A   1      38.196  31.386  33.630  1.00  0.00    -0.206 F 
ATOM     89  C   UNL A   1      36.392  32.653  32.841  1.00  0.00     0.059 A 
ATOM     90  C   UNL A   1      36.577  33.868  30.761  1.00  0.00     0.059 A 
ATOM     91  F   UNL A   1      38.568  33.865  29.570  1.00  0.00    -0.206 F 
ATOM     92  C   UNL A   1      35.848  33.515  31.889  1.00  0.00     0.060 A 
BRANCH  92  93
ATOM     93  S   UNL A   1      34.238  34.270  32.197  1.00  0.00     0.124 S 
ATOM     94  O   UNL A   1      33.669  34.324  30.854  1.00  0.00    -0.237 OA
ATOM     95  O   UNL A   1      33.622  33.314  33.113  1.00  0.00    -0.237 OA
ATOM     96  O   UNL A   1      34.576  35.563  32.785  1.00  0.00    -0.744 OA
ENDBRANCH  92  93
ENDBRANCH  60  85
BRANCH  72  97
ATOM     97  C   UNL A   1      44.358  32.234  34.064  1.00  0.00     0.058 A 
ATOM     98  C   UNL A   1      44.311  30.839  33.911  1.00  0.00     0.135 A 
ATOM     99  C   UNL A   1      44.660  32.734  35.341  1.00  0.00     0.135 A 
ATOM    100  F   UNL A   1      44.109  30.285  32.706  1.00  0.00    -0.206 F 
ATOM    101  C   UNL A   1      44.516  29.981  34.993  1.00  0.00     0.059 A 
ATOM    102  C   UNL A   1      44.899  31.898  36.425  1.00  0.00     0.059 A 
ATOM    103  F   UNL A   1      44.764  34.060  35.538  1.00  0.00    -0.206 F 
ATOM    104  C   UNL A   1      44.810  30.519  36.247  1.00  0.00     0.060 A 
BRANCH 104 105
ATOM    105  S   UNL A   1      45.151  29.408  37.629  1.00  0.00     0.124 S 
ATOM    106  O   UNL A   1      44.032  28.476  37.557  1.00  0.00    -0.237 OA
ATOM    107  O   UNL A   1      46.459  28.858  37.282  1.00  0.00    -0.237 OA
ATOM    108  O   UNL A   1      45.149  30.298  38.788  1.00  0.00    -0.744 OA
ENDBRANCH 104 105
ENDBRANCH  72  97
ENDBRANCH  46  47
ENDBRANCH  39  41
ENDBRANCH  38  39
ENDBRANCH  37  38
ENDBRANCH  36  37
ENDBRANCH  35  36
ENDBRANCH  34  35
ENDBRANCH   1  34
TORSDOF 25
ENDMDL
MODEL 2
REMARK VINA RESULT:      -9.8      4.541     10.236
REMARK SMILES CS(=O)(=O)c1ccc(-n2nc(C(F)(F)F)cc2-c2ccc(CC(=O)OCCOCCOCCOC(=O)c3ccc(-c4c5nc(c(-c6c(F)cc(S(=O)(=O)[O-])cc6F)c6ccc([nH]6)c(-c6c(F)cc(S(=O)(=O)[O-])cc6F)c6nc(c(-c7c(F)cc(S(=O)(=O)[O-])cc7F)c7ccc4[nH]7)C=C6)C=C5)cc3)cc2)cc1
REMARK SMILES IDX 29 1 28 2 27 3 26 4 25 5 23 6 24 7 22 8 21 9 18 10 19 11
REMARK SMILES IDX 104 12 20 13 103 14 17 15 9 16 10 17 11 18 16 19 8 20 5 21
REMARK SMILES IDX 6 22 106 23 7 24 105 25 2 26 1 27 3 28 4 29 12 30 13 31
REMARK SMILES IDX 14 32 15 33 30 34 31 35 32 36 33 37 34 38 35 39 36 40 37 41
REMARK SMILES IDX 38 42 102 43 39 44 101 45 40 46 41 47 42 48 95 49 43 50
REMARK SMILES IDX 100 51 94 52 96 53 44 54 99 55 93 56 92 57 45 59 79 60 58 61
REMARK SMILES IDX 78 62 59 63 62 64 77 65 97 66 60 67 61 68 76 70 98 71 63 72
REMARK SMILES IDX 46 73 47 74 56 75 48 76 49 77 55 78 57 79 50 80 51 81 52 82
REMARK SMILES IDX 53 83 54 84 80 85 81 86 90 87 82 88 83 89 89 90 91 91 84 92
REMARK SMILES IDX 85 93 86 94 87 95 88 96 64 97 65 98 74 99 66 100 67 101
REMARK SMILES IDX 73 102 75 103 68 104 69 105 70 106 71 107 72 108
REMARK H PARENT 96 58 62 69
REMARK Flexibility Score: inf
ROOT
ATOM      1  C   UNL A   1      41.977  19.715  26.733  1.00  0.00     0.188 C 
ENDROOT
BRANCH   1   2
ATOM      2  O   UNL A   1      41.071  20.204  25.743  1.00  0.00    -0.376 OA
BRANCH   2   3
ATOM      3  C   UNL A   1      40.284  21.325  26.095  1.00  0.00     0.202 C 
BRANCH   3   4
ATOM      4  C   UNL A   1      41.151  22.511  26.535  1.00  0.00     0.261 C 
BRANCH   4   5
ATOM      5  O   UNL A   1      40.397  23.677  26.945  1.00  0.00    -0.463 OA
BRANCH   5   6
ATOM      6  C   UNL A   1      41.113  24.684  27.508  1.00  0.00     0.310 C 
ATOM      7  O   UNL A   1      41.847  24.533  28.484  1.00  0.00    -0.252 OA
BRANCH   6   8
ATOM      8  C   UNL A   1      40.888  26.067  26.921  1.00  0.00     0.158 C 
BRANCH   8   9
ATOM      9  C   UNL A   1      40.117  27.148  27.659  1.00  0.00    -0.037 A 
ATOM     10  C   UNL A   1      38.861  29.243  29.133  1.00  0.00     0.000 A 
ATOM     11  C   UNL A   1      39.422  29.490  27.875  1.00  0.00     0.010 A 
ATOM     12  C   UNL A   1      38.920  27.937  29.639  1.00  0.00     0.010 A 
ATOM     13  C   UNL A   1      40.057  28.462  27.157  1.00  0.00     0.005 A 
ATOM     14  C   UNL A   1      39.523  26.900  28.904  1.00  0.00     0.005 A 
BRANCH  10  15
ATOM     15  C   UNL A   1      38.388  30.356  29.967  1.00  0.00     0.075 A 
ATOM     16  N   UNL A   1      37.269  31.162  29.758  1.00  0.00    -0.233 N 
ATOM     17  N   UNL A   1      37.304  32.278  30.538  1.00  0.00    -0.163 NA
ATOM     18  C   UNL A   1      38.352  32.117  31.360  1.00  0.00     0.167 A 
ATOM     19  C   UNL A   1      39.069  30.946  31.020  1.00  0.00     0.064 A 
BRANCH  16  20
ATOM     20  C   UNL A   1      36.100  30.938  28.985  1.00  0.00     0.065 A 
ATOM     21  C   UNL A   1      33.882  30.479  27.354  1.00  0.00     0.067 A 
ATOM     22  C   UNL A   1      34.018  31.700  28.032  1.00  0.00     0.022 A 
ATOM     23  C   UNL A   1      34.859  29.490  27.473  1.00  0.00     0.022 A 
ATOM     24  C   UNL A   1      35.109  31.918  28.877  1.00  0.00     0.030 A 
ATOM     25  C   UNL A   1      35.987  29.739  28.256  1.00  0.00     0.030 A 
BRANCH  21  26
ATOM     26  S   UNL A   1      32.378  30.117  26.472  1.00  0.00     0.175 S 
ATOM     27  C   UNL A   1      31.469  31.629  26.432  1.00  0.00     0.163 C 
ATOM     28  O   UNL A   1      31.618  29.176  27.278  1.00  0.00    -0.224 OA
ATOM     29  O   UNL A   1      32.754  29.767  25.115  1.00  0.00    -0.224 OA
ENDBRANCH  21  26
ENDBRANCH  16  20
BRANCH  18  30
ATOM     30  C   UNL A   1      38.672  33.083  32.468  1.00  0.00     0.435 C 
ATOM     31  F   UNL A   1      37.963  32.868  33.605  1.00  0.00    -0.164 F 
ATOM     32  F   UNL A   1      39.990  33.034  32.809  1.00  0.00    -0.164 F 
ATOM     33  F   UNL A   1      38.430  34.373  32.098  1.00  0.00    -0.164 F 
ENDBRANCH  18  30
ENDBRANCH  10  15
ENDBRANCH   8   9
ENDBRANCH   6   8
ENDBRANCH   5   6
ENDBRANCH   4   5
ENDBRANCH   3   4
ENDBRANCH   2   3
ENDBRANCH   1   2
BRANCH   1  34
ATOM     34  C   UNL A   1      42.777  18.426  26.462  1.00  0.00     0.188 C 
BRANCH  34  35
ATOM     35  O   UNL A   1      44.058  18.462  25.849  1.00  0.00    -0.376 OA
BRANCH  35  36
ATOM     36  C   UNL A   1      44.195  18.910  24.510  1.00  0.00     0.202 C 
BRANCH  36  37
ATOM     37  C   UNL A   1      45.065  20.115  24.249  1.00  0.00     0.261 C 
BRANCH  37  38
ATOM     38  O   UNL A   1      44.770  21.208  25.097  1.00  0.00    -0.460 OA
BRANCH  38  39
ATOM     39  C   UNL A   1      44.458  22.340  24.435  1.00  0.00     0.338 C 
ATOM     40  O   UNL A   1      43.906  22.449  23.342  1.00  0.00    -0.246 OA
BRANCH  39  41
ATOM     41  C   UNL A   1      45.009  23.468  25.160  1.00  0.00     0.060 A 
ATOM     42  C   UNL A   1      46.094  23.216  26.003  1.00  0.00     0.016 A 
ATOM     43  C   UNL A   1      44.296  24.676  25.182  1.00  0.00     0.016 A 
ATOM     44  C   UNL A   1      46.389  24.143  26.971  1.00  0.00     0.010 A 
ATOM     45  C   UNL A   1      44.583  25.592  26.157  1.00  0.00     0.010 A 
ATOM     46  C   UNL A   1      45.591  25.287  27.069  1.00  0.00    -0.014 A 
BRANCH  46  47
ATOM     47  C   UNL A   1      45.885  26.223  28.127  1.00  0.00     0.031 A 
ATOM     48  C   UNL A   1      45.129  25.968  29.368  1.00  0.00     0.074 A 
ATOM     49  C   UNL A   1      46.864  27.136  28.009  1.00  0.00     0.049 A 
ATOM     50  N   UNL A   1      44.276  26.740  29.950  1.00  0.00    -0.248 NA
ATOM     51  C   UNL A   1      45.236  24.626  29.965  1.00  0.00     0.031 C 
ATOM     52  C   UNL A   1      47.861  27.206  26.935  1.00  0.00     0.029 A 
ATOM     53  N   UNL A   1      47.260  28.108  28.877  1.00  0.00    -0.354 N 
ATOM     54  C   UNL A   1      43.936  26.080  31.125  1.00  0.00     0.074 A 
ATOM     55  C   UNL A   1      44.384  24.722  30.984  1.00  0.00     0.031 C 
ATOM     56  C   UNL A   1      48.863  28.023  27.321  1.00  0.00     0.029 A 
ATOM     57  C   UNL A   1      48.517  28.623  28.601  1.00  0.00     0.049 A 
ATOM     58  H   UNL A   1      46.706  28.415  29.631  1.00  0.00     0.167 HD
ATOM     59  C   UNL A   1      43.600  26.781  32.238  1.00  0.00     0.037 A 
ATOM     60  C   UNL A   1      49.256  29.436  29.389  1.00  0.00     0.037 A 
ATOM     61  C   UNL A   1      43.272  28.146  31.924  1.00  0.00     0.049 A 
ATOM     62  C   UNL A   1      48.347  30.107  30.352  1.00  0.00     0.074 A 
ATOM     63  C   UNL A   1      42.192  28.815  31.394  1.00  0.00     0.029 A 
ATOM     64  N   UNL A   1      44.342  29.000  31.888  1.00  0.00    -0.354 N 
ATOM     65  N   UNL A   1      47.430  30.970  30.008  1.00  0.00    -0.248 NA
ATOM     66  C   UNL A   1      48.237  29.597  31.716  1.00  0.00     0.031 C 
ATOM     67  C   UNL A   1      42.686  30.061  30.910  1.00  0.00     0.029 A 
ATOM     68  C   UNL A   1      44.056  30.121  31.152  1.00  0.00     0.049 A 
ATOM     69  H   UNL A   1      45.205  28.832  32.333  1.00  0.00     0.167 HD
ATOM     70  C   UNL A   1      46.425  30.798  30.939  1.00  0.00     0.074 A 
ATOM     71  C   UNL A   1      47.040  30.086  32.048  1.00  0.00     0.031 C 
ATOM     72  C   UNL A   1      45.115  30.940  30.596  1.00  0.00     0.037 A 
BRANCH  59  73
ATOM     73  C   UNL A   1      44.006  26.381  33.638  1.00  0.00     0.058 A 
ATOM     74  C   UNL A   1      43.032  26.390  34.655  1.00  0.00     0.135 A 
ATOM     75  C   UNL A   1      45.348  26.292  34.078  1.00  0.00     0.135 A 
ATOM     76  F   UNL A   1      41.726  26.474  34.351  1.00  0.00    -0.206 F 
ATOM     77  C   UNL A   1      43.368  26.391  36.009  1.00  0.00     0.059 A 
ATOM     78  C   UNL A   1      45.700  26.233  35.420  1.00  0.00     0.059 A 
ATOM     79  F   UNL A   1      46.386  26.367  33.237  1.00  0.00    -0.206 F 
ATOM     80  C   UNL A   1      44.708  26.333  36.379  1.00  0.00     0.060 A 
BRANCH  80  81
ATOM     81  S   UNL A   1      45.158  26.460  38.117  1.00  0.00     0.124 S 
ATOM     82  O   UNL A   1      46.589  26.723  38.026  1.00  0.00    -0.237 OA
ATOM     83  O   UNL A   1      44.329  27.572  38.568  1.00  0.00    -0.237 OA
ATOM     84  O   UNL A   1      44.789  25.153  38.653  1.00  0.00    -0.744 OA
ENDBRANCH  80  81
ENDBRANCH  59  73
BRANCH  60  85
ATOM     85  C   UNL A   1      50.732  29.519  29.486  1.00  0.00     0.058 A 
ATOM     86  C   UNL A   1      51.486  28.450  29.994  1.00  0.00     0.135 A 
ATOM     87  C   UNL A   1      51.457  30.553  28.856  1.00  0.00     0.135 A 
ATOM     88  F   UNL A   1      50.875  27.412  30.584  1.00  0.00    -0.206 F 
ATOM     89  C   UNL A   1      52.874  28.386  29.849  1.00  0.00     0.059 A 
ATOM     90  C   UNL A   1      52.842  30.521  28.719  1.00  0.00     0.059 A 
ATOM     91  F   UNL A   1      50.829  31.586  28.273  1.00  0.00    -0.206 F 
ATOM     92  C   UNL A   1      53.542  29.421  29.195  1.00  0.00     0.060 A 
BRANCH  92  93
ATOM     93  S   UNL A   1      55.308  29.258  28.858  1.00  0.00     0.124 S 
ATOM     94  O   UNL A   1      55.306  28.576  27.568  1.00  0.00    -0.237 OA
ATOM     95  O   UNL A   1      55.746  30.651  28.843  1.00  0.00    -0.237 OA
ATOM     96  O   UNL A   1      55.797  28.467  29.984  1.00  0.00    -0.744 OA
ENDBRANCH  92  93
ENDBRANCH  60  85
BRANCH  72  97
ATOM     97  C   UNL A   1      44.788  31.868  29.465  1.00  0.00     0.058 A 
ATOM     98  C   UNL A   1      44.552  31.465  28.141  1.00  0.00     0.135 A 
ATOM     99  C   UNL A   1      44.646  33.233  29.759  1.00  0.00     0.135 A 
ATOM    100  F   UNL A   1      44.589  30.168  27.799  1.00  0.00    -0.206 F 
ATOM    101  C   UNL A   1      44.227  32.389  27.146  1.00  0.00     0.059 A 
ATOM    102  C   UNL A   1      44.292  34.166  28.791  1.00  0.00     0.059 A 
ATOM    103  F   UNL A   1      44.815  33.672  31.019  1.00  0.00    -0.206 F 
ATOM    104  C   UNL A   1      44.099  33.738  27.480  1.00  0.00     0.060 A 
BRANCH 104 105
ATOM    105  S   UNL A   1      43.603  34.922  26.210  1.00  0.00     0.124 S 
ATOM    106  O   UNL A   1      42.283  35.335  26.674  1.00  0.00    -0.237 OA
ATOM    107  O   UNL A   1      44.650  35.937  26.292  1.00  0.00    -0.237 OA
ATOM    108  O   UNL A   1      43.614  34.128  24.983  1.00  0.00    -0.744 OA
ENDBRANCH 104 105
ENDBRANCH  72  97
ENDBRANCH  46  47
ENDBRANCH  39  41
ENDBRANCH  38  39
ENDBRANCH  37  38
ENDBRANCH  36  37
ENDBRANCH  35  36
ENDBRANCH  34  35
ENDBRANCH   1  34
TORSDOF 25
ENDMDL
MODEL 3
REMARK VINA RESULT:      -9.5      1.350      2.182
REMARK SMILES CS(=O)(=O)c1ccc(-n2nc(C(F)(F)F)cc2-c2ccc(CC(=O)OCCOCCOCCOC(=O)c3ccc(-c4c5nc(c(-c6c(F)cc(S(=O)(=O)[O-])cc6F)c6ccc([nH]6)c(-c6c(F)cc(S(=O)(=O)[O-])cc6F)c6nc(c(-c7c(F)cc(S(=O)(=O)[O-])cc7F)c7ccc4[nH]7)C=C6)C=C5)cc3)cc2)cc1
REMARK SMILES IDX 29 1 28 2 27 3 26 4 25 5 23 6 24 7 22 8 21 9 18 10 19 11
REMARK SMILES IDX 104 12 20 13 103 14 17 15 9 16 10 17 11 18 16 19 8 20 5 21
REMARK SMILES IDX 6 22 106 23 7 24 105 25 2 26 1 27 3 28 4 29 12 30 13 31
REMARK SMILES IDX 14 32 15 33 30 34 31 35 32 36 33 37 34 38 35 39 36 40 37 41
REMARK SMILES IDX 38 42 102 43 39 44 101 45 40 46 41 47 42 48 95 49 43 50
REMARK SMILES IDX 100 51 94 52 96 53 44 54 99 55 93 56 92 57 45 59 79 60 58 61
REMARK SMILES IDX 78 62 59 63 62 64 77 65 97 66 60 67 61 68 76 70 98 71 63 72
REMARK SMILES IDX 46 73 47 74 56 75 48 76 49 77 55 78 57 79 50 80 51 81 52 82
REMARK SMILES IDX 53 83 54 84 80 85 81 86 90 87 82 88 83 89 89 90 91 91 84 92
REMARK SMILES IDX 85 93 86 94 87 95 88 96 64 97 65 98 74 99 66 100 67 101
REMARK SMILES IDX 73 102 75 103 68 104 69 105 70 106 71 107 72 108
REMARK H PARENT 96 58 62 69
REMARK Flexibility Score: inf
ROOT
ATOM      1  C   UNL A   1      39.772  21.045  26.448  1.00  0.00     0.188 C 
ENDROOT
BRANCH   1   2
ATOM      2  O   UNL A   1      38.850  21.933  25.816  1.00  0.00    -0.376 OA
BRANCH   2   3
ATOM      3  C   UNL A   1      37.702  21.351  25.231  1.00  0.00     0.202 C 
BRANCH   3   4
ATOM      4  C   UNL A   1      36.504  22.308  25.258  1.00  0.00     0.261 C 
BRANCH   4   5
ATOM      5  O   UNL A   1      35.467  21.933  26.195  1.00  0.00    -0.463 OA
BRANCH   5   6
ATOM      6  C   UNL A   1      34.203  21.881  25.699  1.00  0.00     0.310 C 
ATOM      7  O   UNL A   1      33.315  21.175  26.175  1.00  0.00    -0.252 OA
BRANCH   6   8
ATOM      8  C   UNL A   1      33.953  22.686  24.435  1.00  0.00     0.158 C 
BRANCH   8   9
ATOM      9  C   UNL A   1      33.484  24.131  24.471  1.00  0.00    -0.037 A 
ATOM     10  C   UNL A   1      32.427  26.780  24.417  1.00  0.00     0.000 A 
ATOM     11  C   UNL A   1      32.006  25.861  25.385  1.00  0.00     0.010 A 
ATOM     12  C   UNL A   1      33.391  26.367  23.488  1.00  0.00     0.010 A 
ATOM     13  C   UNL A   1      32.513  24.551  25.400  1.00  0.00     0.005 A 
ATOM     14  C   UNL A   1      33.926  25.066  23.525  1.00  0.00     0.005 A 
BRANCH  10  15
ATOM     15  C   UNL A   1      31.745  28.074  24.275  1.00  0.00     0.075 A 
ATOM     16  N   UNL A   1      31.880  29.202  25.084  1.00  0.00    -0.233 N 
ATOM     17  N   UNL A   1      30.885  30.102  24.857  1.00  0.00    -0.163 NA
ATOM     18  C   UNL A   1      30.204  29.636  23.800  1.00  0.00     0.167 A 
ATOM     19  C   UNL A   1      30.691  28.362  23.423  1.00  0.00     0.064 A 
BRANCH  16  20
ATOM     20  C   UNL A   1      32.921  29.583  25.971  1.00  0.00     0.065 A 
ATOM     21  C   UNL A   1      34.952  30.212  27.779  1.00  0.00     0.067 A 
ATOM     22  C   UNL A   1      33.802  31.013  27.705  1.00  0.00     0.022 A 
ATOM     23  C   UNL A   1      35.086  29.087  26.966  1.00  0.00     0.022 A 
ATOM     24  C   UNL A   1      32.800  30.720  26.776  1.00  0.00     0.030 A 
ATOM     25  C   UNL A   1      34.050  28.752  26.092  1.00  0.00     0.030 A 
BRANCH  21  26
ATOM     26  S   UNL A   1      36.325  30.723  28.793  1.00  0.00     0.175 S 
ATOM     27  C   UNL A   1      36.177  32.475  28.952  1.00  0.00     0.163 C 
ATOM     28  O   UNL A   1      37.541  30.458  28.041  1.00  0.00    -0.224 OA
ATOM     29  O   UNL A   1      36.137  30.122  30.099  1.00  0.00    -0.224 OA
ENDBRANCH  21  26
ENDBRANCH  16  20
BRANCH  18  30
ATOM     30  C   UNL A   1      29.085  30.404  23.150  1.00  0.00     0.435 C 
ATOM     31  F   UNL A   1      28.098  29.617  22.650  1.00  0.00    -0.164 F 
ATOM     32  F   UNL A   1      28.497  31.267  24.025  1.00  0.00    -0.164 F 
ATOM     33  F   UNL A   1      29.533  31.169  22.114  1.00  0.00    -0.164 F 
ENDBRANCH  18  30
ENDBRANCH  10  15
ENDBRANCH   8   9
ENDBRANCH   6   8
ENDBRANCH   5   6
ENDBRANCH   4   5
ENDBRANCH   3   4
ENDBRANCH   2   3
ENDBRANCH   1   2
BRANCH   1  34
ATOM     34  C   UNL A   1      41.215  21.512  26.718  1.00  0.00     0.188 C 
BRANCH  34  35
ATOM     35  O   UNL A   1      42.235  21.382  25.738  1.00  0.00    -0.376 OA
BRANCH  35  36
ATOM     36  C   UNL A   1      43.275  22.343  25.659  1.00  0.00     0.202 C 
BRANCH  36  37
ATOM     37  C   UNL A   1      42.966  23.674  25.019  1.00  0.00     0.261 C 
BRANCH  37  38
ATOM     38  O   UNL A   1      42.304  24.571  25.890  1.00  0.00    -0.460 OA
BRANCH  38  39
ATOM     39  C   UNL A   1      42.434  25.865  25.537  1.00  0.00     0.338 C 
ATOM     40  O   UNL A   1      42.730  26.323  24.435  1.00  0.00    -0.246 OA
BRANCH  39  41
ATOM     41  C   UNL A   1      42.303  26.685  26.726  1.00  0.00     0.060 A 
ATOM     42  C   UNL A   1      41.432  27.775  26.656  1.00  0.00     0.016 A 
ATOM     43  C   UNL A   1      43.217  26.509  27.776  1.00  0.00     0.016 A 
ATOM     44  C   UNL A   1      41.567  28.770  27.592  1.00  0.00     0.010 A 
ATOM     45  C   UNL A   1      43.359  27.510  28.699  1.00  0.00     0.010 A 
ATOM     46  C   UNL A   1      42.568  28.648  28.561  1.00  0.00    -0.014 A 
BRANCH  46  47
ATOM     47  C   UNL A   1      42.728  29.730  29.502  1.00  0.00     0.031 A 
ATOM     48  C   UNL A   1      43.888  30.595  29.216  1.00  0.00     0.074 A 
ATOM     49  C   UNL A   1      41.808  29.982  30.449  1.00  0.00     0.049 A 
ATOM     50  N   UNL A   1      44.923  30.804  29.955  1.00  0.00    -0.248 NA
ATOM     51  C   UNL A   1      43.969  31.201  27.876  1.00  0.00     0.031 C 
ATOM     52  C   UNL A   1      40.482  29.364  30.559  1.00  0.00     0.029 A 
ATOM     53  N   UNL A   1      41.803  30.927  31.431  1.00  0.00    -0.354 N 
ATOM     54  C   UNL A   1      45.660  31.769  29.279  1.00  0.00     0.074 A 
ATOM     55  C   UNL A   1      45.146  31.820  27.938  1.00  0.00     0.031 C 
ATOM     56  C   UNL A   1      39.728  30.093  31.408  1.00  0.00     0.029 A 
ATOM     57  C   UNL A   1      40.553  31.141  31.990  1.00  0.00     0.049 A 
ATOM     58  H   UNL A   1      42.611  31.412  31.715  1.00  0.00     0.167 HD
ATOM     59  C   UNL A   1      46.415  32.666  29.963  1.00  0.00     0.037 A 
ATOM     60  C   UNL A   1      40.195  32.143  32.825  1.00  0.00     0.037 A 
ATOM     61  C   UNL A   1      46.646  32.239  31.317  1.00  0.00     0.049 A 
ATOM     62  C   UNL A   1      41.423  32.685  33.460  1.00  0.00     0.074 A 
ATOM     63  C   UNL A   1      47.467  31.333  31.950  1.00  0.00     0.029 A 
ATOM     64  N   UNL A   1      45.671  32.602  32.208  1.00  0.00    -0.354 N 
ATOM     65  N   UNL A   1      42.170  32.012  34.292  1.00  0.00    -0.248 NA
ATOM     66  C   UNL A   1      42.023  33.911  32.941  1.00  0.00     0.031 C 
ATOM     67  C   UNL A   1      46.869  31.061  33.215  1.00  0.00     0.029 A 
ATOM     68  C   UNL A   1      45.695  31.803  33.322  1.00  0.00     0.049 A 
ATOM     69  H   UNL A   1      45.036  33.341  32.068  1.00  0.00     0.167 HD
ATOM     70  C   UNL A   1      43.446  32.495  34.081  1.00  0.00     0.074 A 
ATOM     71  C   UNL A   1      43.273  33.761  33.387  1.00  0.00     0.031 C 
ATOM     72  C   UNL A   1      44.533  31.680  34.179  1.00  0.00     0.037 A 
BRANCH  59  73
ATOM     73  C   UNL A   1      46.556  34.119  29.571  1.00  0.00     0.058 A 
ATOM     74  C   UNL A   1      45.398  34.918  29.501  1.00  0.00     0.135 A 
ATOM     75  C   UNL A   1      47.714  34.668  28.973  1.00  0.00     0.135 A 
ATOM     76  F   UNL A   1      44.241  34.493  30.034  1.00  0.00    -0.206 F 
ATOM     77  C   UNL A   1      45.373  36.135  28.820  1.00  0.00     0.059 A 
ATOM     78  C   UNL A   1      47.725  35.904  28.340  1.00  0.00     0.059 A 
ATOM     79  F   UNL A   1      48.864  33.990  28.877  1.00  0.00    -0.206 F 
ATOM     80  C   UNL A   1      46.539  36.608  28.225  1.00  0.00     0.060 A 
BRANCH  80  81
ATOM     81  S   UNL A   1      46.488  38.113  27.238  1.00  0.00     0.124 S 
ATOM     82  O   UNL A   1      46.802  37.597  25.911  1.00  0.00    -0.237 OA
ATOM     83  O   UNL A   1      45.117  38.568  27.443  1.00  0.00    -0.237 OA
ATOM     84  O   UNL A   1      47.517  38.948  27.852  1.00  0.00    -0.744 OA
ENDBRANCH  80  81
ENDBRANCH  59  73
BRANCH  60  85
ATOM     85  C   UNL A   1      38.869  32.791  32.959  1.00  0.00     0.058 A 
ATOM     86  C   UNL A   1      38.464  33.803  32.075  1.00  0.00     0.135 A 
ATOM     87  C   UNL A   1      37.871  32.263  33.806  1.00  0.00     0.135 A 
ATOM     88  F   UNL A   1      39.342  34.342  31.216  1.00  0.00    -0.206 F 
ATOM     89  C   UNL A   1      37.139  34.238  32.002  1.00  0.00     0.059 A 
ATOM     90  C   UNL A   1      36.549  32.695  33.765  1.00  0.00     0.059 A 
ATOM     91  F   UNL A   1      38.134  31.243  34.637  1.00  0.00    -0.206 F 
ATOM     92  C   UNL A   1      36.184  33.666  32.842  1.00  0.00     0.060 A 
BRANCH  92  93
ATOM     93  S   UNL A   1      34.445  34.104  32.631  1.00  0.00     0.124 S 
ATOM     94  O   UNL A   1      34.459  34.774  31.335  1.00  0.00    -0.237 OA
ATOM     95  O   UNL A   1      33.794  32.798  32.667  1.00  0.00    -0.237 OA
ATOM     96  O   UNL A   1      34.171  34.966  33.778  1.00  0.00    -0.744 OA
ENDBRANCH  92  93
ENDBRANCH  60  85
BRANCH  72  97
ATOM     97  C   UNL A   1      44.438  30.501  35.100  1.00  0.00     0.058 A 
ATOM     98  C   UNL A   1      44.654  30.548  36.486  1.00  0.00     0.135 A 
ATOM     99  C   UNL A   1      44.045  29.271  34.549  1.00  0.00     0.135 A 
ATOM    100  F   UNL A   1      44.954  31.704  37.098  1.00  0.00    -0.206 F 
ATOM    101  C   UNL A   1      44.522  29.410  37.283  1.00  0.00     0.059 A 
ATOM    102  C   UNL A   1      43.876  28.132  35.328  1.00  0.00     0.059 A 
ATOM    103  F   UNL A   1      43.779  29.176  33.235  1.00  0.00    -0.206 F 
ATOM    104  C   UNL A   1      44.132  28.205  36.695  1.00  0.00     0.060 A 
BRANCH 104 105
ATOM    105  S   UNL A   1      43.885  26.750  37.736  1.00  0.00     0.124 S 
ATOM    106  O   UNL A   1      44.630  25.725  37.012  1.00  0.00    -0.237 OA
ATOM    107  O   UNL A   1      44.460  27.169  39.012  1.00  0.00    -0.237 OA
ATOM    108  O   UNL A   1      42.434  26.581  37.744  1.00  0.00    -0.744 OA
ENDBRANCH 104 105
ENDBRANCH  72  97
ENDBRANCH  46  47
ENDBRANCH  39  41
ENDBRANCH  38  39
ENDBRANCH  37  38
ENDBRANCH  36  37
ENDBRANCH  35  36
ENDBRANCH  34  35
ENDBRANCH   1  34
TORSDOF 25
ENDMDL
