MODEL 1
REMARK VINA RESULT:     -11.2      0.000      0.000
REMARK SMILES NS(=O)(=O)c1ccc(-n2nc(C(=O)OCCOCCOCCOC(=O)c3ccc(-c4c5nc(c(-c6c(F)cc(S(=O)(=O)[O-])cc6F)c6ccc([nH]6)c(-c6c(F)cc(S(=O)(=O)[O-])cc6F)c6nc(c(-c7c(F)cc(S(=O)(=O)[O-])cc7F)c7ccc4[nH]7)C=C6)C=C5)cc3)cc2-c2ccc(Cl)s2)cc1
REMARK SMILES IDX 18 1 17 2 16 3 15 4 14 5 12 6 13 7 11 8 9 9 10 10 93 11
REMARK SMILES IDX 92 12 8 13 5 14 6 15 101 16 7 17 100 18 2 19 3 20 4 21 1 22
REMARK SMILES IDX 94 25 95 26 99 27 96 28 97 29 98 30 19 31 20 32 21 33 22 34
REMARK SMILES IDX 23 35 24 36 25 37 26 38 27 39 91 40 28 41 90 42 29 43 30 44
REMARK SMILES IDX 31 45 84 46 32 47 89 48 83 49 85 50 33 51 88 52 82 53 81 54
REMARK SMILES IDX 34 56 68 57 47 58 67 59 48 60 51 61 66 62 86 63 49 64 50 65
REMARK SMILES IDX 65 67 87 68 52 69 35 70 36 71 45 72 37 73 38 74 44 75 46 76
REMARK SMILES IDX 39 77 40 78 41 79 42 80 43 81 69 82 70 83 79 84 71 85 72 86
REMARK SMILES IDX 78 87 80 88 73 89 74 90 75 91 76 92 77 93 53 94 54 95 63 96
REMARK SMILES IDX 55 97 56 98 62 99 64 100 57 101 58 102 59 103 60 104 61 105
REMARK H PARENT 1 23 1 24 85 55 51 66
REMARK Flexibility Score: inf
ROOT
ATOM      1  C   UNL A   1      32.745  28.291  24.922  1.00  0.00     0.188 C 
ENDROOT
BRANCH   1   2
ATOM      2  O   UNL A   1      32.089  27.227  24.244  1.00  0.00    -0.376 OA
BRANCH   2   3
ATOM      3  C   UNL A   1      30.678  27.221  24.103  1.00  0.00     0.202 C 
BRANCH   3   4
ATOM      4  C   UNL A   1      29.849  26.263  24.975  1.00  0.00     0.261 C 
BRANCH   4   5
ATOM      5  O   UNL A   1      30.497  25.823  26.179  1.00  0.00    -0.458 OA
BRANCH   5   6
ATOM      6  C   UNL A   1      30.372  24.494  26.469  1.00  0.00     0.358 C 
ATOM      7  O   UNL A   1      29.403  23.997  27.033  1.00  0.00    -0.244 OA
BRANCH   6   8
ATOM      8  C   UNL A   1      31.504  23.701  25.963  1.00  0.00     0.171 A 
ATOM      9  N   UNL A   1      32.559  21.980  25.242  1.00  0.00    -0.231 N 
ATOM     10  N   UNL A   1      31.321  22.445  25.514  1.00  0.00    -0.160 NA
ATOM     11  C   UNL A   1      33.526  22.969  25.355  1.00  0.00     0.085 A 
ATOM     12  C   UNL A   1      32.857  24.095  25.796  1.00  0.00     0.068 A 
BRANCH   9  13
ATOM     13  C   UNL A   1      32.741  20.591  25.046  1.00  0.00     0.065 A 
ATOM     14  C   UNL A   1      33.133  17.866  24.677  1.00  0.00     0.082 A 
ATOM     15  C   UNL A   1      33.100  18.389  25.972  1.00  0.00     0.024 A 
ATOM     16  C   UNL A   1      32.947  18.696  23.563  1.00  0.00     0.024 A 
ATOM     17  C   UNL A   1      32.918  19.757  26.157  1.00  0.00     0.030 A 
ATOM     18  C   UNL A   1      32.723  20.063  23.748  1.00  0.00     0.030 A 
BRANCH  14  19
ATOM     19  S   UNL A   1      33.398  16.140  24.404  1.00  0.00     0.238 S 
ATOM     20  O   UNL A   1      33.765  15.942  23.025  1.00  0.00    -0.207 OA
ATOM     21  O   UNL A   1      32.344  15.399  25.060  1.00  0.00    -0.207 OA
BRANCH  19  22
ATOM     22  N   UNL A   1      34.788  15.780  25.288  1.00  0.00    -0.225 NA
ATOM     23  H   UNL A   1      35.519  16.455  25.062  1.00  0.00     0.137 HD
ATOM     24  H   UNL A   1      35.108  14.841  25.053  1.00  0.00     0.137 HD
ENDBRANCH  19  22
ENDBRANCH  14  19
ENDBRANCH   9  13
BRANCH  11  25
ATOM     25  C   UNL A   1      34.922  22.805  25.059  1.00  0.00     0.054 A 
ATOM     26  C   UNL A   1      35.576  23.229  23.916  1.00  0.00     0.024 A 
ATOM     27  S   UNL A   1      36.009  22.026  26.141  1.00  0.00    -0.122 S 
ATOM     28  C   UNL A   1      36.984  23.000  23.978  1.00  0.00     0.033 A 
ATOM     29  C   UNL A   1      37.331  22.370  25.145  1.00  0.00     0.094 A 
ATOM     30  Cl  UNL A   1      38.916  21.935  25.640  1.00  0.00    -0.072 Cl
ENDBRANCH  11  25
ENDBRANCH   6   8
ENDBRANCH   5   6
ENDBRANCH   4   5
ENDBRANCH   3   4
ENDBRANCH   2   3
ENDBRANCH   1   2
BRANCH   1  31
ATOM     31  C   UNL A   1      33.641  28.050  26.159  1.00  0.00     0.188 C 
BRANCH  31  32
ATOM     32  O   UNL A   1      33.239  28.708  27.354  1.00  0.00    -0.376 OA
BRANCH  32  33
ATOM     33  C   UNL A   1      32.549  29.941  27.179  1.00  0.00     0.202 C 
BRANCH  33  34
ATOM     34  C   UNL A   1      33.453  31.172  27.129  1.00  0.00     0.261 C 
BRANCH  34  35
ATOM     35  O   UNL A   1      34.126  31.449  28.351  1.00  0.00    -0.460 OA
BRANCH  35  36
ATOM     36  C   UNL A   1      35.382  31.925  28.233  1.00  0.00     0.338 C 
ATOM     37  O   UNL A   1      35.759  32.813  27.488  1.00  0.00    -0.246 OA
BRANCH  36  38
ATOM     38  C   UNL A   1      36.259  31.143  29.112  1.00  0.00     0.060 A 
ATOM     39  C   UNL A   1      37.180  31.853  29.886  1.00  0.00     0.016 A 
ATOM     40  C   UNL A   1      36.341  29.751  28.948  1.00  0.00     0.016 A 
ATOM     41  C   UNL A   1      38.320  31.198  30.299  1.00  0.00     0.010 A 
ATOM     42  C   UNL A   1      37.487  29.104  29.345  1.00  0.00     0.010 A 
ATOM     43  C   UNL A   1      38.500  29.864  29.922  1.00  0.00    -0.014 A 
BRANCH  43  44
ATOM     44  C   UNL A   1      39.840  29.326  30.026  1.00  0.00     0.031 A 
ATOM     45  C   UNL A   1      40.370  29.175  31.392  1.00  0.00     0.074 A 
ATOM     46  C   UNL A   1      40.512  28.923  28.932  1.00  0.00     0.049 A 
ATOM     47  N   UNL A   1      41.375  29.783  31.930  1.00  0.00    -0.248 NA
ATOM     48  C   UNL A   1      39.628  28.295  32.304  1.00  0.00     0.031 C 
ATOM     49  C   UNL A   1      39.984  28.716  27.578  1.00  0.00     0.029 A 
ATOM     50  N   UNL A   1      41.801  28.505  28.833  1.00  0.00    -0.354 N 
ATOM     51  C   UNL A   1      41.519  29.212  33.188  1.00  0.00     0.074 A 
ATOM     52  C   UNL A   1      40.336  28.424  33.425  1.00  0.00     0.031 C 
ATOM     53  C   UNL A   1      40.887  28.014  26.858  1.00  0.00     0.029 A 
ATOM     54  C   UNL A   1      42.088  27.833  27.656  1.00  0.00     0.049 A 
ATOM     55  H   UNL A   1      42.471  28.665  29.536  1.00  0.00     0.167 HD
ATOM     56  C   UNL A   1      42.703  29.236  33.857  1.00  0.00     0.037 A 
ATOM     57  C   UNL A   1      43.199  27.099  27.406  1.00  0.00     0.037 A 
ATOM     58  C   UNL A   1      43.599  30.237  33.345  1.00  0.00     0.049 A 
ATOM     59  C   UNL A   1      44.247  27.522  28.373  1.00  0.00     0.074 A 
ATOM     60  C   UNL A   1      43.535  31.610  33.198  1.00  0.00     0.029 A 
ATOM     61  N   UNL A   1      44.658  29.828  32.570  1.00  0.00    -0.354 N 
ATOM     62  N   UNL A   1      44.829  28.691  28.371  1.00  0.00    -0.248 NA
ATOM     63  C   UNL A   1      44.376  26.770  29.612  1.00  0.00     0.031 C 
ATOM     64  C   UNL A   1      44.254  31.895  32.001  1.00  0.00     0.029 A 
ATOM     65  C   UNL A   1      44.732  30.684  31.498  1.00  0.00     0.049 A 
ATOM     66  H   UNL A   1      45.252  29.064  32.750  1.00  0.00     0.167 HD
ATOM     67  C   UNL A   1      45.043  28.989  29.709  1.00  0.00     0.074 A 
ATOM     68  C   UNL A   1      44.849  27.727  30.413  1.00  0.00     0.031 C 
ATOM     69  C   UNL A   1      45.089  30.279  30.155  1.00  0.00     0.037 A 
BRANCH  56  70
ATOM     70  C   UNL A   1      43.148  28.120  34.761  1.00  0.00     0.058 A 
ATOM     71  C   UNL A   1      43.461  28.386  36.106  1.00  0.00     0.135 A 
ATOM     72  C   UNL A   1      43.523  26.844  34.280  1.00  0.00     0.135 A 
ATOM     73  F   UNL A   1      43.174  29.580  36.649  1.00  0.00    -0.206 F 
ATOM     74  C   UNL A   1      44.140  27.466  36.905  1.00  0.00     0.059 A 
ATOM     75  C   UNL A   1      44.144  25.890  35.074  1.00  0.00     0.059 A 
ATOM     76  F   UNL A   1      43.394  26.504  32.990  1.00  0.00    -0.206 F 
ATOM     77  C   UNL A   1      44.490  26.226  36.372  1.00  0.00     0.060 A 
BRANCH  77  78
ATOM     78  S   UNL A   1      45.475  25.082  37.352  1.00  0.00     0.124 S 
ATOM     79  O   UNL A   1      45.616  23.963  36.428  1.00  0.00    -0.237 OA
ATOM     80  O   UNL A   1      46.685  25.857  37.609  1.00  0.00    -0.237 OA
ATOM     81  O   UNL A   1      44.635  24.837  38.522  1.00  0.00    -0.744 OA
ENDBRANCH  77  78
ENDBRANCH  56  70
BRANCH  57  82
ATOM     82  C   UNL A   1      43.282  25.842  26.621  1.00  0.00     0.058 A 
ATOM     83  C   UNL A   1      44.106  25.743  25.489  1.00  0.00     0.135 A 
ATOM     84  C   UNL A   1      42.753  24.629  27.114  1.00  0.00     0.135 A 
ATOM     85  F   UNL A   1      44.679  26.842  24.974  1.00  0.00    -0.206 F 
ATOM     86  C   UNL A   1      44.415  24.513  24.898  1.00  0.00     0.059 A 
ATOM     87  C   UNL A   1      43.031  23.395  26.532  1.00  0.00     0.059 A 
ATOM     88  F   UNL A   1      42.019  24.594  28.236  1.00  0.00    -0.206 F 
ATOM     89  C   UNL A   1      43.884  23.342  25.438  1.00  0.00     0.060 A 
BRANCH  89  90
ATOM     90  S   UNL A   1      44.404  21.742  24.779  1.00  0.00     0.124 S 
ATOM     91  O   UNL A   1      43.276  20.889  25.137  1.00  0.00    -0.237 OA
ATOM     92  O   UNL A   1      44.562  22.031  23.358  1.00  0.00    -0.237 OA
ATOM     93  O   UNL A   1      45.646  21.466  25.497  1.00  0.00    -0.744 OA
ENDBRANCH  89  90
ENDBRANCH  57  82
BRANCH  69  94
ATOM     94  C   UNL A   1      45.247  31.379  29.136  1.00  0.00     0.058 A 
ATOM     95  C   UNL A   1      46.489  31.874  28.701  1.00  0.00     0.135 A 
ATOM     96  C   UNL A   1      44.103  31.837  28.461  1.00  0.00     0.135 A 
ATOM     97  F   UNL A   1      47.634  31.407  29.219  1.00  0.00    -0.206 F 
ATOM     98  C   UNL A   1      46.586  32.811  27.671  1.00  0.00     0.059 A 
ATOM     99  C   UNL A   1      44.180  32.748  27.411  1.00  0.00     0.059 A 
ATOM    100  F   UNL A   1      42.892  31.354  28.786  1.00  0.00    -0.206 F 
ATOM    101  C   UNL A   1      45.426  33.241  27.028  1.00  0.00     0.060 A 
BRANCH 101 102
ATOM    102  S   UNL A   1      45.565  34.376  25.629  1.00  0.00     0.124 S 
ATOM    103  O   UNL A   1      44.734  33.725  24.622  1.00  0.00    -0.237 OA
ATOM    104  O   UNL A   1      45.039  35.623  26.175  1.00  0.00    -0.237 OA
ATOM    105  O   UNL A   1      46.999  34.389  25.343  1.00  0.00    -0.744 OA
ENDBRANCH 101 102
ENDBRANCH  69  94
ENDBRANCH  43  44
ENDBRANCH  36  38
ENDBRANCH  35  36
ENDBRANCH  34  35
ENDBRANCH  33  34
ENDBRANCH  32  33
ENDBRANCH  31  32
ENDBRANCH   1  31
TORSDOF 24
ENDMDL
MODEL 2
REMARK VINA RESULT:     -10.3      2.222      3.136
REMARK SMILES NS(=O)(=O)c1ccc(-n2nc(C(=O)OCCOCCOCCOC(=O)c3ccc(-c4c5nc(c(-c6c(F)cc(S(=O)(=O)[O-])cc6F)c6ccc([nH]6)c(-c6c(F)cc(S(=O)(=O)[O-])cc6F)c6nc(c(-c7c(F)cc(S(=O)(=O)[O-])cc7F)c7ccc4[nH]7)C=C6)C=C5)cc3)cc2-c2ccc(Cl)s2)cc1
REMARK SMILES IDX 18 1 17 2 16 3 15 4 14 5 12 6 13 7 11 8 9 9 10 10 93 11
REMARK SMILES IDX 92 12 8 13 5 14 6 15 101 16 7 17 100 18 2 19 3 20 4 21 1 22
REMARK SMILES IDX 94 25 95 26 99 27 96 28 97 29 98 30 19 31 20 32 21 33 22 34
REMARK SMILES IDX 23 35 24 36 25 37 26 38 27 39 91 40 28 41 90 42 29 43 30 44
REMARK SMILES IDX 31 45 84 46 32 47 89 48 83 49 85 50 33 51 88 52 82 53 81 54
REMARK SMILES IDX 34 56 68 57 47 58 67 59 48 60 51 61 66 62 86 63 49 64 50 65
REMARK SMILES IDX 65 67 87 68 52 69 35 70 36 71 45 72 37 73 38 74 44 75 46 76
REMARK SMILES IDX 39 77 40 78 41 79 42 80 43 81 69 82 70 83 79 84 71 85 72 86
REMARK SMILES IDX 78 87 80 88 73 89 74 90 75 91 76 92 77 93 53 94 54 95 63 96
REMARK SMILES IDX 55 97 56 98 62 99 64 100 57 101 58 102 59 103 60 104 61 105
REMARK H PARENT 1 23 1 24 85 55 51 66
REMARK Flexibility Score: inf
ROOT
ATOM      1  C   UNL A   1      31.845  28.101  24.661  1.00  0.00     0.188 C 
ENDROOT
BRANCH   1   2
ATOM      2  O   UNL A   1      32.493  28.991  23.761  1.00  0.00    -0.376 OA
BRANCH   2   3
ATOM      3  C   UNL A   1      33.689  28.609  23.103  1.00  0.00     0.202 C 
BRANCH   3   4
ATOM      4  C   UNL A   1      33.594  27.783  21.810  1.00  0.00     0.261 C 
BRANCH   4   5
ATOM      5  O   UNL A   1      34.048  26.425  21.921  1.00  0.00    -0.458 OA
BRANCH   5   6
ATOM      6  C   UNL A   1      33.070  25.482  22.068  1.00  0.00     0.358 C 
ATOM      7  O   UNL A   1      31.996  25.502  21.477  1.00  0.00    -0.244 OA
BRANCH   6   8
ATOM      8  C   UNL A   1      33.477  24.388  22.965  1.00  0.00     0.171 A 
ATOM      9  N   UNL A   1      34.738  23.269  24.288  1.00  0.00    -0.231 N 
ATOM     10  N   UNL A   1      34.617  24.466  23.676  1.00  0.00    -0.160 NA
ATOM     11  C   UNL A   1      33.613  22.475  24.111  1.00  0.00     0.085 A 
ATOM     12  C   UNL A   1      32.777  23.193  23.280  1.00  0.00     0.068 A 
BRANCH   9  13
ATOM     13  C   UNL A   1      35.982  22.916  24.863  1.00  0.00     0.065 A 
ATOM     14  C   UNL A   1      38.439  22.256  25.977  1.00  0.00     0.082 A 
ATOM     15  C   UNL A   1      37.787  23.422  26.387  1.00  0.00     0.024 A 
ATOM     16  C   UNL A   1      37.856  21.404  25.030  1.00  0.00     0.024 A 
ATOM     17  C   UNL A   1      36.561  23.761  25.818  1.00  0.00     0.030 A 
ATOM     18  C   UNL A   1      36.608  21.721  24.488  1.00  0.00     0.030 A 
BRANCH  14  19
ATOM     19  S   UNL A   1      40.011  21.814  26.653  1.00  0.00     0.238 S 
ATOM     20  O   UNL A   1      40.061  20.382  26.805  1.00  0.00    -0.207 OA
ATOM     21  O   UNL A   1      40.337  22.738  27.716  1.00  0.00    -0.207 OA
BRANCH  19  22
ATOM     22  N   UNL A   1      41.113  22.167  25.426  1.00  0.00    -0.225 NA
ATOM     23  H   UNL A   1      41.043  23.155  25.179  1.00  0.00     0.137 HD
ATOM     24  H   UNL A   1      40.905  21.596  24.607  1.00  0.00     0.137 HD
ENDBRANCH  19  22
ENDBRANCH  14  19
ENDBRANCH   9  13
BRANCH  11  25
ATOM     25  C   UNL A   1      33.409  21.180  24.700  1.00  0.00     0.054 A 
ATOM     26  C   UNL A   1      33.573  20.846  26.032  1.00  0.00     0.024 A 
ATOM     27  S   UNL A   1      32.908  19.817  23.777  1.00  0.00    -0.122 S 
ATOM     28  C   UNL A   1      33.191  19.497  26.306  1.00  0.00     0.033 A 
ATOM     29  C   UNL A   1      32.798  18.853  25.161  1.00  0.00     0.094 A 
ATOM     30  Cl  UNL A   1      32.235  17.237  25.040  1.00  0.00    -0.072 Cl
ENDBRANCH  11  25
ENDBRANCH   6   8
ENDBRANCH   5   6
ENDBRANCH   4   5
ENDBRANCH   3   4
ENDBRANCH   2   3
ENDBRANCH   1   2
BRANCH   1  31
ATOM     31  C   UNL A   1      31.661  28.435  26.160  1.00  0.00     0.188 C 
BRANCH  31  32
ATOM     32  O   UNL A   1      31.878  29.792  26.524  1.00  0.00    -0.376 OA
BRANCH  32  33
ATOM     33  C   UNL A   1      33.156  30.085  27.082  1.00  0.00     0.202 C 
BRANCH  33  34
ATOM     34  C   UNL A   1      33.372  31.556  27.434  1.00  0.00     0.261 C 
BRANCH  34  35
ATOM     35  O   UNL A   1      34.138  31.765  28.613  1.00  0.00    -0.460 OA
BRANCH  35  36
ATOM     36  C   UNL A   1      35.413  32.159  28.421  1.00  0.00     0.338 C 
ATOM     37  O   UNL A   1      35.805  33.011  27.641  1.00  0.00    -0.246 OA
BRANCH  36  38
ATOM     38  C   UNL A   1      36.287  31.335  29.265  1.00  0.00     0.060 A 
ATOM     39  C   UNL A   1      37.109  32.005  30.174  1.00  0.00     0.016 A 
ATOM     40  C   UNL A   1      36.471  29.978  28.953  1.00  0.00     0.016 A 
ATOM     41  C   UNL A   1      38.263  31.377  30.588  1.00  0.00     0.010 A 
ATOM     42  C   UNL A   1      37.631  29.360  29.354  1.00  0.00     0.010 A 
ATOM     43  C   UNL A   1      38.555  30.107  30.078  1.00  0.00    -0.014 A 
BRANCH  43  44
ATOM     44  C   UNL A   1      39.918  29.642  30.213  1.00  0.00     0.031 A 
ATOM     45  C   UNL A   1      40.405  29.459  31.591  1.00  0.00     0.074 A 
ATOM     46  C   UNL A   1      40.653  29.328  29.130  1.00  0.00     0.049 A 
ATOM     47  N   UNL A   1      41.351  30.097  32.194  1.00  0.00    -0.248 NA
ATOM     48  C   UNL A   1      39.681  28.498  32.433  1.00  0.00     0.031 C 
ATOM     49  C   UNL A   1      40.190  29.153  27.748  1.00  0.00     0.029 A 
ATOM     50  N   UNL A   1      41.967  28.988  29.064  1.00  0.00    -0.354 N 
ATOM     51  C   UNL A   1      41.482  29.479  33.431  1.00  0.00     0.074 A 
ATOM     52  C   UNL A   1      40.339  28.616  33.586  1.00  0.00     0.031 C 
ATOM     53  C   UNL A   1      41.158  28.537  27.035  1.00  0.00     0.029 A 
ATOM     54  C   UNL A   1      42.338  28.388  27.872  1.00  0.00     0.049 A 
ATOM     55  H   UNL A   1      42.600  29.153  29.800  1.00  0.00     0.167 HD
ATOM     56  C   UNL A   1      42.636  29.539  34.148  1.00  0.00     0.037 A 
ATOM     57  C   UNL A   1      43.497  27.730  27.636  1.00  0.00     0.037 A 
ATOM     58  C   UNL A   1      43.491  30.612  33.716  1.00  0.00     0.049 A 
ATOM     59  C   UNL A   1      44.482  28.167  28.661  1.00  0.00     0.074 A 
ATOM     60  C   UNL A   1      43.352  31.984  33.626  1.00  0.00     0.029 A 
ATOM     61  N   UNL A   1      44.600  30.299  32.967  1.00  0.00    -0.354 N 
ATOM     62  N   UNL A   1      44.995  29.366  28.733  1.00  0.00    -0.248 NA
ATOM     63  C   UNL A   1      44.608  27.368  29.870  1.00  0.00     0.031 C 
ATOM     64  C   UNL A   1      44.098  32.364  32.473  1.00  0.00     0.029 A 
ATOM     65  C   UNL A   1      44.664  31.205  31.937  1.00  0.00     0.049 A 
ATOM     66  H   UNL A   1      45.231  29.563  33.137  1.00  0.00     0.167 HD
ATOM     67  C   UNL A   1      45.141  29.614  30.090  1.00  0.00     0.074 A 
ATOM     68  C   UNL A   1      44.995  28.312  30.730  1.00  0.00     0.031 C 
ATOM     69  C   UNL A   1      45.095  30.884  30.593  1.00  0.00     0.037 A 
BRANCH  56  70
ATOM     70  C   UNL A   1      43.111  28.410  35.020  1.00  0.00     0.058 A 
ATOM     71  C   UNL A   1      43.445  28.652  36.364  1.00  0.00     0.135 A 
ATOM     72  C   UNL A   1      43.493  27.150  34.505  1.00  0.00     0.135 A 
ATOM     73  F   UNL A   1      43.153  29.830  36.938  1.00  0.00    -0.206 F 
ATOM     74  C   UNL A   1      44.150  27.724  37.131  1.00  0.00     0.059 A 
ATOM     75  C   UNL A   1      44.140  26.187  35.267  1.00  0.00     0.059 A 
ATOM     76  F   UNL A   1      43.345  26.836  33.210  1.00  0.00    -0.206 F 
ATOM     77  C   UNL A   1      44.505  26.500  36.566  1.00  0.00     0.060 A 
BRANCH  77  78
ATOM     78  S   UNL A   1      45.522  25.348  37.504  1.00  0.00     0.124 S 
ATOM     79  O   UNL A   1      44.702  25.147  38.693  1.00  0.00    -0.237 OA
ATOM     80  O   UNL A   1      45.621  24.212  36.594  1.00  0.00    -0.237 OA
ATOM     81  O   UNL A   1      46.764  26.090  37.708  1.00  0.00    -0.744 OA
ENDBRANCH  77  78
ENDBRANCH  56  70
BRANCH  57  82
ATOM     82  C   UNL A   1      43.683  26.516  26.800  1.00  0.00     0.058 A 
ATOM     83  C   UNL A   1      44.473  26.544  25.640  1.00  0.00     0.135 A 
ATOM     84  C   UNL A   1      43.300  25.238  27.263  1.00  0.00     0.135 A 
ATOM     85  F   UNL A   1      44.910  27.714  25.150  1.00  0.00    -0.206 F 
ATOM     86  C   UNL A   1      44.888  25.375  24.994  1.00  0.00     0.059 A 
ATOM     87  C   UNL A   1      43.685  24.062  26.626  1.00  0.00     0.059 A 
ATOM     88  F   UNL A   1      42.614  25.088  28.405  1.00  0.00    -0.206 F 
ATOM     89  C   UNL A   1      44.500  24.136  25.504  1.00  0.00     0.060 A 
BRANCH  89  90
ATOM     90  S   UNL A   1      45.160  22.624  24.769  1.00  0.00     0.124 S 
ATOM     91  O   UNL A   1      45.728  21.948  25.930  1.00  0.00    -0.237 OA
ATOM     92  O   UNL A   1      43.965  22.014  24.196  1.00  0.00    -0.237 OA
ATOM     93  O   UNL A   1      46.133  23.115  23.796  1.00  0.00    -0.744 OA
ENDBRANCH  89  90
ENDBRANCH  57  82
BRANCH  69  94
ATOM     94  C   UNL A   1      45.226  32.036  29.630  1.00  0.00     0.058 A 
ATOM     95  C   UNL A   1      46.456  32.586  29.228  1.00  0.00     0.135 A 
ATOM     96  C   UNL A   1      44.074  32.493  28.970  1.00  0.00     0.135 A 
ATOM     97  F   UNL A   1      47.612  32.128  29.730  1.00  0.00    -0.206 F 
ATOM     98  C   UNL A   1      46.532  33.575  28.245  1.00  0.00     0.059 A 
ATOM     99  C   UNL A   1      44.130  33.456  27.966  1.00  0.00     0.059 A 
ATOM    100  F   UNL A   1      42.875  31.961  29.263  1.00  0.00    -0.206 F 
ATOM    101  C   UNL A   1      45.363  34.002  27.616  1.00  0.00     0.060 A 
BRANCH 101 102
ATOM    102  S   UNL A   1      45.478  35.208  26.275  1.00  0.00     0.124 S 
ATOM    103  O   UNL A   1      44.113  35.721  26.207  1.00  0.00    -0.237 OA
ATOM    104  O   UNL A   1      46.482  36.144  26.771  1.00  0.00    -0.237 OA
ATOM    105  O   UNL A   1      45.901  34.404  25.130  1.00  0.00    -0.744 OA
ENDBRANCH 101 102
ENDBRANCH  69  94
ENDBRANCH  43  44
ENDBRANCH  36  38
ENDBRANCH  35  36
ENDBRANCH  34  35
ENDBRANCH  33  34
ENDBRANCH  32  33
ENDBRANCH  31  32
ENDBRANCH   1  31
TORSDOF 24
ENDMDL
MODEL 3
REMARK VINA RESULT:     -10.1      2.460      7.771
REMARK SMILES NS(=O)(=O)c1ccc(-n2nc(C(=O)OCCOCCOCCOC(=O)c3ccc(-c4c5nc(c(-c6c(F)cc(S(=O)(=O)[O-])cc6F)c6ccc([nH]6)c(-c6c(F)cc(S(=O)(=O)[O-])cc6F)c6nc(c(-c7c(F)cc(S(=O)(=O)[O-])cc7F)c7ccc4[nH]7)C=C6)C=C5)cc3)cc2-c2ccc(Cl)s2)cc1
REMARK SMILES IDX 18 1 17 2 16 3 15 4 14 5 12 6 13 7 11 8 9 9 10 10 93 11
REMARK SMILES IDX 92 12 8 13 5 14 6 15 101 16 7 17 100 18 2 19 3 20 4 21 1 22
REMARK SMILES IDX 94 25 95 26 99 27 96 28 97 29 98 30 19 31 20 32 21 33 22 34
REMARK SMILES IDX 23 35 24 36 25 37 26 38 27 39 91 40 28 41 90 42 29 43 30 44
REMARK SMILES IDX 31 45 84 46 32 47 89 48 83 49 85 50 33 51 88 52 82 53 81 54
REMARK SMILES IDX 34 56 68 57 47 58 67 59 48 60 51 61 66 62 86 63 49 64 50 65
REMARK SMILES IDX 65 67 87 68 52 69 35 70 36 71 45 72 37 73 38 74 44 75 46 76
REMARK SMILES IDX 39 77 40 78 41 79 42 80 43 81 69 82 70 83 79 84 71 85 72 86
REMARK SMILES IDX 78 87 80 88 73 89 74 90 75 91 76 92 77 93 53 94 54 95 63 96
REMARK SMILES IDX 55 97 56 98 62 99 64 100 57 101 58 102 59 103 60 104 61 105
REMARK H PARENT 1 23 1 24 85 55 51 66
REMARK Flexibility Score: inf
ROOT
ATOM      1  C   UNL A   1      32.005  28.277  23.442  1.00  0.00     0.188 C 
ENDROOT
BRANCH   1   2
ATOM      2  O   UNL A   1      31.362  27.034  23.188  1.00  0.00    -0.376 OA
BRANCH   2   3
ATOM      3  C   UNL A   1      29.954  26.913  23.300  1.00  0.00     0.202 C 
BRANCH   3   4
ATOM      4  C   UNL A   1      29.361  26.275  24.567  1.00  0.00     0.261 C 
BRANCH   4   5
ATOM      5  O   UNL A   1      30.306  26.025  25.621  1.00  0.00    -0.458 OA
BRANCH   5   6
ATOM      6  C   UNL A   1      30.275  24.771  26.162  1.00  0.00     0.358 C 
ATOM      7  O   UNL A   1      29.364  24.342  26.861  1.00  0.00    -0.244 OA
BRANCH   6   8
ATOM      8  C   UNL A   1      31.429  23.955  25.751  1.00  0.00     0.171 A 
ATOM      9  N   UNL A   1      32.514  22.202  25.164  1.00  0.00    -0.231 N 
ATOM     10  N   UNL A   1      31.265  22.680  25.351  1.00  0.00    -0.160 NA
ATOM     11  C   UNL A   1      33.477  23.194  25.283  1.00  0.00     0.085 A 
ATOM     12  C   UNL A   1      32.791  24.339  25.637  1.00  0.00     0.068 A 
BRANCH   9  13
ATOM     13  C   UNL A   1      32.701  20.805  25.041  1.00  0.00     0.065 A 
ATOM     14  C   UNL A   1      33.100  18.065  24.820  1.00  0.00     0.082 A 
ATOM     15  C   UNL A   1      32.846  18.626  26.074  1.00  0.00     0.024 A 
ATOM     16  C   UNL A   1      33.131  18.864  23.669  1.00  0.00     0.024 A 
ATOM     17  C   UNL A   1      32.661  20.002  26.187  1.00  0.00     0.030 A 
ATOM     18  C   UNL A   1      32.905  20.240  23.775  1.00  0.00     0.030 A 
BRANCH  14  19
ATOM     19  S   UNL A   1      33.376  16.328  24.645  1.00  0.00     0.238 S 
ATOM     20  O   UNL A   1      33.567  16.030  23.248  1.00  0.00    -0.207 OA
ATOM     21  O   UNL A   1      32.436  15.621  25.486  1.00  0.00    -0.207 OA
BRANCH  19  22
ATOM     22  N   UNL A   1      34.878  16.063  25.364  1.00  0.00    -0.225 NA
ATOM     23  H   UNL A   1      34.744  15.684  26.302  1.00  0.00     0.137 HD
ATOM     24  H   UNL A   1      35.387  16.944  25.423  1.00  0.00     0.137 HD
ENDBRANCH  19  22
ENDBRANCH  14  19
ENDBRANCH   9  13
BRANCH  11  25
ATOM     25  C   UNL A   1      34.886  23.015  25.067  1.00  0.00     0.054 A 
ATOM     26  C   UNL A   1      35.591  23.339  23.922  1.00  0.00     0.024 A 
ATOM     27  S   UNL A   1      35.925  22.346  26.265  1.00  0.00    -0.122 S 
ATOM     28  C   UNL A   1      36.996  23.128  24.069  1.00  0.00     0.033 A 
ATOM     29  C   UNL A   1      37.290  22.609  25.304  1.00  0.00     0.094 A 
ATOM     30  Cl  UNL A   1      38.852  22.233  25.908  1.00  0.00    -0.072 Cl
ENDBRANCH  11  25
ENDBRANCH   6   8
ENDBRANCH   5   6
ENDBRANCH   4   5
ENDBRANCH   3   4
ENDBRANCH   2   3
ENDBRANCH   1   2
BRANCH   1  31
ATOM     31  C   UNL A   1      33.450  28.359  23.988  1.00  0.00     0.188 C 
BRANCH  31  32
ATOM     32  O   UNL A   1      33.689  29.364  24.965  1.00  0.00    -0.376 OA
BRANCH  32  33
ATOM     33  C   UNL A   1      32.537  29.843  25.652  1.00  0.00     0.202 C 
BRANCH  33  34
ATOM     34  C   UNL A   1      32.841  30.704  26.877  1.00  0.00     0.261 C 
BRANCH  34  35
ATOM     35  O   UNL A   1      33.733  30.100  27.805  1.00  0.00    -0.460 OA
BRANCH  35  36
ATOM     36  C   UNL A   1      34.773  30.863  28.199  1.00  0.00     0.338 C 
ATOM     37  O   UNL A   1      34.745  32.050  28.474  1.00  0.00    -0.246 OA
BRANCH  36  38
ATOM     38  C   UNL A   1      35.988  30.039  28.178  1.00  0.00     0.060 A 
ATOM     39  C   UNL A   1      36.432  29.529  29.401  1.00  0.00     0.016 A 
ATOM     40  C   UNL A   1      36.792  30.021  27.028  1.00  0.00     0.016 A 
ATOM     41  C   UNL A   1      37.769  29.221  29.527  1.00  0.00     0.010 A 
ATOM     42  C   UNL A   1      38.129  29.730  27.160  1.00  0.00     0.010 A 
ATOM     43  C   UNL A   1      38.612  29.435  28.432  1.00  0.00    -0.014 A 
BRANCH  43  44
ATOM     44  C   UNL A   1      40.034  29.477  28.695  1.00  0.00     0.031 A 
ATOM     45  C   UNL A   1      40.870  28.593  27.866  1.00  0.00     0.074 A 
ATOM     46  C   UNL A   1      40.547  30.336  29.595  1.00  0.00     0.049 A 
ATOM     47  N   UNL A   1      41.585  27.586  28.243  1.00  0.00    -0.248 NA
ATOM     48  C   UNL A   1      40.833  28.807  26.413  1.00  0.00     0.031 C 
ATOM     49  C   UNL A   1      39.877  31.475  30.235  1.00  0.00     0.029 A 
ATOM     50  N   UNL A   1      41.826  30.432  30.045  1.00  0.00    -0.354 N 
ATOM     51  C   UNL A   1      42.253  27.161  27.102  1.00  0.00     0.074 A 
ATOM     52  C   UNL A   1      41.641  27.837  25.987  1.00  0.00     0.031 C 
ATOM     53  C   UNL A   1      40.810  32.263  30.815  1.00  0.00     0.029 A 
ATOM     54  C   UNL A   1      42.110  31.624  30.692  1.00  0.00     0.049 A 
ATOM     55  H   UNL A   1      42.492  29.718  29.920  1.00  0.00     0.167 HD
ATOM     56  C   UNL A   1      43.415  26.459  27.168  1.00  0.00     0.037 A 
ATOM     57  C   UNL A   1      43.343  32.087  31.008  1.00  0.00     0.037 A 
ATOM     58  C   UNL A   1      43.622  25.864  28.462  1.00  0.00     0.049 A 
ATOM     59  C   UNL A   1      44.276  30.929  30.999  1.00  0.00     0.074 A 
ATOM     60  C   UNL A   1      42.914  24.967  29.238  1.00  0.00     0.029 A 
ATOM     61  N   UNL A   1      44.544  26.439  29.303  1.00  0.00    -0.354 N 
ATOM     62  N   UNL A   1      44.251  29.950  31.862  1.00  0.00    -0.248 NA
ATOM     63  C   UNL A   1      45.008  30.652  29.772  1.00  0.00     0.031 C 
ATOM     64  C   UNL A   1      43.134  25.378  30.585  1.00  0.00     0.029 A 
ATOM     65  C   UNL A   1      43.978  26.489  30.553  1.00  0.00     0.049 A 
ATOM     66  H   UNL A   1      45.442  26.757  29.055  1.00  0.00     0.167 HD
ATOM     67  C   UNL A   1      44.606  28.821  31.137  1.00  0.00     0.074 A 
ATOM     68  C   UNL A   1      45.167  29.333  29.892  1.00  0.00     0.031 C 
ATOM     69  C   UNL A   1      44.165  27.577  31.490  1.00  0.00     0.037 A 
BRANCH  56  70
ATOM     70  C   UNL A   1      44.508  26.598  26.145  1.00  0.00     0.058 A 
ATOM     71  C   UNL A   1      45.027  25.456  25.509  1.00  0.00     0.135 A 
ATOM     72  C   UNL A   1      45.239  27.794  25.958  1.00  0.00     0.135 A 
ATOM     73  F   UNL A   1      44.423  24.264  25.650  1.00  0.00    -0.206 F 
ATOM     74  C   UNL A   1      46.213  25.490  24.776  1.00  0.00     0.059 A 
ATOM     75  C   UNL A   1      46.387  27.864  25.182  1.00  0.00     0.059 A 
ATOM     76  F   UNL A   1      44.925  28.926  26.603  1.00  0.00    -0.206 F 
ATOM     77  C   UNL A   1      46.893  26.698  24.632  1.00  0.00     0.060 A 
BRANCH  77  78
ATOM     78  S   UNL A   1      48.487  26.729  23.797  1.00  0.00     0.124 S 
ATOM     79  O   UNL A   1      48.314  25.667  22.812  1.00  0.00    -0.237 OA
ATOM     80  O   UNL A   1      48.533  28.089  23.271  1.00  0.00    -0.237 OA
ATOM     81  O   UNL A   1      49.433  26.448  24.874  1.00  0.00    -0.744 OA
ENDBRANCH  77  78
ENDBRANCH  56  70
BRANCH  57  82
ATOM     82  C   UNL A   1      43.803  33.498  30.978  1.00  0.00     0.058 A 
ATOM     83  C   UNL A   1      43.970  34.184  29.764  1.00  0.00     0.135 A 
ATOM     84  C   UNL A   1      43.840  34.286  32.148  1.00  0.00     0.135 A 
ATOM     85  F   UNL A   1      43.915  33.518  28.600  1.00  0.00    -0.206 F 
ATOM     86  C   UNL A   1      44.132  35.572  29.710  1.00  0.00     0.059 A 
ATOM     87  C   UNL A   1      44.019  35.666  32.121  1.00  0.00     0.059 A 
ATOM     88  F   UNL A   1      43.612  33.750  33.356  1.00  0.00    -0.206 F 
ATOM     89  C   UNL A   1      44.140  36.307  30.895  1.00  0.00     0.060 A 
BRANCH  89  90
ATOM     90  S   UNL A   1      44.190  38.112  30.824  1.00  0.00     0.124 S 
ATOM     91  O   UNL A   1      43.290  38.395  29.712  1.00  0.00    -0.237 OA
ATOM     92  O   UNL A   1      43.707  38.485  32.149  1.00  0.00    -0.237 OA
ATOM     93  O   UNL A   1      45.601  38.403  30.574  1.00  0.00    -0.744 OA
ENDBRANCH  89  90
ENDBRANCH  57  82
BRANCH  69  94
ATOM     94  C   UNL A   1      43.573  27.396  32.864  1.00  0.00     0.058 A 
ATOM     95  C   UNL A   1      42.222  27.630  33.174  1.00  0.00     0.135 A 
ATOM     96  C   UNL A   1      44.367  26.813  33.865  1.00  0.00     0.135 A 
ATOM     97  F   UNL A   1      41.371  28.083  32.242  1.00  0.00    -0.206 F 
ATOM     98  C   UNL A   1      41.695  27.336  34.433  1.00  0.00     0.059 A 
ATOM     99  C   UNL A   1      43.855  26.483  35.117  1.00  0.00     0.059 A 
ATOM    100  F   UNL A   1      45.650  26.505  33.611  1.00  0.00    -0.206 F 
ATOM    101  C   UNL A   1      42.519  26.760  35.399  1.00  0.00     0.060 A 
BRANCH 101 102
ATOM    102  S   UNL A   1      41.808  26.289  36.992  1.00  0.00     0.124 S 
ATOM    103  O   UNL A   1      41.345  24.930  36.732  1.00  0.00    -0.237 OA
ATOM    104  O   UNL A   1      42.946  26.408  37.899  1.00  0.00    -0.237 OA
ATOM    105  O   UNL A   1      40.753  27.279  37.200  1.00  0.00    -0.744 OA
ENDBRANCH 101 102
ENDBRANCH  69  94
ENDBRANCH  43  44
ENDBRANCH  36  38
ENDBRANCH  35  36
ENDBRANCH  34  35
ENDBRANCH  33  34
ENDBRANCH  32  33
ENDBRANCH  31  32
ENDBRANCH   1  31
TORSDOF 24
ENDMDL
