MODEL 1
REMARK VINA RESULT:     -11.2      0.000      0.000
REMARK SMILES Cc1ccccc1S(=O)(=O)Nc1ccc(N2CCOCC2)cc1C(=O)OCCOCCOCCOC(=O)c1ccc(-c2c3nc(c(-c4c(F)cc(S(=O)(=O)[O-])cc4F)c4ccc([nH]4)c(-c4c(F)cc(S(=O)(=O)[O-])cc4F)c4nc(c(-c5c(F)cc(S(=O)(=O)[O-])cc5F)c5ccc2[nH]5)C=C4)C=C3)cc1
REMARK SMILES IDX 30 1 29 2 28 3 27 4 26 5 24 6 25 7 23 8 12 9 13 10 14 11
REMARK SMILES IDX 22 12 15 13 11 14 8 16 9 17 10 18 7 19 1 20 2 21 3 22 4 23
REMARK SMILES IDX 6 24 5 25 16 26 17 27 21 28 18 29 20 30 19 31 31 32 32 33
REMARK SMILES IDX 33 34 34 35 35 36 36 37 37 38 38 39 39 40 103 41 40 42
REMARK SMILES IDX 102 43 41 44 42 45 43 46 96 47 44 48 101 49 95 50 97 51
REMARK SMILES IDX 45 52 100 53 94 54 93 55 46 57 80 58 59 59 79 60 60 61 63 62
REMARK SMILES IDX 78 63 98 64 61 65 62 66 77 68 99 69 64 70 47 71 48 72 57 73
REMARK SMILES IDX 49 74 50 75 56 76 58 77 51 78 52 79 53 80 54 81 55 82 81 83
REMARK SMILES IDX 82 84 91 85 83 86 84 87 90 88 92 89 85 90 86 91 87 92 88 93
REMARK SMILES IDX 89 94 65 95 66 96 75 97 67 98 68 99 74 100 76 101 69 102
REMARK SMILES IDX 70 103 71 104 72 105 73 106
REMARK H PARENT 11 15 97 56 63 67
REMARK Flexibility Score: inf
ROOT
ATOM      1  C   UNL A   1      47.060  32.922  27.749  1.00  0.00     0.188 C 
ENDROOT
BRANCH   1   2
ATOM      2  O   UNL A   1      46.105  32.677  26.696  1.00  0.00    -0.376 OA
BRANCH   2   3
ATOM      3  C   UNL A   1      44.709  32.248  26.680  1.00  0.00     0.202 C 
BRANCH   3   4
ATOM      4  C   UNL A   1      43.762  30.659  27.019  1.00  0.00     0.261 C 
BRANCH   4   5
ATOM      5  O   UNL A   1      42.679  29.268  26.273  1.00  0.00    -0.460 OA
BRANCH   5   6
ATOM      6  C   UNL A   1      42.830  27.512  26.009  1.00  0.00     0.340 C 
ATOM      7  O   UNL A   1      43.185  26.845  25.010  1.00  0.00    -0.246 OA
BRANCH   6   8
ATOM      8  C   UNL A   1      42.930  26.516  27.039  1.00  0.00     0.086 A 
ATOM      9  C   UNL A   1      42.545  26.537  28.442  1.00  0.00     0.064 A 
ATOM     10  C   UNL A   1      42.841  25.282  29.008  1.00  0.00     0.030 A 
ATOM     11  C   UNL A   1      43.185  24.125  28.162  1.00  0.00     0.028 A 
ATOM     12  C   UNL A   1      43.509  25.479  26.322  1.00  0.00     0.043 A 
ATOM     13  C   UNL A   1      43.428  24.206  26.774  1.00  0.00     0.038 A 
BRANCH   9  14
ATOM     14  N   UNL A   1      41.709  27.709  29.302  1.00  0.00    -0.279 N 
ATOM     15  H   UNL A   1      42.236  28.135  30.016  1.00  0.00     0.180 HD
BRANCH  14  16
ATOM     16  S   UNL A   1      39.724  28.441  29.133  1.00  0.00     0.262 S 
ATOM     17  O   UNL A   1      38.973  27.535  29.974  1.00  0.00    -0.201 OA
ATOM     18  O   UNL A   1      39.398  28.383  27.713  1.00  0.00    -0.201 OA
BRANCH  16  19
ATOM     19  C   UNL A   1      39.715  30.530  29.700  1.00  0.00     0.090 A 
ATOM     20  C   UNL A   1      37.324  29.602  29.587  1.00  0.00     0.046 C 
ATOM     21  C   UNL A   1      38.290  30.972  29.085  1.00  0.00    -0.031 A 
ATOM     22  C   UNL A   1      37.592  32.917  28.889  1.00  0.00     0.005 A 
ATOM     23  C   UNL A   1      38.263  34.196  29.695  1.00  0.00     0.000 A 
ATOM     24  C   UNL A   1      40.546  31.972  30.421  1.00  0.00     0.022 A 
ATOM     25  C   UNL A   1      39.740  33.728  30.432  1.00  0.00     0.001 A 
ENDBRANCH  16  19
ENDBRANCH  14  16
ENDBRANCH   9  14
BRANCH  13  26
ATOM     26  N   UNL A   1      43.422  23.230  25.795  1.00  0.00    -0.367 N 
ATOM     27  C   UNL A   1      42.711  21.921  25.977  1.00  0.00     0.145 C 
ATOM     28  C   UNL A   1      44.209  23.344  24.565  1.00  0.00     0.145 C 
ATOM     29  C   UNL A   1      43.588  20.720  25.601  1.00  0.00     0.181 C 
ATOM     30  C   UNL A   1      44.898  22.012  24.165  1.00  0.00     0.181 C 
ATOM     31  O   UNL A   1      44.050  20.860  24.254  1.00  0.00    -0.378 OA
ENDBRANCH  13  26
ENDBRANCH   6   8
ENDBRANCH   5   6
ENDBRANCH   4   5
ENDBRANCH   3   4
ENDBRANCH   2   3
ENDBRANCH   1   2
BRANCH   1  32
ATOM     32  C   UNL A   1      48.306  33.795  27.763  1.00  0.00     0.188 C 
BRANCH  32  33
ATOM     33  O   UNL A   1      49.513  33.290  28.253  1.00  0.00    -0.376 OA
BRANCH  33  34
ATOM     34  C   UNL A   1      49.461  32.811  29.636  1.00  0.00     0.202 C 
BRANCH  34  35
ATOM     35  C   UNL A   1      49.738  31.105  30.190  1.00  0.00     0.261 C 
BRANCH  35  36
ATOM     36  O   UNL A   1      50.670  29.759  29.362  1.00  0.00    -0.460 OA
BRANCH  36  37
ATOM     37  C   UNL A   1      50.474  28.152  28.845  1.00  0.00     0.338 C 
ATOM     38  O   UNL A   1      51.373  27.744  28.109  1.00  0.00    -0.246 OA
BRANCH  37  39
ATOM     39  C   UNL A   1      48.957  27.101  29.242  1.00  0.00     0.060 A 
ATOM     40  C   UNL A   1      47.955  25.819  28.354  1.00  0.00     0.016 A 
ATOM     41  C   UNL A   1      48.176  27.337  31.104  1.00  0.00     0.016 A 
ATOM     42  C   UNL A   1      46.417  25.319  29.413  1.00  0.00     0.010 A 
ATOM     43  C   UNL A   1      46.899  26.973  31.757  1.00  0.00     0.010 A 
ATOM     44  C   UNL A   1      45.966  26.134  31.095  1.00  0.00    -0.014 A 
BRANCH  44  45
ATOM     45  C   UNL A   1      44.935  25.879  32.740  1.00  0.00     0.031 A 
ATOM     46  C   UNL A   1      43.791  27.290  33.350  1.00  0.00     0.074 A 
ATOM     47  C   UNL A   1      44.940  24.796  33.597  1.00  0.00     0.049 A 
ATOM     48  N   UNL A   1      44.176  28.261  34.179  1.00  0.00    -0.248 NA
ATOM     49  C   UNL A   1      42.636  28.092  32.427  1.00  0.00     0.031 C 
ATOM     50  C   UNL A   1      43.917  24.435  34.593  1.00  0.00     0.029 A 
ATOM     51  N   UNL A   1      45.731  23.647  33.647  1.00  0.00    -0.354 N 
ATOM     52  C   UNL A   1      43.235  29.283  34.070  1.00  0.00     0.074 A 
ATOM     53  C   UNL A   1      42.920  29.353  32.701  1.00  0.00     0.031 C 
ATOM     54  C   UNL A   1      44.301  23.363  35.325  1.00  0.00     0.029 A 
ATOM     55  C   UNL A   1      45.629  22.977  34.895  1.00  0.00     0.049 A 
ATOM     56  H   UNL A   1      46.295  23.336  32.902  1.00  0.00     0.167 HD
ATOM     57  C   UNL A   1      42.186  29.325  34.953  1.00  0.00     0.037 A 
ATOM     58  C   UNL A   1      46.744  22.795  35.662  1.00  0.00     0.037 A 
ATOM     59  C   UNL A   1      42.326  28.188  35.873  1.00  0.00     0.049 A 
ATOM     60  C   UNL A   1      46.785  24.035  36.574  1.00  0.00     0.074 A 
ATOM     61  C   UNL A   1      41.754  26.938  36.031  1.00  0.00     0.029 A 
ATOM     62  N   UNL A   1      43.568  28.056  36.456  1.00  0.00    -0.354 N 
ATOM     63  N   UNL A   1      45.811  24.913  36.604  1.00  0.00    -0.248 NA
ATOM     64  C   UNL A   1      47.835  24.386  37.521  1.00  0.00     0.031 C 
ATOM     65  C   UNL A   1      42.656  26.142  36.841  1.00  0.00     0.029 A 
ATOM     66  C   UNL A   1      43.797  26.881  37.107  1.00  0.00     0.049 A 
ATOM     67  H   UNL A   1      44.247  28.766  36.406  1.00  0.00     0.167 HD
ATOM     68  C   UNL A   1      46.026  25.888  37.518  1.00  0.00     0.074 A 
ATOM     69  C   UNL A   1      47.369  25.560  38.002  1.00  0.00     0.031 C 
ATOM     70  C   UNL A   1      45.073  26.832  37.829  1.00  0.00     0.037 A 
BRANCH  57  71
ATOM     71  C   UNL A   1      40.922  30.139  34.658  1.00  0.00     0.058 A 
ATOM     72  C   UNL A   1      40.899  31.488  35.029  1.00  0.00     0.135 A 
ATOM     73  C   UNL A   1      39.739  29.695  33.984  1.00  0.00     0.135 A 
ATOM     74  F   UNL A   1      41.939  32.046  35.658  1.00  0.00    -0.206 F 
ATOM     75  C   UNL A   1      39.826  32.332  34.740  1.00  0.00     0.059 A 
ATOM     76  C   UNL A   1      38.621  30.503  33.756  1.00  0.00     0.059 A 
ATOM     77  F   UNL A   1      39.618  28.468  33.455  1.00  0.00    -0.206 F 
ATOM     78  C   UNL A   1      38.697  31.839  34.096  1.00  0.00     0.060 A 
BRANCH  78  79
ATOM     79  S   UNL A   1      37.405  32.995  33.616  1.00  0.00     0.124 S 
ATOM     80  O   UNL A   1      38.131  34.259  33.567  1.00  0.00    -0.237 OA
ATOM     81  O   UNL A   1      36.984  32.448  32.331  1.00  0.00    -0.237 OA
ATOM     82  O   UNL A   1      36.425  32.883  34.693  1.00  0.00    -0.744 OA
ENDBRANCH  78  79
ENDBRANCH  57  71
BRANCH  58  83
ATOM     83  C   UNL A   1      47.836  22.206  34.776  1.00  0.00     0.058 A 
ATOM     84  C   UNL A   1      48.983  22.960  34.383  1.00  0.00     0.135 A 
ATOM     85  C   UNL A   1      48.087  20.872  34.999  1.00  0.00     0.135 A 
ATOM     86  F   UNL A   1      48.895  24.291  34.248  1.00  0.00    -0.206 F 
ATOM     87  C   UNL A   1      50.273  22.398  34.235  1.00  0.00     0.059 A 
ATOM     88  C   UNL A   1      49.402  20.501  35.277  1.00  0.00     0.059 A 
ATOM     89  F   UNL A   1      47.089  20.056  35.375  1.00  0.00    -0.206 F 
ATOM     90  C   UNL A   1      50.481  21.119  34.690  1.00  0.00     0.060 A 
BRANCH  90  91
ATOM     91  S   UNL A   1      52.076  20.287  34.400  1.00  0.00     0.124 S 
ATOM     92  O   UNL A   1      52.287  20.499  32.974  1.00  0.00    -0.237 OA
ATOM     93  O   UNL A   1      52.960  21.027  35.297  1.00  0.00    -0.237 OA
ATOM     94  O   UNL A   1      51.888  18.892  34.775  1.00  0.00    -0.744 OA
ENDBRANCH  90  91
ENDBRANCH  58  83
BRANCH  70  95
ATOM     95  C   UNL A   1      45.302  27.918  38.867  1.00  0.00     0.058 A 
ATOM     96  C   UNL A   1      45.739  29.187  38.489  1.00  0.00     0.135 A 
ATOM     97  C   UNL A   1      45.187  27.731  40.276  1.00  0.00     0.135 A 
ATOM     98  F   UNL A   1      46.191  29.424  37.248  1.00  0.00    -0.206 F 
ATOM     99  C   UNL A   1      45.821  30.238  39.390  1.00  0.00     0.059 A 
ATOM    100  C   UNL A   1      45.339  28.740  41.201  1.00  0.00     0.059 A 
ATOM    101  F   UNL A   1      44.961  26.562  40.882  1.00  0.00    -0.206 F 
ATOM    102  C   UNL A   1      45.617  30.003  40.743  1.00  0.00     0.060 A 
BRANCH 102 103
ATOM    103  S   UNL A   1      45.888  31.323  41.912  1.00  0.00     0.124 S 
ATOM    104  O   UNL A   1      44.658  32.095  41.766  1.00  0.00    -0.237 OA
ATOM    105  O   UNL A   1      46.036  30.582  43.159  1.00  0.00    -0.237 OA
ATOM    106  O   UNL A   1      47.096  31.978  41.420  1.00  0.00    -0.744 OA
ENDBRANCH 102 103
ENDBRANCH  70  95
ENDBRANCH  44  45
ENDBRANCH  37  39
ENDBRANCH  36  37
ENDBRANCH  35  36
ENDBRANCH  34  35
ENDBRANCH  33  34
ENDBRANCH  32  33
ENDBRANCH   1  32
TORSDOF 24
ENDMDL
MODEL 2
REMARK VINA RESULT:     -10.5      3.373      7.014
REMARK SMILES Cc1ccccc1S(=O)(=O)Nc1ccc(N2CCOCC2)cc1C(=O)OCCOCCOCCOC(=O)c1ccc(-c2c3nc(c(-c4c(F)cc(S(=O)(=O)[O-])cc4F)c4ccc([nH]4)c(-c4c(F)cc(S(=O)(=O)[O-])cc4F)c4nc(c(-c5c(F)cc(S(=O)(=O)[O-])cc5F)c5ccc2[nH]5)C=C4)C=C3)cc1
REMARK SMILES IDX 30 1 29 2 28 3 27 4 26 5 24 6 25 7 23 8 12 9 13 10 14 11
REMARK SMILES IDX 22 12 15 13 11 14 8 16 9 17 10 18 7 19 1 20 2 21 3 22 4 23
REMARK SMILES IDX 6 24 5 25 16 26 17 27 21 28 18 29 20 30 19 31 31 32 32 33
REMARK SMILES IDX 33 34 34 35 35 36 36 37 37 38 38 39 39 40 103 41 40 42
REMARK SMILES IDX 102 43 41 44 42 45 43 46 96 47 44 48 101 49 95 50 97 51
REMARK SMILES IDX 45 52 100 53 94 54 93 55 46 57 80 58 59 59 79 60 60 61 63 62
REMARK SMILES IDX 78 63 98 64 61 65 62 66 77 68 99 69 64 70 47 71 48 72 57 73
REMARK SMILES IDX 49 74 50 75 56 76 58 77 51 78 52 79 53 80 54 81 55 82 81 83
REMARK SMILES IDX 82 84 91 85 83 86 84 87 90 88 92 89 85 90 86 91 87 92 88 93
REMARK SMILES IDX 89 94 65 95 66 96 75 97 67 98 68 99 74 100 76 101 69 102
REMARK SMILES IDX 70 103 71 104 72 105 73 106
REMARK H PARENT 11 15 97 56 63 67
REMARK Flexibility Score: inf
ROOT
ATOM      1  C   UNL A   1      40.899  25.234  27.955  1.00  0.00     0.188 C 
ENDROOT
BRANCH   1   2
ATOM      2  O   UNL A   1      40.727  26.004  26.747  1.00  0.00    -0.376 OA
BRANCH   2   3
ATOM      3  C   UNL A   1      41.536  26.190  25.546  1.00  0.00     0.202 C 
BRANCH   3   4
ATOM      4  C   UNL A   1      43.339  26.549  25.152  1.00  0.00     0.261 C 
BRANCH   4   5
ATOM      5  O   UNL A   1      45.009  27.208  25.819  1.00  0.00    -0.460 OA
BRANCH   5   6
ATOM      6  C   UNL A   1      46.377  28.150  25.175  1.00  0.00     0.340 C 
ATOM      7  O   UNL A   1      46.436  29.286  24.652  1.00  0.00    -0.246 OA
BRANCH   6   8
ATOM      8  C   UNL A   1      47.763  27.927  25.478  1.00  0.00     0.086 A 
ATOM      9  C   UNL A   1      48.821  27.264  24.729  1.00  0.00     0.064 A 
ATOM     10  C   UNL A   1      50.014  27.342  25.472  1.00  0.00     0.030 A 
ATOM     11  C   UNL A   1      50.129  28.233  26.640  1.00  0.00     0.028 A 
ATOM     12  C   UNL A   1      47.844  28.537  26.721  1.00  0.00     0.043 A 
ATOM     13  C   UNL A   1      49.042  28.923  27.218  1.00  0.00     0.038 A 
BRANCH   9  14
ATOM     14  N   UNL A   1      48.800  26.652  23.168  1.00  0.00    -0.279 N 
ATOM     15  H   UNL A   1      48.941  25.679  23.116  1.00  0.00     0.180 HD
BRANCH  14  16
ATOM     16  S   UNL A   1      48.526  27.592  21.284  1.00  0.00     0.262 S 
ATOM     17  O   UNL A   1      47.202  28.164  21.399  1.00  0.00    -0.201 OA
ATOM     18  O   UNL A   1      48.660  26.535  20.289  1.00  0.00    -0.201 OA
BRANCH  16  19
ATOM     19  C   UNL A   1      50.161  28.974  20.965  1.00  0.00     0.090 A 
ATOM     20  C   UNL A   1      50.997  26.547  20.947  1.00  0.00     0.046 C 
ATOM     21  C   UNL A   1      51.368  28.121  21.615  1.00  0.00    -0.031 A 
ATOM     22  C   UNL A   1      53.276  28.822  22.029  1.00  0.00     0.005 A 
ATOM     23  C   UNL A   1      53.878  30.222  21.385  1.00  0.00     0.000 A 
ATOM     24  C   UNL A   1      50.774  30.593  20.426  1.00  0.00     0.022 A 
ATOM     25  C   UNL A   1      52.628  31.108  20.613  1.00  0.00     0.001 A 
ENDBRANCH  16  19
ENDBRANCH  14  16
ENDBRANCH   9  14
BRANCH  13  26
ATOM     26  N   UNL A   1      49.008  30.021  28.057  1.00  0.00    -0.367 N 
ATOM     27  C   UNL A   1      47.838  30.307  28.952  1.00  0.00     0.145 C 
ATOM     28  C   UNL A   1      50.047  31.053  28.045  1.00  0.00     0.145 C 
ATOM     29  C   UNL A   1      47.368  31.764  28.855  1.00  0.00     0.181 C 
ATOM     30  C   UNL A   1      49.471  32.490  28.151  1.00  0.00     0.181 C 
ATOM     31  O   UNL A   1      48.456  32.645  29.151  1.00  0.00    -0.378 OA
ENDBRANCH  13  26
ENDBRANCH   6   8
ENDBRANCH   5   6
ENDBRANCH   4   5
ENDBRANCH   3   4
ENDBRANCH   2   3
ENDBRANCH   1   2
BRANCH   1  32
ATOM     32  C   UNL A   1      40.815  23.732  28.184  1.00  0.00     0.188 C 
BRANCH  32  33
ATOM     33  O   UNL A   1      40.728  22.858  27.097  1.00  0.00    -0.376 OA
BRANCH  33  34
ATOM     34  C   UNL A   1      41.377  21.561  27.300  1.00  0.00     0.202 C 
BRANCH  34  35
ATOM     35  C   UNL A   1      42.623  20.806  26.217  1.00  0.00     0.261 C 
BRANCH  35  36
ATOM     36  O   UNL A   1      44.037  21.597  25.357  1.00  0.00    -0.460 OA
BRANCH  36  37
ATOM     37  C   UNL A   1      45.568  22.259  25.683  1.00  0.00     0.338 C 
ATOM     38  O   UNL A   1      46.474  21.807  24.983  1.00  0.00    -0.246 OA
BRANCH  37  39
ATOM     39  C   UNL A   1      45.904  23.488  27.076  1.00  0.00     0.060 A 
ATOM     40  C   UNL A   1      47.138  24.834  27.397  1.00  0.00     0.016 A 
ATOM     41  C   UNL A   1      44.620  23.419  28.650  1.00  0.00     0.016 A 
ATOM     42  C   UNL A   1      46.905  25.545  29.179  1.00  0.00     0.010 A 
ATOM     43  C   UNL A   1      44.628  23.949  30.032  1.00  0.00     0.010 A 
ATOM     44  C   UNL A   1      45.636  24.857  30.448  1.00  0.00    -0.014 A 
BRANCH  44  45
ATOM     45  C   UNL A   1      44.652  25.294  32.084  1.00  0.00     0.031 A 
ATOM     46  C   UNL A   1      43.685  26.946  32.176  1.00  0.00     0.074 A 
ATOM     47  C   UNL A   1      44.580  24.574  33.261  1.00  0.00     0.049 A 
ATOM     48  N   UNL A   1      44.201  28.092  32.619  1.00  0.00    -0.248 NA
ATOM     49  C   UNL A   1      42.582  27.507  31.036  1.00  0.00     0.031 C 
ATOM     50  C   UNL A   1      43.566  24.691  34.322  1.00  0.00     0.029 A 
ATOM     51  N   UNL A   1      45.250  23.432  33.700  1.00  0.00    -0.354 N 
ATOM     52  C   UNL A   1      43.367  29.113  32.168  1.00  0.00     0.074 A 
ATOM     53  C   UNL A   1      43.006  28.747  30.859  1.00  0.00     0.031 C 
ATOM     54  C   UNL A   1      43.867  23.897  35.378  1.00  0.00     0.029 A 
ATOM     55  C   UNL A   1      45.130  23.243  35.103  1.00  0.00     0.049 A 
ATOM     56  H   UNL A   1      45.748  22.825  33.106  1.00  0.00     0.167 HD
ATOM     57  C   UNL A   1      42.365  29.570  32.986  1.00  0.00     0.037 A 
ATOM     58  C   UNL A   1      46.251  23.211  35.883  1.00  0.00     0.037 A 
ATOM     59  C   UNL A   1      42.424  28.807  34.240  1.00  0.00     0.049 A 
ATOM     60  C   UNL A   1      46.456  24.675  36.312  1.00  0.00     0.074 A 
ATOM     61  C   UNL A   1      41.733  27.757  34.819  1.00  0.00     0.029 A 
ATOM     62  N   UNL A   1      43.668  28.745  34.829  1.00  0.00    -0.354 N 
ATOM     63  N   UNL A   1      45.580  25.613  36.042  1.00  0.00    -0.248 NA
ATOM     64  C   UNL A   1      47.574  25.210  37.079  1.00  0.00     0.031 C 
ATOM     65  C   UNL A   1      42.581  27.190  35.851  1.00  0.00     0.029 A 
ATOM     66  C   UNL A   1      43.801  27.845  35.844  1.00  0.00     0.049 A 
ATOM     67  H   UNL A   1      44.415  29.316  34.536  1.00  0.00     0.167 HD
ATOM     68  C   UNL A   1      45.931  26.811  36.565  1.00  0.00     0.074 A 
ATOM     69  C   UNL A   1      47.252  26.521  37.128  1.00  0.00     0.031 C 
ATOM     70  C   UNL A   1      45.094  27.905  36.535  1.00  0.00     0.037 A 
BRANCH  57  71
ATOM     71  C   UNL A   1      41.180  30.369  32.433  1.00  0.00     0.058 A 
ATOM     72  C   UNL A   1      41.380  31.716  32.110  1.00  0.00     0.135 A 
ATOM     73  C   UNL A   1      39.862  29.886  32.148  1.00  0.00     0.135 A 
ATOM     74  F   UNL A   1      42.565  32.303  32.312  1.00  0.00    -0.206 F 
ATOM     75  C   UNL A   1      40.388  32.509  31.533  1.00  0.00     0.059 A 
ATOM     76  C   UNL A   1      38.832  30.685  31.644  1.00  0.00     0.059 A 
ATOM     77  F   UNL A   1      39.512  28.599  32.285  1.00  0.00    -0.206 F 
ATOM     78  C   UNL A   1      39.122  31.987  31.293  1.00  0.00     0.060 A 
BRANCH  78  79
ATOM     79  S   UNL A   1      37.924  33.004  30.416  1.00  0.00     0.124 S 
ATOM     80  O   UNL A   1      38.106  32.565  29.037  1.00  0.00    -0.237 OA
ATOM     81  O   UNL A   1      36.676  32.603  31.056  1.00  0.00    -0.237 OA
ATOM     82  O   UNL A   1      38.359  34.369  30.696  1.00  0.00    -0.744 OA
ENDBRANCH  78  79
ENDBRANCH  57  71
BRANCH  58  83
ATOM     83  C   UNL A   1      47.239  22.239  35.250  1.00  0.00     0.058 A 
ATOM     84  C   UNL A   1      48.454  22.679  34.643  1.00  0.00     0.135 A 
ATOM     85  C   UNL A   1      47.339  21.030  35.900  1.00  0.00     0.135 A 
ATOM     86  F   UNL A   1      48.518  23.893  34.077  1.00  0.00    -0.206 F 
ATOM     87  C   UNL A   1      49.664  21.948  34.700  1.00  0.00     0.059 A 
ATOM     88  C   UNL A   1      48.610  20.616  36.298  1.00  0.00     0.059 A 
ATOM     89  F   UNL A   1      46.265  20.509  36.514  1.00  0.00    -0.206 F 
ATOM     90  C   UNL A   1      49.736  20.873  35.551  1.00  0.00     0.060 A 
BRANCH  90  91
ATOM     91  S   UNL A   1      51.213  19.807  35.566  1.00  0.00     0.124 S 
ATOM     92  O   UNL A   1      50.938  18.904  36.677  1.00  0.00    -0.237 OA
ATOM     93  O   UNL A   1      51.161  19.216  34.231  1.00  0.00    -0.237 OA
ATOM     94  O   UNL A   1      52.354  20.686  35.779  1.00  0.00    -0.744 OA
ENDBRANCH  90  91
ENDBRANCH  58  83
BRANCH  70  95
ATOM     95  C   UNL A   1      45.475  29.246  37.136  1.00  0.00     0.058 A 
ATOM     96  C   UNL A   1      46.019  30.256  36.343  1.00  0.00     0.135 A 
ATOM     97  C   UNL A   1      45.405  29.564  38.525  1.00  0.00     0.135 A 
ATOM     98  F   UNL A   1      46.438  30.006  35.093  1.00  0.00    -0.206 F 
ATOM     99  C   UNL A   1      46.246  31.535  36.828  1.00  0.00     0.059 A 
ATOM    100  C   UNL A   1      45.697  30.804  39.047  1.00  0.00     0.059 A 
ATOM    101  F   UNL A   1      45.090  28.702  39.496  1.00  0.00    -0.206 F 
ATOM    102  C   UNL A   1      46.079  31.797  38.182  1.00  0.00     0.060 A 
BRANCH 102 103
ATOM    103  S   UNL A   1      46.531  33.399  38.825  1.00  0.00     0.124 S 
ATOM    104  O   UNL A   1      47.957  33.218  39.075  1.00  0.00    -0.237 OA
ATOM    105  O   UNL A   1      46.182  34.270  37.708  1.00  0.00    -0.237 OA
ATOM    106  O   UNL A   1      45.702  33.540  40.017  1.00  0.00    -0.744 OA
ENDBRANCH 102 103
ENDBRANCH  70  95
ENDBRANCH  44  45
ENDBRANCH  37  39
ENDBRANCH  36  37
ENDBRANCH  35  36
ENDBRANCH  34  35
ENDBRANCH  33  34
ENDBRANCH  32  33
ENDBRANCH   1  32
TORSDOF 24
ENDMDL
MODEL 3
REMARK VINA RESULT:     -10.0      4.644     10.231
REMARK SMILES Cc1ccccc1S(=O)(=O)Nc1ccc(N2CCOCC2)cc1C(=O)OCCOCCOCCOC(=O)c1ccc(-c2c3nc(c(-c4c(F)cc(S(=O)(=O)[O-])cc4F)c4ccc([nH]4)c(-c4c(F)cc(S(=O)(=O)[O-])cc4F)c4nc(c(-c5c(F)cc(S(=O)(=O)[O-])cc5F)c5ccc2[nH]5)C=C4)C=C3)cc1
REMARK SMILES IDX 30 1 29 2 28 3 27 4 26 5 24 6 25 7 23 8 12 9 13 10 14 11
REMARK SMILES IDX 22 12 15 13 11 14 8 16 9 17 10 18 7 19 1 20 2 21 3 22 4 23
REMARK SMILES IDX 6 24 5 25 16 26 17 27 21 28 18 29 20 30 19 31 31 32 32 33
REMARK SMILES IDX 33 34 34 35 35 36 36 37 37 38 38 39 39 40 103 41 40 42
REMARK SMILES IDX 102 43 41 44 42 45 43 46 96 47 44 48 101 49 95 50 97 51
REMARK SMILES IDX 45 52 100 53 94 54 93 55 46 57 80 58 59 59 79 60 60 61 63 62
REMARK SMILES IDX 78 63 98 64 61 65 62 66 77 68 99 69 64 70 47 71 48 72 57 73
REMARK SMILES IDX 49 74 50 75 56 76 58 77 51 78 52 79 53 80 54 81 55 82 81 83
REMARK SMILES IDX 82 84 91 85 83 86 84 87 90 88 92 89 85 90 86 91 87 92 88 93
REMARK SMILES IDX 89 94 65 95 66 96 75 97 67 98 68 99 74 100 76 101 69 102
REMARK SMILES IDX 70 103 71 104 72 105 73 106
REMARK H PARENT 11 15 97 56 63 67
REMARK Flexibility Score: inf
ROOT
ATOM      1  C   UNL A   1      48.244  29.556  33.909  1.00  0.00     0.188 C 
ENDROOT
BRANCH   1   2
ATOM      2  O   UNL A   1      46.940  29.282  33.359  1.00  0.00    -0.376 OA
BRANCH   2   3
ATOM      3  C   UNL A   1      46.204  28.054  33.068  1.00  0.00     0.202 C 
BRANCH   3   4
ATOM      4  C   UNL A   1      45.095  27.417  31.690  1.00  0.00     0.261 C 
BRANCH   4   5
ATOM      5  O   UNL A   1      43.343  27.454  30.918  1.00  0.00    -0.460 OA
BRANCH   5   6
ATOM      6  C   UNL A   1      42.649  27.312  29.283  1.00  0.00     0.340 C 
ATOM      7  O   UNL A   1      43.098  27.620  28.155  1.00  0.00    -0.246 OA
BRANCH   6   8
ATOM      8  C   UNL A   1      41.559  26.456  28.907  1.00  0.00     0.086 A 
ATOM      9  C   UNL A   1      40.127  26.699  28.816  1.00  0.00     0.064 A 
ATOM     10  C   UNL A   1      39.498  25.519  28.373  1.00  0.00     0.030 A 
ATOM     11  C   UNL A   1      40.280  24.396  27.827  1.00  0.00     0.028 A 
ATOM     12  C   UNL A   1      42.251  25.285  28.635  1.00  0.00     0.043 A 
ATOM     13  C   UNL A   1      41.689  24.320  27.870  1.00  0.00     0.038 A 
BRANCH   9  14
ATOM     14  N   UNL A   1      39.275  28.133  28.988  1.00  0.00    -0.279 N 
ATOM     15  H   UNL A   1      38.397  28.135  28.542  1.00  0.00     0.180 HD
BRANCH  14  16
ATOM     16  S   UNL A   1      39.743  29.945  29.990  1.00  0.00     0.262 S 
ATOM     17  O   UNL A   1      41.108  30.196  29.583  1.00  0.00    -0.201 OA
ATOM     18  O   UNL A   1      39.560  29.673  31.411  1.00  0.00    -0.201 OA
BRANCH  16  19
ATOM     19  C   UNL A   1      38.272  31.433  29.435  1.00  0.00     0.090 A 
ATOM     20  C   UNL A   1      37.137  29.324  30.359  1.00  0.00     0.046 C 
ATOM     21  C   UNL A   1      37.044  30.464  29.036  1.00  0.00    -0.031 A 
ATOM     22  C   UNL A   1      35.296  31.038  28.075  1.00  0.00     0.005 A 
ATOM     23  C   UNL A   1      34.811  32.615  27.960  1.00  0.00     0.000 A 
ATOM     24  C   UNL A   1      37.814  33.161  29.131  1.00  0.00     0.022 A 
ATOM     25  C   UNL A   1      36.073  33.665  28.462  1.00  0.00     0.001 A 
ENDBRANCH  16  19
ENDBRANCH  14  16
ENDBRANCH   9  14
BRANCH  13  26
ATOM     26  N   UNL A   1      42.578  23.554  27.138  1.00  0.00    -0.367 N 
ATOM     27  C   UNL A   1      43.415  24.136  26.037  1.00  0.00     0.145 C 
ATOM     28  C   UNL A   1      42.678  22.102  27.294  1.00  0.00     0.145 C 
ATOM     29  C   UNL A   1      43.362  23.296  24.754  1.00  0.00     0.181 C 
ATOM     30  C   UNL A   1      42.821  21.359  25.938  1.00  0.00     0.181 C 
ATOM     31  O   UNL A   1      43.765  21.953  25.038  1.00  0.00    -0.378 OA
ENDBRANCH  13  26
ENDBRANCH   6   8
ENDBRANCH   5   6
ENDBRANCH   4   5
ENDBRANCH   3   4
ENDBRANCH   2   3
ENDBRANCH   1   2
BRANCH   1  32
ATOM     32  C   UNL A   1      49.260  28.618  34.546  1.00  0.00     0.188 C 
BRANCH  32  33
ATOM     33  O   UNL A   1      48.844  27.649  35.462  1.00  0.00    -0.376 OA
BRANCH  33  34
ATOM     34  C   UNL A   1      48.715  28.124  36.842  1.00  0.00     0.202 C 
BRANCH  34  35
ATOM     35  C   UNL A   1      47.176  28.618  37.666  1.00  0.00     0.261 C 
BRANCH  35  36
ATOM     36  O   UNL A   1      45.817  27.563  38.303  1.00  0.00    -0.460 OA
BRANCH  36  37
ATOM     37  C   UNL A   1      44.337  26.890  37.810  1.00  0.00     0.338 C 
ATOM     38  O   UNL A   1      43.987  25.905  38.459  1.00  0.00    -0.246 OA
BRANCH  37  39
ATOM     39  C   UNL A   1      43.353  27.500  36.318  1.00  0.00     0.060 A 
ATOM     40  C   UNL A   1      42.074  26.784  35.182  1.00  0.00     0.016 A 
ATOM     41  C   UNL A   1      43.686  29.426  35.761  1.00  0.00     0.016 A 
ATOM     42  C   UNL A   1      41.667  28.030  33.762  1.00  0.00     0.010 A 
ATOM     43  C   UNL A   1      43.391  30.234  34.557  1.00  0.00     0.010 A 
ATOM     44  C   UNL A   1      42.561  29.716  33.530  1.00  0.00    -0.014 A 
BRANCH  44  45
ATOM     45  C   UNL A   1      42.403  31.477  32.686  1.00  0.00     0.031 A 
ATOM     46  C   UNL A   1      43.932  32.229  31.810  1.00  0.00     0.074 A 
ATOM     47  C   UNL A   1      41.312  32.323  32.663  1.00  0.00     0.049 A 
ATOM     48  N   UNL A   1      44.833  33.006  32.411  1.00  0.00    -0.248 NA
ATOM     49  C   UNL A   1      44.886  31.460  30.657  1.00  0.00     0.031 C 
ATOM     50  C   UNL A   1      41.061  33.438  31.734  1.00  0.00     0.029 A 
ATOM     51  N   UNL A   1      40.074  32.271  33.306  1.00  0.00    -0.354 N 
ATOM     52  C   UNL A   1      45.964  33.018  31.597  1.00  0.00     0.074 A 
ATOM     53  C   UNL A   1      46.098  31.699  31.127  1.00  0.00     0.031 C 
ATOM     54  C   UNL A   1      39.936  34.114  32.070  1.00  0.00     0.029 A 
ATOM     55  C   UNL A   1      39.399  33.520  33.277  1.00  0.00     0.049 A 
ATOM     56  H   UNL A   1      39.711  31.461  33.731  1.00  0.00     0.167 HD
ATOM     57  C   UNL A   1      46.119  34.025  30.678  1.00  0.00     0.037 A 
ATOM     58  C   UNL A   1      39.068  34.141  34.447  1.00  0.00     0.037 A 
ATOM     59  C   UNL A   1      44.956  34.917  30.789  1.00  0.00     0.049 A 
ATOM     60  C   UNL A   1      40.277  35.044  34.754  1.00  0.00     0.074 A 
ATOM     61  C   UNL A   1      43.782  35.142  30.091  1.00  0.00     0.029 A 
ATOM     62  N   UNL A   1      44.663  35.340  32.068  1.00  0.00    -0.354 N 
ATOM     63  N   UNL A   1      41.267  35.199  33.906  1.00  0.00    -0.248 NA
ATOM     64  C   UNL A   1      40.480  35.854  35.947  1.00  0.00     0.031 C 
ATOM     65  C   UNL A   1      42.867  35.831  30.981  1.00  0.00     0.029 A 
ATOM     66  C   UNL A   1      43.457  35.954  32.229  1.00  0.00     0.049 A 
ATOM     67  H   UNL A   1      45.286  35.208  32.819  1.00  0.00     0.167 HD
ATOM     68  C   UNL A   1      42.191  36.081  34.351  1.00  0.00     0.074 A 
ATOM     69  C   UNL A   1      41.693  36.392  35.693  1.00  0.00     0.031 C 
ATOM     70  C   UNL A   1      43.239  36.512  33.568  1.00  0.00     0.037 A 
BRANCH  57  71
ATOM     71  C   UNL A   1      47.086  33.893  29.498  1.00  0.00     0.058 A 
ATOM     72  C   UNL A   1      48.457  34.030  29.744  1.00  0.00     0.135 A 
ATOM     73  C   UNL A   1      46.761  33.587  28.137  1.00  0.00     0.135 A 
ATOM     74  F   UNL A   1      48.911  34.307  30.971  1.00  0.00    -0.206 F 
ATOM     75  C   UNL A   1      49.423  33.855  28.753  1.00  0.00     0.059 A 
ATOM     76  C   UNL A   1      47.708  33.486  27.113  1.00  0.00     0.059 A 
ATOM     77  F   UNL A   1      45.514  33.311  27.730  1.00  0.00    -0.206 F 
ATOM     78  C   UNL A   1      49.044  33.574  27.445  1.00  0.00     0.060 A 
BRANCH  78  79
ATOM     79  S   UNL A   1      50.328  33.213  26.236  1.00  0.00     0.124 S 
ATOM     80  O   UNL A   1      51.454  33.986  26.749  1.00  0.00    -0.237 OA
ATOM     81  O   UNL A   1      50.440  31.764  26.351  1.00  0.00    -0.237 OA
ATOM     82  O   UNL A   1      49.763  33.699  24.980  1.00  0.00    -0.744 OA
ENDBRANCH  78  79
ENDBRANCH  57  71
BRANCH  58  83
ATOM     83  C   UNL A   1      38.367  33.125  35.340  1.00  0.00     0.058 A 
ATOM     84  C   UNL A   1      39.078  32.329  36.289  1.00  0.00     0.135 A 
ATOM     85  C   UNL A   1      37.110  33.504  35.752  1.00  0.00     0.135 A 
ATOM     86  F   UNL A   1      40.355  31.992  36.056  1.00  0.00    -0.206 F 
ATOM     87  C   UNL A   1      38.550  31.960  37.549  1.00  0.00     0.059 A 
ATOM     88  C   UNL A   1      36.852  33.502  37.123  1.00  0.00     0.059 A 
ATOM     89  F   UNL A   1      36.341  34.257  34.949  1.00  0.00    -0.206 F 
ATOM     90  C   UNL A   1      37.391  32.562  37.971  1.00  0.00     0.060 A 
BRANCH  90  91
ATOM     91  S   UNL A   1      36.584  32.028  39.514  1.00  0.00     0.124 S 
ATOM     92  O   UNL A   1      37.347  30.839  39.873  1.00  0.00    -0.237 OA
ATOM     93  O   UNL A   1      36.780  33.197  40.367  1.00  0.00    -0.237 OA
ATOM     94  O   UNL A   1      35.190  31.767  39.182  1.00  0.00    -0.744 OA
ENDBRANCH  90  91
ENDBRANCH  58  83
BRANCH  70  95
ATOM     95  C   UNL A   1      44.270  37.516  34.056  1.00  0.00     0.058 A 
ATOM     96  C   UNL A   1      44.211  38.850  33.657  1.00  0.00     0.135 A 
ATOM     97  C   UNL A   1      45.403  37.191  34.860  1.00  0.00     0.135 A 
ATOM     98  F   UNL A   1      43.401  39.243  32.663  1.00  0.00    -0.206 F 
ATOM     99  C   UNL A   1      45.048  39.818  34.193  1.00  0.00     0.059 A 
ATOM    100  C   UNL A   1      46.295  38.122  35.344  1.00  0.00     0.059 A 
ATOM    101  F   UNL A   1      45.768  35.956  35.211  1.00  0.00    -0.206 F 
ATOM    102  C   UNL A   1      46.085  39.442  35.037  1.00  0.00     0.060 A 
BRANCH 102 103
ATOM    103  S   UNL A   1      47.254  40.671  35.588  1.00  0.00     0.124 S 
ATOM    104  O   UNL A   1      47.307  40.399  37.020  1.00  0.00    -0.237 OA
ATOM    105  O   UNL A   1      48.441  40.307  34.821  1.00  0.00    -0.237 OA
ATOM    106  O   UNL A   1      46.627  41.936  35.217  1.00  0.00    -0.744 OA
ENDBRANCH 102 103
ENDBRANCH  70  95
ENDBRANCH  44  45
ENDBRANCH  37  39
ENDBRANCH  36  37
ENDBRANCH  35  36
ENDBRANCH  34  35
ENDBRANCH  33  34
ENDBRANCH  32  33
ENDBRANCH   1  32
TORSDOF 24
ENDMDL
