MODEL 1
REMARK VINA RESULT:     -10.3      0.000      0.000
REMARK SMILES N#Cc1ccn2cc(C(=O)OCCOCCOCCOC(=O)c3ccc(-c4c5nc(c(-c6c(F)cc(S(=O)(=O)[O-])cc6F)c6ccc([nH]6)c(-c6c(F)cc(S(=O)(=O)[O-])cc6F)c6nc(c(-c7c(F)cc(S(=O)(=O)[O-])cc7F)c7ccc4[nH]7)C=C6)C=C5)cc3)nc2c1
REMARK SMILES IDX 16 1 15 2 14 3 13 4 12 5 11 6 9 7 10 8 8 9 3 10 4 11 91 12
REMARK SMILES IDX 5 13 90 14 6 15 89 16 7 17 2 18 1 19 17 20 18 21 19 22 20 23
REMARK SMILES IDX 21 24 22 25 23 26 24 27 88 28 25 29 87 30 26 31 27 32 28 33
REMARK SMILES IDX 81 34 29 35 86 36 80 37 82 38 30 39 85 40 79 41 78 42 31 44
REMARK SMILES IDX 65 45 44 46 64 47 45 48 48 49 63 50 83 51 46 52 47 53 62 55
REMARK SMILES IDX 84 56 49 57 32 58 33 59 42 60 34 61 35 62 41 63 43 64 36 65
REMARK SMILES IDX 37 66 38 67 39 68 40 69 66 70 67 71 76 72 68 73 69 74 75 75
REMARK SMILES IDX 77 76 70 77 71 78 72 79 73 80 74 81 50 82 51 83 60 84 52 85
REMARK SMILES IDX 53 86 59 87 61 88 54 89 55 90 56 91 57 92 58 93
REMARK H PARENT 82 43 48 54
REMARK Flexibility Score: inf
ROOT
ATOM      1  C   UNL A   1      43.467  22.061  25.551  1.00  0.00     0.188 C 
ENDROOT
BRANCH   1   2
ATOM      2  C   UNL A   1      44.469  22.614  24.513  1.00  0.00     0.188 C 
BRANCH   2   3
ATOM      3  O   UNL A   1      44.584  24.019  24.356  1.00  0.00    -0.376 OA
BRANCH   3   4
ATOM      4  C   UNL A   1      43.672  24.833  25.081  1.00  0.00     0.202 C 
BRANCH   4   5
ATOM      5  C   UNL A   1      44.329  25.847  26.011  1.00  0.00     0.261 C 
BRANCH   5   6
ATOM      6  O   UNL A   1      45.351  26.526  25.263  1.00  0.00    -0.458 OA
BRANCH   6   7
ATOM      7  C   UNL A   1      46.528  26.674  25.923  1.00  0.00     0.358 C 
ATOM      8  O   UNL A   1      46.624  26.789  27.134  1.00  0.00    -0.244 OA
BRANCH   7   9
ATOM      9  C   UNL A   1      47.690  26.613  25.037  1.00  0.00     0.167 A 
ATOM     10  C   UNL A   1      49.996  27.992  21.500  1.00  0.00     0.057 A 
ATOM     11  C   UNL A   1      51.016  28.276  22.481  1.00  0.00     0.038 A 
ATOM     12  C   UNL A   1      48.852  27.345  21.832  1.00  0.00     0.067 A 
ATOM     13  C   UNL A   1      50.792  27.863  23.744  1.00  0.00     0.094 A 
ATOM     14  C   UNL A   1      48.595  26.972  23.156  1.00  0.00     0.139 A 
ATOM     15  N   UNL A   1      49.578  27.249  24.082  1.00  0.00    -0.306 N 
ATOM     16  N   UNL A   1      47.520  26.454  23.686  1.00  0.00    -0.221 NA
ATOM     17  C   UNL A   1      49.012  26.970  25.308  1.00  0.00     0.128 A 
BRANCH  10  18
ATOM     18  C   UNL A   1      50.274  27.581  20.063  1.00  0.00     0.099 C 
ATOM     19  N   UNL A   1      50.505  27.241  18.871  1.00  0.00    -0.192 NA
ENDBRANCH  10  18
ENDBRANCH   7   9
ENDBRANCH   6   7
ENDBRANCH   5   6
ENDBRANCH   4   5
ENDBRANCH   3   4
ENDBRANCH   2   3
ENDBRANCH   1   2
BRANCH   1  20
ATOM     20  O   UNL A   1      42.842  20.812  25.296  1.00  0.00    -0.376 OA
BRANCH  20  21
ATOM     21  C   UNL A   1      42.154  20.199  26.379  1.00  0.00     0.202 C 
BRANCH  21  22
ATOM     22  C   UNL A   1      40.626  20.198  26.257  1.00  0.00     0.261 C 
BRANCH  22  23
ATOM     23  O   UNL A   1      40.061  21.223  27.099  1.00  0.00    -0.460 OA
BRANCH  23  24
ATOM     24  C   UNL A   1      39.350  22.189  26.466  1.00  0.00     0.338 C 
ATOM     25  O   UNL A   1      38.355  22.015  25.785  1.00  0.00    -0.246 OA
BRANCH  24  26
ATOM     26  C   UNL A   1      39.784  23.517  26.990  1.00  0.00     0.060 A 
ATOM     27  C   UNL A   1      41.012  23.752  27.626  1.00  0.00     0.016 A 
ATOM     28  C   UNL A   1      38.847  24.545  26.939  1.00  0.00     0.016 A 
ATOM     29  C   UNL A   1      41.235  24.950  28.338  1.00  0.00     0.010 A 
ATOM     30  C   UNL A   1      39.109  25.754  27.587  1.00  0.00     0.010 A 
ATOM     31  C   UNL A   1      40.255  25.946  28.377  1.00  0.00    -0.014 A 
BRANCH  31  32
ATOM     32  C   UNL A   1      40.493  27.293  28.948  1.00  0.00     0.031 A 
ATOM     33  C   UNL A   1      41.615  27.990  28.311  1.00  0.00     0.074 A 
ATOM     34  C   UNL A   1      39.904  27.994  29.950  1.00  0.00     0.049 A 
ATOM     35  N   UNL A   1      42.762  28.129  28.886  1.00  0.00    -0.248 NA
ATOM     36  C   UNL A   1      41.545  28.470  26.934  1.00  0.00     0.031 C 
ATOM     37  C   UNL A   1      38.984  27.517  30.963  1.00  0.00     0.029 A 
ATOM     38  N   UNL A   1      40.000  29.342  30.268  1.00  0.00    -0.354 N 
ATOM     39  C   UNL A   1      43.499  28.924  28.044  1.00  0.00     0.074 A 
ATOM     40  C   UNL A   1      42.776  28.971  26.793  1.00  0.00     0.031 C 
ATOM     41  C   UNL A   1      38.432  28.556  31.634  1.00  0.00     0.029 A 
ATOM     42  C   UNL A   1      39.023  29.802  31.154  1.00  0.00     0.049 A 
ATOM     43  H   UNL A   1      40.701  29.926  29.898  1.00  0.00     0.167 HD
ATOM     44  C   UNL A   1      44.527  29.668  28.523  1.00  0.00     0.037 A 
ATOM     45  C   UNL A   1      38.962  30.935  31.905  1.00  0.00     0.037 A 
ATOM     46  C   UNL A   1      44.913  29.300  29.865  1.00  0.00     0.049 A 
ATOM     47  C   UNL A   1      40.334  31.291  32.296  1.00  0.00     0.074 A 
ATOM     48  C   UNL A   1      45.385  28.151  30.471  1.00  0.00     0.029 A 
ATOM     49  N   UNL A   1      44.518  30.132  30.883  1.00  0.00    -0.354 N 
ATOM     50  N   UNL A   1      41.018  30.645  33.194  1.00  0.00    -0.248 NA
ATOM     51  C   UNL A   1      41.089  32.236  31.488  1.00  0.00     0.031 C 
ATOM     52  C   UNL A   1      44.954  28.206  31.829  1.00  0.00     0.029 A 
ATOM     53  C   UNL A   1      44.230  29.382  32.000  1.00  0.00     0.049 A 
ATOM     54  H   UNL A   1      44.451  31.113  30.823  1.00  0.00     0.167 HD
ATOM     55  C   UNL A   1      42.324  30.760  32.767  1.00  0.00     0.074 A 
ATOM     56  C   UNL A   1      42.326  31.882  31.841  1.00  0.00     0.031 C 
ATOM     57  C   UNL A   1      43.202  29.736  32.959  1.00  0.00     0.037 A 
BRANCH  44  58
ATOM     58  C   UNL A   1      44.950  30.945  27.871  1.00  0.00     0.058 A 
ATOM     59  C   UNL A   1      44.124  32.077  27.949  1.00  0.00     0.135 A 
ATOM     60  C   UNL A   1      46.051  31.027  26.991  1.00  0.00     0.135 A 
ATOM     61  F   UNL A   1      43.028  32.069  28.723  1.00  0.00    -0.206 F 
ATOM     62  C   UNL A   1      44.376  33.221  27.196  1.00  0.00     0.059 A 
ATOM     63  C   UNL A   1      46.355  32.177  26.278  1.00  0.00     0.059 A 
ATOM     64  F   UNL A   1      46.823  29.962  26.729  1.00  0.00    -0.206 F 
ATOM     65  C   UNL A   1      45.493  33.258  26.362  1.00  0.00     0.060 A 
BRANCH  65  66
ATOM     66  S   UNL A   1      45.779  34.710  25.337  1.00  0.00     0.124 S 
ATOM     67  O   UNL A   1      45.270  35.771  26.198  1.00  0.00    -0.237 OA
ATOM     68  O   UNL A   1      47.226  34.672  25.151  1.00  0.00    -0.237 OA
ATOM     69  O   UNL A   1      44.992  34.431  24.139  1.00  0.00    -0.744 OA
ENDBRANCH  65  66
ENDBRANCH  44  58
BRANCH  45  70
ATOM     70  C   UNL A   1      37.871  31.952  31.908  1.00  0.00     0.058 A 
ATOM     71  C   UNL A   1      37.459  32.596  30.726  1.00  0.00     0.135 A 
ATOM     72  C   UNL A   1      37.076  32.185  33.042  1.00  0.00     0.135 A 
ATOM     73  F   UNL A   1      38.127  32.389  29.581  1.00  0.00    -0.206 F 
ATOM     74  C   UNL A   1      36.325  33.415  30.672  1.00  0.00     0.059 A 
ATOM     75  C   UNL A   1      35.959  33.028  33.026  1.00  0.00     0.059 A 
ATOM     76  F   UNL A   1      37.316  31.515  34.179  1.00  0.00    -0.206 F 
ATOM     77  C   UNL A   1      35.576  33.623  31.830  1.00  0.00     0.060 A 
BRANCH  77  78
ATOM     78  S   UNL A   1      34.042  34.581  31.728  1.00  0.00     0.124 S 
ATOM     79  O   UNL A   1      33.627  34.356  30.347  1.00  0.00    -0.237 OA
ATOM     80  O   UNL A   1      33.221  33.939  32.750  1.00  0.00    -0.237 OA
ATOM     81  O   UNL A   1      34.464  35.942  32.041  1.00  0.00    -0.744 OA
ENDBRANCH  77  78
ENDBRANCH  45  70
BRANCH  57  82
ATOM     82  C   UNL A   1      42.887  28.776  34.078  1.00  0.00     0.058 A 
ATOM     83  C   UNL A   1      43.235  28.991  35.422  1.00  0.00     0.135 A 
ATOM     84  C   UNL A   1      42.158  27.614  33.788  1.00  0.00     0.135 A 
ATOM     85  F   UNL A   1      43.844  30.122  35.793  1.00  0.00    -0.206 F 
ATOM     86  C   UNL A   1      42.923  28.073  36.427  1.00  0.00     0.059 A 
ATOM     87  C   UNL A   1      41.804  26.698  34.779  1.00  0.00     0.059 A 
ATOM     88  F   UNL A   1      41.753  27.372  32.531  1.00  0.00    -0.206 F 
ATOM     89  C   UNL A   1      42.202  26.928  36.096  1.00  0.00     0.060 A 
BRANCH  89  90
ATOM     90  S   UNL A   1      41.708  25.789  37.410  1.00  0.00     0.124 S 
ATOM     91  O   UNL A   1      40.369  26.261  37.746  1.00  0.00    -0.237 OA
ATOM     92  O   UNL A   1      41.778  24.488  36.749  1.00  0.00    -0.237 OA
ATOM     93  O   UNL A   1      42.721  26.002  38.443  1.00  0.00    -0.744 OA
ENDBRANCH  89  90
ENDBRANCH  57  82
ENDBRANCH  31  32
ENDBRANCH  24  26
ENDBRANCH  23  24
ENDBRANCH  22  23
ENDBRANCH  21  22
ENDBRANCH  20  21
ENDBRANCH   1  20
TORSDOF 21
ENDMDL
MODEL 2
REMARK VINA RESULT:     -10.2      2.487      4.433
REMARK SMILES N#Cc1ccn2cc(C(=O)OCCOCCOCCOC(=O)c3ccc(-c4c5nc(c(-c6c(F)cc(S(=O)(=O)[O-])cc6F)c6ccc([nH]6)c(-c6c(F)cc(S(=O)(=O)[O-])cc6F)c6nc(c(-c7c(F)cc(S(=O)(=O)[O-])cc7F)c7ccc4[nH]7)C=C6)C=C5)cc3)nc2c1
REMARK SMILES IDX 16 1 15 2 14 3 13 4 12 5 11 6 9 7 10 8 8 9 3 10 4 11 91 12
REMARK SMILES IDX 5 13 90 14 6 15 89 16 7 17 2 18 1 19 17 20 18 21 19 22 20 23
REMARK SMILES IDX 21 24 22 25 23 26 24 27 88 28 25 29 87 30 26 31 27 32 28 33
REMARK SMILES IDX 81 34 29 35 86 36 80 37 82 38 30 39 85 40 79 41 78 42 31 44
REMARK SMILES IDX 65 45 44 46 64 47 45 48 48 49 63 50 83 51 46 52 47 53 62 55
REMARK SMILES IDX 84 56 49 57 32 58 33 59 42 60 34 61 35 62 41 63 43 64 36 65
REMARK SMILES IDX 37 66 38 67 39 68 40 69 66 70 67 71 76 72 68 73 69 74 75 75
REMARK SMILES IDX 77 76 70 77 71 78 72 79 73 80 74 81 50 82 51 83 60 84 52 85
REMARK SMILES IDX 53 86 59 87 61 88 54 89 55 90 56 91 57 92 58 93
REMARK H PARENT 82 43 48 54
REMARK Flexibility Score: inf
ROOT
ATOM      1  C   UNL A   1      43.807  22.238  25.125  1.00  0.00     0.188 C 
ENDROOT
BRANCH   1   2
ATOM      2  C   UNL A   1      44.705  22.603  23.922  1.00  0.00     0.188 C 
BRANCH   2   3
ATOM      3  O   UNL A   1      46.047  22.991  24.165  1.00  0.00    -0.376 OA
BRANCH   3   4
ATOM      4  C   UNL A   1      46.259  24.099  25.030  1.00  0.00     0.202 C 
BRANCH   4   5
ATOM      5  C   UNL A   1      46.368  23.737  26.507  1.00  0.00     0.261 C 
BRANCH   5   6
ATOM      6  O   UNL A   1      46.314  24.959  27.261  1.00  0.00    -0.458 OA
BRANCH   6   7
ATOM      7  C   UNL A   1      45.158  25.148  27.946  1.00  0.00     0.358 C 
ATOM      8  O   UNL A   1      44.171  25.700  27.486  1.00  0.00    -0.244 OA
BRANCH   7   9
ATOM      9  C   UNL A   1      45.185  24.558  29.284  1.00  0.00     0.167 A 
ATOM     10  C   UNL A   1      44.366  24.704  33.647  1.00  0.00     0.057 A 
ATOM     11  C   UNL A   1      43.569  23.532  33.371  1.00  0.00     0.038 A 
ATOM     12  C   UNL A   1      45.150  25.270  32.697  1.00  0.00     0.067 A 
ATOM     13  C   UNL A   1      43.641  23.015  32.129  1.00  0.00     0.094 A 
ATOM     14  C   UNL A   1      45.174  24.767  31.391  1.00  0.00     0.139 A 
ATOM     15  N   UNL A   1      44.410  23.648  31.142  1.00  0.00    -0.306 N 
ATOM     16  N   UNL A   1      45.765  25.235  30.325  1.00  0.00    -0.221 NA
ATOM     17  C   UNL A   1      44.452  23.476  29.774  1.00  0.00     0.128 A 
BRANCH  10  18
ATOM     18  C   UNL A   1      45.093  24.960  34.957  1.00  0.00     0.099 C 
ATOM     19  N   UNL A   1      45.696  25.172  36.044  1.00  0.00    -0.192 NA
ENDBRANCH  10  18
ENDBRANCH   7   9
ENDBRANCH   6   7
ENDBRANCH   5   6
ENDBRANCH   4   5
ENDBRANCH   3   4
ENDBRANCH   2   3
ENDBRANCH   1   2
BRANCH   1  20
ATOM     20  O   UNL A   1      43.102  21.006  25.100  1.00  0.00    -0.376 OA
BRANCH  20  21
ATOM     21  C   UNL A   1      42.546  20.553  26.328  1.00  0.00     0.202 C 
BRANCH  21  22
ATOM     22  C   UNL A   1      41.048  20.232  26.280  1.00  0.00     0.261 C 
BRANCH  22  23
ATOM     23  O   UNL A   1      40.315  21.162  27.104  1.00  0.00    -0.460 OA
BRANCH  23  24
ATOM     24  C   UNL A   1      39.571  22.084  26.446  1.00  0.00     0.338 C 
ATOM     25  O   UNL A   1      38.611  21.853  25.733  1.00  0.00    -0.246 OA
BRANCH  24  26
ATOM     26  C   UNL A   1      39.910  23.436  26.980  1.00  0.00     0.060 A 
ATOM     27  C   UNL A   1      41.068  23.727  27.715  1.00  0.00     0.016 A 
ATOM     28  C   UNL A   1      38.944  24.427  26.829  1.00  0.00     0.016 A 
ATOM     29  C   UNL A   1      41.185  24.943  28.421  1.00  0.00     0.010 A 
ATOM     30  C   UNL A   1      39.105  25.655  27.474  1.00  0.00     0.010 A 
ATOM     31  C   UNL A   1      40.170  25.902  28.357  1.00  0.00    -0.014 A 
BRANCH  31  32
ATOM     32  C   UNL A   1      40.309  27.266  28.921  1.00  0.00     0.031 A 
ATOM     33  C   UNL A   1      41.357  28.051  28.260  1.00  0.00     0.074 A 
ATOM     34  C   UNL A   1      39.685  27.920  29.934  1.00  0.00     0.049 A 
ATOM     35  N   UNL A   1      42.500  28.284  28.812  1.00  0.00    -0.248 NA
ATOM     36  C   UNL A   1      41.220  28.519  26.884  1.00  0.00     0.031 C 
ATOM     37  C   UNL A   1      38.827  27.372  30.966  1.00  0.00     0.029 A 
ATOM     38  N   UNL A   1      39.677  29.271  30.248  1.00  0.00    -0.354 N 
ATOM     39  C   UNL A   1      43.153  29.134  27.954  1.00  0.00     0.074 A 
ATOM     40  C   UNL A   1      42.403  29.118  26.718  1.00  0.00     0.031 C 
ATOM     41  C   UNL A   1      38.206  28.365  31.646  1.00  0.00     0.029 A 
ATOM     42  C   UNL A   1      38.683  29.653  31.153  1.00  0.00     0.049 A 
ATOM     43  H   UNL A   1      40.320  29.909  29.863  1.00  0.00     0.167 HD
ATOM     44  C   UNL A   1      44.125  29.961  28.410  1.00  0.00     0.037 A 
ATOM     45  C   UNL A   1      38.545  30.779  31.903  1.00  0.00     0.037 A 
ATOM     46  C   UNL A   1      44.568  29.630  29.745  1.00  0.00     0.049 A 
ATOM     47  C   UNL A   1      39.891  31.248  32.266  1.00  0.00     0.074 A 
ATOM     48  C   UNL A   1      45.144  28.525  30.343  1.00  0.00     0.029 A 
ATOM     49  N   UNL A   1      44.126  30.431  30.770  1.00  0.00    -0.354 N 
ATOM     50  N   UNL A   1      40.643  30.662  33.151  1.00  0.00    -0.248 NA
ATOM     51  C   UNL A   1      40.549  32.249  31.441  1.00  0.00     0.031 C 
ATOM     52  C   UNL A   1      44.737  28.549  31.710  1.00  0.00     0.029 A 
ATOM     53  C   UNL A   1      43.923  29.663  31.894  1.00  0.00     0.049 A 
ATOM     54  H   UNL A   1      43.978  31.402  30.710  1.00  0.00     0.167 HD
ATOM     55  C   UNL A   1      41.926  30.882  32.697  1.00  0.00     0.074 A 
ATOM     56  C   UNL A   1      41.818  31.998  31.769  1.00  0.00     0.031 C 
ATOM     57  C   UNL A   1      42.889  29.934  32.872  1.00  0.00     0.037 A 
BRANCH  44  58
ATOM     58  C   UNL A   1      44.429  31.266  27.749  1.00  0.00     0.058 A 
ATOM     59  C   UNL A   1      45.530  31.374  26.885  1.00  0.00     0.135 A 
ATOM     60  C   UNL A   1      43.789  32.474  28.107  1.00  0.00     0.135 A 
ATOM     61  F   UNL A   1      46.227  30.283  26.531  1.00  0.00    -0.206 F 
ATOM     62  C   UNL A   1      45.969  32.606  26.407  1.00  0.00     0.059 A 
ATOM     63  C   UNL A   1      44.171  33.704  27.595  1.00  0.00     0.059 A 
ATOM     64  F   UNL A   1      42.820  32.507  29.034  1.00  0.00    -0.206 F 
ATOM     65  C   UNL A   1      45.283  33.764  26.771  1.00  0.00     0.060 A 
BRANCH  65  66
ATOM     66  S   UNL A   1      45.893  35.361  26.209  1.00  0.00     0.124 S 
ATOM     67  O   UNL A   1      46.341  35.037  24.860  1.00  0.00    -0.237 OA
ATOM     68  O   UNL A   1      44.700  36.196  26.307  1.00  0.00    -0.237 OA
ATOM     69  O   UNL A   1      46.947  35.672  27.171  1.00  0.00    -0.744 OA
ENDBRANCH  65  66
ENDBRANCH  44  58
BRANCH  45  70
ATOM     70  C   UNL A   1      37.375  31.705  31.927  1.00  0.00     0.058 A 
ATOM     71  C   UNL A   1      36.771  32.099  33.136  1.00  0.00     0.135 A 
ATOM     72  C   UNL A   1      36.935  32.376  30.775  1.00  0.00     0.135 A 
ATOM     73  F   UNL A   1      37.167  31.550  34.295  1.00  0.00    -0.206 F 
ATOM     74  C   UNL A   1      35.794  33.100  33.197  1.00  0.00     0.059 A 
ATOM     75  C   UNL A   1      35.935  33.354  30.801  1.00  0.00     0.059 A 
ATOM     76  F   UNL A   1      37.542  32.159  29.599  1.00  0.00    -0.206 F 
ATOM     77  C   UNL A   1      35.384  33.728  32.021  1.00  0.00     0.060 A 
BRANCH  77  78
ATOM     78  S   UNL A   1      34.214  35.107  32.119  1.00  0.00     0.124 S 
ATOM     79  O   UNL A   1      34.056  35.480  30.718  1.00  0.00    -0.237 OA
ATOM     80  O   UNL A   1      33.056  34.472  32.741  1.00  0.00    -0.237 OA
ATOM     81  O   UNL A   1      34.903  36.086  32.955  1.00  0.00    -0.744 OA
ENDBRANCH  77  78
ENDBRANCH  45  70
BRANCH  57  82
ATOM     82  C   UNL A   1      42.676  28.955  33.999  1.00  0.00     0.058 A 
ATOM     83  C   UNL A   1      43.080  29.180  35.326  1.00  0.00     0.135 A 
ATOM     84  C   UNL A   1      41.990  27.761  33.738  1.00  0.00     0.135 A 
ATOM     85  F   UNL A   1      43.653  30.337  35.674  1.00  0.00    -0.206 F 
ATOM     86  C   UNL A   1      42.862  28.244  36.339  1.00  0.00     0.059 A 
ATOM     87  C   UNL A   1      41.729  26.825  34.739  1.00  0.00     0.059 A 
ATOM     88  F   UNL A   1      41.534  27.506  32.501  1.00  0.00    -0.206 F 
ATOM     89  C   UNL A   1      42.181  27.067  36.036  1.00  0.00     0.060 A 
BRANCH  89  90
ATOM     90  S   UNL A   1      41.807  25.899  37.365  1.00  0.00     0.124 S 
ATOM     91  O   UNL A   1      42.792  26.257  38.380  1.00  0.00    -0.237 OA
ATOM     92  O   UNL A   1      40.417  26.214  37.686  1.00  0.00    -0.237 OA
ATOM     93  O   UNL A   1      42.006  24.595  36.736  1.00  0.00    -0.744 OA
ENDBRANCH  89  90
ENDBRANCH  57  82
ENDBRANCH  31  32
ENDBRANCH  24  26
ENDBRANCH  23  24
ENDBRANCH  22  23
ENDBRANCH  21  22
ENDBRANCH  20  21
ENDBRANCH   1  20
TORSDOF 21
ENDMDL
MODEL 3
REMARK VINA RESULT:      -9.9      4.490     11.602
REMARK SMILES N#Cc1ccn2cc(C(=O)OCCOCCOCCOC(=O)c3ccc(-c4c5nc(c(-c6c(F)cc(S(=O)(=O)[O-])cc6F)c6ccc([nH]6)c(-c6c(F)cc(S(=O)(=O)[O-])cc6F)c6nc(c(-c7c(F)cc(S(=O)(=O)[O-])cc7F)c7ccc4[nH]7)C=C6)C=C5)cc3)nc2c1
REMARK SMILES IDX 16 1 15 2 14 3 13 4 12 5 11 6 9 7 10 8 8 9 3 10 4 11 91 12
REMARK SMILES IDX 5 13 90 14 6 15 89 16 7 17 2 18 1 19 17 20 18 21 19 22 20 23
REMARK SMILES IDX 21 24 22 25 23 26 24 27 88 28 25 29 87 30 26 31 27 32 28 33
REMARK SMILES IDX 81 34 29 35 86 36 80 37 82 38 30 39 85 40 79 41 78 42 31 44
REMARK SMILES IDX 65 45 44 46 64 47 45 48 48 49 63 50 83 51 46 52 47 53 62 55
REMARK SMILES IDX 84 56 49 57 32 58 33 59 42 60 34 61 35 62 41 63 43 64 36 65
REMARK SMILES IDX 37 66 38 67 39 68 40 69 66 70 67 71 76 72 68 73 69 74 75 75
REMARK SMILES IDX 77 76 70 77 71 78 72 79 73 80 74 81 50 82 51 83 60 84 52 85
REMARK SMILES IDX 53 86 59 87 61 88 54 89 55 90 56 91 57 92 58 93
REMARK H PARENT 82 43 48 54
REMARK Flexibility Score: inf
ROOT
ATOM      1  C   UNL A   1      30.606  30.032  24.312  1.00  0.00     0.188 C 
ENDROOT
BRANCH   1   2
ATOM      2  C   UNL A   1      29.988  29.265  23.122  1.00  0.00     0.188 C 
BRANCH   2   3
ATOM      3  O   UNL A   1      29.239  28.089  23.383  1.00  0.00    -0.376 OA
BRANCH   3   4
ATOM      4  C   UNL A   1      29.905  26.843  23.222  1.00  0.00     0.202 C 
BRANCH   4   5
ATOM      5  C   UNL A   1      31.168  26.906  22.370  1.00  0.00     0.261 C 
BRANCH   5   6
ATOM      6  O   UNL A   1      31.542  25.557  22.043  1.00  0.00    -0.458 OA
BRANCH   6   7
ATOM      7  C   UNL A   1      32.880  25.335  22.015  1.00  0.00     0.358 C 
ATOM      8  O   UNL A   1      33.688  26.080  21.483  1.00  0.00    -0.244 OA
BRANCH   7   9
ATOM      9  C   UNL A   1      33.274  24.134  22.751  1.00  0.00     0.167 A 
ATOM     10  C   UNL A   1      36.174  21.799  25.173  1.00  0.00     0.057 A 
ATOM     11  C   UNL A   1      35.109  21.798  26.149  1.00  0.00     0.038 A 
ATOM     12  C   UNL A   1      35.992  22.293  23.924  1.00  0.00     0.067 A 
ATOM     13  C   UNL A   1      33.919  22.301  25.764  1.00  0.00     0.094 A 
ATOM     14  C   UNL A   1      34.774  22.870  23.549  1.00  0.00     0.139 A 
ATOM     15  N   UNL A   1      33.766  22.861  24.489  1.00  0.00    -0.306 N 
ATOM     16  N   UNL A   1      34.448  23.492  22.448  1.00  0.00    -0.221 NA
ATOM     17  C   UNL A   1      32.764  23.644  23.955  1.00  0.00     0.128 A 
BRANCH  10  18
ATOM     18  C   UNL A   1      37.189  20.680  25.008  1.00  0.00     0.099 C 
ATOM     19  N   UNL A   1      38.032  19.752  24.872  1.00  0.00    -0.192 NA
ENDBRANCH  10  18
ENDBRANCH   7   9
ENDBRANCH   6   7
ENDBRANCH   5   6
ENDBRANCH   4   5
ENDBRANCH   3   4
ENDBRANCH   2   3
ENDBRANCH   1   2
BRANCH   1  20
ATOM     20  O   UNL A   1      31.932  29.717  24.711  1.00  0.00    -0.376 OA
BRANCH  20  21
ATOM     21  C   UNL A   1      32.161  29.521  26.100  1.00  0.00     0.202 C 
BRANCH  21  22
ATOM     22  C   UNL A   1      32.586  30.778  26.869  1.00  0.00     0.261 C 
BRANCH  22  23
ATOM     23  O   UNL A   1      33.789  30.516  27.619  1.00  0.00    -0.460 OA
BRANCH  23  24
ATOM     24  C   UNL A   1      34.704  31.517  27.649  1.00  0.00     0.338 C 
ATOM     25  O   UNL A   1      34.466  32.706  27.534  1.00  0.00    -0.246 OA
BRANCH  24  26
ATOM     26  C   UNL A   1      35.993  30.966  28.158  1.00  0.00     0.060 A 
ATOM     27  C   UNL A   1      36.894  31.681  28.962  1.00  0.00     0.016 A 
ATOM     28  C   UNL A   1      36.360  29.705  27.697  1.00  0.00     0.016 A 
ATOM     29  C   UNL A   1      38.206  31.204  29.170  1.00  0.00     0.010 A 
ATOM     30  C   UNL A   1      37.638  29.212  27.971  1.00  0.00     0.010 A 
ATOM     31  C   UNL A   1      38.614  29.985  28.621  1.00  0.00    -0.014 A 
BRANCH  31  32
ATOM     32  C   UNL A   1      39.909  29.343  28.952  1.00  0.00     0.031 A 
ATOM     33  C   UNL A   1      40.092  29.139  30.393  1.00  0.00     0.074 A 
ATOM     34  C   UNL A   1      40.961  28.933  28.197  1.00  0.00     0.049 A 
ATOM     35  N   UNL A   1      40.884  29.871  31.101  1.00  0.00    -0.248 NA
ATOM     36  C   UNL A   1      39.299  28.169  31.143  1.00  0.00     0.031 C 
ATOM     37  C   UNL A   1      41.245  29.235  26.809  1.00  0.00     0.029 A 
ATOM     38  N   UNL A   1      42.028  28.112  28.532  1.00  0.00    -0.354 N 
ATOM     39  C   UNL A   1      40.878  29.309  32.354  1.00  0.00     0.074 A 
ATOM     40  C   UNL A   1      39.774  28.375  32.374  1.00  0.00     0.031 C 
ATOM     41  C   UNL A   1      42.250  28.454  26.347  1.00  0.00     0.029 A 
ATOM     42  C   UNL A   1      42.758  27.632  27.441  1.00  0.00     0.049 A 
ATOM     43  H   UNL A   1      42.252  27.885  29.463  1.00  0.00     0.167 HD
ATOM     44  C   UNL A   1      41.926  29.487  33.194  1.00  0.00     0.037 A 
ATOM     45  C   UNL A   1      43.994  27.070  27.373  1.00  0.00     0.037 A 
ATOM     46  C   UNL A   1      42.832  30.524  32.755  1.00  0.00     0.049 A 
ATOM     47  C   UNL A   1      44.825  27.679  28.422  1.00  0.00     0.074 A 
ATOM     48  C   UNL A   1      42.726  31.879  32.503  1.00  0.00     0.029 A 
ATOM     49  N   UNL A   1      44.019  30.124  32.193  1.00  0.00    -0.354 N 
ATOM     50  N   UNL A   1      45.293  28.891  28.356  1.00  0.00    -0.248 NA
ATOM     51  C   UNL A   1      44.939  27.028  29.717  1.00  0.00     0.031 C 
ATOM     52  C   UNL A   1      43.705  32.182  31.512  1.00  0.00     0.029 A 
ATOM     53  C   UNL A   1      44.368  31.000  31.191  1.00  0.00     0.049 A 
ATOM     54  H   UNL A   1      44.539  29.333  32.463  1.00  0.00     0.167 HD
ATOM     55  C   UNL A   1      45.334  29.305  29.671  1.00  0.00     0.074 A 
ATOM     56  C   UNL A   1      45.287  28.082  30.458  1.00  0.00     0.031 C 
ATOM     57  C   UNL A   1      45.078  30.604  29.991  1.00  0.00     0.037 A 
BRANCH  44  58
ATOM     58  C   UNL A   1      42.280  28.483  34.242  1.00  0.00     0.058 A 
ATOM     59  C   UNL A   1      42.183  28.823  35.600  1.00  0.00     0.135 A 
ATOM     60  C   UNL A   1      42.917  27.257  33.944  1.00  0.00     0.135 A 
ATOM     61  F   UNL A   1      41.638  29.992  35.972  1.00  0.00    -0.206 F 
ATOM     62  C   UNL A   1      42.689  27.998  36.601  1.00  0.00     0.059 A 
ATOM     63  C   UNL A   1      43.373  26.392  34.926  1.00  0.00     0.059 A 
ATOM     64  F   UNL A   1      43.192  26.897  32.681  1.00  0.00    -0.206 F 
ATOM     65  C   UNL A   1      43.284  26.786  36.252  1.00  0.00     0.060 A 
BRANCH  65  66
ATOM     66  S   UNL A   1      43.999  25.752  37.540  1.00  0.00     0.124 S 
ATOM     67  O   UNL A   1      43.402  24.458  37.232  1.00  0.00    -0.237 OA
ATOM     68  O   UNL A   1      45.428  25.880  37.277  1.00  0.00    -0.237 OA
ATOM     69  O   UNL A   1      43.535  26.388  38.771  1.00  0.00    -0.744 OA
ENDBRANCH  65  66
ENDBRANCH  44  58
BRANCH  45  70
ATOM     70  C   UNL A   1      44.348  25.746  26.782  1.00  0.00     0.058 A 
ATOM     71  C   UNL A   1      43.743  24.555  27.225  1.00  0.00     0.135 A 
ATOM     72  C   UNL A   1      45.153  25.635  25.637  1.00  0.00     0.135 A 
ATOM     73  F   UNL A   1      42.914  24.575  28.280  1.00  0.00    -0.206 F 
ATOM     74  C   UNL A   1      43.922  23.331  26.570  1.00  0.00     0.059 A 
ATOM     75  C   UNL A   1      45.380  24.419  24.982  1.00  0.00     0.059 A 
ATOM     76  F   UNL A   1      45.665  26.736  25.068  1.00  0.00    -0.206 F 
ATOM     77  C   UNL A   1      44.741  23.273  25.443  1.00  0.00     0.060 A 
BRANCH  77  78
ATOM     78  S   UNL A   1      44.871  21.716  24.526  1.00  0.00     0.124 S 
ATOM     79  O   UNL A   1      46.241  21.301  24.810  1.00  0.00    -0.237 OA
ATOM     80  O   UNL A   1      43.823  20.914  25.149  1.00  0.00    -0.237 OA
ATOM     81  O   UNL A   1      44.610  22.107  23.144  1.00  0.00    -0.744 OA
ENDBRANCH  77  78
ENDBRANCH  45  70
BRANCH  57  82
ATOM     82  C   UNL A   1      45.298  31.624  28.903  1.00  0.00     0.058 A 
ATOM     83  C   UNL A   1      46.521  32.273  28.665  1.00  0.00     0.135 A 
ATOM     84  C   UNL A   1      44.241  31.922  28.031  1.00  0.00     0.135 A 
ATOM     85  F   UNL A   1      47.602  31.970  29.392  1.00  0.00    -0.206 F 
ATOM     86  C   UNL A   1      46.679  33.213  27.645  1.00  0.00     0.059 A 
ATOM     87  C   UNL A   1      44.383  32.831  26.982  1.00  0.00     0.059 A 
ATOM     88  F   UNL A   1      43.059  31.301  28.172  1.00  0.00    -0.206 F 
ATOM     89  C   UNL A   1      45.603  33.484  26.803  1.00  0.00     0.060 A 
BRANCH  89  90
ATOM     90  S   UNL A   1      45.833  34.623  25.419  1.00  0.00     0.124 S 
ATOM     91  O   UNL A   1      44.907  34.095  24.423  1.00  0.00    -0.237 OA
ATOM     92  O   UNL A   1      45.474  35.913  26.003  1.00  0.00    -0.237 OA
ATOM     93  O   UNL A   1      47.250  34.477  25.091  1.00  0.00    -0.744 OA
ENDBRANCH  89  90
ENDBRANCH  57  82
ENDBRANCH  31  32
ENDBRANCH  24  26
ENDBRANCH  23  24
ENDBRANCH  22  23
ENDBRANCH  21  22
ENDBRANCH  20  21
ENDBRANCH   1  20
TORSDOF 21
ENDMDL
