MODEL 1
REMARK VINA RESULT:      -9.8      0.000      0.000
REMARK SMILES O=C(OCCOCCOCCOC(=O)c1ccccc1C(=O)N1CCS[C@H]1c1ccccc1)c1ccc(-c2c3nc(c(-c4c(F)cc(S(=O)(=O)[O-])cc4F)c4ccc([nH]4)c(-c4c(F)cc(S(=O)(=O)[O-])cc4F)c4nc(c(-c5c(F)cc(S(=O)(=O)[O-])cc5F)c5ccc2[nH]5)C=C4)C=C3)cc1
REMARK SMILES IDX 7 1 6 2 5 3 4 4 3 5 2 6 1 7 34 8 35 9 99 10 36 11 98 12
REMARK SMILES IDX 37 13 38 14 39 15 92 16 40 17 97 18 91 19 93 20 41 21 96 22
REMARK SMILES IDX 90 23 89 24 42 26 76 27 55 28 75 29 56 30 59 31 74 32 94 33
REMARK SMILES IDX 57 34 58 35 73 37 95 38 60 39 43 40 44 41 53 42 45 43 46 44
REMARK SMILES IDX 52 45 54 46 47 47 48 48 49 49 50 50 51 51 77 52 78 53 87 54
REMARK SMILES IDX 79 55 80 56 86 57 88 58 81 59 82 60 83 61 84 62 85 63 61 64
REMARK SMILES IDX 62 65 71 66 63 67 64 68 70 69 72 70 65 71 66 72 67 73 68 74
REMARK SMILES IDX 69 75 8 76 9 77 10 78 11 79 12 80 13 81 14 82 15 83 16 84
REMARK SMILES IDX 20 85 17 86 19 87 18 88 21 89 22 90 23 91 24 92 27 93 25 94
REMARK SMILES IDX 26 95 28 96 29 97 33 98 30 99 32 100 31 101
REMARK H PARENT 93 25 59 36
REMARK Flexibility Score: inf
ROOT
ATOM      1  C   UNL A   1      35.906  32.353  27.951  1.00  0.00     0.188 C 
ENDROOT
BRANCH   1   2
ATOM      2  O   UNL A   1      35.030  33.385  27.515  1.00  0.00    -0.376 OA
BRANCH   2   3
ATOM      3  C   UNL A   1      34.964  34.509  28.398  1.00  0.00     0.202 C 
BRANCH   3   4
ATOM      4  C   UNL A   1      33.534  34.979  28.657  1.00  0.00     0.261 C 
BRANCH   4   5
ATOM      5  O   UNL A   1      33.086  34.490  29.926  1.00  0.00    -0.460 OA
BRANCH   5   6
ATOM      6  C   UNL A   1      33.002  35.384  30.942  1.00  0.00     0.338 C 
ATOM      7  O   UNL A   1      32.310  36.385  31.018  1.00  0.00    -0.246 OA
BRANCH   6   8
ATOM      8  C   UNL A   1      33.943  34.869  31.944  1.00  0.00     0.060 A 
ATOM      9  C   UNL A   1      34.719  35.795  32.652  1.00  0.00     0.016 A 
ATOM     10  C   UNL A   1      34.210  33.507  32.011  1.00  0.00     0.016 A 
ATOM     11  C   UNL A   1      35.865  35.386  33.296  1.00  0.00     0.010 A 
ATOM     12  C   UNL A   1      35.326  33.085  32.731  1.00  0.00     0.010 A 
ATOM     13  C   UNL A   1      36.182  34.029  33.331  1.00  0.00    -0.014 A 
BRANCH  13  14
ATOM     14  C   UNL A   1      37.472  33.624  33.917  1.00  0.00     0.031 A 
ATOM     15  C   UNL A   1      37.588  33.511  35.403  1.00  0.00     0.074 A 
ATOM     16  C   UNL A   1      38.494  33.285  33.113  1.00  0.00     0.049 A 
ATOM     17  N   UNL A   1      38.657  33.342  36.129  1.00  0.00    -0.248 NA
ATOM     18  C   UNL A   1      36.334  33.586  36.174  1.00  0.00     0.031 C 
ATOM     19  C   UNL A   1      38.416  33.207  31.656  1.00  0.00     0.029 A 
ATOM     20  N   UNL A   1      39.787  32.934  33.391  1.00  0.00    -0.354 N 
ATOM     21  C   UNL A   1      38.214  33.327  37.444  1.00  0.00     0.074 A 
ATOM     22  C   UNL A   1      36.780  33.509  37.420  1.00  0.00     0.031 C 
ATOM     23  C   UNL A   1      39.608  32.845  31.167  1.00  0.00     0.029 A 
ATOM     24  C   UNL A   1      40.554  32.770  32.262  1.00  0.00     0.049 A 
ATOM     25  H   UNL A   1      40.133  32.813  34.305  1.00  0.00     0.167 HD
ATOM     26  C   UNL A   1      38.958  33.177  38.563  1.00  0.00     0.037 A 
ATOM     27  C   UNL A   1      41.884  32.647  32.118  1.00  0.00     0.037 A 
ATOM     28  C   UNL A   1      40.382  32.975  38.537  1.00  0.00     0.049 A 
ATOM     29  C   UNL A   1      42.707  32.615  33.368  1.00  0.00     0.074 A 
ATOM     30  C   UNL A   1      41.254  32.830  39.598  1.00  0.00     0.029 A 
ATOM     31  N   UNL A   1      41.141  32.888  37.375  1.00  0.00    -0.354 N 
ATOM     32  N   UNL A   1      42.297  32.671  34.613  1.00  0.00    -0.248 NA
ATOM     33  C   UNL A   1      44.160  32.510  33.208  1.00  0.00     0.031 C 
ATOM     34  C   UNL A   1      42.547  32.697  39.079  1.00  0.00     0.029 A 
ATOM     35  C   UNL A   1      42.476  32.718  37.693  1.00  0.00     0.049 A 
ATOM     36  H   UNL A   1      40.780  32.940  36.460  1.00  0.00     0.167 HD
ATOM     37  C   UNL A   1      43.439  32.588  35.392  1.00  0.00     0.074 A 
ATOM     38  C   UNL A   1      44.558  32.472  34.473  1.00  0.00     0.031 C 
ATOM     39  C   UNL A   1      43.555  32.601  36.741  1.00  0.00     0.037 A 
BRANCH  26  40
ATOM     40  C   UNL A   1      38.248  33.291  39.878  1.00  0.00     0.058 A 
ATOM     41  C   UNL A   1      37.511  32.230  40.425  1.00  0.00     0.135 A 
ATOM     42  C   UNL A   1      38.281  34.502  40.589  1.00  0.00     0.135 A 
ATOM     43  F   UNL A   1      37.419  31.062  39.770  1.00  0.00    -0.206 F 
ATOM     44  C   UNL A   1      36.809  32.372  41.618  1.00  0.00     0.059 A 
ATOM     45  C   UNL A   1      37.604  34.661  41.795  1.00  0.00     0.059 A 
ATOM     46  F   UNL A   1      38.958  35.553  40.101  1.00  0.00    -0.206 F 
ATOM     47  C   UNL A   1      36.858  33.594  42.293  1.00  0.00     0.060 A 
BRANCH  47  48
ATOM     48  S   UNL A   1      35.928  33.773  43.831  1.00  0.00     0.124 S 
ATOM     49  O   UNL A   1      34.629  34.217  43.335  1.00  0.00    -0.237 OA
ATOM     50  O   UNL A   1      35.968  32.422  44.379  1.00  0.00    -0.237 OA
ATOM     51  O   UNL A   1      36.691  34.771  44.574  1.00  0.00    -0.744 OA
ENDBRANCH  47  48
ENDBRANCH  26  40
BRANCH  27  52
ATOM     52  C   UNL A   1      42.491  32.643  30.760  1.00  0.00     0.058 A 
ATOM     53  C   UNL A   1      42.825  33.833  30.100  1.00  0.00     0.135 A 
ATOM     54  C   UNL A   1      42.778  31.433  30.103  1.00  0.00     0.135 A 
ATOM     55  F   UNL A   1      42.573  35.015  30.681  1.00  0.00    -0.206 F 
ATOM     56  C   UNL A   1      43.401  33.826  28.830  1.00  0.00     0.059 A 
ATOM     57  C   UNL A   1      43.373  31.399  28.846  1.00  0.00     0.059 A 
ATOM     58  F   UNL A   1      42.502  30.260  30.696  1.00  0.00    -0.206 F 
ATOM     59  C   UNL A   1      43.668  32.604  28.210  1.00  0.00     0.060 A 
BRANCH  59  60
ATOM     60  S   UNL A   1      44.430  32.599  26.572  1.00  0.00     0.124 S 
ATOM     61  O   UNL A   1      43.817  33.772  25.960  1.00  0.00    -0.237 OA
ATOM     62  O   UNL A   1      45.850  32.710  26.888  1.00  0.00    -0.237 OA
ATOM     63  O   UNL A   1      44.021  31.311  26.017  1.00  0.00    -0.744 OA
ENDBRANCH  59  60
ENDBRANCH  27  52
BRANCH  39  64
ATOM     64  C   UNL A   1      44.938  32.458  37.294  1.00  0.00     0.058 A 
ATOM     65  C   UNL A   1      45.504  31.195  37.521  1.00  0.00     0.135 A 
ATOM     66  C   UNL A   1      45.721  33.595  37.537  1.00  0.00     0.135 A 
ATOM     67  F   UNL A   1      44.782  30.083  37.316  1.00  0.00    -0.206 F 
ATOM     68  C   UNL A   1      46.809  31.065  37.978  1.00  0.00     0.059 A 
ATOM     69  C   UNL A   1      47.036  33.488  37.972  1.00  0.00     0.059 A 
ATOM     70  F   UNL A   1      45.217  34.822  37.329  1.00  0.00    -0.206 F 
ATOM     71  C   UNL A   1      47.568  32.217  38.194  1.00  0.00     0.060 A 
BRANCH  71  72
ATOM     72  S   UNL A   1      49.282  32.035  38.724  1.00  0.00     0.124 S 
ATOM     73  O   UNL A   1      49.131  31.922  40.171  1.00  0.00    -0.237 OA
ATOM     74  O   UNL A   1      49.695  30.818  38.031  1.00  0.00    -0.237 OA
ATOM     75  O   UNL A   1      49.914  33.263  38.250  1.00  0.00    -0.744 OA
ENDBRANCH  71  72
ENDBRANCH  39  64
ENDBRANCH  13  14
ENDBRANCH   6   8
ENDBRANCH   5   6
ENDBRANCH   4   5
ENDBRANCH   3   4
ENDBRANCH   2   3
ENDBRANCH   1   2
BRANCH   1  76
ATOM     76  C   UNL A   1      35.133  31.153  28.487  1.00  0.00     0.188 C 
BRANCH  76  77
ATOM     77  O   UNL A   1      33.777  31.050  28.071  1.00  0.00    -0.376 OA
BRANCH  77  78
ATOM     78  C   UNL A   1      33.495  30.343  26.863  1.00  0.00     0.202 C 
BRANCH  78  79
ATOM     79  C   UNL A   1      34.117  28.959  26.646  1.00  0.00     0.261 C 
BRANCH  79  80
ATOM     80  O   UNL A   1      33.415  27.766  27.055  1.00  0.00    -0.460 OA
BRANCH  80  81
ATOM     81  C   UNL A   1      32.069  27.882  26.989  1.00  0.00     0.339 C 
ATOM     82  O   UNL A   1      31.349  28.276  27.895  1.00  0.00    -0.246 OA
BRANCH  81  83
ATOM     83  C   UNL A   1      31.434  27.533  25.712  1.00  0.00     0.072 A 
ATOM     84  C   UNL A   1      31.104  28.644  24.905  1.00  0.00     0.016 A 
ATOM     85  C   UNL A   1      30.896  26.275  25.406  1.00  0.00     0.054 A 
ATOM     86  C   UNL A   1      30.236  28.519  23.819  1.00  0.00     0.001 A 
ATOM     87  C   UNL A   1      29.976  26.183  24.337  1.00  0.00     0.015 A 
ATOM     88  C   UNL A   1      29.645  27.291  23.553  1.00  0.00     0.001 A 
BRANCH  85  89
ATOM     89  C   UNL A   1      31.308  24.963  25.973  1.00  0.00     0.255 C 
ATOM     90  O   UNL A   1      31.252  24.841  27.198  1.00  0.00    -0.269 OA
BRANCH  89  91
ATOM     91  N   UNL A   1      31.676  23.886  25.170  1.00  0.00    -0.322 N 
ATOM     92  C   UNL A   1      31.429  22.589  25.795  1.00  0.00     0.132 C 
ATOM     93  C   UNL A   1      33.000  23.896  24.551  1.00  0.00     0.174 C 
ATOM     94  C   UNL A   1      31.944  21.467  24.914  1.00  0.00     0.093 C 
ATOM     95  S   UNL A   1      33.231  22.209  23.880  1.00  0.00    -0.130 SA
BRANCH  93  96
ATOM     96  C   UNL A   1      33.262  25.026  23.578  1.00  0.00    -0.015 A 
ATOM     97  C   UNL A   1      32.762  25.067  22.269  1.00  0.00     0.007 A 
ATOM     98  C   UNL A   1      33.977  26.148  24.039  1.00  0.00     0.007 A 
ATOM     99  C   UNL A   1      32.882  26.223  21.489  1.00  0.00     0.000 A 
ATOM    100  C   UNL A   1      34.105  27.297  23.258  1.00  0.00     0.000 A 
ATOM    101  C   UNL A   1      33.536  27.343  21.991  1.00  0.00     0.000 A 
ENDBRANCH  93  96
ENDBRANCH  89  91
ENDBRANCH  85  89
ENDBRANCH  81  83
ENDBRANCH  80  81
ENDBRANCH  79  80
ENDBRANCH  78  79
ENDBRANCH  77  78
ENDBRANCH  76  77
ENDBRANCH   1  76
TORSDOF 23
ENDMDL
MODEL 2
REMARK VINA RESULT:      -9.8      3.961      9.025
REMARK SMILES O=C(OCCOCCOCCOC(=O)c1ccccc1C(=O)N1CCS[C@H]1c1ccccc1)c1ccc(-c2c3nc(c(-c4c(F)cc(S(=O)(=O)[O-])cc4F)c4ccc([nH]4)c(-c4c(F)cc(S(=O)(=O)[O-])cc4F)c4nc(c(-c5c(F)cc(S(=O)(=O)[O-])cc5F)c5ccc2[nH]5)C=C4)C=C3)cc1
REMARK SMILES IDX 7 1 6 2 5 3 4 4 3 5 2 6 1 7 34 8 35 9 99 10 36 11 98 12
REMARK SMILES IDX 37 13 38 14 39 15 92 16 40 17 97 18 91 19 93 20 41 21 96 22
REMARK SMILES IDX 90 23 89 24 42 26 76 27 55 28 75 29 56 30 59 31 74 32 94 33
REMARK SMILES IDX 57 34 58 35 73 37 95 38 60 39 43 40 44 41 53 42 45 43 46 44
REMARK SMILES IDX 52 45 54 46 47 47 48 48 49 49 50 50 51 51 77 52 78 53 87 54
REMARK SMILES IDX 79 55 80 56 86 57 88 58 81 59 82 60 83 61 84 62 85 63 61 64
REMARK SMILES IDX 62 65 71 66 63 67 64 68 70 69 72 70 65 71 66 72 67 73 68 74
REMARK SMILES IDX 69 75 8 76 9 77 10 78 11 79 12 80 13 81 14 82 15 83 16 84
REMARK SMILES IDX 20 85 17 86 19 87 18 88 21 89 22 90 23 91 24 92 27 93 25 94
REMARK SMILES IDX 26 95 28 96 29 97 33 98 30 99 32 100 31 101
REMARK H PARENT 93 25 59 36
REMARK Flexibility Score: inf
ROOT
ATOM      1  C   UNL A   1      40.896  21.215  26.126  1.00  0.00     0.188 C 
ENDROOT
BRANCH   1   2
ATOM      2  O   UNL A   1      42.103  21.907  25.829  1.00  0.00    -0.376 OA
BRANCH   2   3
ATOM      3  C   UNL A   1      42.112  23.274  26.250  1.00  0.00     0.202 C 
BRANCH   3   4
ATOM      4  C   UNL A   1      43.008  24.157  25.384  1.00  0.00     0.261 C 
BRANCH   4   5
ATOM      5  O   UNL A   1      43.155  25.445  25.993  1.00  0.00    -0.460 OA
BRANCH   5   6
ATOM      6  C   UNL A   1      42.036  26.196  26.135  1.00  0.00     0.338 C 
ATOM      7  O   UNL A   1      41.153  26.405  25.322  1.00  0.00    -0.246 OA
BRANCH   6   8
ATOM      8  C   UNL A   1      42.128  26.710  27.507  1.00  0.00     0.060 A 
ATOM      9  C   UNL A   1      41.292  26.144  28.478  1.00  0.00     0.016 A 
ATOM     10  C   UNL A   1      42.852  27.867  27.769  1.00  0.00     0.016 A 
ATOM     11  C   UNL A   1      41.042  26.818  29.652  1.00  0.00     0.010 A 
ATOM     12  C   UNL A   1      42.660  28.507  28.992  1.00  0.00     0.010 A 
ATOM     13  C   UNL A   1      41.718  28.009  29.913  1.00  0.00    -0.014 A 
BRANCH  13  14
ATOM     14  C   UNL A   1      41.348  28.777  31.115  1.00  0.00     0.031 A 
ATOM     15  C   UNL A   1      40.179  29.706  31.049  1.00  0.00     0.074 A 
ATOM     16  C   UNL A   1      42.007  28.572  32.268  1.00  0.00     0.049 A 
ATOM     17  N   UNL A   1      39.789  30.594  31.920  1.00  0.00    -0.248 NA
ATOM     18  C   UNL A   1      39.329  29.618  29.848  1.00  0.00     0.031 C 
ATOM     19  C   UNL A   1      43.048  27.565  32.463  1.00  0.00     0.029 A 
ATOM     20  N   UNL A   1      41.904  29.178  33.490  1.00  0.00    -0.354 N 
ATOM     21  C   UNL A   1      38.672  31.197  31.362  1.00  0.00     0.074 A 
ATOM     22  C   UNL A   1      38.446  30.581  30.074  1.00  0.00     0.031 C 
ATOM     23  C   UNL A   1      43.497  27.630  33.723  1.00  0.00     0.029 A 
ATOM     24  C   UNL A   1      42.853  28.746  34.387  1.00  0.00     0.049 A 
ATOM     25  H   UNL A   1      41.222  29.855  33.705  1.00  0.00     0.167 HD
ATOM     26  C   UNL A   1      37.915  32.182  31.893  1.00  0.00     0.037 A 
ATOM     27  C   UNL A   1      43.217  29.239  35.582  1.00  0.00     0.037 A 
ATOM     28  C   UNL A   1      38.165  32.750  33.191  1.00  0.00     0.049 A 
ATOM     29  C   UNL A   1      42.451  30.417  36.097  1.00  0.00     0.074 A 
ATOM     30  C   UNL A   1      37.487  33.767  33.835  1.00  0.00     0.029 A 
ATOM     31  N   UNL A   1      39.183  32.340  34.044  1.00  0.00    -0.354 N 
ATOM     32  N   UNL A   1      41.437  31.036  35.538  1.00  0.00    -0.248 NA
ATOM     33  C   UNL A   1      42.868  30.973  37.387  1.00  0.00     0.031 C 
ATOM     34  C   UNL A   1      38.120  33.998  35.062  1.00  0.00     0.029 A 
ATOM     35  C   UNL A   1      39.169  33.099  35.200  1.00  0.00     0.049 A 
ATOM     36  H   UNL A   1      39.821  31.613  33.854  1.00  0.00     0.167 HD
ATOM     37  C   UNL A   1      41.077  32.043  36.417  1.00  0.00     0.074 A 
ATOM     38  C   UNL A   1      41.982  31.947  37.549  1.00  0.00     0.031 C 
ATOM     39  C   UNL A   1      40.088  32.962  36.303  1.00  0.00     0.037 A 
BRANCH  26  40
ATOM     40  C   UNL A   1      36.809  32.731  31.043  1.00  0.00     0.058 A 
ATOM     41  C   UNL A   1      35.466  32.374  31.240  1.00  0.00     0.135 A 
ATOM     42  C   UNL A   1      37.106  33.609  29.988  1.00  0.00     0.135 A 
ATOM     43  F   UNL A   1      35.132  31.512  32.213  1.00  0.00    -0.206 F 
ATOM     44  C   UNL A   1      34.459  32.847  30.404  1.00  0.00     0.059 A 
ATOM     45  C   UNL A   1      36.113  34.111  29.153  1.00  0.00     0.059 A 
ATOM     46  F   UNL A   1      38.376  33.969  29.747  1.00  0.00    -0.206 F 
ATOM     47  C   UNL A   1      34.794  33.711  29.360  1.00  0.00     0.060 A 
BRANCH  47  48
ATOM     48  S   UNL A   1      33.481  34.303  28.271  1.00  0.00     0.124 S 
ATOM     49  O   UNL A   1      33.057  33.063  27.626  1.00  0.00    -0.237 OA
ATOM     50  O   UNL A   1      32.530  34.883  29.213  1.00  0.00    -0.237 OA
ATOM     51  O   UNL A   1      34.164  35.259  27.404  1.00  0.00    -0.744 OA
ENDBRANCH  47  48
ENDBRANCH  26  40
BRANCH  27  52
ATOM     52  C   UNL A   1      44.397  28.679  36.294  1.00  0.00     0.058 A 
ATOM     53  C   UNL A   1      44.285  27.570  37.144  1.00  0.00     0.135 A 
ATOM     54  C   UNL A   1      45.677  29.232  36.112  1.00  0.00     0.135 A 
ATOM     55  F   UNL A   1      43.087  27.005  37.353  1.00  0.00    -0.206 F 
ATOM     56  C   UNL A   1      45.394  27.042  37.803  1.00  0.00     0.059 A 
ATOM     57  C   UNL A   1      46.802  28.709  36.741  1.00  0.00     0.059 A 
ATOM     58  F   UNL A   1      45.850  30.280  35.291  1.00  0.00    -0.206 F 
ATOM     59  C   UNL A   1      46.648  27.621  37.598  1.00  0.00     0.060 A 
BRANCH  59  60
ATOM     60  S   UNL A   1      48.085  26.923  38.441  1.00  0.00     0.124 S 
ATOM     61  O   UNL A   1      48.979  26.652  37.322  1.00  0.00    -0.237 OA
ATOM     62  O   UNL A   1      48.484  28.010  39.330  1.00  0.00    -0.237 OA
ATOM     63  O   UNL A   1      47.540  25.747  39.114  1.00  0.00    -0.744 OA
ENDBRANCH  59  60
ENDBRANCH  27  52
BRANCH  39  64
ATOM     64  C   UNL A   1      39.923  33.911  37.449  1.00  0.00     0.058 A 
ATOM     65  C   UNL A   1      39.064  33.618  38.518  1.00  0.00     0.135 A 
ATOM     66  C   UNL A   1      40.680  35.090  37.502  1.00  0.00     0.135 A 
ATOM     67  F   UNL A   1      38.311  32.508  38.497  1.00  0.00    -0.206 F 
ATOM     68  C   UNL A   1      38.959  34.472  39.608  1.00  0.00     0.059 A 
ATOM     69  C   UNL A   1      40.607  35.946  38.593  1.00  0.00     0.059 A 
ATOM     70  F   UNL A   1      41.517  35.404  36.500  1.00  0.00    -0.206 F 
ATOM     71  C   UNL A   1      39.739  35.630  39.638  1.00  0.00     0.060 A 
BRANCH  71  72
ATOM     72  S   UNL A   1      39.644  36.698  41.088  1.00  0.00     0.124 S 
ATOM     73  O   UNL A   1      39.372  37.996  40.479  1.00  0.00    -0.237 OA
ATOM     74  O   UNL A   1      38.541  36.106  41.840  1.00  0.00    -0.237 OA
ATOM     75  O   UNL A   1      40.961  36.554  41.702  1.00  0.00    -0.744 OA
ENDBRANCH  71  72
ENDBRANCH  39  64
ENDBRANCH  13  14
ENDBRANCH   6   8
ENDBRANCH   5   6
ENDBRANCH   4   5
ENDBRANCH   3   4
ENDBRANCH   2   3
ENDBRANCH   1   2
BRANCH   1  76
ATOM     76  C   UNL A   1      39.868  22.135  26.775  1.00  0.00     0.188 C 
BRANCH  76  77
ATOM     77  O   UNL A   1      38.661  22.329  26.048  1.00  0.00    -0.376 OA
BRANCH  77  78
ATOM     78  C   UNL A   1      38.051  23.619  26.088  1.00  0.00     0.202 C 
BRANCH  78  79
ATOM     79  C   UNL A   1      36.522  23.720  26.113  1.00  0.00     0.261 C 
BRANCH  79  80
ATOM     80  O   UNL A   1      35.808  24.337  25.020  1.00  0.00    -0.460 OA
BRANCH  80  81
ATOM     81  C   UNL A   1      35.194  23.449  24.207  1.00  0.00     0.339 C 
ATOM     82  O   UNL A   1      35.172  23.508  22.986  1.00  0.00    -0.246 OA
BRANCH  81  83
ATOM     83  C   UNL A   1      34.527  22.310  24.850  1.00  0.00     0.072 A 
ATOM     84  C   UNL A   1      35.159  21.067  24.630  1.00  0.00     0.016 A 
ATOM     85  C   UNL A   1      33.226  22.338  25.373  1.00  0.00     0.054 A 
ATOM     86  C   UNL A   1      34.507  19.864  24.903  1.00  0.00     0.001 A 
ATOM     87  C   UNL A   1      32.565  21.108  25.590  1.00  0.00     0.015 A 
ATOM     88  C   UNL A   1      33.194  19.883  25.355  1.00  0.00     0.001 A 
BRANCH  85  89
ATOM     89  C   UNL A   1      32.498  23.525  25.897  1.00  0.00     0.255 C 
ATOM     90  O   UNL A   1      32.707  23.835  27.072  1.00  0.00    -0.269 OA
BRANCH  89  91
ATOM     91  N   UNL A   1      31.668  24.305  25.096  1.00  0.00    -0.322 N 
ATOM     92  C   UNL A   1      31.032  23.553  24.017  1.00  0.00     0.132 C 
ATOM     93  C   UNL A   1      32.182  25.573  24.583  1.00  0.00     0.174 C 
ATOM     94  C   UNL A   1      30.226  24.478  23.126  1.00  0.00     0.093 C 
ATOM     95  S   UNL A   1      30.960  26.120  23.335  1.00  0.00    -0.130 SA
BRANCH  93  96
ATOM     96  C   UNL A   1      32.553  26.604  25.629  1.00  0.00    -0.015 A 
ATOM     97  C   UNL A   1      33.824  27.182  25.745  1.00  0.00     0.007 A 
ATOM     98  C   UNL A   1      31.539  27.079  26.482  1.00  0.00     0.007 A 
ATOM     99  C   UNL A   1      34.048  28.262  26.607  1.00  0.00     0.000 A 
ATOM    100  C   UNL A   1      31.763  28.150  27.348  1.00  0.00     0.000 A 
ATOM    101  C   UNL A   1      33.013  28.757  27.393  1.00  0.00     0.000 A 
ENDBRANCH  93  96
ENDBRANCH  89  91
ENDBRANCH  85  89
ENDBRANCH  81  83
ENDBRANCH  80  81
ENDBRANCH  79  80
ENDBRANCH  78  79
ENDBRANCH  77  78
ENDBRANCH  76  77
ENDBRANCH   1  76
TORSDOF 23
ENDMDL
MODEL 3
REMARK VINA RESULT:      -9.8      6.343      9.438
REMARK SMILES O=C(OCCOCCOCCOC(=O)c1ccccc1C(=O)N1CCS[C@H]1c1ccccc1)c1ccc(-c2c3nc(c(-c4c(F)cc(S(=O)(=O)[O-])cc4F)c4ccc([nH]4)c(-c4c(F)cc(S(=O)(=O)[O-])cc4F)c4nc(c(-c5c(F)cc(S(=O)(=O)[O-])cc5F)c5ccc2[nH]5)C=C4)C=C3)cc1
REMARK SMILES IDX 7 1 6 2 5 3 4 4 3 5 2 6 1 7 34 8 35 9 99 10 36 11 98 12
REMARK SMILES IDX 37 13 38 14 39 15 92 16 40 17 97 18 91 19 93 20 41 21 96 22
REMARK SMILES IDX 90 23 89 24 42 26 76 27 55 28 75 29 56 30 59 31 74 32 94 33
REMARK SMILES IDX 57 34 58 35 73 37 95 38 60 39 43 40 44 41 53 42 45 43 46 44
REMARK SMILES IDX 52 45 54 46 47 47 48 48 49 49 50 50 51 51 77 52 78 53 87 54
REMARK SMILES IDX 79 55 80 56 86 57 88 58 81 59 82 60 83 61 84 62 85 63 61 64
REMARK SMILES IDX 62 65 71 66 63 67 64 68 70 69 72 70 65 71 66 72 67 73 68 74
REMARK SMILES IDX 69 75 8 76 9 77 10 78 11 79 12 80 13 81 14 82 15 83 16 84
REMARK SMILES IDX 20 85 17 86 19 87 18 88 21 89 22 90 23 91 24 92 27 93 25 94
REMARK SMILES IDX 26 95 28 96 29 97 33 98 30 99 32 100 31 101
REMARK H PARENT 93 25 59 36
REMARK Flexibility Score: inf
ROOT
ATOM      1  C   UNL A   1      31.293  29.203  24.609  1.00  0.00     0.188 C 
ENDROOT
BRANCH   1   2
ATOM      2  O   UNL A   1      32.445  29.935  25.008  1.00  0.00    -0.376 OA
BRANCH   2   3
ATOM      3  C   UNL A   1      32.565  30.114  26.423  1.00  0.00     0.202 C 
BRANCH   3   4
ATOM      4  C   UNL A   1      33.857  29.528  26.989  1.00  0.00     0.261 C 
BRANCH   4   5
ATOM      5  O   UNL A   1      33.990  29.890  28.368  1.00  0.00    -0.460 OA
BRANCH   5   6
ATOM      6  C   UNL A   1      34.938  30.807  28.681  1.00  0.00     0.338 C 
ATOM      7  O   UNL A   1      34.795  31.988  28.946  1.00  0.00    -0.246 OA
BRANCH   6   8
ATOM      8  C   UNL A   1      36.194  30.048  28.627  1.00  0.00     0.060 A 
ATOM      9  C   UNL A   1      36.693  29.518  29.823  1.00  0.00     0.016 A 
ATOM     10  C   UNL A   1      36.963  30.060  27.470  1.00  0.00     0.016 A 
ATOM     11  C   UNL A   1      38.016  29.152  29.918  1.00  0.00     0.010 A 
ATOM     12  C   UNL A   1      38.282  29.614  27.547  1.00  0.00     0.010 A 
ATOM     13  C   UNL A   1      38.823  29.207  28.782  1.00  0.00    -0.014 A 
BRANCH  13  14
ATOM     14  C   UNL A   1      40.263  28.930  28.930  1.00  0.00     0.031 A 
ATOM     15  C   UNL A   1      41.169  30.032  29.374  1.00  0.00     0.074 A 
ATOM     16  C   UNL A   1      40.725  27.682  28.746  1.00  0.00     0.049 A 
ATOM     17  N   UNL A   1      42.472  30.057  29.404  1.00  0.00    -0.248 NA
ATOM     18  C   UNL A   1      40.526  31.265  29.861  1.00  0.00     0.031 C 
ATOM     19  C   UNL A   1      39.887  26.516  28.474  1.00  0.00     0.029 A 
ATOM     20  N   UNL A   1      41.996  27.175  28.765  1.00  0.00    -0.354 N 
ATOM     21  C   UNL A   1      42.809  31.317  29.876  1.00  0.00     0.074 A 
ATOM     22  C   UNL A   1      41.576  32.033  30.117  1.00  0.00     0.031 C 
ATOM     23  C   UNL A   1      40.664  25.434  28.340  1.00  0.00     0.029 A 
ATOM     24  C   UNL A   1      42.051  25.848  28.412  1.00  0.00     0.049 A 
ATOM     25  H   UNL A   1      42.789  27.706  29.007  1.00  0.00     0.167 HD
ATOM     26  C   UNL A   1      44.047  31.817  30.081  1.00  0.00     0.037 A 
ATOM     27  C   UNL A   1      43.100  25.066  28.104  1.00  0.00     0.037 A 
ATOM     28  C   UNL A   1      45.248  31.059  29.849  1.00  0.00     0.049 A 
ATOM     29  C   UNL A   1      44.462  25.678  28.210  1.00  0.00     0.074 A 
ATOM     30  C   UNL A   1      46.563  31.454  29.997  1.00  0.00     0.029 A 
ATOM     31  N   UNL A   1      45.269  29.737  29.418  1.00  0.00    -0.354 N 
ATOM     32  N   UNL A   1      44.780  26.894  28.589  1.00  0.00    -0.248 NA
ATOM     33  C   UNL A   1      45.603  24.834  27.846  1.00  0.00     0.031 C 
ATOM     34  C   UNL A   1      47.381  30.384  29.616  1.00  0.00     0.029 A 
ATOM     35  C   UNL A   1      46.576  29.308  29.269  1.00  0.00     0.049 A 
ATOM     36  H   UNL A   1      44.471  29.187  29.244  1.00  0.00     0.167 HD
ATOM     37  C   UNL A   1      46.162  26.958  28.532  1.00  0.00     0.074 A 
ATOM     38  C   UNL A   1      46.618  25.654  28.084  1.00  0.00     0.031 C 
ATOM     39  C   UNL A   1      46.981  27.996  28.825  1.00  0.00     0.037 A 
BRANCH  26  40
ATOM     40  C   UNL A   1      44.146  33.250  30.511  1.00  0.00     0.058 A 
ATOM     41  C   UNL A   1      44.082  34.312  29.597  1.00  0.00     0.135 A 
ATOM     42  C   UNL A   1      44.339  33.563  31.867  1.00  0.00     0.135 A 
ATOM     43  F   UNL A   1      43.932  34.066  28.285  1.00  0.00    -0.206 F 
ATOM     44  C   UNL A   1      44.234  35.633  30.006  1.00  0.00     0.059 A 
ATOM     45  C   UNL A   1      44.472  34.878  32.302  1.00  0.00     0.059 A 
ATOM     46  F   UNL A   1      44.423  32.583  32.780  1.00  0.00    -0.206 F 
ATOM     47  C   UNL A   1      44.434  35.905  31.361  1.00  0.00     0.060 A 
BRANCH  47  48
ATOM     48  S   UNL A   1      44.649  37.622  31.877  1.00  0.00     0.124 S 
ATOM     49  O   UNL A   1      44.785  38.298  30.590  1.00  0.00    -0.237 OA
ATOM     50  O   UNL A   1      43.412  37.887  32.604  1.00  0.00    -0.237 OA
ATOM     51  O   UNL A   1      45.857  37.582  32.696  1.00  0.00    -0.744 OA
ENDBRANCH  47  48
ENDBRANCH  26  40
BRANCH  27  52
ATOM     52  C   UNL A   1      42.880  23.688  27.590  1.00  0.00     0.058 A 
ATOM     53  C   UNL A   1      42.709  22.599  28.455  1.00  0.00     0.135 A 
ATOM     54  C   UNL A   1      42.807  23.438  26.208  1.00  0.00     0.135 A 
ATOM     55  F   UNL A   1      42.770  22.782  29.782  1.00  0.00    -0.206 F 
ATOM     56  C   UNL A   1      42.495  21.309  27.971  1.00  0.00     0.059 A 
ATOM     57  C   UNL A   1      42.572  22.164  25.701  1.00  0.00     0.059 A 
ATOM     58  F   UNL A   1      42.939  24.446  25.331  1.00  0.00    -0.206 F 
ATOM     59  C   UNL A   1      42.431  21.101  26.592  1.00  0.00     0.060 A 
BRANCH  59  60
ATOM     60  S   UNL A   1      42.137  19.432  25.969  1.00  0.00     0.124 S 
ATOM     61  O   UNL A   1      40.706  19.470  25.692  1.00  0.00    -0.237 OA
ATOM     62  O   UNL A   1      43.013  19.374  24.803  1.00  0.00    -0.237 OA
ATOM     63  O   UNL A   1      42.542  18.582  27.086  1.00  0.00    -0.744 OA
ENDBRANCH  59  60
ENDBRANCH  27  52
BRANCH  39  64
ATOM     64  C   UNL A   1      48.450  27.745  28.696  1.00  0.00     0.058 A 
ATOM     65  C   UNL A   1      49.158  28.134  27.550  1.00  0.00     0.135 A 
ATOM     66  C   UNL A   1      49.162  27.168  29.758  1.00  0.00     0.135 A 
ATOM     67  F   UNL A   1      48.511  28.676  26.506  1.00  0.00    -0.206 F 
ATOM     68  C   UNL A   1      50.532  27.954  27.459  1.00  0.00     0.059 A 
ATOM     69  C   UNL A   1      50.540  27.000  29.697  1.00  0.00     0.059 A 
ATOM     70  F   UNL A   1      48.522  26.785  30.875  1.00  0.00    -0.206 F 
ATOM     71  C   UNL A   1      51.214  27.392  28.541  1.00  0.00     0.060 A 
BRANCH  71  72
ATOM     72  S   UNL A   1      53.006  27.223  28.438  1.00  0.00     0.124 S 
ATOM     73  O   UNL A   1      53.409  27.546  29.803  1.00  0.00    -0.237 OA
ATOM     74  O   UNL A   1      53.166  25.827  28.042  1.00  0.00    -0.237 OA
ATOM     75  O   UNL A   1      53.381  28.203  27.423  1.00  0.00    -0.744 OA
ENDBRANCH  71  72
ENDBRANCH  39  64
ENDBRANCH  13  14
ENDBRANCH   6   8
ENDBRANCH   5   6
ENDBRANCH   4   5
ENDBRANCH   3   4
ENDBRANCH   2   3
ENDBRANCH   1   2
BRANCH   1  76
ATOM     76  C   UNL A   1      31.661  27.810  24.108  1.00  0.00     0.188 C 
BRANCH  76  77
ATOM     77  O   UNL A   1      31.613  27.624  22.700  1.00  0.00    -0.376 OA
BRANCH  77  78
ATOM     78  C   UNL A   1      32.076  26.382  22.168  1.00  0.00     0.202 C 
BRANCH  78  79
ATOM     79  C   UNL A   1      33.554  26.007  22.330  1.00  0.00     0.261 C 
BRANCH  79  80
ATOM     80  O   UNL A   1      33.983  25.177  23.431  1.00  0.00    -0.460 OA
BRANCH  80  81
ATOM     81  C   UNL A   1      34.265  23.905  23.069  1.00  0.00     0.339 C 
ATOM     82  O   UNL A   1      33.761  23.310  22.128  1.00  0.00    -0.246 OA
BRANCH  81  83
ATOM     83  C   UNL A   1      35.282  23.200  23.860  1.00  0.00     0.072 A 
ATOM     84  C   UNL A   1      36.400  22.767  23.113  1.00  0.00     0.016 A 
ATOM     85  C   UNL A   1      35.081  22.698  25.153  1.00  0.00     0.054 A 
ATOM     86  C   UNL A   1      37.299  21.832  23.631  1.00  0.00     0.001 A 
ATOM     87  C   UNL A   1      35.972  21.712  25.635  1.00  0.00     0.015 A 
ATOM     88  C   UNL A   1      37.067  21.279  24.883  1.00  0.00     0.001 A 
BRANCH  85  89
ATOM     89  C   UNL A   1      34.123  23.206  26.171  1.00  0.00     0.255 C 
ATOM     90  O   UNL A   1      34.598  23.615  27.232  1.00  0.00    -0.269 OA
BRANCH  89  91
ATOM     91  N   UNL A   1      32.753  23.290  25.930  1.00  0.00    -0.322 N 
ATOM     92  C   UNL A   1      32.129  24.458  26.546  1.00  0.00     0.132 C 
ATOM     93  C   UNL A   1      31.929  22.105  26.161  1.00  0.00     0.174 C 
ATOM     94  C   UNL A   1      30.628  24.435  26.331  1.00  0.00     0.093 C 
ATOM     95  S   UNL A   1      30.199  22.696  26.067  1.00  0.00    -0.130 SA
BRANCH  93  96
ATOM     96  C   UNL A   1      32.254  20.900  25.303  1.00  0.00    -0.015 A 
ATOM     97  C   UNL A   1      32.129  20.874  23.908  1.00  0.00     0.007 A 
ATOM     98  C   UNL A   1      32.800  19.765  25.932  1.00  0.00     0.007 A 
ATOM     99  C   UNL A   1      32.623  19.798  23.161  1.00  0.00     0.000 A 
ATOM    100  C   UNL A   1      33.286  18.688  25.189  1.00  0.00     0.000 A 
ATOM    101  C   UNL A   1      33.219  18.716  23.801  1.00  0.00     0.000 A 
ENDBRANCH  93  96
ENDBRANCH  89  91
ENDBRANCH  85  89
ENDBRANCH  81  83
ENDBRANCH  80  81
ENDBRANCH  79  80
ENDBRANCH  78  79
ENDBRANCH  77  78
ENDBRANCH  76  77
ENDBRANCH   1  76
TORSDOF 23
ENDMDL
