MODEL 1
REMARK VINA RESULT:     -10.9      0.000      0.000
REMARK SMILES Cc1nc(NC(=O)[C@H]2[C@@H]3CC[C@@H](C3)[C@@H]2C(=O)OCCOCCOCCOC(=O)c2ccc(-c3c4nc(c(-c5c(F)cc(S(=O)(=O)[O-])cc5F)c5ccc([nH]5)c(-c5c(F)cc(S(=O)(=O)[O-])cc5F)c5nc(c(-c6c(F)cc(S(=O)(=O)[O-])cc6F)c6ccc3[nH]6)C=C5)C=C4)cc2)sc1-c1ccccc1
REMARK SMILES IDX 21 1 20 2 19 3 18 4 17 5 15 6 16 7 14 8 8 9 9 10 10 11 13 12
REMARK SMILES IDX 12 13 11 14 6 15 5 16 7 18 4 19 1 20 2 21 3 22 96 23 95 24
REMARK SMILES IDX 97 25 98 26 102 27 99 28 101 29 100 30 22 31 23 32 24 33
REMARK SMILES IDX 25 34 26 35 27 36 28 37 29 38 30 39 94 40 31 41 93 42 32 43
REMARK SMILES IDX 33 44 34 45 87 46 35 47 92 48 86 49 88 50 36 51 91 52 85 53
REMARK SMILES IDX 84 54 37 56 71 57 50 58 70 59 51 60 54 61 69 62 89 63 52 64
REMARK SMILES IDX 53 65 68 67 90 68 55 69 38 70 39 71 48 72 40 73 41 74 47 75
REMARK SMILES IDX 49 76 42 77 43 78 44 79 45 80 46 81 72 82 73 83 82 84 74 85
REMARK SMILES IDX 75 86 81 87 83 88 76 89 77 90 78 91 79 92 80 93 56 94 57 95
REMARK SMILES IDX 66 96 58 97 59 98 65 99 67 100 60 101 61 102 62 103 63 104
REMARK SMILES IDX 64 105
REMARK H PARENT 5 17 88 55 54 66
REMARK Flexibility Score: inf
ROOT
ATOM      1  C   UNL A   1      39.419  21.840  26.094  1.00  0.00     0.188 C 
ENDROOT
BRANCH   1   2
ATOM      2  O   UNL A   1      38.020  22.071  26.155  1.00  0.00    -0.376 OA
BRANCH   2   3
ATOM      3  C   UNL A   1      37.498  23.122  25.351  1.00  0.00     0.202 C 
BRANCH   3   4
ATOM      4  C   UNL A   1      36.121  23.677  25.741  1.00  0.00     0.261 C 
BRANCH   4   5
ATOM      5  O   UNL A   1      35.024  23.072  25.041  1.00  0.00    -0.463 OA
BRANCH   5   6
ATOM      6  C   UNL A   1      34.575  23.751  23.937  1.00  0.00     0.310 C 
ATOM      7  O   UNL A   1      35.246  24.001  22.948  1.00  0.00    -0.252 OA
BRANCH   6   8
ATOM      8  C   UNL A   1      33.098  24.085  24.114  1.00  0.00     0.115 C 
ATOM      9  C   UNL A   1      32.422  23.439  25.336  1.00  0.00     0.096 C 
ATOM     10  C   UNL A   1      31.411  22.467  24.675  1.00  0.00     0.003 C 
ATOM     11  C   UNL A   1      32.169  21.380  23.872  1.00  0.00     0.005 C 
ATOM     12  C   UNL A   1      30.852  23.335  23.553  1.00  0.00     0.009 C 
ATOM     13  C   UNL A   1      32.233  23.578  22.929  1.00  0.00     0.004 C 
ATOM     14  C   UNL A   1      32.602  22.123  22.595  1.00  0.00     0.005 C 
BRANCH   9  15
ATOM     15  C   UNL A   1      31.719  24.270  26.444  1.00  0.00     0.230 C 
ATOM     16  N   UNL A   1      31.348  25.576  26.475  1.00  0.00    -0.302 N 
ATOM     17  H   UNL A   1      30.841  25.830  27.279  1.00  0.00     0.172 HD
ATOM     18  O   UNL A   1      31.400  23.650  27.476  1.00  0.00    -0.274 OA
BRANCH  16  19
ATOM     19  C   UNL A   1      31.547  26.599  25.598  1.00  0.00     0.190 A 
ATOM     20  C   UNL A   1      33.157  29.683  25.019  1.00  0.00     0.068 C 
ATOM     21  C   UNL A   1      32.211  28.548  24.841  1.00  0.00     0.058 A 
ATOM     22  N   UNL A   1      32.569  27.389  25.494  1.00  0.00    -0.225 NA
ATOM     23  C   UNL A   1      30.972  28.512  24.202  1.00  0.00     0.059 A 
ATOM     24  S   UNL A   1      30.260  26.960  24.532  1.00  0.00    -0.096 S 
BRANCH  23  25
ATOM     25  C   UNL A   1      30.258  29.598  23.494  1.00  0.00    -0.006 A 
ATOM     26  C   UNL A   1      29.951  29.524  22.131  1.00  0.00     0.009 A 
ATOM     27  C   UNL A   1      29.699  30.663  24.216  1.00  0.00     0.009 A 
ATOM     28  C   UNL A   1      28.977  30.354  21.558  1.00  0.00     0.001 A 
ATOM     29  C   UNL A   1      28.734  31.503  23.650  1.00  0.00     0.001 A 
ATOM     30  C   UNL A   1      28.343  31.321  22.329  1.00  0.00     0.000 A 
ENDBRANCH  23  25
ENDBRANCH  16  19
ENDBRANCH   9  15
ENDBRANCH   6   8
ENDBRANCH   5   6
ENDBRANCH   4   5
ENDBRANCH   3   4
ENDBRANCH   2   3
ENDBRANCH   1   2
BRANCH   1  31
ATOM     31  C   UNL A   1      40.296  22.608  27.071  1.00  0.00     0.188 C 
BRANCH  31  32
ATOM     32  O   UNL A   1      41.696  22.352  27.019  1.00  0.00    -0.376 OA
BRANCH  32  33
ATOM     33  C   UNL A   1      42.347  22.993  25.911  1.00  0.00     0.202 C 
BRANCH  33  34
ATOM     34  C   UNL A   1      43.386  24.075  26.291  1.00  0.00     0.261 C 
BRANCH  34  35
ATOM     35  O   UNL A   1      43.185  25.359  25.653  1.00  0.00    -0.460 OA
BRANCH  35  36
ATOM     36  C   UNL A   1      42.023  25.976  25.932  1.00  0.00     0.338 C 
ATOM     37  O   UNL A   1      41.014  25.960  25.231  1.00  0.00    -0.246 OA
BRANCH  36  38
ATOM     38  C   UNL A   1      41.998  26.515  27.298  1.00  0.00     0.060 A 
ATOM     39  C   UNL A   1      40.984  26.072  28.162  1.00  0.00     0.016 A 
ATOM     40  C   UNL A   1      42.873  27.521  27.697  1.00  0.00     0.016 A 
ATOM     41  C   UNL A   1      40.799  26.669  29.403  1.00  0.00     0.010 A 
ATOM     42  C   UNL A   1      42.679  28.131  28.940  1.00  0.00     0.010 A 
ATOM     43  C   UNL A   1      41.619  27.736  29.779  1.00  0.00    -0.014 A 
BRANCH  43  44
ATOM     44  C   UNL A   1      41.272  28.541  30.975  1.00  0.00     0.031 A 
ATOM     45  C   UNL A   1      40.113  29.494  30.893  1.00  0.00     0.074 A 
ATOM     46  C   UNL A   1      41.961  28.403  32.121  1.00  0.00     0.049 A 
ATOM     47  N   UNL A   1      39.738  30.422  31.732  1.00  0.00    -0.248 NA
ATOM     48  C   UNL A   1      39.264  29.388  29.694  1.00  0.00     0.031 C 
ATOM     49  C   UNL A   1      43.039  27.441  32.349  1.00  0.00     0.029 A 
ATOM     50  N   UNL A   1      41.863  29.088  33.306  1.00  0.00    -0.354 N 
ATOM     51  C   UNL A   1      38.643  31.044  31.143  1.00  0.00     0.074 A 
ATOM     52  C   UNL A   1      38.410  30.383  29.878  1.00  0.00     0.031 C 
ATOM     53  C   UNL A   1      43.520  27.613  33.590  1.00  0.00     0.029 A 
ATOM     54  C   UNL A   1      42.827  28.735  34.219  1.00  0.00     0.049 A 
ATOM     55  H   UNL A   1      41.170  29.763  33.484  1.00  0.00     0.167 HD
ATOM     56  C   UNL A   1      37.912  32.083  31.616  1.00  0.00     0.037 A 
ATOM     57  C   UNL A   1      43.148  29.289  35.403  1.00  0.00     0.037 A 
ATOM     58  C   UNL A   1      38.146  32.706  32.892  1.00  0.00     0.049 A 
ATOM     59  C   UNL A   1      42.354  30.470  35.893  1.00  0.00     0.074 A 
ATOM     60  C   UNL A   1      37.464  33.759  33.478  1.00  0.00     0.029 A 
ATOM     61  N   UNL A   1      39.141  32.330  33.784  1.00  0.00    -0.354 N 
ATOM     62  N   UNL A   1      41.352  31.087  35.312  1.00  0.00    -0.248 NA
ATOM     63  C   UNL A   1      42.736  31.034  37.194  1.00  0.00     0.031 C 
ATOM     64  C   UNL A   1      38.077  34.048  34.702  1.00  0.00     0.029 A 
ATOM     65  C   UNL A   1      39.107  33.142  34.906  1.00  0.00     0.049 A 
ATOM     66  H   UNL A   1      39.779  31.594  33.641  1.00  0.00     0.167 HD
ATOM     67  C   UNL A   1      40.972  32.102  36.182  1.00  0.00     0.074 A 
ATOM     68  C   UNL A   1      41.845  32.006  37.336  1.00  0.00     0.031 C 
ATOM     69  C   UNL A   1      39.989  33.029  36.042  1.00  0.00     0.037 A 
BRANCH  56  70
ATOM     70  C   UNL A   1      36.843  32.645  30.718  1.00  0.00     0.058 A 
ATOM     71  C   UNL A   1      37.106  33.641  29.764  1.00  0.00     0.135 A 
ATOM     72  C   UNL A   1      35.522  32.179  30.825  1.00  0.00     0.135 A 
ATOM     73  F   UNL A   1      38.345  34.141  29.632  1.00  0.00    -0.206 F 
ATOM     74  C   UNL A   1      36.092  34.180  28.976  1.00  0.00     0.059 A 
ATOM     75  C   UNL A   1      34.498  32.683  30.028  1.00  0.00     0.059 A 
ATOM     76  F   UNL A   1      35.211  31.230  31.723  1.00  0.00    -0.206 F 
ATOM     77  C   UNL A   1      34.789  33.699  29.120  1.00  0.00     0.060 A 
BRANCH  77  78
ATOM     78  S   UNL A   1      33.478  34.424  28.114  1.00  0.00     0.124 S 
ATOM     79  O   UNL A   1      32.758  35.219  29.105  1.00  0.00    -0.237 OA
ATOM     80  O   UNL A   1      34.229  35.183  27.119  1.00  0.00    -0.237 OA
ATOM     81  O   UNL A   1      32.759  33.263  27.601  1.00  0.00    -0.744 OA
ENDBRANCH  77  78
ENDBRANCH  56  70
BRANCH  57  82
ATOM     82  C   UNL A   1      44.307  28.758  36.170  1.00  0.00     0.058 A 
ATOM     83  C   UNL A   1      44.169  27.671  37.045  1.00  0.00     0.135 A 
ATOM     84  C   UNL A   1      45.592  29.302  36.003  1.00  0.00     0.135 A 
ATOM     85  F   UNL A   1      42.962  27.127  37.252  1.00  0.00    -0.206 F 
ATOM     86  C   UNL A   1      45.263  27.139  37.722  1.00  0.00     0.059 A 
ATOM     87  C   UNL A   1      46.703  28.772  36.648  1.00  0.00     0.059 A 
ATOM     88  F   UNL A   1      45.779  30.340  35.172  1.00  0.00    -0.206 F 
ATOM     89  C   UNL A   1      46.528  27.691  37.511  1.00  0.00     0.060 A 
BRANCH  89  90
ATOM     90  S   UNL A   1      47.951  26.946  38.337  1.00  0.00     0.124 S 
ATOM     91  O   UNL A   1      47.733  25.528  38.078  1.00  0.00    -0.237 OA
ATOM     92  O   UNL A   1      49.073  27.558  37.630  1.00  0.00    -0.237 OA
ATOM     93  O   UNL A   1      47.792  27.365  39.726  1.00  0.00    -0.744 OA
ENDBRANCH  89  90
ENDBRANCH  57  82
BRANCH  69  94
ATOM     94  C   UNL A   1      39.788  33.991  37.180  1.00  0.00     0.058 A 
ATOM     95  C   UNL A   1      39.055  33.640  38.324  1.00  0.00     0.135 A 
ATOM     96  C   UNL A   1      40.373  35.267  37.140  1.00  0.00     0.135 A 
ATOM     97  F   UNL A   1      38.472  32.434  38.409  1.00  0.00    -0.206 F 
ATOM     98  C   UNL A   1      38.886  34.531  39.379  1.00  0.00     0.059 A 
ATOM     99  C   UNL A   1      40.240  36.164  38.194  1.00  0.00     0.059 A 
ATOM    100  F   UNL A   1      41.095  35.648  36.073  1.00  0.00    -0.206 F 
ATOM    101  C   UNL A   1      39.481  35.793  39.303  1.00  0.00     0.060 A 
BRANCH 101 102
ATOM    102  S   UNL A   1      39.273  36.933  40.687  1.00  0.00     0.124 S 
ATOM    103  O   UNL A   1      40.593  36.889  41.306  1.00  0.00    -0.237 OA
ATOM    104  O   UNL A   1      38.928  38.182  40.015  1.00  0.00    -0.237 OA
ATOM    105  O   UNL A   1      38.194  36.329  41.463  1.00  0.00    -0.744 OA
ENDBRANCH 101 102
ENDBRANCH  69  94
ENDBRANCH  43  44
ENDBRANCH  36  38
ENDBRANCH  35  36
ENDBRANCH  34  35
ENDBRANCH  33  34
ENDBRANCH  32  33
ENDBRANCH  31  32
ENDBRANCH   1  31
TORSDOF 23
ENDMDL
MODEL 2
REMARK VINA RESULT:     -10.7      6.016     11.690
REMARK SMILES Cc1nc(NC(=O)[C@H]2[C@@H]3CC[C@@H](C3)[C@@H]2C(=O)OCCOCCOCCOC(=O)c2ccc(-c3c4nc(c(-c5c(F)cc(S(=O)(=O)[O-])cc5F)c5ccc([nH]5)c(-c5c(F)cc(S(=O)(=O)[O-])cc5F)c5nc(c(-c6c(F)cc(S(=O)(=O)[O-])cc6F)c6ccc3[nH]6)C=C5)C=C4)cc2)sc1-c1ccccc1
REMARK SMILES IDX 21 1 20 2 19 3 18 4 17 5 15 6 16 7 14 8 8 9 9 10 10 11 13 12
REMARK SMILES IDX 12 13 11 14 6 15 5 16 7 18 4 19 1 20 2 21 3 22 96 23 95 24
REMARK SMILES IDX 97 25 98 26 102 27 99 28 101 29 100 30 22 31 23 32 24 33
REMARK SMILES IDX 25 34 26 35 27 36 28 37 29 38 30 39 94 40 31 41 93 42 32 43
REMARK SMILES IDX 33 44 34 45 87 46 35 47 92 48 86 49 88 50 36 51 91 52 85 53
REMARK SMILES IDX 84 54 37 56 71 57 50 58 70 59 51 60 54 61 69 62 89 63 52 64
REMARK SMILES IDX 53 65 68 67 90 68 55 69 38 70 39 71 48 72 40 73 41 74 47 75
REMARK SMILES IDX 49 76 42 77 43 78 44 79 45 80 46 81 72 82 73 83 82 84 74 85
REMARK SMILES IDX 75 86 81 87 83 88 76 89 77 90 78 91 79 92 80 93 56 94 57 95
REMARK SMILES IDX 66 96 58 97 59 98 65 99 67 100 60 101 61 102 62 103 63 104
REMARK SMILES IDX 64 105
REMARK H PARENT 5 17 88 55 54 66
REMARK Flexibility Score: inf
ROOT
ATOM      1  C   UNL A   1      34.790  32.185  27.841  1.00  0.00     0.188 C 
ENDROOT
BRANCH   1   2
ATOM      2  O   UNL A   1      34.134  30.926  27.849  1.00  0.00    -0.376 OA
BRANCH   2   3
ATOM      3  C   UNL A   1      32.929  30.815  27.102  1.00  0.00     0.202 C 
BRANCH   3   4
ATOM      4  C   UNL A   1      32.138  29.508  27.250  1.00  0.00     0.261 C 
BRANCH   4   5
ATOM      5  O   UNL A   1      32.938  28.321  27.144  1.00  0.00    -0.463 OA
BRANCH   5   6
ATOM      6  C   UNL A   1      32.975  27.737  25.903  1.00  0.00     0.310 C 
ATOM      7  O   UNL A   1      33.980  27.599  25.223  1.00  0.00    -0.252 OA
BRANCH   6   8
ATOM      8  C   UNL A   1      31.583  27.235  25.538  1.00  0.00     0.115 C 
ATOM      9  C   UNL A   1      31.510  25.762  25.101  1.00  0.00     0.096 C 
ATOM     10  C   UNL A   1      31.101  25.882  23.610  1.00  0.00     0.003 C 
ATOM     11  C   UNL A   1      32.217  26.602  22.813  1.00  0.00     0.005 C 
ATOM     12  C   UNL A   1      30.034  26.969  23.681  1.00  0.00     0.009 C 
ATOM     13  C   UNL A   1      30.984  27.990  24.322  1.00  0.00     0.004 C 
ATOM     14  C   UNL A   1      32.028  28.081  23.196  1.00  0.00     0.005 C 
BRANCH   9  15
ATOM     15  C   UNL A   1      30.613  24.716  25.819  1.00  0.00     0.230 C 
ATOM     16  N   UNL A   1      30.694  23.362  25.871  1.00  0.00    -0.302 N 
ATOM     17  H   UNL A   1      30.036  22.943  26.471  1.00  0.00     0.172 HD
ATOM     18  O   UNL A   1      29.674  25.173  26.497  1.00  0.00    -0.274 OA
BRANCH  16  19
ATOM     19  C   UNL A   1      31.520  22.475  25.248  1.00  0.00     0.190 A 
ATOM     20  C   UNL A   1      32.150  20.642  22.302  1.00  0.00     0.068 C 
ATOM     21  C   UNL A   1      32.242  21.073  23.723  1.00  0.00     0.058 A 
ATOM     22  N   UNL A   1      31.741  22.331  23.979  1.00  0.00    -0.225 NA
ATOM     23  C   UNL A   1      32.660  20.360  24.846  1.00  0.00     0.059 A 
ATOM     24  S   UNL A   1      32.322  21.340  26.242  1.00  0.00    -0.096 S 
BRANCH  23  25
ATOM     25  C   UNL A   1      33.159  18.969  24.933  1.00  0.00    -0.006 A 
ATOM     26  C   UNL A   1      32.546  18.006  25.741  1.00  0.00     0.009 A 
ATOM     27  C   UNL A   1      34.160  18.522  24.057  1.00  0.00     0.009 A 
ATOM     28  C   UNL A   1      32.777  16.637  25.545  1.00  0.00     0.001 A 
ATOM     29  C   UNL A   1      34.406  17.159  23.863  1.00  0.00     0.001 A 
ATOM     30  C   UNL A   1      33.683  16.214  24.580  1.00  0.00     0.000 A 
ENDBRANCH  23  25
ENDBRANCH  16  19
ENDBRANCH   9  15
ENDBRANCH   6   8
ENDBRANCH   5   6
ENDBRANCH   4   5
ENDBRANCH   3   4
ENDBRANCH   2   3
ENDBRANCH   1   2
BRANCH   1  31
ATOM     31  C   UNL A   1      33.998  33.385  28.339  1.00  0.00     0.188 C 
BRANCH  31  32
ATOM     32  O   UNL A   1      34.729  34.404  29.014  1.00  0.00    -0.376 OA
BRANCH  32  33
ATOM     33  C   UNL A   1      34.497  34.422  30.430  1.00  0.00     0.202 C 
BRANCH  33  34
ATOM     34  C   UNL A   1      35.688  33.959  31.302  1.00  0.00     0.261 C 
BRANCH  34  35
ATOM     35  O   UNL A   1      36.615  33.065  30.637  1.00  0.00    -0.460 OA
BRANCH  35  36
ATOM     36  C   UNL A   1      36.503  31.764  30.956  1.00  0.00     0.338 C 
ATOM     37  O   UNL A   1      35.512  31.227  31.444  1.00  0.00    -0.246 OA
BRANCH  36  38
ATOM     38  C   UNL A   1      37.636  30.973  30.457  1.00  0.00     0.060 A 
ATOM     39  C   UNL A   1      38.457  30.334  31.399  1.00  0.00     0.016 A 
ATOM     40  C   UNL A   1      37.964  30.948  29.105  1.00  0.00     0.016 A 
ATOM     41  C   UNL A   1      39.639  29.718  31.008  1.00  0.00     0.010 A 
ATOM     42  C   UNL A   1      39.160  30.341  28.712  1.00  0.00     0.010 A 
ATOM     43  C   UNL A   1      40.021  29.760  29.664  1.00  0.00    -0.014 A 
BRANCH  43  44
ATOM     44  C   UNL A   1      41.388  29.338  29.277  1.00  0.00     0.031 A 
ATOM     45  C   UNL A   1      42.486  30.363  29.271  1.00  0.00     0.074 A 
ATOM     46  C   UNL A   1      41.650  28.057  28.963  1.00  0.00     0.049 A 
ATOM     47  N   UNL A   1      43.702  30.278  28.802  1.00  0.00    -0.248 NA
ATOM     48  C   UNL A   1      42.165  31.668  29.874  1.00  0.00     0.031 C 
ATOM     49  C   UNL A   1      40.689  26.957  29.029  1.00  0.00     0.029 A 
ATOM     50  N   UNL A   1      42.806  27.470  28.512  1.00  0.00    -0.354 N 
ATOM     51  C   UNL A   1      44.276  31.528  29.005  1.00  0.00     0.074 A 
ATOM     52  C   UNL A   1      43.275  32.353  29.647  1.00  0.00     0.031 C 
ATOM     53  C   UNL A   1      41.287  25.831  28.609  1.00  0.00     0.029 A 
ATOM     54  C   UNL A   1      42.650  26.144  28.187  1.00  0.00     0.049 A 
ATOM     55  H   UNL A   1      43.660  27.951  28.429  1.00  0.00     0.167 HD
ATOM     56  C   UNL A   1      45.520  31.947  28.670  1.00  0.00     0.037 A 
ATOM     57  C   UNL A   1      43.494  25.295  27.571  1.00  0.00     0.037 A 
ATOM     58  C   UNL A   1      46.508  31.098  28.057  1.00  0.00     0.049 A 
ATOM     59  C   UNL A   1      44.857  25.789  27.166  1.00  0.00     0.074 A 
ATOM     60  C   UNL A   1      47.803  31.412  27.682  1.00  0.00     0.029 A 
ATOM     61  N   UNL A   1      46.310  29.763  27.730  1.00  0.00    -0.354 N 
ATOM     62  N   UNL A   1      45.377  26.985  27.315  1.00  0.00    -0.248 NA
ATOM     63  C   UNL A   1      45.745  24.823  26.506  1.00  0.00     0.031 C 
ATOM     64  C   UNL A   1      48.371  30.279  27.086  1.00  0.00     0.029 A 
ATOM     65  C   UNL A   1      47.449  29.244  27.140  1.00  0.00     0.049 A 
ATOM     66  H   UNL A   1      45.480  29.259  27.895  1.00  0.00     0.167 HD
ATOM     67  C   UNL A   1      46.659  26.912  26.782  1.00  0.00     0.074 A 
ATOM     68  C   UNL A   1      46.839  25.550  26.319  1.00  0.00     0.031 C 
ATOM     69  C   UNL A   1      47.603  27.884  26.684  1.00  0.00     0.037 A 
BRANCH  56  70
ATOM     70  C   UNL A   1      45.850  33.398  28.899  1.00  0.00     0.058 A 
ATOM     71  C   UNL A   1      45.590  34.391  27.941  1.00  0.00     0.135 A 
ATOM     72  C   UNL A   1      46.447  33.798  30.106  1.00  0.00     0.135 A 
ATOM     73  F   UNL A   1      45.041  34.064  26.760  1.00  0.00    -0.206 F 
ATOM     74  C   UNL A   1      45.946  35.720  28.155  1.00  0.00     0.059 A 
ATOM     75  C   UNL A   1      46.786  35.125  30.354  1.00  0.00     0.059 A 
ATOM     76  F   UNL A   1      46.721  32.891  31.058  1.00  0.00    -0.206 F 
ATOM     77  C   UNL A   1      46.550  36.076  29.363  1.00  0.00     0.060 A 
BRANCH  77  78
ATOM     78  S   UNL A   1      47.034  37.797  29.618  1.00  0.00     0.124 S 
ATOM     79  O   UNL A   1      47.744  38.087  28.376  1.00  0.00    -0.237 OA
ATOM     80  O   UNL A   1      45.746  38.464  29.782  1.00  0.00    -0.237 OA
ATOM     81  O   UNL A   1      47.865  37.743  30.817  1.00  0.00    -0.744 OA
ENDBRANCH  77  78
ENDBRANCH  56  70
BRANCH  57  82
ATOM     82  C   UNL A   1      43.043  23.912  27.259  1.00  0.00     0.058 A 
ATOM     83  C   UNL A   1      42.713  23.528  25.952  1.00  0.00     0.135 A 
ATOM     84  C   UNL A   1      42.979  22.931  28.263  1.00  0.00     0.135 A 
ATOM     85  F   UNL A   1      42.741  24.431  24.961  1.00  0.00    -0.206 F 
ATOM     86  C   UNL A   1      42.341  22.221  25.649  1.00  0.00     0.059 A 
ATOM     87  C   UNL A   1      42.636  21.613  27.981  1.00  0.00     0.059 A 
ATOM     88  F   UNL A   1      43.292  23.245  29.530  1.00  0.00    -0.206 F 
ATOM     89  C   UNL A   1      42.315  21.268  26.669  1.00  0.00     0.060 A 
BRANCH  89  90
ATOM     90  S   UNL A   1      41.904  19.559  26.253  1.00  0.00     0.124 S 
ATOM     91  O   UNL A   1      42.638  19.374  25.007  1.00  0.00    -0.237 OA
ATOM     92  O   UNL A   1      42.416  18.828  27.409  1.00  0.00    -0.237 OA
ATOM     93  O   UNL A   1      40.449  19.583  26.130  1.00  0.00    -0.744 OA
ENDBRANCH  89  90
ENDBRANCH  57  82
BRANCH  69  94
ATOM     94  C   UNL A   1      48.925  27.495  26.083  1.00  0.00     0.058 A 
ATOM     95  C   UNL A   1      50.020  27.124  26.879  1.00  0.00     0.135 A 
ATOM     96  C   UNL A   1      49.083  27.453  24.688  1.00  0.00     0.135 A 
ATOM     97  F   UNL A   1      49.921  27.151  28.217  1.00  0.00    -0.206 F 
ATOM     98  C   UNL A   1      51.235  26.752  26.313  1.00  0.00     0.059 A 
ATOM     99  C   UNL A   1      50.281  27.059  24.100  1.00  0.00     0.059 A 
ATOM    100  F   UNL A   1      48.063  27.786  23.880  1.00  0.00    -0.206 F 
ATOM    101  C   UNL A   1      51.356  26.724  24.922  1.00  0.00     0.060 A 
BRANCH 101 102
ATOM    102  S   UNL A   1      52.931  26.219  24.199  1.00  0.00     0.124 S 
ATOM    103  O   UNL A   1      53.029  24.834  24.647  1.00  0.00    -0.237 OA
ATOM    104  O   UNL A   1      52.697  26.410  22.771  1.00  0.00    -0.237 OA
ATOM    105  O   UNL A   1      53.890  27.143  24.799  1.00  0.00    -0.744 OA
ENDBRANCH 101 102
ENDBRANCH  69  94
ENDBRANCH  43  44
ENDBRANCH  36  38
ENDBRANCH  35  36
ENDBRANCH  34  35
ENDBRANCH  33  34
ENDBRANCH  32  33
ENDBRANCH  31  32
ENDBRANCH   1  31
TORSDOF 23
ENDMDL
MODEL 3
REMARK VINA RESULT:     -10.7      6.027     12.049
REMARK SMILES Cc1nc(NC(=O)[C@H]2[C@@H]3CC[C@@H](C3)[C@@H]2C(=O)OCCOCCOCCOC(=O)c2ccc(-c3c4nc(c(-c5c(F)cc(S(=O)(=O)[O-])cc5F)c5ccc([nH]5)c(-c5c(F)cc(S(=O)(=O)[O-])cc5F)c5nc(c(-c6c(F)cc(S(=O)(=O)[O-])cc6F)c6ccc3[nH]6)C=C5)C=C4)cc2)sc1-c1ccccc1
REMARK SMILES IDX 21 1 20 2 19 3 18 4 17 5 15 6 16 7 14 8 8 9 9 10 10 11 13 12
REMARK SMILES IDX 12 13 11 14 6 15 5 16 7 18 4 19 1 20 2 21 3 22 96 23 95 24
REMARK SMILES IDX 97 25 98 26 102 27 99 28 101 29 100 30 22 31 23 32 24 33
REMARK SMILES IDX 25 34 26 35 27 36 28 37 29 38 30 39 94 40 31 41 93 42 32 43
REMARK SMILES IDX 33 44 34 45 87 46 35 47 92 48 86 49 88 50 36 51 91 52 85 53
REMARK SMILES IDX 84 54 37 56 71 57 50 58 70 59 51 60 54 61 69 62 89 63 52 64
REMARK SMILES IDX 53 65 68 67 90 68 55 69 38 70 39 71 48 72 40 73 41 74 47 75
REMARK SMILES IDX 49 76 42 77 43 78 44 79 45 80 46 81 72 82 73 83 82 84 74 85
REMARK SMILES IDX 75 86 81 87 83 88 76 89 77 90 78 91 79 92 80 93 56 94 57 95
REMARK SMILES IDX 66 96 58 97 59 98 65 99 67 100 60 101 61 102 62 103 63 104
REMARK SMILES IDX 64 105
REMARK H PARENT 5 17 88 55 54 66
REMARK Flexibility Score: inf
ROOT
ATOM      1  C   UNL A   1      33.378  32.671  27.877  1.00  0.00     0.188 C 
ENDROOT
BRANCH   1   2
ATOM      2  O   UNL A   1      33.571  31.400  27.274  1.00  0.00    -0.376 OA
BRANCH   2   3
ATOM      3  C   UNL A   1      32.406  30.653  26.945  1.00  0.00     0.202 C 
BRANCH   3   4
ATOM      4  C   UNL A   1      32.496  29.127  27.093  1.00  0.00     0.261 C 
BRANCH   4   5
ATOM      5  O   UNL A   1      33.185  28.472  26.018  1.00  0.00    -0.463 OA
BRANCH   5   6
ATOM      6  C   UNL A   1      32.553  28.501  24.800  1.00  0.00     0.310 C 
ATOM      7  O   UNL A   1      33.017  28.989  23.782  1.00  0.00    -0.252 OA
BRANCH   6   8
ATOM      8  C   UNL A   1      31.216  27.776  24.908  1.00  0.00     0.115 C 
ATOM      9  C   UNL A   1      31.273  26.258  24.666  1.00  0.00     0.096 C 
ATOM     10  C   UNL A   1      30.463  26.105  23.353  1.00  0.00     0.003 C 
ATOM     11  C   UNL A   1      31.188  26.838  22.196  1.00  0.00     0.005 C 
ATOM     12  C   UNL A   1      29.290  27.044  23.614  1.00  0.00     0.009 C 
ATOM     13  C   UNL A   1      30.196  28.262  23.844  1.00  0.00     0.004 C 
ATOM     14  C   UNL A   1      30.869  28.320  22.462  1.00  0.00     0.005 C 
BRANCH   9  15
ATOM     15  C   UNL A   1      30.787  25.222  25.717  1.00  0.00     0.230 C 
ATOM     16  N   UNL A   1      31.064  23.900  25.855  1.00  0.00    -0.302 N 
ATOM     17  H   UNL A   1      30.682  23.492  26.666  1.00  0.00     0.172 HD
ATOM     18  O   UNL A   1      30.046  25.660  26.616  1.00  0.00    -0.274 OA
BRANCH  16  19
ATOM     19  C   UNL A   1      31.772  23.033  25.079  1.00  0.00     0.190 A 
ATOM     20  C   UNL A   1      32.008  21.439  21.942  1.00  0.00     0.068 C 
ATOM     21  C   UNL A   1      32.262  21.738  23.378  1.00  0.00     0.058 A 
ATOM     22  N   UNL A   1      31.862  22.990  23.787  1.00  0.00    -0.225 NA
ATOM     23  C   UNL A   1      32.745  20.908  24.389  1.00  0.00     0.059 A 
ATOM     24  S   UNL A   1      32.600  21.776  25.889  1.00  0.00    -0.096 S 
BRANCH  23  25
ATOM     25  C   UNL A   1      33.169  19.492  24.308  1.00  0.00    -0.006 A 
ATOM     26  C   UNL A   1      32.408  18.521  23.648  1.00  0.00     0.009 A 
ATOM     27  C   UNL A   1      34.450  19.114  24.738  1.00  0.00     0.009 A 
ATOM     28  C   UNL A   1      32.969  17.298  23.258  1.00  0.00     0.001 A 
ATOM     29  C   UNL A   1      35.014  17.890  24.363  1.00  0.00     0.001 A 
ATOM     30  C   UNL A   1      34.286  16.998  23.586  1.00  0.00     0.000 A 
ENDBRANCH  23  25
ENDBRANCH  16  19
ENDBRANCH   9  15
ENDBRANCH   6   8
ENDBRANCH   5   6
ENDBRANCH   4   5
ENDBRANCH   3   4
ENDBRANCH   2   3
ENDBRANCH   1   2
BRANCH   1  31
ATOM     31  C   UNL A   1      34.611  33.384  28.410  1.00  0.00     0.188 C 
BRANCH  31  32
ATOM     32  O   UNL A   1      34.435  34.202  29.562  1.00  0.00    -0.376 OA
BRANCH  32  33
ATOM     33  C   UNL A   1      35.027  33.646  30.746  1.00  0.00     0.202 C 
BRANCH  33  34
ATOM     34  C   UNL A   1      35.578  32.209  30.597  1.00  0.00     0.261 C 
BRANCH  34  35
ATOM     35  O   UNL A   1      36.905  32.008  31.142  1.00  0.00    -0.460 OA
BRANCH  35  36
ATOM     36  C   UNL A   1      37.175  30.767  31.583  1.00  0.00     0.338 C 
ATOM     37  O   UNL A   1      36.495  30.125  32.381  1.00  0.00    -0.246 OA
BRANCH  36  38
ATOM     38  C   UNL A   1      38.279  30.144  30.843  1.00  0.00     0.060 A 
ATOM     39  C   UNL A   1      39.373  29.660  31.577  1.00  0.00     0.016 A 
ATOM     40  C   UNL A   1      38.306  30.134  29.451  1.00  0.00     0.016 A 
ATOM     41  C   UNL A   1      40.522  29.220  30.931  1.00  0.00     0.010 A 
ATOM     42  C   UNL A   1      39.466  29.705  28.801  1.00  0.00     0.010 A 
ATOM     43  C   UNL A   1      40.592  29.285  29.537  1.00  0.00    -0.014 A 
BRANCH  43  44
ATOM     44  C   UNL A   1      41.890  29.064  28.857  1.00  0.00     0.031 A 
ATOM     45  C   UNL A   1      42.195  27.699  28.308  1.00  0.00     0.074 A 
ATOM     46  C   UNL A   1      42.768  30.071  28.706  1.00  0.00     0.049 A 
ATOM     47  N   UNL A   1      43.318  27.221  27.842  1.00  0.00    -0.248 NA
ATOM     48  C   UNL A   1      41.079  26.739  28.288  1.00  0.00     0.031 C 
ATOM     49  C   UNL A   1      42.540  31.458  29.108  1.00  0.00     0.029 A 
ATOM     50  N   UNL A   1      44.037  30.074  28.184  1.00  0.00    -0.354 N 
ATOM     51  C   UNL A   1      43.061  25.893  27.521  1.00  0.00     0.074 A 
ATOM     52  C   UNL A   1      41.672  25.643  27.839  1.00  0.00     0.031 C 
ATOM     53  C   UNL A   1      43.643  32.175  28.841  1.00  0.00     0.029 A 
ATOM     54  C   UNL A   1      44.673  31.286  28.308  1.00  0.00     0.049 A 
ATOM     55  H   UNL A   1      44.450  29.287  27.763  1.00  0.00     0.167 HD
ATOM     56  C   UNL A   1      43.915  24.969  27.020  1.00  0.00     0.037 A 
ATOM     57  C   UNL A   1      45.954  31.625  28.069  1.00  0.00     0.037 A 
ATOM     58  C   UNL A   1      45.286  25.250  26.684  1.00  0.00     0.049 A 
ATOM     59  C   UNL A   1      46.900  30.575  27.554  1.00  0.00     0.074 A 
ATOM     60  C   UNL A   1      46.241  24.395  26.163  1.00  0.00     0.029 A 
ATOM     61  N   UNL A   1      45.899  26.487  26.836  1.00  0.00    -0.354 N 
ATOM     62  N   UNL A   1      46.667  29.308  27.299  1.00  0.00    -0.248 NA
ATOM     63  C   UNL A   1      48.284  30.995  27.300  1.00  0.00     0.031 C 
ATOM     64  C   UNL A   1      47.443  25.103  26.043  1.00  0.00     0.029 A 
ATOM     65  C   UNL A   1      47.223  26.414  26.439  1.00  0.00     0.049 A 
ATOM     66  H   UNL A   1      45.456  27.298  27.177  1.00  0.00     0.167 HD
ATOM     67  C   UNL A   1      47.868  28.783  26.839  1.00  0.00     0.074 A 
ATOM     68  C   UNL A   1      48.824  29.874  26.839  1.00  0.00     0.031 C 
ATOM     69  C   UNL A   1      48.157  27.514  26.451  1.00  0.00     0.037 A 
BRANCH  56  70
ATOM     70  C   UNL A   1      43.406  23.560  26.872  1.00  0.00     0.058 A 
ATOM     71  C   UNL A   1      43.291  22.681  27.961  1.00  0.00     0.135 A 
ATOM     72  C   UNL A   1      43.032  23.080  25.606  1.00  0.00     0.135 A 
ATOM     73  F   UNL A   1      43.655  23.077  29.191  1.00  0.00    -0.206 F 
ATOM     74  C   UNL A   1      42.862  21.367  27.794  1.00  0.00     0.059 A 
ATOM     75  C   UNL A   1      42.572  21.779  25.420  1.00  0.00     0.059 A 
ATOM     76  F   UNL A   1      43.123  23.875  24.528  1.00  0.00    -0.206 F 
ATOM     77  C   UNL A   1      42.511  20.923  26.518  1.00  0.00     0.060 A 
BRANCH  77  78
ATOM     78  S   UNL A   1      41.983  19.210  26.308  1.00  0.00     0.124 S 
ATOM     79  O   UNL A   1      42.970  18.716  25.352  1.00  0.00    -0.237 OA
ATOM     80  O   UNL A   1      42.093  18.679  27.663  1.00  0.00    -0.237 OA
ATOM     81  O   UNL A   1      40.622  19.332  25.795  1.00  0.00    -0.744 OA
ENDBRANCH  77  78
ENDBRANCH  56  70
BRANCH  57  82
ATOM     82  C   UNL A   1      46.413  33.008  28.369  1.00  0.00     0.058 A 
ATOM     83  C   UNL A   1      46.268  34.045  27.436  1.00  0.00     0.135 A 
ATOM     84  C   UNL A   1      46.965  33.329  29.620  1.00  0.00     0.135 A 
ATOM     85  F   UNL A   1      45.762  33.788  26.221  1.00  0.00    -0.206 F 
ATOM     86  C   UNL A   1      46.648  35.350  27.734  1.00  0.00     0.059 A 
ATOM     87  C   UNL A   1      47.328  34.630  29.951  1.00  0.00     0.059 A 
ATOM     88  F   UNL A   1      47.120  32.374  30.551  1.00  0.00    -0.206 F 
ATOM     89  C   UNL A   1      47.169  35.635  28.999  1.00  0.00     0.060 A 
BRANCH  89  90
ATOM     90  S   UNL A   1      47.590  37.345  29.402  1.00  0.00     0.124 S 
ATOM     91  O   UNL A   1      49.007  37.230  29.728  1.00  0.00    -0.237 OA
ATOM     92  O   UNL A   1      47.278  38.041  28.156  1.00  0.00    -0.237 OA
ATOM     93  O   UNL A   1      46.708  37.654  30.522  1.00  0.00    -0.744 OA
ENDBRANCH  89  90
ENDBRANCH  57  82
BRANCH  69  94
ATOM     94  C   UNL A   1      49.554  27.249  25.963  1.00  0.00     0.058 A 
ATOM     95  C   UNL A   1      50.578  26.848  26.834  1.00  0.00     0.135 A 
ATOM     96  C   UNL A   1      49.858  27.356  24.596  1.00  0.00     0.135 A 
ATOM     97  F   UNL A   1      50.340  26.735  28.150  1.00  0.00    -0.206 F 
ATOM     98  C   UNL A   1      51.865  26.590  26.371  1.00  0.00     0.059 A 
ATOM     99  C   UNL A   1      51.130  27.077  24.107  1.00  0.00     0.059 A 
ATOM    100  F   UNL A   1      48.911  27.723  23.718  1.00  0.00    -0.206 F 
ATOM    101  C   UNL A   1      52.131  26.709  25.005  1.00  0.00     0.060 A 
BRANCH 101 102
ATOM    102  S   UNL A   1      53.799  26.352  24.413  1.00  0.00     0.124 S 
ATOM    103  O   UNL A   1      54.304  25.479  25.468  1.00  0.00    -0.237 OA
ATOM    104  O   UNL A   1      53.544  25.710  23.127  1.00  0.00    -0.237 OA
ATOM    105  O   UNL A   1      54.420  27.671  24.336  1.00  0.00    -0.744 OA
ENDBRANCH 101 102
ENDBRANCH  69  94
ENDBRANCH  43  44
ENDBRANCH  36  38
ENDBRANCH  35  36
ENDBRANCH  34  35
ENDBRANCH  33  34
ENDBRANCH  32  33
ENDBRANCH  31  32
ENDBRANCH   1  31
TORSDOF 23
ENDMDL
