MODEL 1
REMARK VINA RESULT:      -7.0      0.000      0.000
REMARK SMILES COc1ccc([C@H]2CC(c3ccc(S(C)(=O)=O)cc3)=NN2c2ccc(C(=O)OCCOCCOCCOC(=O)c3ccc(-c4c5nc(c(-c6c(F)cc(S(=O)(=O)[O-])cc6F)c6ccc([nH]6)c(-c6c(F)cc(S(=O)(=O)[O-])cc6F)c6nc(c(-c7c(F)cc(S(=O)(=O)[O-])cc7F)c7ccc4[nH]7)C=C6)C=C5)cc3)cc2)cc1OC
REMARK SMILES IDX 32 1 31 2 30 3 29 4 28 5 26 6 27 7 25 8 22 9 23 10 107 11
REMARK SMILES IDX 24 12 106 13 21 14 7 15 8 16 9 17 20 18 6 19 3 20 4 21
REMARK SMILES IDX 109 22 5 23 108 24 2 25 1 26 110 27 111 28 10 29 11 30 19 31
REMARK SMILES IDX 12 32 18 33 13 34 14 35 15 36 16 37 17 38 33 39 34 40 35 41
REMARK SMILES IDX 36 42 37 43 38 44 39 45 40 46 41 47 105 48 42 49 104 50
REMARK SMILES IDX 43 51 44 52 45 53 98 54 46 55 103 56 97 57 99 58 47 59
REMARK SMILES IDX 102 60 96 61 95 62 48 64 82 65 61 66 81 67 62 68 65 69 80 70
REMARK SMILES IDX 100 71 63 72 64 73 79 75 101 76 66 77 49 78 50 79 59 80
REMARK SMILES IDX 51 81 52 82 58 83 60 84 53 85 54 86 55 87 56 88 57 89 83 90
REMARK SMILES IDX 84 91 93 92 85 93 86 94 92 95 94 96 87 97 88 98 89 99 90 100
REMARK SMILES IDX 91 101 67 102 68 103 77 104 69 105 70 106 76 107 78 108
REMARK SMILES IDX 71 109 72 110 73 111 74 112 75 113
REMARK H PARENT 99 63 65 74
REMARK Flexibility Score: inf
ROOT
ATOM      1  C   UNL A   1      43.979  34.774  39.207  1.00  0.00     0.188 C 
ENDROOT
BRANCH   1   2
ATOM      2  O   UNL A   1      44.808  35.160  38.135  1.00  0.00    -0.376 OA
BRANCH   2   3
ATOM      3  C   UNL A   1      44.264  35.438  36.858  1.00  0.00     0.202 C 
BRANCH   3   4
ATOM      4  C   UNL A   1      44.393  36.765  36.084  1.00  0.00     0.261 C 
BRANCH   4   5
ATOM      5  O   UNL A   1      43.195  37.460  35.733  1.00  0.00    -0.460 OA
BRANCH   5   6
ATOM      6  C   UNL A   1      42.958  37.561  34.399  1.00  0.00     0.338 C 
ATOM      7  O   UNL A   1      42.681  38.577  33.786  1.00  0.00    -0.246 OA
BRANCH   6   8
ATOM      8  C   UNL A   1      43.237  36.269  33.734  1.00  0.00     0.060 A 
ATOM      9  C   UNL A   1      43.768  33.916  32.287  1.00  0.00     0.060 A 
ATOM     10  C   UNL A   1      44.732  34.927  32.381  1.00  0.00     0.029 A 
ATOM     11  C   UNL A   1      42.570  34.069  33.004  1.00  0.00     0.029 A 
ATOM     12  C   UNL A   1      44.459  36.112  33.071  1.00  0.00     0.018 A 
ATOM     13  C   UNL A   1      42.308  35.228  33.743  1.00  0.00     0.018 A 
BRANCH   9  14
ATOM     14  N   UNL A   1      43.947  32.830  31.435  1.00  0.00    -0.257 N 
ATOM     15  C   UNL A   1      43.029  32.555  30.324  1.00  0.00     0.144 C 
ATOM     16  C   UNL A   1      43.725  31.399  29.597  1.00  0.00     0.091 C 
ATOM     17  C   UNL A   1      45.016  31.333  30.368  1.00  0.00     0.071 C 
ATOM     18  N   UNL A   1      45.122  32.143  31.376  1.00  0.00    -0.176 NA
BRANCH  15  19
ATOM     19  C   UNL A   1      42.796  33.764  29.425  1.00  0.00    -0.019 A 
ATOM     20  C   UNL A   1      42.416  36.077  27.841  1.00  0.00     0.160 A 
ATOM     21  C   UNL A   1      41.416  35.642  28.721  1.00  0.00     0.051 A 
ATOM     22  C   UNL A   1      43.612  35.361  27.739  1.00  0.00     0.161 A 
ATOM     23  C   UNL A   1      41.601  34.492  29.500  1.00  0.00     0.010 A 
ATOM     24  C   UNL A   1      43.787  34.219  28.538  1.00  0.00     0.056 A 
BRANCH  20  25
ATOM     25  O   UNL A   1      42.250  37.298  27.244  1.00  0.00    -0.493 OA
ATOM     26  C   UNL A   1      42.296  38.381  28.170  1.00  0.00     0.278 C 
ENDBRANCH  20  25
BRANCH  22  27
ATOM     27  O   UNL A   1      44.712  35.633  26.975  1.00  0.00    -0.493 OA
ATOM     28  C   UNL A   1      45.745  36.432  27.529  1.00  0.00     0.278 C 
ENDBRANCH  22  27
ENDBRANCH  15  19
BRANCH  17  29
ATOM     29  C   UNL A   1      46.031  30.331  30.009  1.00  0.00    -0.002 A 
ATOM     30  C   UNL A   1      45.613  29.082  29.538  1.00  0.00     0.011 A 
ATOM     31  C   UNL A   1      47.391  30.648  30.072  1.00  0.00     0.011 A 
ATOM     32  C   UNL A   1      46.559  28.150  29.102  1.00  0.00     0.021 A 
ATOM     33  C   UNL A   1      48.341  29.710  29.659  1.00  0.00     0.021 A 
ATOM     34  C   UNL A   1      47.920  28.467  29.173  1.00  0.00     0.067 A 
BRANCH  34  35
ATOM     35  S   UNL A   1      49.118  27.295  28.573  1.00  0.00     0.175 S 
ATOM     36  C   UNL A   1      48.744  27.116  26.848  1.00  0.00     0.163 C 
ATOM     37  O   UNL A   1      50.417  27.929  28.701  1.00  0.00    -0.224 OA
ATOM     38  O   UNL A   1      48.852  26.024  29.221  1.00  0.00    -0.224 OA
ENDBRANCH  34  35
ENDBRANCH  17  29
ENDBRANCH   9  14
ENDBRANCH   6   8
ENDBRANCH   5   6
ENDBRANCH   4   5
ENDBRANCH   3   4
ENDBRANCH   2   3
ENDBRANCH   1   2
BRANCH   1  39
ATOM     39  C   UNL A   1      43.804  35.768  40.373  1.00  0.00     0.188 C 
BRANCH  39  40
ATOM     40  O   UNL A   1      43.182  37.016  40.146  1.00  0.00    -0.376 OA
BRANCH  40  41
ATOM     41  C   UNL A   1      42.379  37.608  41.153  1.00  0.00     0.202 C 
BRANCH  41  42
ATOM     42  C   UNL A   1      41.195  38.559  40.891  1.00  0.00     0.261 C 
BRANCH  42  43
ATOM     43  O   UNL A   1      40.347  38.272  39.777  1.00  0.00    -0.460 OA
BRANCH  43  44
ATOM     44  C   UNL A   1      39.443  37.282  39.971  1.00  0.00     0.338 C 
ATOM     45  O   UNL A   1      38.468  37.307  40.711  1.00  0.00    -0.246 OA
BRANCH  44  46
ATOM     46  C   UNL A   1      39.714  36.192  39.022  1.00  0.00     0.060 A 
ATOM     47  C   UNL A   1      40.546  36.441  37.920  1.00  0.00     0.016 A 
ATOM     48  C   UNL A   1      39.122  34.941  39.196  1.00  0.00     0.016 A 
ATOM     49  C   UNL A   1      40.779  35.437  36.981  1.00  0.00     0.010 A 
ATOM     50  C   UNL A   1      39.339  33.945  38.242  1.00  0.00     0.010 A 
ATOM     51  C   UNL A   1      40.147  34.195  37.118  1.00  0.00    -0.014 A 
BRANCH  51  52
ATOM     52  C   UNL A   1      40.195  33.211  36.010  1.00  0.00     0.031 A 
ATOM     53  C   UNL A   1      41.250  32.140  36.043  1.00  0.00     0.074 A 
ATOM     54  C   UNL A   1      39.318  33.268  34.992  1.00  0.00     0.049 A 
ATOM     55  N   UNL A   1      41.530  31.221  35.155  1.00  0.00    -0.248 NA
ATOM     56  C   UNL A   1      42.106  32.105  37.239  1.00  0.00     0.031 C 
ATOM     57  C   UNL A   1      38.224  34.229  34.872  1.00  0.00     0.029 A 
ATOM     58  N   UNL A   1      39.222  32.502  33.857  1.00  0.00    -0.354 N 
ATOM     59  C   UNL A   1      42.600  30.505  35.679  1.00  0.00     0.074 A 
ATOM     60  C   UNL A   1      42.940  31.119  36.945  1.00  0.00     0.031 C 
ATOM     61  C   UNL A   1      37.572  34.002  33.717  1.00  0.00     0.029 A 
ATOM     62  C   UNL A   1      38.225  32.907  33.002  1.00  0.00     0.049 A 
ATOM     63  H   UNL A   1      39.811  31.734  33.672  1.00  0.00     0.167 HD
ATOM     64  C   UNL A   1      43.238  29.431  35.155  1.00  0.00     0.037 A 
ATOM     65  C   UNL A   1      37.896  32.461  31.772  1.00  0.00     0.037 A 
ATOM     66  C   UNL A   1      42.903  28.837  33.887  1.00  0.00     0.049 A 
ATOM     67  C   UNL A   1      38.676  31.321  31.167  1.00  0.00     0.074 A 
ATOM     68  C   UNL A   1      43.479  27.740  33.271  1.00  0.00     0.029 A 
ATOM     69  N   UNL A   1      41.912  29.300  33.031  1.00  0.00    -0.354 N 
ATOM     70  N   UNL A   1      39.673  30.637  31.679  1.00  0.00    -0.248 NA
ATOM     71  C   UNL A   1      38.285  30.891  29.817  1.00  0.00     0.031 C 
ATOM     72  C   UNL A   1      42.878  27.576  32.019  1.00  0.00     0.029 A 
ATOM     73  C   UNL A   1      41.880  28.529  31.880  1.00  0.00     0.049 A 
ATOM     74  H   UNL A   1      41.318  30.063  33.216  1.00  0.00     0.167 HD
ATOM     75  C   UNL A   1      40.007  29.677  30.727  1.00  0.00     0.074 A 
ATOM     76  C   UNL A   1      39.100  29.865  29.613  1.00  0.00     0.031 C 
ATOM     77  C   UNL A   1      40.971  28.723  30.776  1.00  0.00     0.037 A 
BRANCH  64  78
ATOM     78  C   UNL A   1      44.388  28.859  35.941  1.00  0.00     0.058 A 
ATOM     79  C   UNL A   1      44.196  27.879  36.929  1.00  0.00     0.135 A 
ATOM     80  C   UNL A   1      45.700  29.296  35.702  1.00  0.00     0.135 A 
ATOM     81  F   UNL A   1      42.962  27.433  37.211  1.00  0.00    -0.206 F 
ATOM     82  C   UNL A   1      45.258  27.386  37.681  1.00  0.00     0.059 A 
ATOM     83  C   UNL A   1      46.782  28.793  36.419  1.00  0.00     0.059 A 
ATOM     84  F   UNL A   1      45.944  30.230  34.769  1.00  0.00    -0.206 F 
ATOM     85  C   UNL A   1      46.548  27.853  37.420  1.00  0.00     0.060 A 
BRANCH  85  86
ATOM     86  S   UNL A   1      47.911  27.220  38.421  1.00  0.00     0.124 S 
ATOM     87  O   UNL A   1      47.194  26.480  39.455  1.00  0.00    -0.237 OA
ATOM     88  O   UNL A   1      48.650  26.407  37.460  1.00  0.00    -0.237 OA
ATOM     89  O   UNL A   1      48.593  28.428  38.871  1.00  0.00    -0.744 OA
ENDBRANCH  85  86
ENDBRANCH  64  78
BRANCH  65  90
ATOM     90  C   UNL A   1      36.772  33.095  31.031  1.00  0.00     0.058 A 
ATOM     91  C   UNL A   1      37.012  33.910  29.915  1.00  0.00     0.135 A 
ATOM     92  C   UNL A   1      35.437  32.888  31.412  1.00  0.00     0.135 A 
ATOM     93  F   UNL A   1      38.272  34.152  29.521  1.00  0.00    -0.206 F 
ATOM     94  C   UNL A   1      35.971  34.499  29.205  1.00  0.00     0.059 A 
ATOM     95  C   UNL A   1      34.378  33.445  30.702  1.00  0.00     0.059 A 
ATOM     96  F   UNL A   1      35.152  32.115  32.472  1.00  0.00    -0.206 F 
ATOM     97  C   UNL A   1      34.656  34.254  29.602  1.00  0.00     0.060 A 
BRANCH  97  98
ATOM     98  S   UNL A   1      33.314  34.976  28.633  1.00  0.00     0.124 S 
ATOM     99  O   UNL A   1      32.321  35.253  29.664  1.00  0.00    -0.237 OA
ATOM    100  O   UNL A   1      33.959  36.143  28.040  1.00  0.00    -0.237 OA
ATOM    101  O   UNL A   1      32.966  33.914  27.693  1.00  0.00    -0.744 OA
ENDBRANCH  97  98
ENDBRANCH  65  90
BRANCH  77 102
ATOM    102  C   UNL A   1      41.078  27.775  29.609  1.00  0.00     0.058 A 
ATOM    103  C   UNL A   1      42.141  27.840  28.694  1.00  0.00     0.135 A 
ATOM    104  C   UNL A   1      40.134  26.748  29.440  1.00  0.00     0.135 A 
ATOM    105  F   UNL A   1      43.068  28.804  28.802  1.00  0.00    -0.206 F 
ATOM    106  C   UNL A   1      42.252  26.934  27.642  1.00  0.00     0.059 A 
ATOM    107  C   UNL A   1      40.243  25.813  28.417  1.00  0.00     0.059 A 
ATOM    108  F   UNL A   1      39.103  26.632  30.293  1.00  0.00    -0.206 F 
ATOM    109  C   UNL A   1      41.300  25.921  27.515  1.00  0.00     0.060 A 
BRANCH 109 110
ATOM    110  S   UNL A   1      41.479  24.729  26.170  1.00  0.00     0.124 S 
ATOM    111  O   UNL A   1      42.872  24.325  26.316  1.00  0.00    -0.237 OA
ATOM    112  O   UNL A   1      40.485  23.717  26.516  1.00  0.00    -0.237 OA
ATOM    113  O   UNL A   1      41.175  25.513  24.976  1.00  0.00    -0.744 OA
ENDBRANCH 109 110
ENDBRANCH  77 102
ENDBRANCH  51  52
ENDBRANCH  44  46
ENDBRANCH  43  44
ENDBRANCH  42  43
ENDBRANCH  41  42
ENDBRANCH  40  41
ENDBRANCH  39  40
ENDBRANCH   1  39
TORSDOF 26
ENDMDL
MODEL 2
REMARK VINA RESULT:      -6.4      2.537      9.418
REMARK SMILES COc1ccc([C@H]2CC(c3ccc(S(C)(=O)=O)cc3)=NN2c2ccc(C(=O)OCCOCCOCCOC(=O)c3ccc(-c4c5nc(c(-c6c(F)cc(S(=O)(=O)[O-])cc6F)c6ccc([nH]6)c(-c6c(F)cc(S(=O)(=O)[O-])cc6F)c6nc(c(-c7c(F)cc(S(=O)(=O)[O-])cc7F)c7ccc4[nH]7)C=C6)C=C5)cc3)cc2)cc1OC
REMARK SMILES IDX 32 1 31 2 30 3 29 4 28 5 26 6 27 7 25 8 22 9 23 10 107 11
REMARK SMILES IDX 24 12 106 13 21 14 7 15 8 16 9 17 20 18 6 19 3 20 4 21
REMARK SMILES IDX 109 22 5 23 108 24 2 25 1 26 110 27 111 28 10 29 11 30 19 31
REMARK SMILES IDX 12 32 18 33 13 34 14 35 15 36 16 37 17 38 33 39 34 40 35 41
REMARK SMILES IDX 36 42 37 43 38 44 39 45 40 46 41 47 105 48 42 49 104 50
REMARK SMILES IDX 43 51 44 52 45 53 98 54 46 55 103 56 97 57 99 58 47 59
REMARK SMILES IDX 102 60 96 61 95 62 48 64 82 65 61 66 81 67 62 68 65 69 80 70
REMARK SMILES IDX 100 71 63 72 64 73 79 75 101 76 66 77 49 78 50 79 59 80
REMARK SMILES IDX 51 81 52 82 58 83 60 84 53 85 54 86 55 87 56 88 57 89 83 90
REMARK SMILES IDX 84 91 93 92 85 93 86 94 92 95 94 96 87 97 88 98 89 99 90 100
REMARK SMILES IDX 91 101 67 102 68 103 77 104 69 105 70 106 76 107 78 108
REMARK SMILES IDX 71 109 72 110 73 111 74 112 75 113
REMARK H PARENT 99 63 65 74
REMARK Flexibility Score: inf
ROOT
ATOM      1  C   UNL A   1      46.918  24.887  27.014  1.00  0.00     0.188 C 
ENDROOT
BRANCH   1   2
ATOM      2  O   UNL A   1      46.650  26.007  26.203  1.00  0.00    -0.376 OA
BRANCH   2   3
ATOM      3  C   UNL A   1      46.070  27.178  26.747  1.00  0.00     0.202 C 
BRANCH   3   4
ATOM      4  C   UNL A   1      45.783  28.488  25.988  1.00  0.00     0.261 C 
BRANCH   4   5
ATOM      5  O   UNL A   1      45.716  29.702  26.740  1.00  0.00    -0.460 OA
BRANCH   5   6
ATOM      6  C   UNL A   1      46.918  30.261  27.038  1.00  0.00     0.338 C 
ATOM      7  O   UNL A   1      47.966  30.091  26.438  1.00  0.00    -0.246 OA
BRANCH   6   8
ATOM      8  C   UNL A   1      46.762  31.251  28.125  1.00  0.00     0.060 A 
ATOM      9  C   UNL A   1      46.653  33.074  30.266  1.00  0.00     0.060 A 
ATOM     10  C   UNL A   1      47.580  33.246  29.229  1.00  0.00     0.029 A 
ATOM     11  C   UNL A   1      45.726  32.023  30.162  1.00  0.00     0.029 A 
ATOM     12  C   UNL A   1      47.659  32.323  28.182  1.00  0.00     0.018 A 
ATOM     13  C   UNL A   1      45.761  31.126  29.090  1.00  0.00     0.018 A 
BRANCH   9  14
ATOM     14  N   UNL A   1      46.704  33.862  31.412  1.00  0.00    -0.257 N 
ATOM     15  C   UNL A   1      46.561  35.321  31.357  1.00  0.00     0.144 C 
ATOM     16  C   UNL A   1      46.509  35.704  32.840  1.00  0.00     0.091 C 
ATOM     17  C   UNL A   1      46.482  34.339  33.472  1.00  0.00     0.071 C 
ATOM     18  N   UNL A   1      46.580  33.332  32.660  1.00  0.00    -0.176 NA
BRANCH  15  19
ATOM     19  C   UNL A   1      45.326  35.774  30.586  1.00  0.00    -0.019 A 
ATOM     20  C   UNL A   1      43.058  36.530  29.074  1.00  0.00     0.160 A 
ATOM     21  C   UNL A   1      44.296  37.150  28.862  1.00  0.00     0.051 A 
ATOM     22  C   UNL A   1      42.938  35.531  30.044  1.00  0.00     0.161 A 
ATOM     23  C   UNL A   1      45.419  36.782  29.617  1.00  0.00     0.010 A 
ATOM     24  C   UNL A   1      44.075  35.163  30.781  1.00  0.00     0.056 A 
BRANCH  20  25
ATOM     25  O   UNL A   1      42.050  36.805  28.189  1.00  0.00    -0.493 OA
ATOM     26  C   UNL A   1      42.350  36.393  26.857  1.00  0.00     0.278 C 
ENDBRANCH  20  25
BRANCH  22  27
ATOM     27  O   UNL A   1      41.840  34.788  30.378  1.00  0.00    -0.493 OA
ATOM     28  C   UNL A   1      42.014  33.651  31.208  1.00  0.00     0.278 C 
ENDBRANCH  22  27
ENDBRANCH  15  19
BRANCH  17  29
ATOM     29  C   UNL A   1      46.433  34.212  34.937  1.00  0.00    -0.002 A 
ATOM     30  C   UNL A   1      45.744  33.134  35.500  1.00  0.00     0.011 A 
ATOM     31  C   UNL A   1      47.122  35.118  35.748  1.00  0.00     0.011 A 
ATOM     32  C   UNL A   1      45.764  32.942  36.885  1.00  0.00     0.021 A 
ATOM     33  C   UNL A   1      47.125  34.943  37.135  1.00  0.00     0.021 A 
ATOM     34  C   UNL A   1      46.449  33.854  37.696  1.00  0.00     0.067 A 
BRANCH  34  35
ATOM     35  S   UNL A   1      46.510  33.578  39.453  1.00  0.00     0.175 S 
ATOM     36  C   UNL A   1      46.557  31.814  39.629  1.00  0.00     0.163 C 
ATOM     37  O   UNL A   1      47.775  34.122  39.913  1.00  0.00    -0.224 OA
ATOM     38  O   UNL A   1      45.258  34.050  40.016  1.00  0.00    -0.224 OA
ENDBRANCH  34  35
ENDBRANCH  17  29
ENDBRANCH   9  14
ENDBRANCH   6   8
ENDBRANCH   5   6
ENDBRANCH   4   5
ENDBRANCH   3   4
ENDBRANCH   2   3
ENDBRANCH   1   2
BRANCH   1  39
ATOM     39  C   UNL A   1      45.946  24.592  28.174  1.00  0.00     0.188 C 
BRANCH  39  40
ATOM     40  O   UNL A   1      44.838  23.740  27.964  1.00  0.00    -0.376 OA
BRANCH  40  41
ATOM     41  C   UNL A   1      44.557  23.239  26.668  1.00  0.00     0.202 C 
BRANCH  41  42
ATOM     42  C   UNL A   1      43.439  23.760  25.745  1.00  0.00     0.261 C 
BRANCH  42  43
ATOM     43  O   UNL A   1      42.155  23.998  26.326  1.00  0.00    -0.460 OA
BRANCH  43  44
ATOM     44  C   UNL A   1      41.603  25.203  26.047  1.00  0.00     0.338 C 
ATOM     45  O   UNL A   1      41.102  25.559  24.987  1.00  0.00    -0.246 OA
BRANCH  44  46
ATOM     46  C   UNL A   1      41.544  26.001  27.281  1.00  0.00     0.060 A 
ATOM     47  C   UNL A   1      40.396  25.926  28.084  1.00  0.00     0.016 A 
ATOM     48  C   UNL A   1      42.599  26.846  27.626  1.00  0.00     0.016 A 
ATOM     49  C   UNL A   1      40.298  26.709  29.234  1.00  0.00     0.010 A 
ATOM     50  C   UNL A   1      42.487  27.646  28.765  1.00  0.00     0.010 A 
ATOM     51  C   UNL A   1      41.327  27.600  29.561  1.00  0.00    -0.014 A 
BRANCH  51  52
ATOM     52  C   UNL A   1      41.130  28.602  30.635  1.00  0.00     0.031 A 
ATOM     53  C   UNL A   1      42.001  28.527  31.859  1.00  0.00     0.074 A 
ATOM     54  C   UNL A   1      40.193  29.561  30.528  1.00  0.00     0.049 A 
ATOM     55  N   UNL A   1      41.963  29.244  32.952  1.00  0.00    -0.248 NA
ATOM     56  C   UNL A   1      43.054  27.499  31.847  1.00  0.00     0.031 C 
ATOM     57  C   UNL A   1      39.321  29.765  29.373  1.00  0.00     0.029 A 
ATOM     58  N   UNL A   1      39.814  30.538  31.415  1.00  0.00    -0.354 N 
ATOM     59  C   UNL A   1      42.978  28.750  33.762  1.00  0.00     0.074 A 
ATOM     60  C   UNL A   1      43.591  27.650  33.048  1.00  0.00     0.031 C 
ATOM     61  C   UNL A   1      38.497  30.797  29.628  1.00  0.00     0.029 A 
ATOM     62  C   UNL A   1      38.759  31.301  30.975  1.00  0.00     0.049 A 
ATOM     63  H   UNL A   1      40.256  30.679  32.283  1.00  0.00     0.167 HD
ATOM     64  C   UNL A   1      43.369  29.177  34.986  1.00  0.00     0.037 A 
ATOM     65  C   UNL A   1      38.069  32.276  31.600  1.00  0.00     0.037 A 
ATOM     66  C   UNL A   1      42.743  30.264  35.696  1.00  0.00     0.049 A 
ATOM     67  C   UNL A   1      38.461  32.679  33.000  1.00  0.00     0.074 A 
ATOM     68  C   UNL A   1      43.068  30.783  36.936  1.00  0.00     0.029 A 
ATOM     69  N   UNL A   1      41.651  30.988  35.234  1.00  0.00    -0.354 N 
ATOM     70  N   UNL A   1      39.436  32.220  33.750  1.00  0.00    -0.248 NA
ATOM     71  C   UNL A   1      37.660  33.733  33.638  1.00  0.00     0.031 C 
ATOM     72  C   UNL A   1      42.139  31.780  37.250  1.00  0.00     0.029 A 
ATOM     73  C   UNL A   1      41.273  31.930  36.178  1.00  0.00     0.049 A 
ATOM     74  H   UNL A   1      41.211  30.852  34.364  1.00  0.00     0.167 HD
ATOM     75  C   UNL A   1      39.385  32.951  34.933  1.00  0.00     0.074 A 
ATOM     76  C   UNL A   1      38.287  33.886  34.796  1.00  0.00     0.031 C 
ATOM     77  C   UNL A   1      40.179  32.860  36.031  1.00  0.00     0.037 A 
BRANCH  64  78
ATOM     78  C   UNL A   1      44.502  28.439  35.648  1.00  0.00     0.058 A 
ATOM     79  C   UNL A   1      44.280  27.323  36.471  1.00  0.00     0.135 A 
ATOM     80  C   UNL A   1      45.829  28.853  35.454  1.00  0.00     0.135 A 
ATOM     81  F   UNL A   1      43.031  26.890  36.704  1.00  0.00    -0.206 F 
ATOM     82  C   UNL A   1      45.329  26.672  37.113  1.00  0.00     0.059 A 
ATOM     83  C   UNL A   1      46.897  28.196  36.059  1.00  0.00     0.059 A 
ATOM     84  F   UNL A   1      46.102  29.913  34.676  1.00  0.00    -0.206 F 
ATOM     85  C   UNL A   1      46.634  27.119  36.903  1.00  0.00     0.060 A 
BRANCH  85  86
ATOM     86  S   UNL A   1      47.981  26.278  37.762  1.00  0.00     0.124 S 
ATOM     87  O   UNL A   1      48.731  27.407  38.304  1.00  0.00    -0.237 OA
ATOM     88  O   UNL A   1      47.266  25.465  38.741  1.00  0.00    -0.237 OA
ATOM     89  O   UNL A   1      48.649  25.532  36.700  1.00  0.00    -0.744 OA
ENDBRANCH  85  86
ENDBRANCH  64  78
BRANCH  65  90
ATOM     90  C   UNL A   1      36.933  32.942  30.905  1.00  0.00     0.058 A 
ATOM     91  C   UNL A   1      35.609  32.557  31.155  1.00  0.00     0.135 A 
ATOM     92  C   UNL A   1      37.148  33.984  29.990  1.00  0.00     0.135 A 
ATOM     93  F   UNL A   1      35.352  31.554  32.010  1.00  0.00    -0.206 F 
ATOM     94  C   UNL A   1      34.537  33.178  30.522  1.00  0.00     0.059 A 
ATOM     95  C   UNL A   1      36.091  34.639  29.364  1.00  0.00     0.059 A 
ATOM     96  F   UNL A   1      38.397  34.393  29.716  1.00  0.00    -0.206 F 
ATOM     97  C   UNL A   1      34.788  34.225  29.634  1.00  0.00     0.060 A 
BRANCH  97  98
ATOM     98  S   UNL A   1      33.384  35.062  28.867  1.00  0.00     0.124 S 
ATOM     99  O   UNL A   1      32.718  33.958  28.186  1.00  0.00    -0.237 OA
ATOM    100  O   UNL A   1      32.686  35.610  30.025  1.00  0.00    -0.237 OA
ATOM    101  O   UNL A   1      34.014  36.050  27.996  1.00  0.00    -0.744 OA
ENDBRANCH  97  98
ENDBRANCH  65  90
BRANCH  77 102
ATOM    102  C   UNL A   1      39.923  33.821  37.162  1.00  0.00     0.058 A 
ATOM    103  C   UNL A   1      40.530  35.086  37.216  1.00  0.00     0.135 A 
ATOM    104  C   UNL A   1      39.009  33.493  38.178  1.00  0.00     0.135 A 
ATOM    105  F   UNL A   1      41.417  35.451  36.277  1.00  0.00    -0.206 F 
ATOM    106  C   UNL A   1      40.255  35.982  38.245  1.00  0.00     0.059 A 
ATOM    107  C   UNL A   1      38.695  34.384  39.199  1.00  0.00     0.059 A 
ATOM    108  F   UNL A   1      38.391  32.300  38.171  1.00  0.00    -0.206 F 
ATOM    109  C   UNL A   1      39.333  35.623  39.230  1.00  0.00     0.060 A 
BRANCH 109 110
ATOM    110  S   UNL A   1      38.956  36.811  40.538  1.00  0.00     0.124 S 
ATOM    111  O   UNL A   1      38.056  36.039  41.388  1.00  0.00    -0.237 OA
ATOM    112  O   UNL A   1      40.275  37.087  41.097  1.00  0.00    -0.237 OA
ATOM    113  O   UNL A   1      38.341  37.924  39.821  1.00  0.00    -0.744 OA
ENDBRANCH 109 110
ENDBRANCH  77 102
ENDBRANCH  51  52
ENDBRANCH  44  46
ENDBRANCH  43  44
ENDBRANCH  42  43
ENDBRANCH  41  42
ENDBRANCH  40  41
ENDBRANCH  39  40
ENDBRANCH   1  39
TORSDOF 26
ENDMDL
MODEL 3
REMARK VINA RESULT:      -6.3      3.469     12.436
REMARK SMILES COc1ccc([C@H]2CC(c3ccc(S(C)(=O)=O)cc3)=NN2c2ccc(C(=O)OCCOCCOCCOC(=O)c3ccc(-c4c5nc(c(-c6c(F)cc(S(=O)(=O)[O-])cc6F)c6ccc([nH]6)c(-c6c(F)cc(S(=O)(=O)[O-])cc6F)c6nc(c(-c7c(F)cc(S(=O)(=O)[O-])cc7F)c7ccc4[nH]7)C=C6)C=C5)cc3)cc2)cc1OC
REMARK SMILES IDX 32 1 31 2 30 3 29 4 28 5 26 6 27 7 25 8 22 9 23 10 107 11
REMARK SMILES IDX 24 12 106 13 21 14 7 15 8 16 9 17 20 18 6 19 3 20 4 21
REMARK SMILES IDX 109 22 5 23 108 24 2 25 1 26 110 27 111 28 10 29 11 30 19 31
REMARK SMILES IDX 12 32 18 33 13 34 14 35 15 36 16 37 17 38 33 39 34 40 35 41
REMARK SMILES IDX 36 42 37 43 38 44 39 45 40 46 41 47 105 48 42 49 104 50
REMARK SMILES IDX 43 51 44 52 45 53 98 54 46 55 103 56 97 57 99 58 47 59
REMARK SMILES IDX 102 60 96 61 95 62 48 64 82 65 61 66 81 67 62 68 65 69 80 70
REMARK SMILES IDX 100 71 63 72 64 73 79 75 101 76 66 77 49 78 50 79 59 80
REMARK SMILES IDX 51 81 52 82 58 83 60 84 53 85 54 86 55 87 56 88 57 89 83 90
REMARK SMILES IDX 84 91 93 92 85 93 86 94 92 95 94 96 87 97 88 98 89 99 90 100
REMARK SMILES IDX 91 101 67 102 68 103 77 104 69 105 70 106 76 107 78 108
REMARK SMILES IDX 71 109 72 110 73 111 74 112 75 113
REMARK H PARENT 99 63 65 74
REMARK Flexibility Score: inf
ROOT
ATOM      1  C   UNL A   1      47.090  25.458  27.341  1.00  0.00     0.188 C 
ENDROOT
BRANCH   1   2
ATOM      2  O   UNL A   1      46.733  26.675  26.728  1.00  0.00    -0.376 OA
BRANCH   2   3
ATOM      3  C   UNL A   1      46.721  27.885  27.463  1.00  0.00     0.202 C 
BRANCH   3   4
ATOM      4  C   UNL A   1      47.667  29.084  27.259  1.00  0.00     0.261 C 
BRANCH   4   5
ATOM      5  O   UNL A   1      47.087  30.380  27.092  1.00  0.00    -0.460 OA
BRANCH   5   6
ATOM      6  C   UNL A   1      47.976  31.386  26.888  1.00  0.00     0.338 C 
ATOM      7  O   UNL A   1      49.142  31.267  26.551  1.00  0.00    -0.246 OA
BRANCH   6   8
ATOM      8  C   UNL A   1      47.293  32.695  26.981  1.00  0.00     0.060 A 
ATOM      9  C   UNL A   1      45.990  35.188  26.947  1.00  0.00     0.060 A 
ATOM     10  C   UNL A   1      45.327  34.031  26.515  1.00  0.00     0.029 A 
ATOM     11  C   UNL A   1      47.284  35.055  27.477  1.00  0.00     0.029 A 
ATOM     12  C   UNL A   1      45.983  32.796  26.499  1.00  0.00     0.018 A 
ATOM     13  C   UNL A   1      47.930  33.814  27.516  1.00  0.00     0.018 A 
BRANCH   9  14
ATOM     14  N   UNL A   1      45.423  36.447  26.773  1.00  0.00    -0.257 N 
ATOM     15  C   UNL A   1      44.046  36.741  27.187  1.00  0.00     0.144 C 
ATOM     16  C   UNL A   1      43.949  38.254  26.958  1.00  0.00     0.091 C 
ATOM     17  C   UNL A   1      45.374  38.564  26.588  1.00  0.00     0.071 C 
ATOM     18  N   UNL A   1      46.176  37.548  26.502  1.00  0.00    -0.176 NA
BRANCH  15  19
ATOM     19  C   UNL A   1      43.755  36.342  28.629  1.00  0.00    -0.019 A 
ATOM     20  C   UNL A   1      43.121  35.674  31.304  1.00  0.00     0.160 A 
ATOM     21  C   UNL A   1      44.014  36.715  31.021  1.00  0.00     0.051 A 
ATOM     22  C   UNL A   1      42.540  34.952  30.257  1.00  0.00     0.161 A 
ATOM     23  C   UNL A   1      44.334  37.042  29.696  1.00  0.00     0.010 A 
ATOM     24  C   UNL A   1      42.861  35.302  28.935  1.00  0.00     0.056 A 
BRANCH  20  25
ATOM     25  O   UNL A   1      42.712  35.522  32.602  1.00  0.00    -0.493 OA
ATOM     26  C   UNL A   1      43.480  34.556  33.317  1.00  0.00     0.278 C 
ENDBRANCH  20  25
BRANCH  22  27
ATOM     27  O   UNL A   1      41.630  33.934  30.319  1.00  0.00    -0.493 OA
ATOM     28  C   UNL A   1      42.043  32.628  29.952  1.00  0.00     0.278 C 
ENDBRANCH  22  27
ENDBRANCH  15  19
BRANCH  17  29
ATOM     29  C   UNL A   1      45.762  39.947  26.269  1.00  0.00    -0.002 A 
ATOM     30  C   UNL A   1      47.074  40.358  26.522  1.00  0.00     0.011 A 
ATOM     31  C   UNL A   1      44.850  40.813  25.659  1.00  0.00     0.011 A 
ATOM     32  C   UNL A   1      47.489  41.636  26.139  1.00  0.00     0.021 A 
ATOM     33  C   UNL A   1      45.254  42.102  25.297  1.00  0.00     0.021 A 
ATOM     34  C   UNL A   1      46.572  42.505  25.535  1.00  0.00     0.067 A 
BRANCH  34  35
ATOM     35  S   UNL A   1      47.120  44.115  25.008  1.00  0.00     0.175 S 
ATOM     36  C   UNL A   1      45.628  45.055  24.816  1.00  0.00     0.163 C 
ATOM     37  O   UNL A   1      47.880  44.674  26.111  1.00  0.00    -0.224 OA
ATOM     38  O   UNL A   1      47.725  43.966  23.698  1.00  0.00    -0.224 OA
ENDBRANCH  34  35
ENDBRANCH  17  29
ENDBRANCH   9  14
ENDBRANCH   6   8
ENDBRANCH   5   6
ENDBRANCH   4   5
ENDBRANCH   3   4
ENDBRANCH   2   3
ENDBRANCH   1   2
BRANCH   1  39
ATOM     39  C   UNL A   1      46.161  24.911  28.444  1.00  0.00     0.188 C 
BRANCH  39  40
ATOM     40  O   UNL A   1      45.139  23.993  28.112  1.00  0.00    -0.376 OA
BRANCH  40  41
ATOM     41  C   UNL A   1      44.907  23.641  26.759  1.00  0.00     0.202 C 
BRANCH  41  42
ATOM     42  C   UNL A   1      43.924  24.360  25.816  1.00  0.00     0.261 C 
BRANCH  42  43
ATOM     43  O   UNL A   1      42.633  24.692  26.331  1.00  0.00    -0.460 OA
BRANCH  43  44
ATOM     44  C   UNL A   1      42.220  25.960  26.096  1.00  0.00     0.338 C 
ATOM     45  O   UNL A   1      41.813  26.421  25.037  1.00  0.00    -0.246 OA
BRANCH  44  46
ATOM     46  C   UNL A   1      42.177  26.695  27.370  1.00  0.00     0.060 A 
ATOM     47  C   UNL A   1      41.368  26.209  28.407  1.00  0.00     0.016 A 
ATOM     48  C   UNL A   1      42.903  27.876  27.528  1.00  0.00     0.016 A 
ATOM     49  C   UNL A   1      41.275  26.914  29.607  1.00  0.00     0.010 A 
ATOM     50  C   UNL A   1      42.789  28.591  28.722  1.00  0.00     0.010 A 
ATOM     51  C   UNL A   1      41.957  28.127  29.757  1.00  0.00    -0.014 A 
BRANCH  51  52
ATOM     52  C   UNL A   1      41.676  28.998  30.924  1.00  0.00     0.031 A 
ATOM     53  C   UNL A   1      40.491  29.922  30.865  1.00  0.00     0.074 A 
ATOM     54  C   UNL A   1      42.459  28.969  32.017  1.00  0.00     0.049 A 
ATOM     55  N   UNL A   1      40.094  30.821  31.727  1.00  0.00    -0.248 NA
ATOM     56  C   UNL A   1      39.644  29.819  29.665  1.00  0.00     0.031 C 
ATOM     57  C   UNL A   1      43.606  28.085  32.212  1.00  0.00     0.029 A 
ATOM     58  N   UNL A   1      42.410  29.718  33.166  1.00  0.00    -0.354 N 
ATOM     59  C   UNL A   1      38.957  31.398  31.173  1.00  0.00     0.074 A 
ATOM     60  C   UNL A   1      38.750  30.772  29.885  1.00  0.00     0.031 C 
ATOM     61  C   UNL A   1      44.162  28.352  33.407  1.00  0.00     0.029 A 
ATOM     62  C   UNL A   1      43.434  29.449  34.043  1.00  0.00     0.049 A 
ATOM     63  H   UNL A   1      41.708  30.386  33.346  1.00  0.00     0.167 HD
ATOM     64  C   UNL A   1      38.156  32.359  31.692  1.00  0.00     0.037 A 
ATOM     65  C   UNL A   1      43.758  30.038  35.212  1.00  0.00     0.037 A 
ATOM     66  C   UNL A   1      38.379  32.988  32.969  1.00  0.00     0.049 A 
ATOM     67  C   UNL A   1      42.905  31.168  35.732  1.00  0.00     0.074 A 
ATOM     68  C   UNL A   1      37.621  33.963  33.592  1.00  0.00     0.029 A 
ATOM     69  N   UNL A   1      39.448  32.715  33.811  1.00  0.00    -0.354 N 
ATOM     70  N   UNL A   1      41.820  31.692  35.211  1.00  0.00    -0.248 NA
ATOM     71  C   UNL A   1      43.319  31.784  37.000  1.00  0.00     0.031 C 
ATOM     72  C   UNL A   1      38.263  34.322  34.781  1.00  0.00     0.029 A 
ATOM     73  C   UNL A   1      39.386  33.525  34.935  1.00  0.00     0.049 A 
ATOM     74  H   UNL A   1      40.148  32.045  33.636  1.00  0.00     0.167 HD
ATOM     75  C   UNL A   1      41.405  32.678  36.102  1.00  0.00     0.074 A 
ATOM     76  C   UNL A   1      42.352  32.670  37.199  1.00  0.00     0.031 C 
ATOM     77  C   UNL A   1      40.334  33.508  36.023  1.00  0.00     0.037 A 
BRANCH  64  78
ATOM     78  C   UNL A   1      36.988  32.811  30.857  1.00  0.00     0.058 A 
ATOM     79  C   UNL A   1      35.753  32.144  30.887  1.00  0.00     0.135 A 
ATOM     80  C   UNL A   1      37.106  33.929  30.015  1.00  0.00     0.135 A 
ATOM     81  F   UNL A   1      35.585  31.060  31.661  1.00  0.00    -0.206 F 
ATOM     82  C   UNL A   1      34.691  32.541  30.079  1.00  0.00     0.059 A 
ATOM     83  C   UNL A   1      36.046  34.365  29.224  1.00  0.00     0.059 A 
ATOM     84  F   UNL A   1      38.262  34.606  29.947  1.00  0.00    -0.206 F 
ATOM     85  C   UNL A   1      34.849  33.652  29.248  1.00  0.00     0.060 A 
BRANCH  85  86
ATOM     86  S   UNL A   1      33.470  34.140  28.191  1.00  0.00     0.124 S 
ATOM     87  O   UNL A   1      32.632  34.880  29.130  1.00  0.00    -0.237 OA
ATOM     88  O   UNL A   1      34.132  34.942  27.167  1.00  0.00    -0.237 OA
ATOM     89  O   UNL A   1      32.925  32.867  27.732  1.00  0.00    -0.744 OA
ENDBRANCH  85  86
ENDBRANCH  64  78
BRANCH  65  90
ATOM     90  C   UNL A   1      44.949  29.569  35.972  1.00  0.00     0.058 A 
ATOM     91  C   UNL A   1      46.203  30.168  35.790  1.00  0.00     0.135 A 
ATOM     92  C   UNL A   1      44.854  28.525  36.905  1.00  0.00     0.135 A 
ATOM     93  F   UNL A   1      46.349  31.159  34.896  1.00  0.00    -0.206 F 
ATOM     94  C   UNL A   1      47.322  29.748  36.502  1.00  0.00     0.059 A 
ATOM     95  C   UNL A   1      45.953  28.105  37.649  1.00  0.00     0.059 A 
ATOM     96  F   UNL A   1      43.675  27.919  37.120  1.00  0.00    -0.206 F 
ATOM     97  C   UNL A   1      47.185  28.721  37.436  1.00  0.00     0.060 A 
BRANCH  97  98
ATOM     98  S   UNL A   1      48.633  28.229  38.396  1.00  0.00     0.124 S 
ATOM     99  O   UNL A   1      48.177  28.465  39.761  1.00  0.00    -0.237 OA
ATOM    100  O   UNL A   1      48.793  26.830  38.011  1.00  0.00    -0.237 OA
ATOM    101  O   UNL A   1      49.678  29.128  37.916  1.00  0.00    -0.744 OA
ENDBRANCH  97  98
ENDBRANCH  65  90
BRANCH  77 102
ATOM    102  C   UNL A   1      40.096  34.456  37.170  1.00  0.00     0.058 A 
ATOM    103  C   UNL A   1      40.799  35.666  37.292  1.00  0.00     0.135 A 
ATOM    104  C   UNL A   1      39.106  34.177  38.127  1.00  0.00     0.135 A 
ATOM    105  F   UNL A   1      41.760  35.981  36.411  1.00  0.00    -0.206 F 
ATOM    106  C   UNL A   1      40.543  36.553  38.334  1.00  0.00     0.059 A 
ATOM    107  C   UNL A   1      38.811  35.064  39.157  1.00  0.00     0.059 A 
ATOM    108  F   UNL A   1      38.396  33.040  38.053  1.00  0.00    -0.206 F 
ATOM    109  C   UNL A   1      39.544  36.246  39.259  1.00  0.00     0.060 A 
BRANCH 109 110
ATOM    110  S   UNL A   1      39.195  37.425  40.582  1.00  0.00     0.124 S 
ATOM    111  O   UNL A   1      40.514  37.999  40.821  1.00  0.00    -0.237 OA
ATOM    112  O   UNL A   1      38.220  38.314  39.957  1.00  0.00    -0.237 OA
ATOM    113  O   UNL A   1      38.671  36.588  41.657  1.00  0.00    -0.744 OA
ENDBRANCH 109 110
ENDBRANCH  77 102
ENDBRANCH  51  52
ENDBRANCH  44  46
ENDBRANCH  43  44
ENDBRANCH  42  43
ENDBRANCH  41  42
ENDBRANCH  40  41
ENDBRANCH  39  40
ENDBRANCH   1  39
TORSDOF 26
ENDMDL
