MODEL 1
REMARK VINA RESULT:     -11.9      0.000      0.000
REMARK SMILES Cc1cc(S(=O)(=O)Nc2ccc(Cl)cc2F)ccc1OCC(=O)OCCOCCOCCOC(=O)c1ccc(-c2c3nc(c(-c4c(F)cc(S(=O)(=O)[O-])cc4F)c4ccc([nH]4)c(-c4c(F)cc(S(=O)(=O)[O-])cc4F)c4nc(c(-c5c(F)cc(S(=O)(=O)[O-])cc5F)c5ccc2[nH]5)C=C4)C=C3)cc1
REMARK SMILES IDX 28 1 27 2 26 3 25 4 24 5 22 6 23 7 21 8 20 9 19 10 1 11 2 12
REMARK SMILES IDX 3 13 4 14 18 15 17 16 5 17 6 18 7 19 8 20 9 22 10 23 15 24
REMARK SMILES IDX 11 25 14 26 16 27 12 28 13 29 29 30 30 31 31 32 32 33 33 34
REMARK SMILES IDX 34 35 35 36 36 37 37 38 101 39 38 40 100 41 39 42 40 43
REMARK SMILES IDX 41 44 94 45 42 46 99 47 93 48 95 49 43 50 98 51 92 52 91 53
REMARK SMILES IDX 44 55 78 56 57 57 77 58 58 59 61 60 76 61 96 62 59 63 60 64
REMARK SMILES IDX 75 66 97 67 62 68 45 69 46 70 55 71 47 72 48 73 54 74 56 75
REMARK SMILES IDX 49 76 50 77 51 78 52 79 53 80 79 81 80 82 89 83 81 84 82 85
REMARK SMILES IDX 88 86 90 87 83 88 84 89 85 90 86 91 87 92 63 93 64 94 73 95
REMARK SMILES IDX 65 96 66 97 72 98 74 99 67 100 68 101 69 102 70 103 71 104
REMARK H PARENT 8 21 95 54 61 65
REMARK Flexibility Score: inf
ROOT
ATOM      1  C   UNL A   1      33.272  35.719  29.783  1.00  0.00     0.188 C 
ENDROOT
BRANCH   1   2
ATOM      2  O   UNL A   1      34.366  34.803  29.545  1.00  0.00    -0.376 OA
BRANCH   2   3
ATOM      3  C   UNL A   1      34.719  34.159  28.288  1.00  0.00     0.202 C 
BRANCH   3   4
ATOM      4  C   UNL A   1      34.865  32.493  27.912  1.00  0.00     0.261 C 
BRANCH   4   5
ATOM      5  O   UNL A   1      33.706  31.258  27.894  1.00  0.00    -0.461 OA
BRANCH   5   6
ATOM      6  C   UNL A   1      33.286  29.897  27.322  1.00  0.00     0.344 C 
ATOM      7  O   UNL A   1      33.546  28.710  27.585  1.00  0.00    -0.248 OA
BRANCH   6   8
ATOM      8  C   UNL A   1      32.319  29.988  26.260  1.00  0.00     0.351 C 
BRANCH   8   9
ATOM      9  O   UNL A   1      32.135  28.596  26.296  1.00  0.00    -0.482 OA
BRANCH   9  10
ATOM     10  C   UNL A   1      32.151  28.167  24.940  1.00  0.00     0.123 A 
ATOM     11  C   UNL A   1      34.282  28.661  22.351  1.00  0.00     0.048 C 
ATOM     12  C   UNL A   1      33.493  27.890  23.434  1.00  0.00    -0.008 A 
ATOM     13  C   UNL A   1      33.369  26.249  22.593  1.00  0.00     0.029 A 
ATOM     14  C   UNL A   1      32.244  25.041  23.234  1.00  0.00     0.088 A 
ATOM     15  C   UNL A   1      31.015  26.841  25.318  1.00  0.00     0.048 A 
ATOM     16  C   UNL A   1      31.137  25.405  24.489  1.00  0.00     0.026 A 
BRANCH  14  17
ATOM     17  S   UNL A   1      32.749  23.269  23.133  1.00  0.00     0.262 S 
ATOM     18  O   UNL A   1      31.552  22.482  22.946  1.00  0.00    -0.201 OA
ATOM     19  O   UNL A   1      33.872  23.146  22.223  1.00  0.00    -0.201 OA
BRANCH  17  20
ATOM     20  N   UNL A   1      33.480  22.636  24.558  1.00  0.00    -0.277 N 
ATOM     21  H   UNL A   1      32.899  22.255  25.256  1.00  0.00     0.180 HD
BRANCH  20  22
ATOM     22  C   UNL A   1      34.905  22.639  24.776  1.00  0.00     0.085 A 
ATOM     23  C   UNL A   1      35.664  23.799  24.979  1.00  0.00     0.031 A 
ATOM     24  C   UNL A   1      35.535  21.387  24.874  1.00  0.00     0.148 A 
ATOM     25  C   UNL A   1      37.013  23.687  25.368  1.00  0.00     0.023 A 
ATOM     26  C   UNL A   1      36.854  21.271  25.306  1.00  0.00     0.062 A 
ATOM     27  F   UNL A   1      34.802  20.270  24.758  1.00  0.00    -0.205 F 
ATOM     28  C   UNL A   1      37.585  22.426  25.567  1.00  0.00     0.044 A 
ATOM     29  Cl  UNL A   1      39.177  22.291  26.206  1.00  0.00    -0.084 Cl
ENDBRANCH  20  22
ENDBRANCH  17  20
ENDBRANCH  14  17
ENDBRANCH   9  10
ENDBRANCH   8   9
ENDBRANCH   6   8
ENDBRANCH   5   6
ENDBRANCH   4   5
ENDBRANCH   3   4
ENDBRANCH   2   3
ENDBRANCH   1   2
BRANCH   1  30
ATOM     30  C   UNL A   1      32.607  35.955  31.151  1.00  0.00     0.188 C 
BRANCH  30  31
ATOM     31  O   UNL A   1      33.113  37.135  31.734  1.00  0.00    -0.376 OA
BRANCH  31  32
ATOM     32  C   UNL A   1      34.028  37.056  32.814  1.00  0.00     0.202 C 
BRANCH  32  33
ATOM     33  C   UNL A   1      34.682  35.690  33.174  1.00  0.00     0.261 C 
BRANCH  33  34
ATOM     34  O   UNL A   1      36.092  35.550  32.776  1.00  0.00    -0.460 OA
BRANCH  34  35
ATOM     35  C   UNL A   1      36.478  34.256  32.440  1.00  0.00     0.338 C 
ATOM     36  O   UNL A   1      35.625  33.422  32.168  1.00  0.00    -0.246 OA
BRANCH  35  37
ATOM     37  C   UNL A   1      38.040  33.945  32.998  1.00  0.00     0.060 A 
ATOM     38  C   UNL A   1      39.585  34.762  34.058  1.00  0.00     0.016 A 
ATOM     39  C   UNL A   1      38.390  33.587  31.306  1.00  0.00     0.016 A 
ATOM     40  C   UNL A   1      41.190  34.991  33.110  1.00  0.00     0.010 A 
ATOM     41  C   UNL A   1      39.873  34.015  30.643  1.00  0.00     0.010 A 
ATOM     42  C   UNL A   1      41.314  34.568  31.367  1.00  0.00    -0.014 A 
BRANCH  42  43
ATOM     43  C   UNL A   1      42.551  34.336  30.086  1.00  0.00     0.031 A 
ATOM     44  C   UNL A   1      43.490  32.853  29.560  1.00  0.00     0.074 A 
ATOM     45  C   UNL A   1      42.418  35.237  29.066  1.00  0.00     0.049 A 
ATOM     46  N   UNL A   1      44.706  32.800  29.042  1.00  0.00    -0.248 NA
ATOM     47  C   UNL A   1      43.160  31.275  29.695  1.00  0.00     0.031 C 
ATOM     48  C   UNL A   1      42.719  35.068  27.635  1.00  0.00     0.029 A 
ATOM     49  N   UNL A   1      41.929  36.552  29.102  1.00  0.00    -0.354 N 
ATOM     50  C   UNL A   1      44.929  31.402  28.760  1.00  0.00     0.074 A 
ATOM     51  C   UNL A   1      44.342  30.696  29.811  1.00  0.00     0.031 C 
ATOM     52  C   UNL A   1      42.652  36.258  27.002  1.00  0.00     0.029 A 
ATOM     53  C   UNL A   1      42.508  37.263  28.034  1.00  0.00     0.049 A 
ATOM     54  H   UNL A   1      41.294  36.914  29.761  1.00  0.00     0.167 HD
ATOM     55  C   UNL A   1      44.936  30.858  27.482  1.00  0.00     0.037 A 
ATOM     56  C   UNL A   1      43.419  38.232  28.328  1.00  0.00     0.037 A 
ATOM     57  C   UNL A   1      45.077  31.958  26.565  1.00  0.00     0.049 A 
ATOM     58  C   UNL A   1      44.802  37.732  27.933  1.00  0.00     0.074 A 
ATOM     59  C   UNL A   1      44.356  32.522  25.537  1.00  0.00     0.029 A 
ATOM     60  N   UNL A   1      46.033  32.877  26.925  1.00  0.00    -0.354 N 
ATOM     61  N   UNL A   1      45.088  36.462  27.774  1.00  0.00    -0.248 NA
ATOM     62  C   UNL A   1      45.900  38.585  27.489  1.00  0.00     0.031 C 
ATOM     63  C   UNL A   1      44.847  33.868  25.386  1.00  0.00     0.029 A 
ATOM     64  C   UNL A   1      45.859  34.083  26.314  1.00  0.00     0.049 A 
ATOM     65  H   UNL A   1      46.765  32.685  27.554  1.00  0.00     0.167 HD
ATOM     66  C   UNL A   1      46.290  36.317  27.150  1.00  0.00     0.074 A 
ATOM     67  C   UNL A   1      46.782  37.675  27.031  1.00  0.00     0.031 C 
ATOM     68  C   UNL A   1      46.795  35.127  26.706  1.00  0.00     0.037 A 
BRANCH  55  69
ATOM     69  C   UNL A   1      44.642  29.373  27.043  1.00  0.00     0.058 A 
ATOM     70  C   UNL A   1      45.683  28.420  27.144  1.00  0.00     0.135 A 
ATOM     71  C   UNL A   1      43.445  28.803  26.502  1.00  0.00     0.135 A 
ATOM     72  F   UNL A   1      46.899  28.787  27.574  1.00  0.00    -0.206 F 
ATOM     73  C   UNL A   1      45.546  27.056  26.809  1.00  0.00     0.059 A 
ATOM     74  C   UNL A   1      43.271  27.433  26.208  1.00  0.00     0.059 A 
ATOM     75  F   UNL A   1      42.379  29.531  26.150  1.00  0.00    -0.206 F 
ATOM     76  C   UNL A   1      44.328  26.559  26.368  1.00  0.00     0.060 A 
BRANCH  76  77
ATOM     77  S   UNL A   1      44.148  24.795  26.010  1.00  0.00     0.124 S 
ATOM     78  O   UNL A   1      45.219  24.208  26.809  1.00  0.00    -0.237 OA
ATOM     79  O   UNL A   1      42.789  24.523  26.469  1.00  0.00    -0.237 OA
ATOM     80  O   UNL A   1      44.339  24.713  24.564  1.00  0.00    -0.744 OA
ENDBRANCH  76  77
ENDBRANCH  55  69
BRANCH  56  81
ATOM     81  C   UNL A   1      42.910  39.084  29.461  1.00  0.00     0.058 A 
ATOM     82  C   UNL A   1      43.727  39.129  30.621  1.00  0.00     0.135 A 
ATOM     83  C   UNL A   1      42.042  40.175  29.283  1.00  0.00     0.135 A 
ATOM     84  F   UNL A   1      44.610  38.139  30.851  1.00  0.00    -0.206 F 
ATOM     85  C   UNL A   1      43.772  40.229  31.482  1.00  0.00     0.059 A 
ATOM     86  C   UNL A   1      42.060  41.290  30.147  1.00  0.00     0.059 A 
ATOM     87  F   UNL A   1      41.256  40.235  28.198  1.00  0.00    -0.206 F 
ATOM     88  C   UNL A   1      42.951  41.321  31.226  1.00  0.00     0.060 A 
BRANCH  88  89
ATOM     89  S   UNL A   1      43.189  42.819  32.237  1.00  0.00     0.124 S 
ATOM     90  O   UNL A   1      42.194  42.636  33.287  1.00  0.00    -0.237 OA
ATOM     91  O   UNL A   1      44.580  42.686  32.663  1.00  0.00    -0.237 OA
ATOM     92  O   UNL A   1      42.927  43.911  31.305  1.00  0.00    -0.744 OA
ENDBRANCH  88  89
ENDBRANCH  56  81
BRANCH  68  93
ATOM     93  C   UNL A   1      48.285  34.802  26.725  1.00  0.00     0.058 A 
ATOM     94  C   UNL A   1      49.137  35.034  25.633  1.00  0.00     0.135 A 
ATOM     95  C   UNL A   1      48.951  34.423  27.926  1.00  0.00     0.135 A 
ATOM     96  F   UNL A   1      48.692  35.554  24.482  1.00  0.00    -0.206 F 
ATOM     97  C   UNL A   1      50.501  34.764  25.680  1.00  0.00     0.059 A 
ATOM     98  C   UNL A   1      50.327  34.273  28.027  1.00  0.00     0.059 A 
ATOM     99  F   UNL A   1      48.296  34.186  29.073  1.00  0.00    -0.206 F 
ATOM    100  C   UNL A   1      51.083  34.368  26.878  1.00  0.00     0.060 A 
BRANCH 100 101
ATOM    101  S   UNL A   1      52.815  33.909  26.908  1.00  0.00     0.124 S 
ATOM    102  O   UNL A   1      53.111  33.848  25.479  1.00  0.00    -0.237 OA
ATOM    103  O   UNL A   1      53.428  35.016  27.634  1.00  0.00    -0.237 OA
ATOM    104  O   UNL A   1      52.816  32.628  27.608  1.00  0.00    -0.744 OA
ENDBRANCH 100 101
ENDBRANCH  68  93
ENDBRANCH  42  43
ENDBRANCH  35  37
ENDBRANCH  34  35
ENDBRANCH  33  34
ENDBRANCH  32  33
ENDBRANCH  31  32
ENDBRANCH  30  31
ENDBRANCH   1  30
TORSDOF 25
ENDMDL
MODEL 2
REMARK VINA RESULT:     -11.7      1.512      2.060
REMARK SMILES Cc1cc(S(=O)(=O)Nc2ccc(Cl)cc2F)ccc1OCC(=O)OCCOCCOCCOC(=O)c1ccc(-c2c3nc(c(-c4c(F)cc(S(=O)(=O)[O-])cc4F)c4ccc([nH]4)c(-c4c(F)cc(S(=O)(=O)[O-])cc4F)c4nc(c(-c5c(F)cc(S(=O)(=O)[O-])cc5F)c5ccc2[nH]5)C=C4)C=C3)cc1
REMARK SMILES IDX 28 1 27 2 26 3 25 4 24 5 22 6 23 7 21 8 20 9 19 10 1 11 2 12
REMARK SMILES IDX 3 13 4 14 18 15 17 16 5 17 6 18 7 19 8 20 9 22 10 23 15 24
REMARK SMILES IDX 11 25 14 26 16 27 12 28 13 29 29 30 30 31 31 32 32 33 33 34
REMARK SMILES IDX 34 35 35 36 36 37 37 38 101 39 38 40 100 41 39 42 40 43
REMARK SMILES IDX 41 44 94 45 42 46 99 47 93 48 95 49 43 50 98 51 92 52 91 53
REMARK SMILES IDX 44 55 78 56 57 57 77 58 58 59 61 60 76 61 96 62 59 63 60 64
REMARK SMILES IDX 75 66 97 67 62 68 45 69 46 70 55 71 47 72 48 73 54 74 56 75
REMARK SMILES IDX 49 76 50 77 51 78 52 79 53 80 79 81 80 82 89 83 81 84 82 85
REMARK SMILES IDX 88 86 90 87 83 88 84 89 85 90 86 91 87 92 63 93 64 94 73 95
REMARK SMILES IDX 65 96 66 97 72 98 74 99 67 100 68 101 69 102 70 103 71 104
REMARK H PARENT 8 21 95 54 61 65
REMARK Flexibility Score: inf
ROOT
ATOM      1  C   UNL A   1      34.776  33.031  30.227  1.00  0.00     0.188 C 
ENDROOT
BRANCH   1   2
ATOM      2  O   UNL A   1      35.232  32.402  29.008  1.00  0.00    -0.376 OA
BRANCH   2   3
ATOM      3  C   UNL A   1      34.422  31.992  27.870  1.00  0.00     0.202 C 
BRANCH   3   4
ATOM      4  C   UNL A   1      33.996  30.420  27.336  1.00  0.00     0.261 C 
BRANCH   4   5
ATOM      5  O   UNL A   1      32.478  29.705  27.104  1.00  0.00    -0.461 OA
BRANCH   5   6
ATOM      6  C   UNL A   1      31.636  28.423  27.175  1.00  0.00     0.344 C 
ATOM      7  O   UNL A   1      31.085  27.777  28.083  1.00  0.00    -0.248 OA
BRANCH   6   8
ATOM      8  C   UNL A   1      31.359  27.841  25.889  1.00  0.00     0.351 C 
BRANCH   8   9
ATOM      9  O   UNL A   1      30.976  26.638  26.506  1.00  0.00    -0.482 OA
BRANCH   9  10
ATOM     10  C   UNL A   1      30.887  25.676  25.461  1.00  0.00     0.123 A 
ATOM     11  C   UNL A   1      32.151  25.504  22.321  1.00  0.00     0.048 C 
ATOM     12  C   UNL A   1      31.921  25.115  23.799  1.00  0.00    -0.008 A 
ATOM     13  C   UNL A   1      32.246  23.301  23.679  1.00  0.00     0.029 A 
ATOM     14  C   UNL A   1      31.785  22.256  25.032  1.00  0.00     0.088 A 
ATOM     15  C   UNL A   1      30.408  24.412  26.629  1.00  0.00     0.048 A 
ATOM     16  C   UNL A   1      30.885  22.841  26.367  1.00  0.00     0.026 A 
BRANCH  14  17
ATOM     17  S   UNL A   1      32.872  20.811  25.403  1.00  0.00     0.262 S 
ATOM     18  O   UNL A   1      33.312  20.933  26.773  1.00  0.00    -0.201 OA
ATOM     19  O   UNL A   1      32.228  19.600  24.931  1.00  0.00    -0.201 OA
BRANCH  17  20
ATOM     20  N   UNL A   1      34.321  20.731  24.475  1.00  0.00    -0.277 N 
ATOM     21  H   UNL A   1      34.353  20.117  23.705  1.00  0.00     0.180 HD
BRANCH  20  22
ATOM     22  C   UNL A   1      35.488  21.522  24.773  1.00  0.00     0.085 A 
ATOM     23  C   UNL A   1      35.472  22.914  24.931  1.00  0.00     0.031 A 
ATOM     24  C   UNL A   1      36.686  20.824  25.002  1.00  0.00     0.148 A 
ATOM     25  C   UNL A   1      36.624  23.572  25.404  1.00  0.00     0.023 A 
ATOM     26  C   UNL A   1      37.811  21.465  25.516  1.00  0.00     0.062 A 
ATOM     27  F   UNL A   1      36.692  19.485  24.929  1.00  0.00    -0.205 F 
ATOM     28  C   UNL A   1      37.769  22.839  25.730  1.00  0.00     0.044 A 
ATOM     29  Cl  UNL A   1      39.114  23.619  26.469  1.00  0.00    -0.084 Cl
ENDBRANCH  20  22
ENDBRANCH  17  20
ENDBRANCH  14  17
ENDBRANCH   9  10
ENDBRANCH   8   9
ENDBRANCH   6   8
ENDBRANCH   5   6
ENDBRANCH   4   5
ENDBRANCH   3   4
ENDBRANCH   2   3
ENDBRANCH   1   2
BRANCH   1  30
ATOM     30  C   UNL A   1      34.833  32.386  31.623  1.00  0.00     0.188 C 
BRANCH  30  31
ATOM     31  O   UNL A   1      34.110  33.169  32.546  1.00  0.00    -0.376 OA
BRANCH  31  32
ATOM     32  C   UNL A   1      34.666  34.375  33.042  1.00  0.00     0.202 C 
BRANCH  32  33
ATOM     33  C   UNL A   1      35.792  34.322  34.116  1.00  0.00     0.261 C 
BRANCH  33  34
ATOM     34  O   UNL A   1      37.162  34.407  33.587  1.00  0.00    -0.460 OA
BRANCH  34  35
ATOM     35  C   UNL A   1      37.894  33.226  33.666  1.00  0.00     0.338 C 
ATOM     36  O   UNL A   1      37.315  32.170  33.890  1.00  0.00    -0.246 OA
BRANCH  35  37
ATOM     37  C   UNL A   1      39.519  33.560  33.969  1.00  0.00     0.060 A 
ATOM     38  C   UNL A   1      40.796  35.043  34.562  1.00  0.00     0.016 A 
ATOM     39  C   UNL A   1      39.774  32.952  32.333  1.00  0.00     0.016 A 
ATOM     40  C   UNL A   1      42.100  35.542  33.305  1.00  0.00     0.010 A 
ATOM     41  C   UNL A   1      40.928  33.662  31.340  1.00  0.00     0.010 A 
ATOM     42  C   UNL A   1      42.161  34.791  31.673  1.00  0.00    -0.014 A 
BRANCH  42  43
ATOM     43  C   UNL A   1      43.245  34.673  30.246  1.00  0.00     0.031 A 
ATOM     44  C   UNL A   1      44.270  33.293  29.611  1.00  0.00     0.074 A 
ATOM     45  C   UNL A   1      42.884  35.534  29.247  1.00  0.00     0.049 A 
ATOM     46  N   UNL A   1      45.410  33.366  28.943  1.00  0.00    -0.248 NA
ATOM     47  C   UNL A   1      44.139  31.692  29.796  1.00  0.00     0.031 C 
ATOM     48  C   UNL A   1      43.019  35.373  27.790  1.00  0.00     0.029 A 
ATOM     49  N   UNL A   1      42.260  36.788  29.339  1.00  0.00    -0.354 N 
ATOM     50  C   UNL A   1      45.751  31.996  28.641  1.00  0.00     0.074 A 
ATOM     51  C   UNL A   1      45.384  31.249  29.762  1.00  0.00     0.031 C 
ATOM     52  C   UNL A   1      42.740  36.536  27.165  1.00  0.00     0.029 A 
ATOM     53  C   UNL A   1      42.615  37.539  28.203  1.00  0.00     0.049 A 
ATOM     54  H   UNL A   1      41.676  37.090  30.072  1.00  0.00     0.167 HD
ATOM     55  C   UNL A   1      45.657  31.432  27.376  1.00  0.00     0.037 A 
ATOM     56  C   UNL A   1      43.442  38.607  28.374  1.00  0.00     0.037 A 
ATOM     57  C   UNL A   1      45.557  32.523  26.443  1.00  0.00     0.049 A 
ATOM     58  C   UNL A   1      44.811  38.257  27.808  1.00  0.00     0.074 A 
ATOM     59  C   UNL A   1      44.654  32.985  25.513  1.00  0.00     0.029 A 
ATOM     60  N   UNL A   1      46.443  33.549  26.674  1.00  0.00    -0.354 N 
ATOM     61  N   UNL A   1      45.215  37.023  27.620  1.00  0.00    -0.248 NA
ATOM     62  C   UNL A   1      45.741  39.217  27.223  1.00  0.00     0.031 C 
ATOM     63  C   UNL A   1      44.968  34.374  25.294  1.00  0.00     0.029 A 
ATOM     64  C   UNL A   1      46.058  34.716  26.084  1.00  0.00     0.049 A 
ATOM     65  H   UNL A   1      47.265  33.451  27.206  1.00  0.00     0.167 HD
ATOM     66  C   UNL A   1      46.338  37.000  26.848  1.00  0.00     0.074 A 
ATOM     67  C   UNL A   1      46.655  38.402  26.661  1.00  0.00     0.031 C 
ATOM     68  C   UNL A   1      46.913  35.866  26.349  1.00  0.00     0.037 A 
BRANCH  55  69
ATOM     69  C   UNL A   1      45.479  29.915  26.985  1.00  0.00     0.058 A 
ATOM     70  C   UNL A   1      44.178  29.442  26.694  1.00  0.00     0.135 A 
ATOM     71  C   UNL A   1      46.459  28.876  26.899  1.00  0.00     0.135 A 
ATOM     72  F   UNL A   1      43.121  30.262  26.784  1.00  0.00    -0.206 F 
ATOM     73  C   UNL A   1      43.883  28.117  26.308  1.00  0.00     0.059 A 
ATOM     74  C   UNL A   1      46.195  27.557  26.466  1.00  0.00     0.059 A 
ATOM     75  F   UNL A   1      47.729  29.029  27.291  1.00  0.00    -0.206 F 
ATOM     76  C   UNL A   1      44.900  27.183  26.167  1.00  0.00     0.060 A 
BRANCH  76  77
ATOM     77  S   UNL A   1      44.517  25.508  25.602  1.00  0.00     0.124 S 
ATOM     78  O   UNL A   1      44.514  24.755  26.853  1.00  0.00    -0.237 OA
ATOM     79  O   UNL A   1      43.216  25.686  24.965  1.00  0.00    -0.237 OA
ATOM     80  O   UNL A   1      45.613  25.189  24.691  1.00  0.00    -0.744 OA
ENDBRANCH  76  77
ENDBRANCH  55  69
BRANCH  56  81
ATOM     81  C   UNL A   1      42.987  39.419  29.558  1.00  0.00     0.058 A 
ATOM     82  C   UNL A   1      43.850  39.410  30.686  1.00  0.00     0.135 A 
ATOM     83  C   UNL A   1      42.126  40.526  29.457  1.00  0.00     0.135 A 
ATOM     84  F   UNL A   1      44.729  38.403  30.842  1.00  0.00    -0.206 F 
ATOM     85  C   UNL A   1      43.941  40.475  31.587  1.00  0.00     0.059 A 
ATOM     86  C   UNL A   1      42.191  41.605  30.363  1.00  0.00     0.059 A 
ATOM     87  F   UNL A   1      41.300  40.637  28.407  1.00  0.00    -0.206 F 
ATOM     88  C   UNL A   1      43.123  41.585  31.406  1.00  0.00     0.060 A 
BRANCH  88  89
ATOM     89  S   UNL A   1      43.418  43.039  32.465  1.00  0.00     0.124 S 
ATOM     90  O   UNL A   1      42.287  43.894  32.125  1.00  0.00    -0.237 OA
ATOM     91  O   UNL A   1      43.382  42.458  33.805  1.00  0.00    -0.237 OA
ATOM     92  O   UNL A   1      44.725  43.522  32.033  1.00  0.00    -0.744 OA
ENDBRANCH  88  89
ENDBRANCH  56  81
BRANCH  68  93
ATOM     93  C   UNL A   1      48.421  35.707  26.179  1.00  0.00     0.058 A 
ATOM     94  C   UNL A   1      49.169  36.429  25.235  1.00  0.00     0.135 A 
ATOM     95  C   UNL A   1      49.202  34.959  27.107  1.00  0.00     0.135 A 
ATOM     96  F   UNL A   1      48.600  37.309  24.401  1.00  0.00    -0.206 F 
ATOM     97  C   UNL A   1      50.549  36.298  25.119  1.00  0.00     0.059 A 
ATOM     98  C   UNL A   1      50.589  34.918  27.086  1.00  0.00     0.059 A 
ATOM     99  F   UNL A   1      48.654  34.231  28.092  1.00  0.00    -0.206 F 
ATOM    100  C   UNL A   1      51.247  35.527  26.038  1.00  0.00     0.060 A 
BRANCH 100 101
ATOM    101  S   UNL A   1      53.006  35.266  25.818  1.00  0.00     0.124 S 
ATOM    102  O   UNL A   1      53.374  34.734  27.127  1.00  0.00    -0.237 OA
ATOM    103  O   UNL A   1      53.053  34.314  24.713  1.00  0.00    -0.237 OA
ATOM    104  O   UNL A   1      53.513  36.600  25.514  1.00  0.00    -0.744 OA
ENDBRANCH 100 101
ENDBRANCH  68  93
ENDBRANCH  42  43
ENDBRANCH  35  37
ENDBRANCH  34  35
ENDBRANCH  33  34
ENDBRANCH  32  33
ENDBRANCH  31  32
ENDBRANCH  30  31
ENDBRANCH   1  30
TORSDOF 25
ENDMDL
MODEL 3
REMARK VINA RESULT:     -11.1      1.918      2.486
REMARK SMILES Cc1cc(S(=O)(=O)Nc2ccc(Cl)cc2F)ccc1OCC(=O)OCCOCCOCCOC(=O)c1ccc(-c2c3nc(c(-c4c(F)cc(S(=O)(=O)[O-])cc4F)c4ccc([nH]4)c(-c4c(F)cc(S(=O)(=O)[O-])cc4F)c4nc(c(-c5c(F)cc(S(=O)(=O)[O-])cc5F)c5ccc2[nH]5)C=C4)C=C3)cc1
REMARK SMILES IDX 28 1 27 2 26 3 25 4 24 5 22 6 23 7 21 8 20 9 19 10 1 11 2 12
REMARK SMILES IDX 3 13 4 14 18 15 17 16 5 17 6 18 7 19 8 20 9 22 10 23 15 24
REMARK SMILES IDX 11 25 14 26 16 27 12 28 13 29 29 30 30 31 31 32 32 33 33 34
REMARK SMILES IDX 34 35 35 36 36 37 37 38 101 39 38 40 100 41 39 42 40 43
REMARK SMILES IDX 41 44 94 45 42 46 99 47 93 48 95 49 43 50 98 51 92 52 91 53
REMARK SMILES IDX 44 55 78 56 57 57 77 58 58 59 61 60 76 61 96 62 59 63 60 64
REMARK SMILES IDX 75 66 97 67 62 68 45 69 46 70 55 71 47 72 48 73 54 74 56 75
REMARK SMILES IDX 49 76 50 77 51 78 52 79 53 80 79 81 80 82 89 83 81 84 82 85
REMARK SMILES IDX 88 86 90 87 83 88 84 89 85 90 86 91 87 92 63 93 64 94 73 95
REMARK SMILES IDX 65 96 66 97 72 98 74 99 67 100 68 101 69 102 70 103 71 104
REMARK H PARENT 8 21 95 54 61 65
REMARK Flexibility Score: inf
ROOT
ATOM      1  C   UNL A   1      34.534  33.713  30.429  1.00  0.00     0.188 C 
ENDROOT
BRANCH   1   2
ATOM      2  O   UNL A   1      34.960  32.937  29.286  1.00  0.00    -0.376 OA
BRANCH   2   3
ATOM      3  C   UNL A   1      34.136  32.473  28.178  1.00  0.00     0.202 C 
BRANCH   3   4
ATOM      4  C   UNL A   1      34.017  30.913  27.477  1.00  0.00     0.261 C 
BRANCH   4   5
ATOM      5  O   UNL A   1      32.661  29.975  27.092  1.00  0.00    -0.461 OA
BRANCH   5   6
ATOM      6  C   UNL A   1      31.876  28.682  27.353  1.00  0.00     0.344 C 
ATOM      7  O   UNL A   1      31.203  28.232  28.297  1.00  0.00    -0.248 OA
BRANCH   6   8
ATOM      8  C   UNL A   1      31.852  27.782  26.230  1.00  0.00     0.351 C 
BRANCH   8   9
ATOM      9  O   UNL A   1      31.496  26.720  27.078  1.00  0.00    -0.482 OA
BRANCH   9  10
ATOM     10  C   UNL A   1      30.727  25.827  26.281  1.00  0.00     0.123 A 
ATOM     11  C   UNL A   1      28.746  26.229  23.560  1.00  0.00     0.048 C 
ATOM     12  C   UNL A   1      29.942  25.733  24.405  1.00  0.00    -0.008 A 
ATOM     13  C   UNL A   1      30.306  24.162  23.503  1.00  0.00     0.029 A 
ATOM     14  C   UNL A   1      31.386  22.975  24.251  1.00  0.00     0.088 A 
ATOM     15  C   UNL A   1      31.679  24.436  26.873  1.00  0.00     0.048 A 
ATOM     16  C   UNL A   1      31.959  23.151  25.856  1.00  0.00     0.026 A 
BRANCH  14  17
ATOM     17  S   UNL A   1      32.491  22.006  23.134  1.00  0.00     0.262 S 
ATOM     18  O   UNL A   1      33.382  21.229  23.965  1.00  0.00    -0.201 OA
ATOM     19  O   UNL A   1      31.689  21.372  22.106  1.00  0.00    -0.201 OA
BRANCH  17  20
ATOM     20  N   UNL A   1      33.526  22.950  22.132  1.00  0.00    -0.277 N 
ATOM     21  H   UNL A   1      34.186  22.486  21.568  1.00  0.00     0.180 HD
BRANCH  20  22
ATOM     22  C   UNL A   1      33.469  24.390  22.082  1.00  0.00     0.085 A 
ATOM     23  C   UNL A   1      32.850  25.114  21.054  1.00  0.00     0.031 A 
ATOM     24  C   UNL A   1      33.995  25.084  23.184  1.00  0.00     0.148 A 
ATOM     25  C   UNL A   1      32.684  26.505  21.189  1.00  0.00     0.023 A 
ATOM     26  C   UNL A   1      33.789  26.452  23.343  1.00  0.00     0.062 A 
ATOM     27  F   UNL A   1      34.519  24.395  24.208  1.00  0.00    -0.205 F 
ATOM     28  C   UNL A   1      33.119  27.157  22.348  1.00  0.00     0.044 A 
ATOM     29  Cl  UNL A   1      32.763  28.824  22.588  1.00  0.00    -0.084 Cl
ENDBRANCH  20  22
ENDBRANCH  17  20
ENDBRANCH  14  17
ENDBRANCH   9  10
ENDBRANCH   8   9
ENDBRANCH   6   8
ENDBRANCH   5   6
ENDBRANCH   4   5
ENDBRANCH   3   4
ENDBRANCH   2   3
ENDBRANCH   1   2
BRANCH   1  30
ATOM     30  C   UNL A   1      34.127  33.121  31.789  1.00  0.00     0.188 C 
BRANCH  30  31
ATOM     31  O   UNL A   1      33.807  34.158  32.689  1.00  0.00    -0.376 OA
BRANCH  31  32
ATOM     32  C   UNL A   1      34.789  35.117  33.045  1.00  0.00     0.202 C 
BRANCH  32  33
ATOM     33  C   UNL A   1      36.100  34.656  33.747  1.00  0.00     0.261 C 
BRANCH  33  34
ATOM     34  O   UNL A   1      37.122  34.092  32.851  1.00  0.00    -0.460 OA
BRANCH  34  35
ATOM     35  C   UNL A   1      37.772  32.965  33.343  1.00  0.00     0.338 C 
ATOM     36  O   UNL A   1      37.114  32.035  33.792  1.00  0.00    -0.246 OA
BRANCH  35  37
ATOM     37  C   UNL A   1      39.376  33.328  33.718  1.00  0.00     0.060 A 
ATOM     38  C   UNL A   1      40.594  34.828  34.388  1.00  0.00     0.016 A 
ATOM     39  C   UNL A   1      39.710  32.757  32.083  1.00  0.00     0.016 A 
ATOM     40  C   UNL A   1      41.937  35.378  33.195  1.00  0.00     0.010 A 
ATOM     41  C   UNL A   1      40.887  33.510  31.151  1.00  0.00     0.010 A 
ATOM     42  C   UNL A   1      42.080  34.660  31.553  1.00  0.00    -0.014 A 
BRANCH  42  43
ATOM     43  C   UNL A   1      43.222  34.592  30.170  1.00  0.00     0.031 A 
ATOM     44  C   UNL A   1      44.263  33.230  29.521  1.00  0.00     0.074 A 
ATOM     45  C   UNL A   1      42.911  35.498  29.194  1.00  0.00     0.049 A 
ATOM     46  N   UNL A   1      45.431  33.320  28.905  1.00  0.00    -0.248 NA
ATOM     47  C   UNL A   1      44.112  31.624  29.631  1.00  0.00     0.031 C 
ATOM     48  C   UNL A   1      43.107  35.397  27.739  1.00  0.00     0.029 A 
ATOM     49  N   UNL A   1      42.294  36.752  29.313  1.00  0.00    -0.354 N 
ATOM     50  C   UNL A   1      45.774  31.960  28.559  1.00  0.00     0.074 A 
ATOM     51  C   UNL A   1      45.354  31.171  29.631  1.00  0.00     0.031 C 
ATOM     52  C   UNL A   1      42.865  36.588  27.153  1.00  0.00     0.029 A 
ATOM     53  C   UNL A   1      42.703  37.547  28.226  1.00  0.00     0.049 A 
ATOM     54  H   UNL A   1      41.681  37.028  30.033  1.00  0.00     0.167 HD
ATOM     55  C   UNL A   1      45.730  31.452  27.268  1.00  0.00     0.037 A 
ATOM     56  C   UNL A   1      43.530  38.599  28.477  1.00  0.00     0.037 A 
ATOM     57  C   UNL A   1      45.678  32.582  26.379  1.00  0.00     0.049 A 
ATOM     58  C   UNL A   1      44.919  38.260  27.955  1.00  0.00     0.074 A 
ATOM     59  C   UNL A   1      44.819  33.092  25.433  1.00  0.00     0.029 A 
ATOM     60  N   UNL A   1      46.561  33.589  26.691  1.00  0.00    -0.354 N 
ATOM     61  N   UNL A   1      45.322  37.031  27.732  1.00  0.00    -0.248 NA
ATOM     62  C   UNL A   1      45.882  39.235  27.452  1.00  0.00     0.031 C 
ATOM     63  C   UNL A   1      45.153  34.486  25.287  1.00  0.00     0.029 A 
ATOM     64  C   UNL A   1      46.211  34.784  26.136  1.00  0.00     0.049 A 
ATOM     65  H   UNL A   1      47.359  33.460  27.253  1.00  0.00     0.167 HD
ATOM     66  C   UNL A   1      46.476  37.030  27.008  1.00  0.00     0.074 A 
ATOM     67  C   UNL A   1      46.812  38.435  26.895  1.00  0.00     0.031 C 
ATOM     68  C   UNL A   1      47.063  35.912  26.486  1.00  0.00     0.037 A 
BRANCH  55  69
ATOM     69  C   UNL A   1      45.556  29.955  26.806  1.00  0.00     0.058 A 
ATOM     70  C   UNL A   1      46.701  29.244  26.376  1.00  0.00     0.135 A 
ATOM     71  C   UNL A   1      44.368  29.162  26.714  1.00  0.00     0.135 A 
ATOM     72  F   UNL A   1      47.898  29.847  26.334  1.00  0.00    -0.206 F 
ATOM     73  C   UNL A   1      46.689  27.895  25.960  1.00  0.00     0.059 A 
ATOM     74  C   UNL A   1      44.339  27.797  26.350  1.00  0.00     0.059 A 
ATOM     75  F   UNL A   1      43.138  29.657  26.899  1.00  0.00    -0.206 F 
ATOM     76  C   UNL A   1      45.509  27.165  25.977  1.00  0.00     0.060 A 
BRANCH  76  77
ATOM     77  S   UNL A   1      45.520  25.418  25.510  1.00  0.00     0.124 S 
ATOM     78  O   UNL A   1      45.774  24.759  26.788  1.00  0.00    -0.237 OA
ATOM     79  O   UNL A   1      44.183  25.236  24.956  1.00  0.00    -0.237 OA
ATOM     80  O   UNL A   1      46.609  25.325  24.540  1.00  0.00    -0.744 OA
ENDBRANCH  76  77
ENDBRANCH  55  69
BRANCH  56  81
ATOM     81  C   UNL A   1      43.032  39.364  29.675  1.00  0.00     0.058 A 
ATOM     82  C   UNL A   1      43.912  39.419  30.788  1.00  0.00     0.135 A 
ATOM     83  C   UNL A   1      42.082  40.398  29.597  1.00  0.00     0.135 A 
ATOM     84  F   UNL A   1      44.873  38.486  30.922  1.00  0.00    -0.206 F 
ATOM     85  C   UNL A   1      43.932  40.483  31.695  1.00  0.00     0.059 A 
ATOM     86  C   UNL A   1      42.075  41.474  30.509  1.00  0.00     0.059 A 
ATOM     87  F   UNL A   1      41.231  40.447  28.562  1.00  0.00    -0.206 F 
ATOM     88  C   UNL A   1      43.024  41.523  31.536  1.00  0.00     0.060 A 
BRANCH  88  89
ATOM     89  S   UNL A   1      43.218  42.991  32.599  1.00  0.00     0.124 S 
ATOM     90  O   UNL A   1      44.660  43.199  32.567  1.00  0.00    -0.237 OA
ATOM     91  O   UNL A   1      42.426  43.993  31.890  1.00  0.00    -0.237 OA
ATOM     92  O   UNL A   1      42.671  42.563  33.882  1.00  0.00    -0.744 OA
ENDBRANCH  88  89
ENDBRANCH  56  81
BRANCH  68  93
ATOM     93  C   UNL A   1      48.575  35.747  26.374  1.00  0.00     0.058 A 
ATOM     94  C   UNL A   1      49.331  36.280  25.317  1.00  0.00     0.135 A 
ATOM     95  C   UNL A   1      49.349  35.206  27.442  1.00  0.00     0.135 A 
ATOM     96  F   UNL A   1      48.767  36.971  24.318  1.00  0.00    -0.206 F 
ATOM     97  C   UNL A   1      50.715  36.151  25.250  1.00  0.00     0.059 A 
ATOM     98  C   UNL A   1      50.736  35.183  27.451  1.00  0.00     0.059 A 
ATOM     99  F   UNL A   1      48.792  34.677  28.542  1.00  0.00    -0.206 F 
ATOM    100  C   UNL A   1      51.406  35.585  26.314  1.00  0.00     0.060 A 
BRANCH 100 101
ATOM    101  S   UNL A   1      53.171  35.313  26.176  1.00  0.00     0.124 S 
ATOM    102  O   UNL A   1      53.654  36.684  26.040  1.00  0.00    -0.237 OA
ATOM    103  O   UNL A   1      53.494  34.651  27.435  1.00  0.00    -0.237 OA
ATOM    104  O   UNL A   1      53.295  34.479  24.984  1.00  0.00    -0.744 OA
ENDBRANCH 100 101
ENDBRANCH  68  93
ENDBRANCH  42  43
ENDBRANCH  35  37
ENDBRANCH  34  35
ENDBRANCH  33  34
ENDBRANCH  32  33
ENDBRANCH  31  32
ENDBRANCH  30  31
ENDBRANCH   1  30
TORSDOF 25
ENDMDL
