MODEL 1
REMARK VINA RESULT:      -9.3      0.000      0.000
REMARK SMILES O=C(/C=C\C(F)(C(F)(F)F)C(F)(F)F)OCCOCCOCCOC(=O)c1ccc(-c2c3nc(c(-c4c(F)cc(S(=O)(=O)[O-])cc4F)c4ccc([nH]4)c(-c4c(F)cc(S(=O)(=O)[O-])cc4F)c4nc(c(-c5c(F)cc(S(=O)(=O)[O-])cc5F)c5ccc2[nH]5)C=C4)C=C3)cc1
REMARK SMILES IDX 20 1 19 2 18 3 17 4 16 5 15 6 2 7 1 8 3 9 4 10 5 11 6 12
REMARK SMILES IDX 7 13 8 14 9 15 10 16 11 17 12 18 13 19 14 20 21 21 22 22
REMARK SMILES IDX 23 23 24 24 25 25 26 26 27 27 28 28 92 29 29 30 91 31 30 32
REMARK SMILES IDX 31 33 32 34 85 35 33 36 90 37 84 38 86 39 34 40 89 41 83 42
REMARK SMILES IDX 82 43 35 45 69 46 48 47 68 48 49 49 52 50 67 51 87 52 50 53
REMARK SMILES IDX 51 54 66 56 88 57 53 58 36 59 37 60 46 61 38 62 39 63 45 64
REMARK SMILES IDX 47 65 40 66 41 67 42 68 43 69 44 70 70 71 71 72 80 73 72 74
REMARK SMILES IDX 73 75 79 76 81 77 74 78 75 79 76 80 77 81 78 82 54 83 55 84
REMARK SMILES IDX 64 85 56 86 57 87 63 88 65 89 58 90 59 91 60 92 61 93 62 94
REMARK H PARENT 86 44 52 55
REMARK Flexibility Score: inf
ROOT
ATOM      1  C   UNL A   1      33.764  33.114  27.992  1.00  0.00     0.188 C 
ENDROOT
BRANCH   1   2
ATOM      2  C   UNL A   1      33.854  31.588  27.841  1.00  0.00     0.188 C 
BRANCH   2   3
ATOM      3  O   UNL A   1      33.102  30.889  26.860  1.00  0.00    -0.376 OA
BRANCH   3   4
ATOM      4  C   UNL A   1      33.597  29.678  26.341  1.00  0.00     0.202 C 
BRANCH   4   5
ATOM      5  C   UNL A   1      32.587  28.870  25.534  1.00  0.00     0.261 C 
BRANCH   5   6
ATOM      6  O   UNL A   1      32.559  29.016  24.095  1.00  0.00    -0.460 OA
BRANCH   6   7
ATOM      7  C   UNL A   1      32.925  28.208  23.087  1.00  0.00     0.330 C 
ATOM      8  O   UNL A   1      34.027  28.344  22.560  1.00  0.00    -0.247 OA
BRANCH   7   9
ATOM      9  C   UNL A   1      31.990  27.269  22.452  1.00  0.00     0.093 C 
ATOM     10  C   UNL A   1      31.617  25.996  22.663  1.00  0.00     0.040 C 
BRANCH  10  11
ATOM     11  C   UNL A   1      32.020  24.944  23.689  1.00  0.00     0.317 C 
ATOM     12  F   UNL A   1      31.856  25.492  24.937  1.00  0.00    -0.219 F 
BRANCH  11  13
ATOM     13  C   UNL A   1      31.113  23.722  23.606  1.00  0.00     0.435 C 
ATOM     14  F   UNL A   1      31.603  22.766  22.786  1.00  0.00    -0.167 F 
ATOM     15  F   UNL A   1      30.897  23.152  24.812  1.00  0.00    -0.167 F 
ATOM     16  F   UNL A   1      29.888  24.058  23.120  1.00  0.00    -0.167 F 
ENDBRANCH  11  13
BRANCH  11  17
ATOM     17  C   UNL A   1      33.430  24.390  23.587  1.00  0.00     0.435 C 
ATOM     18  F   UNL A   1      34.375  25.307  23.881  1.00  0.00    -0.167 F 
ATOM     19  F   UNL A   1      33.622  23.348  24.430  1.00  0.00    -0.167 F 
ATOM     20  F   UNL A   1      33.698  23.917  22.346  1.00  0.00    -0.167 F 
ENDBRANCH  11  17
ENDBRANCH  10  11
ENDBRANCH   7   9
ENDBRANCH   6   7
ENDBRANCH   5   6
ENDBRANCH   4   5
ENDBRANCH   3   4
ENDBRANCH   2   3
ENDBRANCH   1   2
BRANCH   1  21
ATOM     21  O   UNL A   1      34.789  33.696  28.797  1.00  0.00    -0.376 OA
BRANCH  21  22
ATOM     22  C   UNL A   1      34.499  33.846  30.184  1.00  0.00     0.202 C 
BRANCH  22  23
ATOM     23  C   UNL A   1      35.094  32.742  31.072  1.00  0.00     0.261 C 
BRANCH  23  24
ATOM     24  O   UNL A   1      36.242  32.064  30.539  1.00  0.00    -0.460 OA
BRANCH  24  25
ATOM     25  C   UNL A   1      37.372  32.084  31.282  1.00  0.00     0.338 C 
ATOM     26  O   UNL A   1      37.553  32.672  32.327  1.00  0.00    -0.246 OA
BRANCH  25  27
ATOM     27  C   UNL A   1      38.326  31.118  30.700  1.00  0.00     0.060 A 
ATOM     28  C   UNL A   1      39.219  30.465  31.561  1.00  0.00     0.016 A 
ATOM     29  C   UNL A   1      38.364  30.889  29.323  1.00  0.00     0.016 A 
ATOM     30  C   UNL A   1      40.216  29.647  31.031  1.00  0.00     0.010 A 
ATOM     31  C   UNL A   1      39.372  30.082  28.793  1.00  0.00     0.010 A 
ATOM     32  C   UNL A   1      40.336  29.511  29.641  1.00  0.00    -0.014 A 
BRANCH  32  33
ATOM     33  C   UNL A   1      41.624  29.050  29.072  1.00  0.00     0.031 A 
ATOM     34  C   UNL A   1      42.737  30.062  28.968  1.00  0.00     0.074 A 
ATOM     35  C   UNL A   1      41.818  27.782  28.673  1.00  0.00     0.049 A 
ATOM     36  N   UNL A   1      43.950  29.924  28.505  1.00  0.00    -0.248 NA
ATOM     37  C   UNL A   1      42.430  31.420  29.453  1.00  0.00     0.031 C 
ATOM     38  C   UNL A   1      40.831  26.708  28.750  1.00  0.00     0.029 A 
ATOM     39  N   UNL A   1      42.923  27.189  28.119  1.00  0.00    -0.354 N 
ATOM     40  C   UNL A   1      44.547  31.172  28.635  1.00  0.00     0.074 A 
ATOM     41  C   UNL A   1      43.555  32.065  29.191  1.00  0.00     0.031 C 
ATOM     42  C   UNL A   1      41.376  25.582  28.254  1.00  0.00     0.029 A 
ATOM     43  C   UNL A   1      42.742  25.863  27.810  1.00  0.00     0.049 A 
ATOM     44  H   UNL A   1      43.768  27.668  27.957  1.00  0.00     0.167 HD
ATOM     45  C   UNL A   1      45.812  31.545  28.328  1.00  0.00     0.037 A 
ATOM     46  C   UNL A   1      43.584  24.984  27.230  1.00  0.00     0.037 A 
ATOM     47  C   UNL A   1      46.795  30.659  27.769  1.00  0.00     0.049 A 
ATOM     48  C   UNL A   1      44.975  25.430  26.854  1.00  0.00     0.074 A 
ATOM     49  C   UNL A   1      48.108  30.931  27.432  1.00  0.00     0.029 A 
ATOM     50  N   UNL A   1      46.566  29.328  27.457  1.00  0.00    -0.354 N 
ATOM     51  N   UNL A   1      45.536  26.606  27.009  1.00  0.00    -0.248 NA
ATOM     52  C   UNL A   1      45.848  24.424  26.231  1.00  0.00     0.031 C 
ATOM     53  C   UNL A   1      48.663  29.771  26.881  1.00  0.00     0.029 A 
ATOM     54  C   UNL A   1      47.710  28.766  26.917  1.00  0.00     0.049 A 
ATOM     55  H   UNL A   1      45.717  28.851  27.600  1.00  0.00     0.167 HD
ATOM     56  C   UNL A   1      46.840  26.471  26.538  1.00  0.00     0.074 A 
ATOM     57  C   UNL A   1      46.981  25.101  26.091  1.00  0.00     0.031 C 
ATOM     58  C   UNL A   1      47.832  27.395  26.491  1.00  0.00     0.037 A 
BRANCH  45  59
ATOM     59  C   UNL A   1      46.173  32.984  28.564  1.00  0.00     0.058 A 
ATOM     60  C   UNL A   1      45.936  33.973  27.594  1.00  0.00     0.135 A 
ATOM     61  C   UNL A   1      46.792  33.373  29.761  1.00  0.00     0.135 A 
ATOM     62  F   UNL A   1      45.370  33.649  26.421  1.00  0.00    -0.206 F 
ATOM     63  C   UNL A   1      46.340  35.289  27.788  1.00  0.00     0.059 A 
ATOM     64  C   UNL A   1      47.181  34.690  29.986  1.00  0.00     0.059 A 
ATOM     65  F   UNL A   1      47.046  32.466  30.717  1.00  0.00    -0.206 F 
ATOM     66  C   UNL A   1      46.971  35.636  28.984  1.00  0.00     0.060 A 
BRANCH  66  67
ATOM     67  S   UNL A   1      47.523  37.339  29.211  1.00  0.00     0.124 S 
ATOM     68  O   UNL A   1      48.700  37.379  28.348  1.00  0.00    -0.237 OA
ATOM     69  O   UNL A   1      46.373  38.109  28.749  1.00  0.00    -0.237 OA
ATOM     70  O   UNL A   1      47.792  37.419  30.643  1.00  0.00    -0.744 OA
ENDBRANCH  66  67
ENDBRANCH  45  59
BRANCH  46  71
ATOM     71  C   UNL A   1      43.145  23.585  26.991  1.00  0.00     0.058 A 
ATOM     72  C   UNL A   1      42.886  23.123  25.691  1.00  0.00     0.135 A 
ATOM     73  C   UNL A   1      42.986  22.679  28.051  1.00  0.00     0.135 A 
ATOM     74  F   UNL A   1      43.012  23.956  24.648  1.00  0.00    -0.206 F 
ATOM     75  C   UNL A   1      42.481  21.814  25.450  1.00  0.00     0.059 A 
ATOM     76  C   UNL A   1      42.600  21.360  27.832  1.00  0.00     0.059 A 
ATOM     77  F   UNL A   1      43.229  23.071  29.311  1.00  0.00    -0.206 F 
ATOM     78  C   UNL A   1      42.345  20.938  26.529  1.00  0.00     0.060 A 
BRANCH  78  79
ATOM     79  S   UNL A   1      41.884  19.223  26.199  1.00  0.00     0.124 S 
ATOM     80  O   UNL A   1      42.313  18.563  27.426  1.00  0.00    -0.237 OA
ATOM     81  O   UNL A   1      40.441  19.326  25.998  1.00  0.00    -0.237 OA
ATOM     82  O   UNL A   1      42.652  18.895  25.002  1.00  0.00    -0.744 OA
ENDBRANCH  78  79
ENDBRANCH  46  71
BRANCH  58  83
ATOM     83  C   UNL A   1      49.175  26.945  25.984  1.00  0.00     0.058 A 
ATOM     84  C   UNL A   1      49.553  27.104  24.643  1.00  0.00     0.135 A 
ATOM     85  C   UNL A   1      50.115  26.396  26.872  1.00  0.00     0.135 A 
ATOM     86  F   UNL A   1      48.690  27.621  23.754  1.00  0.00    -0.206 F 
ATOM     87  C   UNL A   1      50.809  26.710  24.192  1.00  0.00     0.059 A 
ATOM     88  C   UNL A   1      51.384  26.018  26.448  1.00  0.00     0.059 A 
ATOM     89  F   UNL A   1      49.808  26.238  28.169  1.00  0.00    -0.206 F 
ATOM     90  C   UNL A   1      51.718  26.166  25.103  1.00  0.00     0.060 A 
BRANCH  90  91
ATOM     91  S   UNL A   1      53.355  25.682  24.515  1.00  0.00     0.124 S 
ATOM     92  O   UNL A   1      53.395  24.272  24.888  1.00  0.00    -0.237 OA
ATOM     93  O   UNL A   1      53.270  25.957  23.083  1.00  0.00    -0.237 OA
ATOM     94  O   UNL A   1      54.255  26.557  25.261  1.00  0.00    -0.744 OA
ENDBRANCH  90  91
ENDBRANCH  58  83
ENDBRANCH  32  33
ENDBRANCH  25  27
ENDBRANCH  24  25
ENDBRANCH  23  24
ENDBRANCH  22  23
ENDBRANCH  21  22
ENDBRANCH   1  21
TORSDOF 23
ENDMDL
MODEL 2
REMARK VINA RESULT:      -9.2      6.181     12.107
REMARK SMILES O=C(/C=C\C(F)(C(F)(F)F)C(F)(F)F)OCCOCCOCCOC(=O)c1ccc(-c2c3nc(c(-c4c(F)cc(S(=O)(=O)[O-])cc4F)c4ccc([nH]4)c(-c4c(F)cc(S(=O)(=O)[O-])cc4F)c4nc(c(-c5c(F)cc(S(=O)(=O)[O-])cc5F)c5ccc2[nH]5)C=C4)C=C3)cc1
REMARK SMILES IDX 20 1 19 2 18 3 17 4 16 5 15 6 2 7 1 8 3 9 4 10 5 11 6 12
REMARK SMILES IDX 7 13 8 14 9 15 10 16 11 17 12 18 13 19 14 20 21 21 22 22
REMARK SMILES IDX 23 23 24 24 25 25 26 26 27 27 28 28 92 29 29 30 91 31 30 32
REMARK SMILES IDX 31 33 32 34 85 35 33 36 90 37 84 38 86 39 34 40 89 41 83 42
REMARK SMILES IDX 82 43 35 45 69 46 48 47 68 48 49 49 52 50 67 51 87 52 50 53
REMARK SMILES IDX 51 54 66 56 88 57 53 58 36 59 37 60 46 61 38 62 39 63 45 64
REMARK SMILES IDX 47 65 40 66 41 67 42 68 43 69 44 70 70 71 71 72 80 73 72 74
REMARK SMILES IDX 73 75 79 76 81 77 74 78 75 79 76 80 77 81 78 82 54 83 55 84
REMARK SMILES IDX 64 85 56 86 57 87 63 88 65 89 58 90 59 91 60 92 61 93 62 94
REMARK H PARENT 86 44 52 55
REMARK Flexibility Score: inf
ROOT
ATOM      1  C   UNL A   1      39.260  22.169  26.610  1.00  0.00     0.188 C 
ENDROOT
BRANCH   1   2
ATOM      2  C   UNL A   1      38.684  21.223  25.545  1.00  0.00     0.188 C 
BRANCH   2   3
ATOM      3  O   UNL A   1      37.679  21.647  24.636  1.00  0.00    -0.376 OA
BRANCH   3   4
ATOM      4  C   UNL A   1      36.326  21.572  25.016  1.00  0.00     0.202 C 
BRANCH   4   5
ATOM      5  C   UNL A   1      35.772  22.843  25.652  1.00  0.00     0.261 C 
BRANCH   5   6
ATOM      6  O   UNL A   1      35.063  23.792  24.822  1.00  0.00    -0.460 OA
BRANCH   6   7
ATOM      7  C   UNL A   1      34.025  24.612  25.054  1.00  0.00     0.330 C 
ATOM      8  O   UNL A   1      33.291  24.415  26.020  1.00  0.00    -0.247 OA
BRANCH   7   9
ATOM      9  C   UNL A   1      33.608  25.646  24.096  1.00  0.00     0.093 C 
ATOM     10  C   UNL A   1      33.186  26.917  24.180  1.00  0.00     0.040 C 
BRANCH  10  11
ATOM     11  C   UNL A   1      32.946  27.865  25.349  1.00  0.00     0.317 C 
ATOM     12  F   UNL A   1      34.038  27.792  26.177  1.00  0.00    -0.219 F 
BRANCH  11  13
ATOM     13  C   UNL A   1      32.833  29.308  24.870  1.00  0.00     0.435 C 
ATOM     14  F   UNL A   1      31.565  29.652  24.553  1.00  0.00    -0.167 F 
ATOM     15  F   UNL A   1      33.280  30.196  25.785  1.00  0.00    -0.167 F 
ATOM     16  F   UNL A   1      33.579  29.508  23.751  1.00  0.00    -0.167 F 
ENDBRANCH  11  13
BRANCH  11  17
ATOM     17  C   UNL A   1      31.696  27.631  26.178  1.00  0.00     0.435 C 
ATOM     18  F   UNL A   1      30.653  27.194  25.441  1.00  0.00    -0.167 F 
ATOM     19  F   UNL A   1      31.902  26.708  27.147  1.00  0.00    -0.167 F 
ATOM     20  F   UNL A   1      31.297  28.756  26.817  1.00  0.00    -0.167 F 
ENDBRANCH  11  17
ENDBRANCH  10  11
ENDBRANCH   7   9
ENDBRANCH   6   7
ENDBRANCH   5   6
ENDBRANCH   4   5
ENDBRANCH   3   4
ENDBRANCH   2   3
ENDBRANCH   1   2
BRANCH   1  21
ATOM     21  O   UNL A   1      40.251  23.076  26.129  1.00  0.00    -0.376 OA
BRANCH  21  22
ATOM     22  C   UNL A   1      41.610  22.679  26.294  1.00  0.00     0.202 C 
BRANCH  22  23
ATOM     23  C   UNL A   1      42.608  23.493  25.456  1.00  0.00     0.261 C 
BRANCH  23  24
ATOM     24  O   UNL A   1      43.060  24.721  26.045  1.00  0.00    -0.460 OA
BRANCH  24  25
ATOM     25  C   UNL A   1      42.194  25.761  26.049  1.00  0.00     0.338 C 
ATOM     26  O   UNL A   1      41.437  26.089  25.160  1.00  0.00    -0.246 OA
BRANCH  25  27
ATOM     27  C   UNL A   1      42.186  26.352  27.403  1.00  0.00     0.060 A 
ATOM     28  C   UNL A   1      41.152  25.995  28.278  1.00  0.00     0.016 A 
ATOM     29  C   UNL A   1      43.161  27.275  27.787  1.00  0.00     0.016 A 
ATOM     30  C   UNL A   1      41.042  26.631  29.514  1.00  0.00     0.010 A 
ATOM     31  C   UNL A   1      43.041  27.923  29.018  1.00  0.00     0.010 A 
ATOM     32  C   UNL A   1      41.946  27.646  29.855  1.00  0.00    -0.014 A 
BRANCH  32  33
ATOM     33  C   UNL A   1      41.573  28.618  30.909  1.00  0.00     0.031 A 
ATOM     34  C   UNL A   1      42.388  28.611  32.177  1.00  0.00     0.074 A 
ATOM     35  C   UNL A   1      40.562  29.489  30.754  1.00  0.00     0.049 A 
ATOM     36  N   UNL A   1      42.268  29.346  33.250  1.00  0.00    -0.248 NA
ATOM     37  C   UNL A   1      43.488  27.632  32.240  1.00  0.00     0.031 C 
ATOM     38  C   UNL A   1      39.722  29.612  29.565  1.00  0.00     0.029 A 
ATOM     39  N   UNL A   1      40.073  30.438  31.615  1.00  0.00    -0.354 N 
ATOM     40  C   UNL A   1      43.268  28.916  34.115  1.00  0.00     0.074 A 
ATOM     41  C   UNL A   1      43.967  27.836  33.456  1.00  0.00     0.031 C 
ATOM     42  C   UNL A   1      38.814  30.582  29.774  1.00  0.00     0.029 A 
ATOM     43  C   UNL A   1      38.999  31.134  31.117  1.00  0.00     0.049 A 
ATOM     44  H   UNL A   1      40.456  30.605  32.506  1.00  0.00     0.167 HD
ATOM     45  C   UNL A   1      43.586  29.384  35.345  1.00  0.00     0.037 A 
ATOM     46  C   UNL A   1      38.252  32.101  31.687  1.00  0.00     0.037 A 
ATOM     47  C   UNL A   1      42.887  30.454  36.001  1.00  0.00     0.049 A 
ATOM     48  C   UNL A   1      38.593  32.577  33.077  1.00  0.00     0.074 A 
ATOM     49  C   UNL A   1      43.134  31.011  37.242  1.00  0.00     0.029 A 
ATOM     50  N   UNL A   1      41.795  31.122  35.469  1.00  0.00    -0.354 N 
ATOM     51  N   UNL A   1      39.560  32.182  33.872  1.00  0.00    -0.248 NA
ATOM     52  C   UNL A   1      37.746  33.637  33.642  1.00  0.00     0.031 C 
ATOM     53  C   UNL A   1      42.166  31.994  37.476  1.00  0.00     0.029 A 
ATOM     54  C   UNL A   1      41.345  32.078  36.362  1.00  0.00     0.049 A 
ATOM     55  H   UNL A   1      41.398  30.943  34.586  1.00  0.00     0.167 HD
ATOM     56  C   UNL A   1      39.460  32.971  35.015  1.00  0.00     0.074 A 
ATOM     57  C   UNL A   1      38.337  33.863  34.807  1.00  0.00     0.031 C 
ATOM     58  C   UNL A   1      40.234  32.966  36.129  1.00  0.00     0.037 A 
BRANCH  45  59
ATOM     59  C   UNL A   1      44.719  28.703  36.059  1.00  0.00     0.058 A 
ATOM     60  C   UNL A   1      44.502  27.609  36.914  1.00  0.00     0.135 A 
ATOM     61  C   UNL A   1      46.034  29.171  35.911  1.00  0.00     0.135 A 
ATOM     62  F   UNL A   1      43.260  27.139  37.109  1.00  0.00    -0.206 F 
ATOM     63  C   UNL A   1      45.544  27.031  37.630  1.00  0.00     0.059 A 
ATOM     64  C   UNL A   1      47.095  28.590  36.598  1.00  0.00     0.059 A 
ATOM     65  F   UNL A   1      46.293  30.217  35.112  1.00  0.00    -0.206 F 
ATOM     66  C   UNL A   1      46.837  27.535  37.472  1.00  0.00     0.060 A 
BRANCH  66  67
ATOM     67  S   UNL A   1      48.177  26.800  38.432  1.00  0.00     0.124 S 
ATOM     68  O   UNL A   1      47.474  25.732  39.138  1.00  0.00    -0.237 OA
ATOM     69  O   UNL A   1      49.108  26.369  37.395  1.00  0.00    -0.237 OA
ATOM     70  O   UNL A   1      48.640  27.905  39.267  1.00  0.00    -0.744 OA
ENDBRANCH  66  67
ENDBRANCH  45  59
BRANCH  46  71
ATOM     71  C   UNL A   1      37.119  32.702  30.936  1.00  0.00     0.058 A 
ATOM     72  C   UNL A   1      35.813  32.212  31.086  1.00  0.00     0.135 A 
ATOM     73  C   UNL A   1      37.316  33.784  30.064  1.00  0.00     0.135 A 
ATOM     74  F   UNL A   1      35.579  31.171  31.899  1.00  0.00    -0.206 F 
ATOM     75  C   UNL A   1      34.742  32.768  30.395  1.00  0.00     0.059 A 
ATOM     76  C   UNL A   1      36.257  34.369  29.376  1.00  0.00     0.059 A 
ATOM     77  F   UNL A   1      38.546  34.294  29.892  1.00  0.00    -0.206 F 
ATOM     78  C   UNL A   1      34.974  33.851  29.544  1.00  0.00     0.060 A 
BRANCH  78  79
ATOM     79  S   UNL A   1      33.567  34.609  28.704  1.00  0.00     0.124 S 
ATOM     80  O   UNL A   1      33.153  33.541  27.801  1.00  0.00    -0.237 OA
ATOM     81  O   UNL A   1      32.663  34.895  29.814  1.00  0.00    -0.237 OA
ATOM     82  O   UNL A   1      34.153  35.784  28.066  1.00  0.00    -0.744 OA
ENDBRANCH  78  79
ENDBRANCH  46  71
BRANCH  58  83
ATOM     83  C   UNL A   1      39.928  33.986  37.191  1.00  0.00     0.058 A 
ATOM     84  C   UNL A   1      38.956  33.762  38.176  1.00  0.00     0.135 A 
ATOM     85  C   UNL A   1      40.663  35.182  37.251  1.00  0.00     0.135 A 
ATOM     86  F   UNL A   1      38.226  32.635  38.162  1.00  0.00    -0.206 F 
ATOM     87  C   UNL A   1      38.702  34.701  39.172  1.00  0.00     0.059 A 
ATOM     88  C   UNL A   1      40.442  36.124  38.250  1.00  0.00     0.059 A 
ATOM     89  F   UNL A   1      41.615  35.437  36.340  1.00  0.00    -0.206 F 
ATOM     90  C   UNL A   1      39.450  35.881  39.199  1.00  0.00     0.060 A 
BRANCH  90  91
ATOM     91  S   UNL A   1      39.133  37.082  40.508  1.00  0.00     0.124 S 
ATOM     92  O   UNL A   1      38.599  36.231  41.565  1.00  0.00    -0.237 OA
ATOM     93  O   UNL A   1      40.460  37.640  40.753  1.00  0.00    -0.237 OA
ATOM     94  O   UNL A   1      38.177  38.003  39.898  1.00  0.00    -0.744 OA
ENDBRANCH  90  91
ENDBRANCH  58  83
ENDBRANCH  32  33
ENDBRANCH  25  27
ENDBRANCH  24  25
ENDBRANCH  23  24
ENDBRANCH  22  23
ENDBRANCH  21  22
ENDBRANCH   1  21
TORSDOF 23
ENDMDL
MODEL 3
REMARK VINA RESULT:      -9.2      5.950      8.415
REMARK SMILES O=C(/C=C\C(F)(C(F)(F)F)C(F)(F)F)OCCOCCOCCOC(=O)c1ccc(-c2c3nc(c(-c4c(F)cc(S(=O)(=O)[O-])cc4F)c4ccc([nH]4)c(-c4c(F)cc(S(=O)(=O)[O-])cc4F)c4nc(c(-c5c(F)cc(S(=O)(=O)[O-])cc5F)c5ccc2[nH]5)C=C4)C=C3)cc1
REMARK SMILES IDX 20 1 19 2 18 3 17 4 16 5 15 6 2 7 1 8 3 9 4 10 5 11 6 12
REMARK SMILES IDX 7 13 8 14 9 15 10 16 11 17 12 18 13 19 14 20 21 21 22 22
REMARK SMILES IDX 23 23 24 24 25 25 26 26 27 27 28 28 92 29 29 30 91 31 30 32
REMARK SMILES IDX 31 33 32 34 85 35 33 36 90 37 84 38 86 39 34 40 89 41 83 42
REMARK SMILES IDX 82 43 35 45 69 46 48 47 68 48 49 49 52 50 67 51 87 52 50 53
REMARK SMILES IDX 51 54 66 56 88 57 53 58 36 59 37 60 46 61 38 62 39 63 45 64
REMARK SMILES IDX 47 65 40 66 41 67 42 68 43 69 44 70 70 71 71 72 80 73 72 74
REMARK SMILES IDX 73 75 79 76 81 77 74 78 75 79 76 80 77 81 78 82 54 83 55 84
REMARK SMILES IDX 64 85 56 86 57 87 63 88 65 89 58 90 59 91 60 92 61 93 62 94
REMARK H PARENT 86 44 52 55
REMARK Flexibility Score: inf
ROOT
ATOM      1  C   UNL A   1      33.246  34.814  29.010  1.00  0.00     0.188 C 
ENDROOT
BRANCH   1   2
ATOM      2  C   UNL A   1      33.210  36.286  29.445  1.00  0.00     0.188 C 
BRANCH   2   3
ATOM      3  O   UNL A   1      33.064  36.659  30.808  1.00  0.00    -0.376 OA
BRANCH   3   4
ATOM      4  C   UNL A   1      32.877  35.661  31.781  1.00  0.00     0.202 C 
BRANCH   4   5
ATOM      5  C   UNL A   1      34.063  35.452  32.717  1.00  0.00     0.261 C 
BRANCH   5   6
ATOM      6  O   UNL A   1      34.501  34.105  33.007  1.00  0.00    -0.460 OA
BRANCH   6   7
ATOM      7  C   UNL A   1      35.008  33.124  32.244  1.00  0.00     0.330 C 
ATOM      8  O   UNL A   1      34.280  32.514  31.465  1.00  0.00    -0.247 OA
BRANCH   7   9
ATOM      9  C   UNL A   1      36.376  32.616  32.420  1.00  0.00     0.093 C 
ATOM     10  C   UNL A   1      37.431  32.943  33.182  1.00  0.00     0.040 C 
BRANCH  10  11
ATOM     11  C   UNL A   1      37.670  34.024  34.229  1.00  0.00     0.317 C 
ATOM     12  F   UNL A   1      36.939  35.128  33.864  1.00  0.00    -0.219 F 
BRANCH  11  13
ATOM     13  C   UNL A   1      37.171  33.581  35.599  1.00  0.00     0.435 C 
ATOM     14  F   UNL A   1      35.856  33.835  35.780  1.00  0.00    -0.167 F 
ATOM     15  F   UNL A   1      37.364  32.262  35.821  1.00  0.00    -0.167 F 
ATOM     16  F   UNL A   1      37.832  34.234  36.592  1.00  0.00    -0.167 F 
ENDBRANCH  11  13
BRANCH  11  17
ATOM     17  C   UNL A   1      39.108  34.453  34.458  1.00  0.00     0.435 C 
ATOM     18  F   UNL A   1      39.806  34.580  33.310  1.00  0.00    -0.167 F 
ATOM     19  F   UNL A   1      39.181  35.647  35.093  1.00  0.00    -0.167 F 
ATOM     20  F   UNL A   1      39.777  33.575  35.243  1.00  0.00    -0.167 F 
ENDBRANCH  11  17
ENDBRANCH  10  11
ENDBRANCH   7   9
ENDBRANCH   6   7
ENDBRANCH   5   6
ENDBRANCH   4   5
ENDBRANCH   3   4
ENDBRANCH   2   3
ENDBRANCH   1   2
BRANCH   1  21
ATOM     21  O   UNL A   1      34.137  34.531  27.932  1.00  0.00    -0.376 OA
BRANCH  21  22
ATOM     22  C   UNL A   1      34.963  33.378  28.077  1.00  0.00     0.202 C 
BRANCH  22  23
ATOM     23  C   UNL A   1      34.296  32.069  27.628  1.00  0.00     0.261 C 
BRANCH  23  24
ATOM     24  O   UNL A   1      34.472  30.946  28.506  1.00  0.00    -0.460 OA
BRANCH  24  25
ATOM     25  C   UNL A   1      35.259  29.936  28.067  1.00  0.00     0.338 C 
ATOM     26  O   UNL A   1      35.071  29.225  27.103  1.00  0.00    -0.246 OA
BRANCH  25  27
ATOM     27  C   UNL A   1      36.504  29.941  28.862  1.00  0.00     0.060 A 
ATOM     28  C   UNL A   1      37.620  30.612  28.346  1.00  0.00     0.016 A 
ATOM     29  C   UNL A   1      36.580  29.259  30.079  1.00  0.00     0.016 A 
ATOM     30  C   UNL A   1      38.845  30.527  29.007  1.00  0.00     0.010 A 
ATOM     31  C   UNL A   1      37.810  29.162  30.732  1.00  0.00     0.010 A 
ATOM     32  C   UNL A   1      38.956  29.743  30.163  1.00  0.00    -0.014 A 
BRANCH  32  33
ATOM     33  C   UNL A   1      40.296  29.275  30.589  1.00  0.00     0.031 A 
ATOM     34  C   UNL A   1      40.931  29.971  31.766  1.00  0.00     0.074 A 
ATOM     35  C   UNL A   1      40.930  28.262  29.974  1.00  0.00     0.049 A 
ATOM     36  N   UNL A   1      42.090  29.764  32.332  1.00  0.00    -0.248 NA
ATOM     37  C   UNL A   1      40.145  31.054  32.384  1.00  0.00     0.031 C 
ATOM     38  C   UNL A   1      40.407  27.494  28.847  1.00  0.00     0.029 A 
ATOM     39  N   UNL A   1      42.161  27.711  30.219  1.00  0.00    -0.354 N 
ATOM     40  C   UNL A   1      42.175  30.691  33.364  1.00  0.00     0.074 A 
ATOM     41  C   UNL A   1      40.966  31.483  33.329  1.00  0.00     0.031 C 
ATOM     42  C   UNL A   1      41.319  26.569  28.493  1.00  0.00     0.029 A 
ATOM     43  C   UNL A   1      42.493  26.695  29.358  1.00  0.00     0.049 A 
ATOM     44  H   UNL A   1      42.753  28.015  30.945  1.00  0.00     0.167 HD
ATOM     45  C   UNL A   1      43.166  30.865  34.270  1.00  0.00     0.037 A 
ATOM     46  C   UNL A   1      43.619  25.957  29.278  1.00  0.00     0.037 A 
ATOM     47  C   UNL A   1      44.370  30.083  34.301  1.00  0.00     0.049 A 
ATOM     48  C   UNL A   1      44.732  26.196  30.267  1.00  0.00     0.074 A 
ATOM     49  C   UNL A   1      45.432  30.169  35.181  1.00  0.00     0.029 A 
ATOM     50  N   UNL A   1      44.674  29.073  33.400  1.00  0.00    -0.354 N 
ATOM     51  N   UNL A   1      44.787  27.057  31.257  1.00  0.00    -0.248 NA
ATOM     52  C   UNL A   1      45.931  25.357  30.133  1.00  0.00     0.031 C 
ATOM     53  C   UNL A   1      46.397  29.233  34.790  1.00  0.00     0.029 A 
ATOM     54  C   UNL A   1      45.915  28.535  33.694  1.00  0.00     0.049 A 
ATOM     55  H   UNL A   1      44.092  28.779  32.662  1.00  0.00     0.167 HD
ATOM     56  C   UNL A   1      46.010  26.836  31.886  1.00  0.00     0.074 A 
ATOM     57  C   UNL A   1      46.662  25.764  31.162  1.00  0.00     0.031 C 
ATOM     58  C   UNL A   1      46.539  27.458  32.969  1.00  0.00     0.037 A 
BRANCH  45  59
ATOM     59  C   UNL A   1      42.987  31.972  35.269  1.00  0.00     0.058 A 
ATOM     60  C   UNL A   1      42.434  31.738  36.540  1.00  0.00     0.135 A 
ATOM     61  C   UNL A   1      43.342  33.290  34.941  1.00  0.00     0.135 A 
ATOM     62  F   UNL A   1      42.054  30.500  36.894  1.00  0.00    -0.206 F 
ATOM     63  C   UNL A   1      42.201  32.778  37.432  1.00  0.00     0.059 A 
ATOM     64  C   UNL A   1      43.141  34.341  35.829  1.00  0.00     0.059 A 
ATOM     65  F   UNL A   1      43.868  33.568  33.738  1.00  0.00    -0.206 F 
ATOM     66  C   UNL A   1      42.550  34.079  37.064  1.00  0.00     0.060 A 
BRANCH  66  67
ATOM     67  S   UNL A   1      42.211  35.426  38.215  1.00  0.00     0.124 S 
ATOM     68  O   UNL A   1      42.852  34.934  39.432  1.00  0.00    -0.237 OA
ATOM     69  O   UNL A   1      42.862  36.562  37.573  1.00  0.00    -0.237 OA
ATOM     70  O   UNL A   1      40.753  35.481  38.253  1.00  0.00    -0.744 OA
ENDBRANCH  66  67
ENDBRANCH  45  59
BRANCH  46  71
ATOM     71  C   UNL A   1      43.743  24.904  28.236  1.00  0.00     0.058 A 
ATOM     72  C   UNL A   1      44.323  25.187  26.991  1.00  0.00     0.135 A 
ATOM     73  C   UNL A   1      43.296  23.595  28.468  1.00  0.00     0.135 A 
ATOM     74  F   UNL A   1      44.753  26.429  26.720  1.00  0.00    -0.206 F 
ATOM     75  C   UNL A   1      44.453  24.212  26.008  1.00  0.00     0.059 A 
ATOM     76  C   UNL A   1      43.432  22.597  27.507  1.00  0.00     0.059 A 
ATOM     77  F   UNL A   1      42.740  23.272  29.646  1.00  0.00    -0.206 F 
ATOM     78  C   UNL A   1      44.007  22.916  26.278  1.00  0.00     0.060 A 
BRANCH  78  79
ATOM     79  S   UNL A   1      44.240  21.640  25.021  1.00  0.00     0.124 S 
ATOM     80  O   UNL A   1      43.148  20.724  25.326  1.00  0.00    -0.237 OA
ATOM     81  O   UNL A   1      44.110  22.402  23.782  1.00  0.00    -0.237 OA
ATOM     82  O   UNL A   1      45.583  21.139  25.300  1.00  0.00    -0.744 OA
ENDBRANCH  78  79
ENDBRANCH  46  71
BRANCH  58  83
ATOM     83  C   UNL A   1      47.867  26.962  33.473  1.00  0.00     0.058 A 
ATOM     84  C   UNL A   1      47.964  25.914  34.399  1.00  0.00     0.135 A 
ATOM     85  C   UNL A   1      49.059  27.512  32.974  1.00  0.00     0.135 A 
ATOM     86  F   UNL A   1      46.853  25.355  34.907  1.00  0.00    -0.206 F 
ATOM     87  C   UNL A   1      49.199  25.444  34.837  1.00  0.00     0.059 A 
ATOM     88  C   UNL A   1      50.304  27.042  33.380  1.00  0.00     0.059 A 
ATOM     89  F   UNL A   1      49.021  28.507  32.074  1.00  0.00    -0.206 F 
ATOM     90  C   UNL A   1      50.364  26.017  34.321  1.00  0.00     0.060 A 
BRANCH  90  91
ATOM     91  S   UNL A   1      51.962  25.384  34.874  1.00  0.00     0.124 S 
ATOM     92  O   UNL A   1      51.613  24.785  36.157  1.00  0.00    -0.237 OA
ATOM     93  O   UNL A   1      52.315  24.447  33.811  1.00  0.00    -0.237 OA
ATOM     94  O   UNL A   1      52.795  26.582  34.944  1.00  0.00    -0.744 OA
ENDBRANCH  90  91
ENDBRANCH  58  83
ENDBRANCH  32  33
ENDBRANCH  25  27
ENDBRANCH  24  25
ENDBRANCH  23  24
ENDBRANCH  22  23
ENDBRANCH  21  22
ENDBRANCH   1  21
TORSDOF 23
ENDMDL
