MODEL 1
REMARK VINA RESULT:     -10.5      0.000      0.000
REMARK SMILES O=C(N/N=C\c1ccccc1C(=O)OCCOCCOCCOC(=O)c1ccc(-c2c3nc(c(-c4c(F)cc(S(=O)(=O)[O-])cc4F)c4ccc([nH]4)c(-c4c(F)cc(S(=O)(=O)[O-])cc4F)c4nc(c(-c5c(F)cc(S(=O)(=O)[O-])cc5F)c5ccc2[nH]5)C=C4)C=C3)cc1)C(=O)N1CCCCC1
REMARK SMILES IDX 18 1 17 2 16 3 15 4 14 5 12 6 13 7 11 8 6 9 7 10 8 11 10 12
REMARK SMILES IDX 9 13 5 14 4 15 3 16 1 17 2 18 92 20 93 21 94 22 95 23 99 24
REMARK SMILES IDX 96 25 98 26 97 27 19 28 20 29 21 30 22 31 23 32 24 33 25 34
REMARK SMILES IDX 26 35 27 36 91 37 28 38 90 39 29 40 30 41 31 42 84 43 32 44
REMARK SMILES IDX 89 45 83 46 85 47 33 48 88 49 82 50 81 51 34 53 68 54 47 55
REMARK SMILES IDX 67 56 48 57 51 58 66 59 86 60 49 61 50 62 65 64 87 65 52 66
REMARK SMILES IDX 35 67 36 68 45 69 37 70 38 71 44 72 46 73 39 74 40 75 41 76
REMARK SMILES IDX 42 77 43 78 69 79 70 80 79 81 71 82 72 83 78 84 80 85 73 86
REMARK SMILES IDX 74 87 75 88 76 89 77 90 53 91 54 92 63 93 55 94 56 95 62 96
REMARK SMILES IDX 64 97 57 98 58 99 59 100 60 101 61 102
REMARK H PARENT 3 19 85 52 51 63
REMARK Flexibility Score: inf
ROOT
ATOM      1  C   UNL A   1      38.652  21.658  25.792  1.00  0.00     0.188 C 
ENDROOT
BRANCH   1   2
ATOM      2  O   UNL A   1      38.638  22.987  26.320  1.00  0.00    -0.376 OA
BRANCH   2   3
ATOM      3  C   UNL A   1      37.573  23.802  25.836  1.00  0.00     0.202 C 
BRANCH   3   4
ATOM      4  C   UNL A   1      36.208  23.200  26.188  1.00  0.00     0.261 C 
BRANCH   4   5
ATOM      5  O   UNL A   1      35.169  23.371  25.205  1.00  0.00    -0.460 OA
BRANCH   5   6
ATOM      6  C   UNL A   1      33.905  23.393  25.677  1.00  0.00     0.338 C 
ATOM      7  O   UNL A   1      33.416  24.181  26.460  1.00  0.00    -0.246 OA
BRANCH   6   8
ATOM      8  C   UNL A   1      33.155  22.316  25.035  1.00  0.00     0.068 A 
ATOM      9  C   UNL A   1      32.438  22.589  23.401  1.00  0.00     0.009 A 
ATOM     10  C   UNL A   1      31.936  21.154  22.338  1.00  0.00     0.010 A 
ATOM     11  C   UNL A   1      32.187  19.466  22.960  1.00  0.00     0.001 A 
ATOM     12  C   UNL A   1      33.405  20.639  25.646  1.00  0.00     0.016 A 
ATOM     13  C   UNL A   1      32.927  19.200  24.595  1.00  0.00     0.001 A 
BRANCH   9  14
ATOM     14  C   UNL A   1      32.810  23.825  22.755  1.00  0.00     0.142 C 
ATOM     15  N   UNL A   1      31.938  24.765  22.627  1.00  0.00    -0.180 NA
BRANCH  15  16
ATOM     16  N   UNL A   1      30.703  24.573  23.220  1.00  0.00    -0.239 N 
ATOM     17  O   UNL A   1      28.813  25.764  23.651  1.00  0.00    -0.262 OA
ATOM     18  C   UNL A   1      29.981  25.519  23.962  1.00  0.00     0.329 C 
ATOM     19  H   UNL A   1      30.290  23.686  23.109  1.00  0.00     0.194 HD
BRANCH  18  20
ATOM     20  C   UNL A   1      30.612  26.059  25.434  1.00  0.00     0.313 C 
ATOM     21  O   UNL A   1      29.792  25.370  26.142  1.00  0.00    -0.263 OA
ATOM     22  N   UNL A   1      32.081  27.324  25.910  1.00  0.00    -0.334 N 
ATOM     23  C   UNL A   1      32.590  28.009  27.392  1.00  0.00     0.120 C 
ATOM     24  C   UNL A   1      33.291  28.116  24.983  1.00  0.00     0.120 C 
ATOM     25  C   UNL A   1      32.461  29.543  27.401  1.00  0.00     0.022 C 
ATOM     26  C   UNL A   1      33.143  29.644  25.005  1.00  0.00     0.022 C 
ATOM     27  C   UNL A   1      33.362  30.216  26.387  1.00  0.00     0.004 C 
ENDBRANCH  18  20
ENDBRANCH  15  16
ENDBRANCH   9  14
ENDBRANCH   6   8
ENDBRANCH   5   6
ENDBRANCH   4   5
ENDBRANCH   3   4
ENDBRANCH   2   3
ENDBRANCH   1   2
BRANCH   1  28
ATOM     28  C   UNL A   1      39.958  20.941  26.156  1.00  0.00     0.188 C 
BRANCH  28  29
ATOM     29  O   UNL A   1      40.830  21.567  27.101  1.00  0.00    -0.376 OA
BRANCH  29  30
ATOM     30  C   UNL A   1      42.181  21.119  27.170  1.00  0.00     0.202 C 
BRANCH  30  31
ATOM     31  C   UNL A   1      43.204  22.071  26.558  1.00  0.00     0.261 C 
BRANCH  31  32
ATOM     32  O   UNL A   1      43.168  23.346  27.214  1.00  0.00    -0.460 OA
BRANCH  32  33
ATOM     33  C   UNL A   1      42.751  24.378  26.446  1.00  0.00     0.338 C 
ATOM     34  O   UNL A   1      42.716  24.411  25.226  1.00  0.00    -0.246 OA
BRANCH  33  35
ATOM     35  C   UNL A   1      42.183  25.449  27.297  1.00  0.00     0.060 A 
ATOM     36  C   UNL A   1      42.699  26.741  27.131  1.00  0.00     0.016 A 
ATOM     37  C   UNL A   1      41.199  25.205  28.264  1.00  0.00     0.016 A 
ATOM     38  C   UNL A   1      42.290  27.773  27.972  1.00  0.00     0.010 A 
ATOM     39  C   UNL A   1      40.798  26.238  29.117  1.00  0.00     0.010 A 
ATOM     40  C   UNL A   1      41.378  27.512  29.002  1.00  0.00    -0.014 A 
BRANCH  40  41
ATOM     41  C   UNL A   1      41.208  28.504  30.085  1.00  0.00     0.031 A 
ATOM     42  C   UNL A   1      42.156  28.450  31.254  1.00  0.00     0.074 A 
ATOM     43  C   UNL A   1      40.250  29.445  30.030  1.00  0.00     0.049 A 
ATOM     44  N   UNL A   1      42.191  29.192  32.328  1.00  0.00    -0.248 NA
ATOM     45  C   UNL A   1      43.209  27.421  31.196  1.00  0.00     0.031 C 
ATOM     46  C   UNL A   1      39.301  29.626  28.932  1.00  0.00     0.029 A 
ATOM     47  N   UNL A   1      39.918  30.424  30.930  1.00  0.00    -0.354 N 
ATOM     48  C   UNL A   1      43.270  28.730  33.069  1.00  0.00     0.074 A 
ATOM     49  C   UNL A   1      43.858  27.633  32.330  1.00  0.00     0.031 C 
ATOM     50  C   UNL A   1      38.479  30.647  29.234  1.00  0.00     0.029 A 
ATOM     51  C   UNL A   1      38.833  31.174  30.551  1.00  0.00     0.049 A 
ATOM     52  H   UNL A   1      40.412  30.574  31.769  1.00  0.00     0.167 HD
ATOM     53  C   UNL A   1      43.732  29.173  34.260  1.00  0.00     0.037 A 
ATOM     54  C   UNL A   1      38.189  32.159  31.207  1.00  0.00     0.037 A 
ATOM     55  C   UNL A   1      43.133  30.239  35.014  1.00  0.00     0.049 A 
ATOM     56  C   UNL A   1      38.671  32.583  32.570  1.00  0.00     0.074 A 
ATOM     57  C   UNL A   1      43.513  30.746  36.244  1.00  0.00     0.029 A 
ATOM     58  N   UNL A   1      42.016  30.952  34.610  1.00  0.00    -0.354 N 
ATOM     59  N   UNL A   1      39.698  32.143  33.255  1.00  0.00    -0.248 NA
ATOM     60  C   UNL A   1      37.898  33.633  33.252  1.00  0.00     0.031 C 
ATOM     61  C   UNL A   1      42.607  31.753  36.596  1.00  0.00     0.029 A 
ATOM     62  C   UNL A   1      41.680  31.886  35.574  1.00  0.00     0.049 A 
ATOM     63  H   UNL A   1      41.533  30.815  33.764  1.00  0.00     0.167 HD
ATOM     64  C   UNL A   1      39.704  32.870  34.441  1.00  0.00     0.074 A 
ATOM     65  C   UNL A   1      38.581  33.782  34.380  1.00  0.00     0.031 C 
ATOM     66  C   UNL A   1      40.563  32.790  35.487  1.00  0.00     0.037 A 
BRANCH  53  67
ATOM     67  C   UNL A   1      44.929  28.473  34.824  1.00  0.00     0.058 A 
ATOM     68  C   UNL A   1      44.791  27.405  35.724  1.00  0.00     0.135 A 
ATOM     69  C   UNL A   1      46.225  28.887  34.482  1.00  0.00     0.135 A 
ATOM     70  F   UNL A   1      43.570  26.990  36.098  1.00  0.00    -0.206 F 
ATOM     71  C   UNL A   1      45.901  26.784  36.286  1.00  0.00     0.059 A 
ATOM     72  C   UNL A   1      47.349  28.273  35.024  1.00  0.00     0.059 A 
ATOM     73  F   UNL A   1      46.405  29.915  33.638  1.00  0.00    -0.206 F 
ATOM     74  C   UNL A   1      47.176  27.234  35.938  1.00  0.00     0.060 A 
BRANCH  74  75
ATOM     75  S   UNL A   1      48.614  26.447  36.694  1.00  0.00     0.124 S 
ATOM     76  O   UNL A   1      48.940  27.399  37.752  1.00  0.00    -0.237 OA
ATOM     77  O   UNL A   1      48.080  25.164  37.141  1.00  0.00    -0.237 OA
ATOM     78  O   UNL A   1      49.573  26.375  35.597  1.00  0.00    -0.744 OA
ENDBRANCH  74  75
ENDBRANCH  53  67
BRANCH  54  79
ATOM     79  C   UNL A   1      36.992  32.794  30.604  1.00  0.00     0.058 A 
ATOM     80  C   UNL A   1      37.116  33.814  29.650  1.00  0.00     0.135 A 
ATOM     81  C   UNL A   1      35.699  32.405  30.988  1.00  0.00     0.135 A 
ATOM     82  F   UNL A   1      38.334  34.224  29.263  1.00  0.00    -0.206 F 
ATOM     83  C   UNL A   1      35.999  34.441  29.108  1.00  0.00     0.059 A 
ATOM     84  C   UNL A   1      34.567  33.007  30.450  1.00  0.00     0.059 A 
ATOM     85  F   UNL A   1      35.533  31.429  31.894  1.00  0.00    -0.206 F 
ATOM     86  C   UNL A   1      34.728  34.034  29.520  1.00  0.00     0.060 A 
BRANCH  86  87
ATOM     87  S   UNL A   1      33.274  34.832  28.804  1.00  0.00     0.124 S 
ATOM     88  O   UNL A   1      33.859  36.034  28.220  1.00  0.00    -0.237 OA
ATOM     89  O   UNL A   1      32.798  33.829  27.856  1.00  0.00    -0.237 OA
ATOM     90  O   UNL A   1      32.411  35.046  29.962  1.00  0.00    -0.744 OA
ENDBRANCH  86  87
ENDBRANCH  54  79
BRANCH  66  91
ATOM     91  C   UNL A   1      40.339  33.720  36.641  1.00  0.00     0.058 A 
ATOM     92  C   UNL A   1      40.971  34.971  36.701  1.00  0.00     0.135 A 
ATOM     93  C   UNL A   1      39.422  33.392  37.651  1.00  0.00     0.135 A 
ATOM     94  F   UNL A   1      41.859  35.324  35.758  1.00  0.00    -0.206 F 
ATOM     95  C   UNL A   1      40.701  35.869  37.728  1.00  0.00     0.059 A 
ATOM     96  C   UNL A   1      39.128  34.281  38.681  1.00  0.00     0.059 A 
ATOM     97  F   UNL A   1      38.788  32.209  37.631  1.00  0.00    -0.206 F 
ATOM     98  C   UNL A   1      39.775  35.516  38.712  1.00  0.00     0.060 A 
BRANCH  98  99
ATOM     99  S   UNL A   1      39.374  36.711  40.006  1.00  0.00     0.124 S 
ATOM    100  O   UNL A   1      38.835  37.820  39.225  1.00  0.00    -0.237 OA
ATOM    101  O   UNL A   1      38.408  35.984  40.824  1.00  0.00    -0.237 OA
ATOM    102  O   UNL A   1      40.664  36.957  40.644  1.00  0.00    -0.744 OA
ENDBRANCH  98  99
ENDBRANCH  66  91
ENDBRANCH  40  41
ENDBRANCH  33  35
ENDBRANCH  32  33
ENDBRANCH  31  32
ENDBRANCH  30  31
ENDBRANCH  29  30
ENDBRANCH  28  29
ENDBRANCH   1  28
TORSDOF 23
ENDMDL
MODEL 2
REMARK VINA RESULT:     -10.4      1.566      8.825
REMARK SMILES O=C(N/N=C\c1ccccc1C(=O)OCCOCCOCCOC(=O)c1ccc(-c2c3nc(c(-c4c(F)cc(S(=O)(=O)[O-])cc4F)c4ccc([nH]4)c(-c4c(F)cc(S(=O)(=O)[O-])cc4F)c4nc(c(-c5c(F)cc(S(=O)(=O)[O-])cc5F)c5ccc2[nH]5)C=C4)C=C3)cc1)C(=O)N1CCCCC1
REMARK SMILES IDX 18 1 17 2 16 3 15 4 14 5 12 6 13 7 11 8 6 9 7 10 8 11 10 12
REMARK SMILES IDX 9 13 5 14 4 15 3 16 1 17 2 18 92 20 93 21 94 22 95 23 99 24
REMARK SMILES IDX 96 25 98 26 97 27 19 28 20 29 21 30 22 31 23 32 24 33 25 34
REMARK SMILES IDX 26 35 27 36 91 37 28 38 90 39 29 40 30 41 31 42 84 43 32 44
REMARK SMILES IDX 89 45 83 46 85 47 33 48 88 49 82 50 81 51 34 53 68 54 47 55
REMARK SMILES IDX 67 56 48 57 51 58 66 59 86 60 49 61 50 62 65 64 87 65 52 66
REMARK SMILES IDX 35 67 36 68 45 69 37 70 38 71 44 72 46 73 39 74 40 75 41 76
REMARK SMILES IDX 42 77 43 78 69 79 70 80 79 81 71 82 72 83 78 84 80 85 73 86
REMARK SMILES IDX 74 87 75 88 76 89 77 90 53 91 54 92 63 93 55 94 56 95 62 96
REMARK SMILES IDX 64 97 57 98 58 99 59 100 60 101 61 102
REMARK H PARENT 3 19 85 52 51 63
REMARK Flexibility Score: inf
ROOT
ATOM      1  C   UNL A   1      35.412  22.812  24.033  1.00  0.00     0.188 C 
ENDROOT
BRANCH   1   2
ATOM      2  O   UNL A   1      34.966  23.340  22.782  1.00  0.00    -0.376 OA
BRANCH   2   3
ATOM      3  C   UNL A   1      34.435  24.661  22.854  1.00  0.00     0.202 C 
BRANCH   3   4
ATOM      4  C   UNL A   1      32.979  24.701  22.373  1.00  0.00     0.261 C 
BRANCH   4   5
ATOM      5  O   UNL A   1      32.174  25.780  22.885  1.00  0.00    -0.460 OA
BRANCH   5   6
ATOM      6  C   UNL A   1      32.794  26.972  23.011  1.00  0.00     0.338 C 
ATOM      7  O   UNL A   1      33.610  27.470  22.262  1.00  0.00    -0.246 OA
BRANCH   6   8
ATOM      8  C   UNL A   1      32.276  27.638  24.203  1.00  0.00     0.068 A 
ATOM      9  C   UNL A   1      32.795  27.062  25.834  1.00  0.00     0.009 A 
ATOM     10  C   UNL A   1      32.596  28.147  27.325  1.00  0.00     0.010 A 
ATOM     11  C   UNL A   1      31.880  29.804  27.121  1.00  0.00     0.001 A 
ATOM     12  C   UNL A   1      31.569  29.284  24.006  1.00  0.00     0.016 A 
ATOM     13  C   UNL A   1      31.379  30.382  25.476  1.00  0.00     0.001 A 
BRANCH   9  14
ATOM     14  C   UNL A   1      33.845  26.071  25.841  1.00  0.00     0.142 C 
ATOM     15  N   UNL A   1      33.573  24.858  26.180  1.00  0.00    -0.180 NA
BRANCH  15  16
ATOM     16  N   UNL A   1      32.247  24.546  26.422  1.00  0.00    -0.239 N 
ATOM     17  O   UNL A   1      31.034  22.873  27.373  1.00  0.00    -0.262 OA
ATOM     18  C   UNL A   1      31.676  23.265  26.397  1.00  0.00     0.329 C 
ATOM     19  H   UNL A   1      31.645  25.296  26.633  1.00  0.00     0.194 HD
BRANCH  18  20
ATOM     20  C   UNL A   1      31.615  22.425  24.931  1.00  0.00     0.313 C 
ATOM     21  O   UNL A   1      30.721  23.195  24.424  1.00  0.00    -0.263 OA
ATOM     22  N   UNL A   1      32.565  20.812  24.238  1.00  0.00    -0.334 N 
ATOM     23  C   UNL A   1      32.364  19.859  22.832  1.00  0.00     0.120 C 
ATOM     24  C   UNL A   1      33.879  19.880  24.834  1.00  0.00     0.120 C 
ATOM     25  C   UNL A   1      31.983  18.405  23.162  1.00  0.00     0.022 C 
ATOM     26  C   UNL A   1      33.477  18.435  25.158  1.00  0.00     0.022 C 
ATOM     27  C   UNL A   1      33.067  17.669  23.921  1.00  0.00     0.004 C 
ENDBRANCH  18  20
ENDBRANCH  15  16
ENDBRANCH   9  14
ENDBRANCH   6   8
ENDBRANCH   5   6
ENDBRANCH   4   5
ENDBRANCH   3   4
ENDBRANCH   2   3
ENDBRANCH   1   2
BRANCH   1  28
ATOM     28  C   UNL A   1      36.941  22.692  24.060  1.00  0.00     0.188 C 
BRANCH  28  29
ATOM     29  O   UNL A   1      37.555  22.164  25.239  1.00  0.00    -0.376 OA
BRANCH  29  30
ATOM     30  C   UNL A   1      38.302  23.053  26.064  1.00  0.00     0.202 C 
BRANCH  30  31
ATOM     31  C   UNL A   1      39.677  22.537  26.481  1.00  0.00     0.261 C 
BRANCH  31  32
ATOM     32  O   UNL A   1      40.223  23.342  27.536  1.00  0.00    -0.460 OA
BRANCH  32  33
ATOM     33  C   UNL A   1      40.961  24.400  27.130  1.00  0.00     0.338 C 
ATOM     34  O   UNL A   1      41.661  24.460  26.131  1.00  0.00    -0.246 OA
BRANCH  33  35
ATOM     35  C   UNL A   1      40.692  25.571  27.996  1.00  0.00     0.060 A 
ATOM     36  C   UNL A   1      41.725  26.506  28.149  1.00  0.00     0.016 A 
ATOM     37  C   UNL A   1      39.481  25.745  28.677  1.00  0.00     0.016 A 
ATOM     38  C   UNL A   1      41.581  27.571  29.034  1.00  0.00     0.010 A 
ATOM     39  C   UNL A   1      39.341  26.808  29.576  1.00  0.00     0.010 A 
ATOM     40  C   UNL A   1      40.409  27.695  29.790  1.00  0.00    -0.014 A 
BRANCH  40  41
ATOM     41  C   UNL A   1      40.393  28.608  30.953  1.00  0.00     0.031 A 
ATOM     42  C   UNL A   1      39.423  29.760  30.938  1.00  0.00     0.074 A 
ATOM     43  C   UNL A   1      41.202  28.415  32.008  1.00  0.00     0.049 A 
ATOM     44  N   UNL A   1      39.241  30.702  31.824  1.00  0.00    -0.248 NA
ATOM     45  C   UNL A   1      38.536  29.855  29.765  1.00  0.00     0.031 C 
ATOM     46  C   UNL A   1      42.152  27.313  32.157  1.00  0.00     0.029 A 
ATOM     47  N   UNL A   1      41.354  29.151  33.154  1.00  0.00    -0.354 N 
ATOM     48  C   UNL A   1      38.216  31.495  31.325  1.00  0.00     0.074 A 
ATOM     49  C   UNL A   1      37.823  30.933  30.051  1.00  0.00     0.031 C 
ATOM     50  C   UNL A   1      42.804  27.458  33.326  1.00  0.00     0.029 A 
ATOM     51  C   UNL A   1      42.330  28.670  33.992  1.00  0.00     0.049 A 
ATOM     52  H   UNL A   1      40.815  29.950  33.356  1.00  0.00     0.167 HD
ATOM     53  C   UNL A   1      37.653  32.595  31.874  1.00  0.00     0.037 A 
ATOM     54  C   UNL A   1      42.798  29.169  35.152  1.00  0.00     0.037 A 
ATOM     55  C   UNL A   1      38.061  33.176  33.121  1.00  0.00     0.049 A 
ATOM     56  C   UNL A   1      42.211  30.441  35.706  1.00  0.00     0.074 A 
ATOM     57  C   UNL A   1      37.567  34.306  33.750  1.00  0.00     0.029 A 
ATOM     58  N   UNL A   1      39.074  32.677  33.925  1.00  0.00    -0.354 N 
ATOM     59  N   UNL A   1      41.236  31.176  35.227  1.00  0.00    -0.248 NA
ATOM     60  C   UNL A   1      42.796  30.956  36.953  1.00  0.00     0.031 C 
ATOM     61  C   UNL A   1      38.301  34.503  34.926  1.00  0.00     0.029 A 
ATOM     62  C   UNL A   1      39.234  33.484  35.037  1.00  0.00     0.049 A 
ATOM     63  H   UNL A   1      39.601  31.868  33.732  1.00  0.00     0.167 HD
ATOM     64  C   UNL A   1      41.081  32.231  36.120  1.00  0.00     0.074 A 
ATOM     65  C   UNL A   1      42.059  32.038  37.171  1.00  0.00     0.031 C 
ATOM     66  C   UNL A   1      40.208  33.267  36.075  1.00  0.00     0.037 A 
BRANCH  53  67
ATOM     67  C   UNL A   1      36.553  33.250  31.097  1.00  0.00     0.058 A 
ATOM     68  C   UNL A   1      36.830  34.048  29.975  1.00  0.00     0.135 A 
ATOM     69  C   UNL A   1      35.215  33.099  31.488  1.00  0.00     0.135 A 
ATOM     70  F   UNL A   1      38.098  34.240  29.578  1.00  0.00    -0.206 F 
ATOM     71  C   UNL A   1      35.814  34.696  29.281  1.00  0.00     0.059 A 
ATOM     72  C   UNL A   1      34.183  33.728  30.801  1.00  0.00     0.059 A 
ATOM     73  F   UNL A   1      34.905  32.358  32.563  1.00  0.00    -0.206 F 
ATOM     74  C   UNL A   1      34.494  34.539  29.709  1.00  0.00     0.060 A 
BRANCH  74  75
ATOM     75  S   UNL A   1      33.182  35.407  28.825  1.00  0.00     0.124 S 
ATOM     76  O   UNL A   1      32.417  35.975  29.930  1.00  0.00    -0.237 OA
ATOM     77  O   UNL A   1      33.924  36.365  28.011  1.00  0.00    -0.237 OA
ATOM     78  O   UNL A   1      32.517  34.342  28.082  1.00  0.00    -0.744 OA
ENDBRANCH  74  75
ENDBRANCH  53  67
BRANCH  54  79
ATOM     79  C   UNL A   1      43.908  28.485  35.860  1.00  0.00     0.058 A 
ATOM     80  C   UNL A   1      45.243  28.853  35.640  1.00  0.00     0.135 A 
ATOM     81  C   UNL A   1      43.653  27.434  36.754  1.00  0.00     0.135 A 
ATOM     82  F   UNL A   1      45.531  29.845  34.783  1.00  0.00    -0.206 F 
ATOM     83  C   UNL A   1      46.291  28.191  36.270  1.00  0.00     0.059 A 
ATOM     84  C   UNL A   1      44.684  26.767  37.407  1.00  0.00     0.059 A 
ATOM     85  F   UNL A   1      42.390  27.052  36.999  1.00  0.00    -0.206 F 
ATOM     86  C   UNL A   1      46.002  27.145  37.148  1.00  0.00     0.060 A 
BRANCH  86  87
ATOM     87  S   UNL A   1      47.359  26.296  37.984  1.00  0.00     0.124 S 
ATOM     88  O   UNL A   1      46.649  25.233  38.687  1.00  0.00    -0.237 OA
ATOM     89  O   UNL A   1      48.200  25.871  36.868  1.00  0.00    -0.237 OA
ATOM     90  O   UNL A   1      47.933  27.340  38.827  1.00  0.00    -0.744 OA
ENDBRANCH  86  87
ENDBRANCH  54  79
BRANCH  66  91
ATOM     91  C   UNL A   1      40.251  34.260  37.197  1.00  0.00     0.058 A 
ATOM     92  C   UNL A   1      41.115  35.365  37.158  1.00  0.00     0.135 A 
ATOM     93  C   UNL A   1      39.363  34.151  38.278  1.00  0.00     0.135 A 
ATOM     94  F   UNL A   1      41.984  35.506  36.144  1.00  0.00    -0.206 F 
ATOM     95  C   UNL A   1      41.098  36.332  38.157  1.00  0.00     0.059 A 
ATOM     96  C   UNL A   1      39.320  35.114  39.281  1.00  0.00     0.059 A 
ATOM     97  F   UNL A   1      38.513  33.114  38.353  1.00  0.00    -0.206 F 
ATOM     98  C   UNL A   1      40.193  36.199  39.214  1.00  0.00     0.060 A 
BRANCH  98  99
ATOM     99  S   UNL A   1      40.125  37.492  40.474  1.00  0.00     0.124 S 
ATOM    100  O   UNL A   1      40.693  36.806  41.629  1.00  0.00    -0.237 OA
ATOM    101  O   UNL A   1      40.951  38.546  39.894  1.00  0.00    -0.237 OA
ATOM    102  O   UNL A   1      38.700  37.799  40.560  1.00  0.00    -0.744 OA
ENDBRANCH  98  99
ENDBRANCH  66  91
ENDBRANCH  40  41
ENDBRANCH  33  35
ENDBRANCH  32  33
ENDBRANCH  31  32
ENDBRANCH  30  31
ENDBRANCH  29  30
ENDBRANCH  28  29
ENDBRANCH   1  28
TORSDOF 23
ENDMDL
MODEL 3
REMARK VINA RESULT:     -10.1      2.638      9.290
REMARK SMILES O=C(N/N=C\c1ccccc1C(=O)OCCOCCOCCOC(=O)c1ccc(-c2c3nc(c(-c4c(F)cc(S(=O)(=O)[O-])cc4F)c4ccc([nH]4)c(-c4c(F)cc(S(=O)(=O)[O-])cc4F)c4nc(c(-c5c(F)cc(S(=O)(=O)[O-])cc5F)c5ccc2[nH]5)C=C4)C=C3)cc1)C(=O)N1CCCCC1
REMARK SMILES IDX 18 1 17 2 16 3 15 4 14 5 12 6 13 7 11 8 6 9 7 10 8 11 10 12
REMARK SMILES IDX 9 13 5 14 4 15 3 16 1 17 2 18 92 20 93 21 94 22 95 23 99 24
REMARK SMILES IDX 96 25 98 26 97 27 19 28 20 29 21 30 22 31 23 32 24 33 25 34
REMARK SMILES IDX 26 35 27 36 91 37 28 38 90 39 29 40 30 41 31 42 84 43 32 44
REMARK SMILES IDX 89 45 83 46 85 47 33 48 88 49 82 50 81 51 34 53 68 54 47 55
REMARK SMILES IDX 67 56 48 57 51 58 66 59 86 60 49 61 50 62 65 64 87 65 52 66
REMARK SMILES IDX 35 67 36 68 45 69 37 70 38 71 44 72 46 73 39 74 40 75 41 76
REMARK SMILES IDX 42 77 43 78 69 79 70 80 79 81 71 82 72 83 78 84 80 85 73 86
REMARK SMILES IDX 74 87 75 88 76 89 77 90 53 91 54 92 63 93 55 94 56 95 62 96
REMARK SMILES IDX 64 97 57 98 58 99 59 100 60 101 61 102
REMARK H PARENT 3 19 85 52 51 63
REMARK Flexibility Score: inf
ROOT
ATOM      1  C   UNL A   1      34.007  30.726  27.618  1.00  0.00     0.188 C 
ENDROOT
BRANCH   1   2
ATOM      2  O   UNL A   1      35.009  29.724  27.426  1.00  0.00    -0.376 OA
BRANCH   2   3
ATOM      3  C   UNL A   1      34.811  28.905  26.276  1.00  0.00     0.202 C 
BRANCH   3   4
ATOM      4  C   UNL A   1      33.987  27.657  26.618  1.00  0.00     0.261 C 
BRANCH   4   5
ATOM      5  O   UNL A   1      32.993  27.272  25.649  1.00  0.00    -0.460 OA
BRANCH   5   6
ATOM      6  C   UNL A   1      31.713  27.556  25.968  1.00  0.00     0.338 C 
ATOM      7  O   UNL A   1      31.088  27.184  26.941  1.00  0.00    -0.246 OA
BRANCH   6   8
ATOM      8  C   UNL A   1      31.178  28.467  24.960  1.00  0.00     0.068 A 
ATOM      9  C   UNL A   1      30.221  27.799  23.582  1.00  0.00     0.009 A 
ATOM     10  C   UNL A   1      29.111  28.898  22.584  1.00  0.00     0.010 A 
ATOM     11  C   UNL A   1      28.989  30.658  23.018  1.00  0.00     0.001 A 
ATOM     12  C   UNL A   1      31.051  30.213  25.390  1.00  0.00     0.016 A 
ATOM     13  C   UNL A   1      29.937  31.317  24.416  1.00  0.00     0.001 A 
BRANCH   9  14
ATOM     14  C   UNL A   1      29.900  26.395  23.669  1.00  0.00     0.142 C 
ATOM     15  N   UNL A   1      30.752  25.520  23.254  1.00  0.00    -0.180 NA
BRANCH  15  16
ATOM     16  N   UNL A   1      31.988  25.981  22.839  1.00  0.00    -0.239 N 
ATOM     17  O   UNL A   1      33.282  25.947  20.968  1.00  0.00    -0.262 OA
ATOM     18  C   UNL A   1      32.862  25.335  21.952  1.00  0.00     0.329 C 
ATOM     19  H   UNL A   1      32.284  26.848  23.201  1.00  0.00     0.194 HD
BRANCH  18  20
ATOM     20  C   UNL A   1      33.556  23.864  22.414  1.00  0.00     0.313 C 
ATOM     21  O   UNL A   1      33.408  23.328  21.256  1.00  0.00    -0.263 OA
ATOM     22  N   UNL A   1      34.312  23.188  24.133  1.00  0.00    -0.334 N 
ATOM     23  C   UNL A   1      34.838  21.643  24.644  1.00  0.00     0.120 C 
ATOM     24  C   UNL A   1      34.671  23.945  25.632  1.00  0.00     0.120 C 
ATOM     25  C   UNL A   1      34.004  21.100  25.818  1.00  0.00     0.022 C 
ATOM     26  C   UNL A   1      33.827  23.390  26.788  1.00  0.00     0.022 C 
ATOM     27  C   UNL A   1      34.138  21.938  27.072  1.00  0.00     0.004 C 
ENDBRANCH  18  20
ENDBRANCH  15  16
ENDBRANCH   9  14
ENDBRANCH   6   8
ENDBRANCH   5   6
ENDBRANCH   4   5
ENDBRANCH   3   4
ENDBRANCH   2   3
ENDBRANCH   1   2
BRANCH   1  28
ATOM     28  C   UNL A   1      34.644  32.064  28.013  1.00  0.00     0.188 C 
BRANCH  28  29
ATOM     29  O   UNL A   1      33.793  33.087  28.536  1.00  0.00    -0.376 OA
BRANCH  29  30
ATOM     30  C   UNL A   1      34.148  34.446  28.295  1.00  0.00     0.202 C 
BRANCH  30  31
ATOM     31  C   UNL A   1      33.455  35.460  29.201  1.00  0.00     0.261 C 
BRANCH  31  32
ATOM     32  O   UNL A   1      32.903  34.814  30.358  1.00  0.00    -0.460 OA
BRANCH  32  33
ATOM     33  C   UNL A   1      33.072  35.478  31.524  1.00  0.00     0.338 C 
ATOM     34  O   UNL A   1      32.372  36.379  31.957  1.00  0.00    -0.246 OA
BRANCH  33  35
ATOM     35  C   UNL A   1      34.162  34.856  32.311  1.00  0.00     0.060 A 
ATOM     36  C   UNL A   1      35.427  35.455  32.237  1.00  0.00     0.016 A 
ATOM     37  C   UNL A   1      33.978  33.696  33.073  1.00  0.00     0.016 A 
ATOM     38  C   UNL A   1      36.521  34.862  32.862  1.00  0.00     0.010 A 
ATOM     39  C   UNL A   1      35.079  33.093  33.690  1.00  0.00     0.010 A 
ATOM     40  C   UNL A   1      36.360  33.650  33.545  1.00  0.00    -0.014 A 
BRANCH  40  41
ATOM     41  C   UNL A   1      37.557  32.861  33.909  1.00  0.00     0.031 A 
ATOM     42  C   UNL A   1      38.283  33.216  35.178  1.00  0.00     0.074 A 
ATOM     43  C   UNL A   1      37.983  31.841  33.144  1.00  0.00     0.049 A 
ATOM     44  N   UNL A   1      39.363  32.690  35.691  1.00  0.00    -0.248 NA
ATOM     45  C   UNL A   1      37.706  34.310  35.979  1.00  0.00     0.031 C 
ATOM     46  C   UNL A   1      37.340  31.375  31.917  1.00  0.00     0.029 A 
ATOM     47  N   UNL A   1      39.068  31.016  33.293  1.00  0.00    -0.354 N 
ATOM     48  C   UNL A   1      39.591  33.378  36.876  1.00  0.00     0.074 A 
ATOM     49  C   UNL A   1      38.546  34.370  37.002  1.00  0.00     0.031 C 
ATOM     50  C   UNL A   1      38.058  30.354  31.412  1.00  0.00     0.029 A 
ATOM     51  C   UNL A   1      39.216  30.112  32.271  1.00  0.00     0.049 A 
ATOM     52  H   UNL A   1      39.683  31.069  34.061  1.00  0.00     0.167 HD
ATOM     53  C   UNL A   1      40.583  33.204  37.778  1.00  0.00     0.037 A 
ATOM     54  C   UNL A   1      40.190  29.209  32.048  1.00  0.00     0.037 A 
ATOM     55  C   UNL A   1      41.641  32.244  37.643  1.00  0.00     0.049 A 
ATOM     56  C   UNL A   1      41.330  29.087  33.025  1.00  0.00     0.074 A 
ATOM     57  C   UNL A   1      42.707  32.008  38.493  1.00  0.00     0.029 A 
ATOM     58  N   UNL A   1      41.772  31.368  36.577  1.00  0.00    -0.354 N 
ATOM     59  N   UNL A   1      41.528  29.740  34.145  1.00  0.00    -0.248 NA
ATOM     60  C   UNL A   1      42.383  28.114  32.701  1.00  0.00     0.031 C 
ATOM     61  C   UNL A   1      43.499  31.002  37.927  1.00  0.00     0.029 A 
ATOM     62  C   UNL A   1      42.911  30.599  36.737  1.00  0.00     0.049 A 
ATOM     63  H   UNL A   1      41.148  31.303  35.819  1.00  0.00     0.167 HD
ATOM     64  C   UNL A   1      42.719  29.246  34.667  1.00  0.00     0.074 A 
ATOM     65  C   UNL A   1      43.196  28.237  33.743  1.00  0.00     0.031 C 
ATOM     66  C   UNL A   1      43.361  29.594  35.809  1.00  0.00     0.037 A 
BRANCH  53  67
ATOM     67  C   UNL A   1      40.572  34.104  38.975  1.00  0.00     0.058 A 
ATOM     68  C   UNL A   1      41.272  35.320  38.977  1.00  0.00     0.135 A 
ATOM     69  C   UNL A   1      39.876  33.738  40.137  1.00  0.00     0.135 A 
ATOM     70  F   UNL A   1      41.972  35.700  37.896  1.00  0.00    -0.206 F 
ATOM     71  C   UNL A   1      41.303  36.135  40.105  1.00  0.00     0.059 A 
ATOM     72  C   UNL A   1      39.884  34.543  41.271  1.00  0.00     0.059 A 
ATOM     73  F   UNL A   1      39.205  32.577  40.185  1.00  0.00    -0.206 F 
ATOM     74  C   UNL A   1      40.615  35.731  41.251  1.00  0.00     0.060 A 
BRANCH  74  75
ATOM     75  S   UNL A   1      40.684  36.775  42.721  1.00  0.00     0.124 S 
ATOM     76  O   UNL A   1      39.304  36.701  43.192  1.00  0.00    -0.237 OA
ATOM     77  O   UNL A   1      41.672  36.094  43.552  1.00  0.00    -0.237 OA
ATOM     78  O   UNL A   1      41.100  38.070  42.194  1.00  0.00    -0.744 OA
ENDBRANCH  74  75
ENDBRANCH  53  67
BRANCH  54  79
ATOM     79  C   UNL A   1      40.155  28.366  30.827  1.00  0.00     0.058 A 
ATOM     80  C   UNL A   1      39.313  27.248  30.743  1.00  0.00     0.135 A 
ATOM     81  C   UNL A   1      40.983  28.652  29.731  1.00  0.00     0.135 A 
ATOM     82  F   UNL A   1      38.515  26.932  31.774  1.00  0.00    -0.206 F 
ATOM     83  C   UNL A   1      39.303  26.431  29.619  1.00  0.00     0.059 A 
ATOM     84  C   UNL A   1      40.980  27.858  28.589  1.00  0.00     0.059 A 
ATOM     85  F   UNL A   1      41.801  29.715  29.766  1.00  0.00    -0.206 F 
ATOM     86  C   UNL A   1      40.145  26.740  28.548  1.00  0.00     0.060 A 
BRANCH  86  87
ATOM     87  S   UNL A   1      40.121  25.692  27.077  1.00  0.00     0.124 S 
ATOM     88  O   UNL A   1      40.653  26.598  26.066  1.00  0.00    -0.237 OA
ATOM     89  O   UNL A   1      40.991  24.586  27.464  1.00  0.00    -0.237 OA
ATOM     90  O   UNL A   1      38.709  25.348  26.940  1.00  0.00    -0.744 OA
ENDBRANCH  86  87
ENDBRANCH  54  79
BRANCH  66  91
ATOM     91  C   UNL A   1      44.634  28.874  36.137  1.00  0.00     0.058 A 
ATOM     92  C   UNL A   1      44.625  27.672  36.860  1.00  0.00     0.135 A 
ATOM     93  C   UNL A   1      45.863  29.348  35.655  1.00  0.00     0.135 A 
ATOM     94  F   UNL A   1      43.471  27.185  37.344  1.00  0.00    -0.206 F 
ATOM     95  C   UNL A   1      45.796  26.960  37.094  1.00  0.00     0.059 A 
ATOM     96  C   UNL A   1      47.045  28.645  35.866  1.00  0.00     0.059 A 
ATOM     97  F   UNL A   1      45.919  30.491  34.952  1.00  0.00    -0.206 F 
ATOM     98  C   UNL A   1      47.002  27.453  36.589  1.00  0.00     0.060 A 
BRANCH  98  99
ATOM     99  S   UNL A   1      48.512  26.492  36.835  1.00  0.00     0.124 S 
ATOM    100  O   UNL A   1      49.479  27.261  36.059  1.00  0.00    -0.237 OA
ATOM    101  O   UNL A   1      48.684  26.534  38.284  1.00  0.00    -0.237 OA
ATOM    102  O   UNL A   1      48.165  25.182  36.291  1.00  0.00    -0.744 OA
ENDBRANCH  98  99
ENDBRANCH  66  91
ENDBRANCH  40  41
ENDBRANCH  33  35
ENDBRANCH  32  33
ENDBRANCH  31  32
ENDBRANCH  30  31
ENDBRANCH  29  30
ENDBRANCH  28  29
ENDBRANCH   1  28
TORSDOF 23
ENDMDL
