MODEL 1
REMARK VINA RESULT:      -9.9      0.000      0.000
REMARK SMILES CCC[NH2+]CC(=O)N1[C@@H](C(=O)OCCOCCOCCOC(=O)c2ccc(-c3c4nc(c(-c5c(F)cc(S(=O)(=O)[O-])cc5F)c5ccc([nH]5)c(-c5c(F)cc(S(=O)(=O)[O-])cc5F)c5nc(c(-c6c(F)cc(S(=O)(=O)[O-])cc6F)c6ccc3[nH]6)C=C5)C=C4)cc2)CC[C@@H]2CCCC[C@@H]21
REMARK SMILES IDX 16 1 15 2 14 3 13 4 12 5 10 6 11 7 9 8 8 9 97 10 90 11 92 12
REMARK SMILES IDX 96 13 91 14 93 15 95 16 94 17 6 18 7 19 5 20 4 21 3 24 2 25
REMARK SMILES IDX 1 26 17 27 18 28 19 29 20 30 21 31 22 32 23 33 24 34 25 35
REMARK SMILES IDX 89 36 26 37 88 38 27 39 28 40 29 41 82 42 30 43 87 44 81 45
REMARK SMILES IDX 83 46 31 47 86 48 80 49 79 50 32 52 66 53 45 54 65 55 46 56
REMARK SMILES IDX 49 57 64 58 84 59 47 60 48 61 63 63 85 64 50 65 33 66 34 67
REMARK SMILES IDX 43 68 35 69 36 70 42 71 44 72 37 73 38 74 39 75 40 76 41 77
REMARK SMILES IDX 67 78 68 79 77 80 69 81 70 82 76 83 78 84 71 85 72 86 73 87
REMARK SMILES IDX 74 88 75 89 51 90 52 91 61 92 53 93 54 94 60 95 62 96 55 97
REMARK SMILES IDX 56 98 57 99 58 100 59 101
REMARK H PARENT 4 22 4 23 83 51 49 62
REMARK Flexibility Score: inf
ROOT
ATOM      1  C   UNL A   1      38.817  22.358  26.142  1.00  0.00     0.188 C 
ENDROOT
BRANCH   1   2
ATOM      2  O   UNL A   1      37.770  22.349  25.170  1.00  0.00    -0.376 OA
BRANCH   2   3
ATOM      3  C   UNL A   1      37.071  21.122  24.997  1.00  0.00     0.202 C 
BRANCH   3   4
ATOM      4  C   UNL A   1      35.736  21.166  25.741  1.00  0.00     0.261 C 
BRANCH   4   5
ATOM      5  O   UNL A   1      34.895  22.254  25.308  1.00  0.00    -0.462 OA
BRANCH   5   6
ATOM      6  C   UNL A   1      34.459  23.030  26.350  1.00  0.00     0.328 C 
ATOM      7  O   UNL A   1      34.590  22.694  27.522  1.00  0.00    -0.250 OA
BRANCH   6   8
ATOM      8  C   UNL A   1      33.852  24.376  25.853  1.00  0.00     0.195 C 
ATOM      9  N   UNL A   1      32.374  24.366  25.668  1.00  0.00    -0.321 N 
ATOM     10  C   UNL A   1      31.724  25.536  25.049  1.00  0.00     0.089 C 
ATOM     11  C   UNL A   1      34.534  24.775  24.533  1.00  0.00     0.037 C 
ATOM     12  C   UNL A   1      32.446  25.959  23.759  1.00  0.00     0.012 C 
ATOM     13  C   UNL A   1      31.540  26.696  26.055  1.00  0.00     0.025 C 
ATOM     14  C   UNL A   1      33.962  26.082  23.979  1.00  0.00     0.008 C 
ATOM     15  C   UNL A   1      31.832  27.241  23.181  1.00  0.00     0.006 C 
ATOM     16  C   UNL A   1      31.089  28.023  25.451  1.00  0.00     0.002 C 
ATOM     17  C   UNL A   1      31.824  28.396  24.174  1.00  0.00     0.000 C 
BRANCH   9  18
ATOM     18  C   UNL A   1      31.551  23.501  26.385  1.00  0.00     0.278 C 
ATOM     19  O   UNL A   1      31.482  23.578  27.613  1.00  0.00    -0.268 OA
BRANCH  18  20
ATOM     20  C   UNL A   1      30.878  22.355  25.609  1.00  0.00     0.362 C 
BRANCH  20  21
ATOM     21  N   UNL A   1      31.817  21.764  24.667  1.00  0.00    -0.338 N 
ATOM     22  H   UNL A   1      31.401  21.801  23.735  1.00  0.00     0.346 HD
ATOM     23  H   UNL A   1      32.681  22.302  24.735  1.00  0.00     0.346 HD
BRANCH  21  24
ATOM     24  C   UNL A   1      32.163  20.378  24.957  1.00  0.00     0.260 C 
BRANCH  24  25
ATOM     25  C   UNL A   1      32.842  19.822  23.705  1.00  0.00     0.058 C 
ATOM     26  C   UNL A   1      32.345  18.416  23.382  1.00  0.00     0.010 C 
ENDBRANCH  24  25
ENDBRANCH  21  24
ENDBRANCH  20  21
ENDBRANCH  18  20
ENDBRANCH   9  18
ENDBRANCH   6   8
ENDBRANCH   5   6
ENDBRANCH   4   5
ENDBRANCH   3   4
ENDBRANCH   2   3
ENDBRANCH   1   2
BRANCH   1  27
ATOM     27  C   UNL A   1      39.742  21.130  26.126  1.00  0.00     0.188 C 
BRANCH  27  28
ATOM     28  O   UNL A   1      40.947  21.201  26.895  1.00  0.00    -0.376 OA
BRANCH  28  29
ATOM     29  C   UNL A   1      42.184  21.027  26.207  1.00  0.00     0.202 C 
BRANCH  29  30
ATOM     30  C   UNL A   1      42.912  22.287  25.717  1.00  0.00     0.261 C 
BRANCH  30  31
ATOM     31  O   UNL A   1      42.072  23.452  25.660  1.00  0.00    -0.460 OA
BRANCH  31  32
ATOM     32  C   UNL A   1      42.759  24.630  25.685  1.00  0.00     0.338 C 
ATOM     33  O   UNL A   1      43.714  24.928  25.003  1.00  0.00    -0.246 OA
BRANCH  32  34
ATOM     34  C   UNL A   1      42.058  25.613  26.547  1.00  0.00     0.060 A 
ATOM     35  C   UNL A   1      42.550  26.927  26.546  1.00  0.00     0.016 A 
ATOM     36  C   UNL A   1      41.000  25.257  27.386  1.00  0.00     0.016 A 
ATOM     37  C   UNL A   1      42.038  27.871  27.436  1.00  0.00     0.010 A 
ATOM     38  C   UNL A   1      40.501  26.200  28.294  1.00  0.00     0.010 A 
ATOM     39  C   UNL A   1      41.056  27.493  28.359  1.00  0.00    -0.014 A 
BRANCH  39  40
ATOM     40  C   UNL A   1      40.844  28.337  29.564  1.00  0.00     0.031 A 
ATOM     41  C   UNL A   1      41.755  28.108  30.744  1.00  0.00     0.074 A 
ATOM     42  C   UNL A   1      39.916  29.309  29.615  1.00  0.00     0.049 A 
ATOM     43  N   UNL A   1      41.772  28.695  31.913  1.00  0.00    -0.248 NA
ATOM     44  C   UNL A   1      42.789  27.073  30.575  1.00  0.00     0.031 C 
ATOM     45  C   UNL A   1      39.012  29.678  28.530  1.00  0.00     0.029 A 
ATOM     46  N   UNL A   1      39.585  30.165  30.637  1.00  0.00    -0.354 N 
ATOM     47  C   UNL A   1      42.813  28.100  32.616  1.00  0.00     0.074 A 
ATOM     48  C   UNL A   1      43.381  27.084  31.758  1.00  0.00     0.031 C 
ATOM     49  C   UNL A   1      38.220  30.683  28.948  1.00  0.00     0.029 A 
ATOM     50  C   UNL A   1      38.544  31.010  30.337  1.00  0.00     0.049 A 
ATOM     51  H   UNL A   1      40.050  30.171  31.505  1.00  0.00     0.167 HD
ATOM     52  C   UNL A   1      43.268  28.377  33.861  1.00  0.00     0.037 A 
ATOM     53  C   UNL A   1      37.919  31.931  31.102  1.00  0.00     0.037 A 
ATOM     54  C   UNL A   1      42.698  29.373  34.726  1.00  0.00     0.049 A 
ATOM     55  C   UNL A   1      38.380  32.163  32.520  1.00  0.00     0.074 A 
ATOM     56  C   UNL A   1      43.081  29.721  36.010  1.00  0.00     0.029 A 
ATOM     57  N   UNL A   1      41.614  30.175  34.400  1.00  0.00    -0.354 N 
ATOM     58  N   UNL A   1      39.371  31.600  33.172  1.00  0.00    -0.248 NA
ATOM     59  C   UNL A   1      37.639  33.160  33.307  1.00  0.00     0.031 C 
ATOM     60  C   UNL A   1      42.199  30.702  36.477  1.00  0.00     0.029 A 
ATOM     61  C   UNL A   1      41.301  31.003  35.466  1.00  0.00     0.049 A 
ATOM     62  H   UNL A   1      41.139  30.159  33.538  1.00  0.00     0.167 HD
ATOM     63  C   UNL A   1      39.393  32.199  34.428  1.00  0.00     0.074 A 
ATOM     64  C   UNL A   1      38.317  33.167  34.447  1.00  0.00     0.031 C 
ATOM     65  C   UNL A   1      40.234  31.973  35.469  1.00  0.00     0.037 A 
BRANCH  52  66
ATOM     66  C   UNL A   1      44.417  27.549  34.365  1.00  0.00     0.058 A 
ATOM     67  C   UNL A   1      44.216  26.425  35.183  1.00  0.00     0.135 A 
ATOM     68  C   UNL A   1      45.739  27.903  34.051  1.00  0.00     0.135 A 
ATOM     69  F   UNL A   1      42.973  26.057  35.532  1.00  0.00    -0.206 F 
ATOM     70  C   UNL A   1      45.285  25.709  35.709  1.00  0.00     0.059 A 
ATOM     71  C   UNL A   1      46.823  27.182  34.542  1.00  0.00     0.059 A 
ATOM     72  F   UNL A   1      45.987  28.970  33.277  1.00  0.00    -0.206 F 
ATOM     73  C   UNL A   1      46.586  26.102  35.390  1.00  0.00     0.060 A 
BRANCH  73  74
ATOM     74  S   UNL A   1      47.966  25.189  36.110  1.00  0.00     0.124 S 
ATOM     75  O   UNL A   1      47.307  23.958  36.536  1.00  0.00    -0.237 OA
ATOM     76  O   UNL A   1      48.881  25.060  34.981  1.00  0.00    -0.237 OA
ATOM     77  O   UNL A   1      48.424  26.061  37.188  1.00  0.00    -0.744 OA
ENDBRANCH  73  74
ENDBRANCH  52  66
BRANCH  53  78
ATOM     78  C   UNL A   1      36.786  32.714  30.541  1.00  0.00     0.058 A 
ATOM     79  C   UNL A   1      35.462  32.437  30.912  1.00  0.00     0.135 A 
ATOM     80  C   UNL A   1      37.002  33.756  29.625  1.00  0.00     0.135 A 
ATOM     81  F   UNL A   1      35.201  31.438  31.769  1.00  0.00    -0.206 F 
ATOM     82  C   UNL A   1      34.392  33.162  30.396  1.00  0.00     0.059 A 
ATOM     83  C   UNL A   1      35.951  34.511  29.113  1.00  0.00     0.059 A 
ATOM     84  F   UNL A   1      38.250  34.063  29.238  1.00  0.00    -0.206 F 
ATOM     85  C   UNL A   1      34.648  34.203  29.502  1.00  0.00     0.060 A 
BRANCH  85  86
ATOM     86  S   UNL A   1      33.257  35.187  28.899  1.00  0.00     0.124 S 
ATOM     87  O   UNL A   1      32.508  35.423  30.128  1.00  0.00    -0.237 OA
ATOM     88  O   UNL A   1      33.931  36.348  28.328  1.00  0.00    -0.237 OA
ATOM     89  O   UNL A   1      32.619  34.303  27.929  1.00  0.00    -0.744 OA
ENDBRANCH  85  86
ENDBRANCH  53  78
BRANCH  65  90
ATOM     90  C   UNL A   1      40.066  32.815  36.706  1.00  0.00     0.058 A 
ATOM     91  C   UNL A   1      39.085  32.536  37.668  1.00  0.00     0.135 A 
ATOM     92  C   UNL A   1      40.951  33.876  36.964  1.00  0.00     0.135 A 
ATOM     93  F   UNL A   1      38.212  31.535  37.472  1.00  0.00    -0.206 F 
ATOM     94  C   UNL A   1      38.973  33.290  38.833  1.00  0.00     0.059 A 
ATOM     95  C   UNL A   1      40.874  34.626  38.133  1.00  0.00     0.059 A 
ATOM     96  F   UNL A   1      41.919  34.178  36.083  1.00  0.00    -0.206 F 
ATOM     97  C   UNL A   1      39.874  34.333  39.058  1.00  0.00     0.060 A 
BRANCH  97  98
ATOM     98  S   UNL A   1      39.744  35.280  40.590  1.00  0.00     0.124 S 
ATOM     99  O   UNL A   1      41.143  35.584  40.867  1.00  0.00    -0.237 OA
ATOM    100  O   UNL A   1      38.916  36.413  40.189  1.00  0.00    -0.237 OA
ATOM    101  O   UNL A   1      39.108  34.345  41.514  1.00  0.00    -0.744 OA
ENDBRANCH  97  98
ENDBRANCH  65  90
ENDBRANCH  39  40
ENDBRANCH  32  34
ENDBRANCH  31  32
ENDBRANCH  30  31
ENDBRANCH  29  30
ENDBRANCH  28  29
ENDBRANCH  27  28
ENDBRANCH   1  27
TORSDOF 25
ENDMDL
MODEL 2
REMARK VINA RESULT:      -9.9      1.344      8.124
REMARK SMILES CCC[NH2+]CC(=O)N1[C@@H](C(=O)OCCOCCOCCOC(=O)c2ccc(-c3c4nc(c(-c5c(F)cc(S(=O)(=O)[O-])cc5F)c5ccc([nH]5)c(-c5c(F)cc(S(=O)(=O)[O-])cc5F)c5nc(c(-c6c(F)cc(S(=O)(=O)[O-])cc6F)c6ccc3[nH]6)C=C5)C=C4)cc2)CC[C@@H]2CCCC[C@@H]21
REMARK SMILES IDX 16 1 15 2 14 3 13 4 12 5 10 6 11 7 9 8 8 9 97 10 90 11 92 12
REMARK SMILES IDX 96 13 91 14 93 15 95 16 94 17 6 18 7 19 5 20 4 21 3 24 2 25
REMARK SMILES IDX 1 26 17 27 18 28 19 29 20 30 21 31 22 32 23 33 24 34 25 35
REMARK SMILES IDX 89 36 26 37 88 38 27 39 28 40 29 41 82 42 30 43 87 44 81 45
REMARK SMILES IDX 83 46 31 47 86 48 80 49 79 50 32 52 66 53 45 54 65 55 46 56
REMARK SMILES IDX 49 57 64 58 84 59 47 60 48 61 63 63 85 64 50 65 33 66 34 67
REMARK SMILES IDX 43 68 35 69 36 70 42 71 44 72 37 73 38 74 39 75 40 76 41 77
REMARK SMILES IDX 67 78 68 79 77 80 69 81 70 82 76 83 78 84 71 85 72 86 73 87
REMARK SMILES IDX 74 88 75 89 51 90 52 91 61 92 53 93 54 94 60 95 62 96 55 97
REMARK SMILES IDX 56 98 57 99 58 100 59 101
REMARK H PARENT 4 22 4 23 83 51 49 62
REMARK Flexibility Score: inf
ROOT
ATOM      1  C   UNL A   1      39.275  21.839  26.107  1.00  0.00     0.188 C 
ENDROOT
BRANCH   1   2
ATOM      2  O   UNL A   1      38.243  21.153  25.395  1.00  0.00    -0.376 OA
BRANCH   2   3
ATOM      3  C   UNL A   1      37.137  21.936  24.964  1.00  0.00     0.202 C 
BRANCH   3   4
ATOM      4  C   UNL A   1      35.856  21.468  25.656  1.00  0.00     0.261 C 
BRANCH   4   5
ATOM      5  O   UNL A   1      34.701  22.236  25.264  1.00  0.00    -0.462 OA
BRANCH   5   6
ATOM      6  C   UNL A   1      34.437  23.267  26.127  1.00  0.00     0.328 C 
ATOM      7  O   UNL A   1      34.765  23.239  27.308  1.00  0.00    -0.250 OA
BRANCH   6   8
ATOM      8  C   UNL A   1      33.742  24.460  25.406  1.00  0.00     0.195 C 
ATOM      9  N   UNL A   1      32.261  24.344  25.290  1.00  0.00    -0.321 N 
ATOM     10  C   UNL A   1      31.528  25.339  24.485  1.00  0.00     0.089 C 
ATOM     11  C   UNL A   1      34.357  24.625  24.006  1.00  0.00     0.037 C 
ATOM     12  C   UNL A   1      32.182  25.536  23.108  1.00  0.00     0.012 C 
ATOM     13  C   UNL A   1      31.314  26.663  25.255  1.00  0.00     0.025 C 
ATOM     14  C   UNL A   1      33.696  25.771  23.235  1.00  0.00     0.008 C 
ATOM     15  C   UNL A   1      31.480  26.650  22.320  1.00  0.00     0.006 C 
ATOM     16  C   UNL A   1      30.771  27.823  24.425  1.00  0.00     0.002 C 
ATOM     17  C   UNL A   1      31.442  27.974  23.070  1.00  0.00     0.000 C 
BRANCH   9  18
ATOM     18  C   UNL A   1      31.511  23.598  26.195  1.00  0.00     0.278 C 
ATOM     19  O   UNL A   1      31.480  23.908  27.388  1.00  0.00    -0.268 OA
BRANCH  18  20
ATOM     20  C   UNL A   1      30.873  22.294  25.684  1.00  0.00     0.362 C 
BRANCH  20  21
ATOM     21  N   UNL A   1      31.841  21.208  25.728  1.00  0.00    -0.338 N 
ATOM     22  H   UNL A   1      32.708  21.568  26.128  1.00  0.00     0.346 HD
ATOM     23  H   UNL A   1      31.425  20.465  26.290  1.00  0.00     0.346 HD
BRANCH  21  24
ATOM     24  C   UNL A   1      32.147  20.626  24.427  1.00  0.00     0.260 C 
BRANCH  24  25
ATOM     25  C   UNL A   1      32.791  19.266  24.693  1.00  0.00     0.058 C 
ATOM     26  C   UNL A   1      32.469  18.271  23.581  1.00  0.00     0.010 C 
ENDBRANCH  24  25
ENDBRANCH  21  24
ENDBRANCH  20  21
ENDBRANCH  18  20
ENDBRANCH   9  18
ENDBRANCH   6   8
ENDBRANCH   5   6
ENDBRANCH   4   5
ENDBRANCH   3   4
ENDBRANCH   2   3
ENDBRANCH   1   2
BRANCH   1  27
ATOM     27  C   UNL A   1      40.454  20.964  26.563  1.00  0.00     0.188 C 
BRANCH  27  28
ATOM     28  O   UNL A   1      41.704  21.617  26.810  1.00  0.00    -0.376 OA
BRANCH  28  29
ATOM     29  C   UNL A   1      42.271  22.385  25.751  1.00  0.00     0.202 C 
BRANCH  29  30
ATOM     30  C   UNL A   1      42.523  23.878  26.007  1.00  0.00     0.261 C 
BRANCH  30  31
ATOM     31  O   UNL A   1      41.325  24.673  26.003  1.00  0.00    -0.460 OA
BRANCH  31  32
ATOM     32  C   UNL A   1      41.554  26.018  26.022  1.00  0.00     0.338 C 
ATOM     33  O   UNL A   1      41.484  26.778  25.084  1.00  0.00    -0.246 OA
BRANCH  32  34
ATOM     34  C   UNL A   1      41.724  26.488  27.418  1.00  0.00     0.060 A 
ATOM     35  C   UNL A   1      40.668  26.238  28.308  1.00  0.00     0.016 A 
ATOM     36  C   UNL A   1      42.842  27.212  27.837  1.00  0.00     0.016 A 
ATOM     37  C   UNL A   1      40.691  26.775  29.595  1.00  0.00     0.010 A 
ATOM     38  C   UNL A   1      42.854  27.768  29.123  1.00  0.00     0.010 A 
ATOM     39  C   UNL A   1      41.754  27.597  29.986  1.00  0.00    -0.014 A 
BRANCH  39  40
ATOM     40  C   UNL A   1      41.567  28.506  31.147  1.00  0.00     0.031 A 
ATOM     41  C   UNL A   1      40.450  29.517  31.067  1.00  0.00     0.074 A 
ATOM     42  C   UNL A   1      42.316  28.424  32.260  1.00  0.00     0.049 A 
ATOM     43  N   UNL A   1      40.086  30.429  31.930  1.00  0.00    -0.248 NA
ATOM     44  C   UNL A   1      39.635  29.489  29.841  1.00  0.00     0.031 C 
ATOM     45  C   UNL A   1      43.385  27.458  32.497  1.00  0.00     0.029 A 
ATOM     46  N   UNL A   1      42.283  29.180  33.407  1.00  0.00    -0.354 N 
ATOM     47  C   UNL A   1      39.004  31.082  31.351  1.00  0.00     0.074 A 
ATOM     48  C   UNL A   1      38.792  30.487  30.051  1.00  0.00     0.031 C 
ATOM     49  C   UNL A   1      43.914  27.686  33.713  1.00  0.00     0.029 A 
ATOM     50  C   UNL A   1      43.239  28.829  34.330  1.00  0.00     0.049 A 
ATOM     51  H   UNL A   1      41.636  29.907  33.554  1.00  0.00     0.167 HD
ATOM     52  C   UNL A   1      38.243  32.082  31.856  1.00  0.00     0.037 A 
ATOM     53  C   UNL A   1      43.540  29.376  35.527  1.00  0.00     0.037 A 
ATOM     54  C   UNL A   1      38.457  32.691  33.141  1.00  0.00     0.049 A 
ATOM     55  C   UNL A   1      42.739  30.550  36.035  1.00  0.00     0.074 A 
ATOM     56  C   UNL A   1      37.747  33.718  33.737  1.00  0.00     0.029 A 
ATOM     57  N   UNL A   1      39.466  32.336  34.024  1.00  0.00    -0.354 N 
ATOM     58  N   UNL A   1      41.713  31.154  35.482  1.00  0.00    -0.248 NA
ATOM     59  C   UNL A   1      43.137  31.117  37.333  1.00  0.00     0.031 C 
ATOM     60  C   UNL A   1      38.355  34.015  34.961  1.00  0.00     0.029 A 
ATOM     61  C   UNL A   1      39.410  33.137  35.152  1.00  0.00     0.049 A 
ATOM     62  H   UNL A   1      40.123  31.619  33.872  1.00  0.00     0.167 HD
ATOM     63  C   UNL A   1      41.322  32.144  36.380  1.00  0.00     0.074 A 
ATOM     64  C   UNL A   1      42.222  32.060  37.511  1.00  0.00     0.031 C 
ATOM     65  C   UNL A   1      40.305  33.036  36.279  1.00  0.00     0.037 A 
BRANCH  52  66
ATOM     66  C   UNL A   1      37.134  32.600  30.984  1.00  0.00     0.058 A 
ATOM     67  C   UNL A   1      37.375  33.519  29.950  1.00  0.00     0.135 A 
ATOM     68  C   UNL A   1      35.808  32.194  31.205  1.00  0.00     0.135 A 
ATOM     69  F   UNL A   1      38.622  33.956  29.711  1.00  0.00    -0.206 F 
ATOM     70  C   UNL A   1      36.336  34.053  29.195  1.00  0.00     0.059 A 
ATOM     71  C   UNL A   1      34.756  32.693  30.442  1.00  0.00     0.059 A 
ATOM     72  F   UNL A   1      35.522  31.322  32.183  1.00  0.00    -0.206 F 
ATOM     73  C   UNL A   1      35.028  33.640  29.456  1.00  0.00     0.060 A 
BRANCH  73  74
ATOM     74  S   UNL A   1      33.684  34.370  28.498  1.00  0.00     0.124 S 
ATOM     75  O   UNL A   1      34.353  35.513  27.885  1.00  0.00    -0.237 OA
ATOM     76  O   UNL A   1      33.321  33.286  27.591  1.00  0.00    -0.237 OA
ATOM     77  O   UNL A   1      32.684  34.697  29.510  1.00  0.00    -0.744 OA
ENDBRANCH  73  74
ENDBRANCH  52  66
BRANCH  53  78
ATOM     78  C   UNL A   1      44.653  28.816  36.340  1.00  0.00     0.058 A 
ATOM     79  C   UNL A   1      44.438  27.743  37.218  1.00  0.00     0.135 A 
ATOM     80  C   UNL A   1      45.953  29.339  36.255  1.00  0.00     0.135 A 
ATOM     81  F   UNL A   1      43.209  27.221  37.349  1.00  0.00    -0.206 F 
ATOM     82  C   UNL A   1      45.470  27.209  37.984  1.00  0.00     0.059 A 
ATOM     83  C   UNL A   1      47.006  28.808  36.994  1.00  0.00     0.059 A 
ATOM     84  F   UNL A   1      46.212  30.365  35.429  1.00  0.00    -0.206 F 
ATOM     85  C   UNL A   1      46.753  27.744  37.859  1.00  0.00     0.060 A 
BRANCH  85  86
ATOM     86  S   UNL A   1      48.099  26.992  38.800  1.00  0.00     0.124 S 
ATOM     87  O   UNL A   1      49.272  27.543  38.131  1.00  0.00    -0.237 OA
ATOM     88  O   UNL A   1      47.840  27.486  40.149  1.00  0.00    -0.237 OA
ATOM     89  O   UNL A   1      47.878  25.561  38.613  1.00  0.00    -0.744 OA
ENDBRANCH  85  86
ENDBRANCH  53  78
BRANCH  65  90
ATOM     90  C   UNL A   1      40.068  33.968  37.438  1.00  0.00     0.058 A 
ATOM     91  C   UNL A   1      40.659  35.238  37.504  1.00  0.00     0.135 A 
ATOM     92  C   UNL A   1      39.176  33.608  38.463  1.00  0.00     0.135 A 
ATOM     93  F   UNL A   1      41.520  35.633  36.553  1.00  0.00    -0.206 F 
ATOM     94  C   UNL A   1      40.392  36.111  38.555  1.00  0.00     0.059 A 
ATOM     95  C   UNL A   1      38.874  34.475  39.509  1.00  0.00     0.059 A 
ATOM     96  F   UNL A   1      38.570  32.410  38.442  1.00  0.00    -0.206 F 
ATOM     97  C   UNL A   1      39.495  35.721  39.553  1.00  0.00     0.060 A 
BRANCH  97  98
ATOM     98  S   UNL A   1      39.126  36.877  40.890  1.00  0.00     0.124 S 
ATOM     99  O   UNL A   1      38.343  37.891  40.193  1.00  0.00    -0.237 OA
ATOM    100  O   UNL A   1      38.387  36.042  41.832  1.00  0.00    -0.237 OA
ATOM    101  O   UNL A   1      40.446  37.304  41.345  1.00  0.00    -0.744 OA
ENDBRANCH  97  98
ENDBRANCH  65  90
ENDBRANCH  39  40
ENDBRANCH  32  34
ENDBRANCH  31  32
ENDBRANCH  30  31
ENDBRANCH  29  30
ENDBRANCH  28  29
ENDBRANCH  27  28
ENDBRANCH   1  27
TORSDOF 25
ENDMDL
MODEL 3
REMARK VINA RESULT:      -9.5      6.166     11.558
REMARK SMILES CCC[NH2+]CC(=O)N1[C@@H](C(=O)OCCOCCOCCOC(=O)c2ccc(-c3c4nc(c(-c5c(F)cc(S(=O)(=O)[O-])cc5F)c5ccc([nH]5)c(-c5c(F)cc(S(=O)(=O)[O-])cc5F)c5nc(c(-c6c(F)cc(S(=O)(=O)[O-])cc6F)c6ccc3[nH]6)C=C5)C=C4)cc2)CC[C@@H]2CCCC[C@@H]21
REMARK SMILES IDX 16 1 15 2 14 3 13 4 12 5 10 6 11 7 9 8 8 9 97 10 90 11 92 12
REMARK SMILES IDX 96 13 91 14 93 15 95 16 94 17 6 18 7 19 5 20 4 21 3 24 2 25
REMARK SMILES IDX 1 26 17 27 18 28 19 29 20 30 21 31 22 32 23 33 24 34 25 35
REMARK SMILES IDX 89 36 26 37 88 38 27 39 28 40 29 41 82 42 30 43 87 44 81 45
REMARK SMILES IDX 83 46 31 47 86 48 80 49 79 50 32 52 66 53 45 54 65 55 46 56
REMARK SMILES IDX 49 57 64 58 84 59 47 60 48 61 63 63 85 64 50 65 33 66 34 67
REMARK SMILES IDX 43 68 35 69 36 70 42 71 44 72 37 73 38 74 39 75 40 76 41 77
REMARK SMILES IDX 67 78 68 79 77 80 69 81 70 82 76 83 78 84 71 85 72 86 73 87
REMARK SMILES IDX 74 88 75 89 51 90 52 91 61 92 53 93 54 94 60 95 62 96 55 97
REMARK SMILES IDX 56 98 57 99 58 100 59 101
REMARK H PARENT 4 22 4 23 83 51 49 62
REMARK Flexibility Score: inf
ROOT
ATOM      1  C   UNL A   1      35.224  31.637  28.066  1.00  0.00     0.188 C 
ENDROOT
BRANCH   1   2
ATOM      2  O   UNL A   1      35.315  30.268  28.467  1.00  0.00    -0.376 OA
BRANCH   2   3
ATOM      3  C   UNL A   1      35.186  29.293  27.440  1.00  0.00     0.202 C 
BRANCH   3   4
ATOM      4  C   UNL A   1      34.187  29.768  26.384  1.00  0.00     0.261 C 
BRANCH   4   5
ATOM      5  O   UNL A   1      32.833  29.807  26.878  1.00  0.00    -0.462 OA
BRANCH   5   6
ATOM      6  C   UNL A   1      31.912  29.471  25.920  1.00  0.00     0.328 C 
ATOM      7  O   UNL A   1      31.126  30.285  25.448  1.00  0.00    -0.250 OA
BRANCH   6   8
ATOM      8  C   UNL A   1      32.044  27.980  25.491  1.00  0.00     0.195 C 
ATOM      9  N   UNL A   1      31.818  27.722  24.041  1.00  0.00    -0.321 N 
ATOM     10  C   UNL A   1      31.761  26.329  23.564  1.00  0.00     0.089 C 
ATOM     11  C   UNL A   1      31.068  27.131  26.323  1.00  0.00     0.037 C 
ATOM     12  C   UNL A   1      30.825  25.476  24.435  1.00  0.00     0.012 C 
ATOM     13  C   UNL A   1      33.171  25.714  23.401  1.00  0.00     0.025 C 
ATOM     14  C   UNL A   1      31.134  25.653  25.930  1.00  0.00     0.008 C 
ATOM     15  C   UNL A   1      30.855  24.005  24.000  1.00  0.00     0.006 C 
ATOM     16  C   UNL A   1      33.205  24.211  23.134  1.00  0.00     0.002 C 
ATOM     17  C   UNL A   1      32.258  23.412  24.013  1.00  0.00     0.000 C 
BRANCH   9  18
ATOM     18  C   UNL A   1      32.042  28.703  23.079  1.00  0.00     0.278 C 
ATOM     19  O   UNL A   1      33.115  29.309  23.040  1.00  0.00    -0.268 OA
BRANCH  18  20
ATOM     20  C   UNL A   1      30.852  29.112  22.191  1.00  0.00     0.362 C 
BRANCH  20  21
ATOM     21  N   UNL A   1      30.127  30.219  22.799  1.00  0.00    -0.338 N 
ATOM     22  H   UNL A   1      30.500  30.369  23.737  1.00  0.00     0.346 HD
ATOM     23  H   UNL A   1      30.256  31.026  22.188  1.00  0.00     0.346 HD
BRANCH  21  24
ATOM     24  C   UNL A   1      28.690  30.004  22.908  1.00  0.00     0.260 C 
BRANCH  24  25
ATOM     25  C   UNL A   1      28.114  31.227  23.622  1.00  0.00     0.058 C 
ATOM     26  C   UNL A   1      28.732  32.519  23.095  1.00  0.00     0.010 C 
ENDBRANCH  24  25
ENDBRANCH  21  24
ENDBRANCH  20  21
ENDBRANCH  18  20
ENDBRANCH   9  18
ENDBRANCH   6   8
ENDBRANCH   5   6
ENDBRANCH   4   5
ENDBRANCH   3   4
ENDBRANCH   2   3
ENDBRANCH   1   2
BRANCH   1  27
ATOM     27  C   UNL A   1      34.696  32.603  29.139  1.00  0.00     0.188 C 
BRANCH  27  28
ATOM     28  O   UNL A   1      35.509  32.811  30.298  1.00  0.00    -0.376 OA
BRANCH  28  29
ATOM     29  C   UNL A   1      35.176  32.087  31.480  1.00  0.00     0.202 C 
BRANCH  29  30
ATOM     30  C   UNL A   1      36.292  31.284  32.164  1.00  0.00     0.261 C 
BRANCH  30  31
ATOM     31  O   UNL A   1      36.438  29.949  31.652  1.00  0.00    -0.460 OA
BRANCH  31  32
ATOM     32  C   UNL A   1      37.425  29.229  32.259  1.00  0.00     0.338 C 
ATOM     33  O   UNL A   1      37.282  28.348  33.076  1.00  0.00    -0.246 OA
BRANCH  32  34
ATOM     34  C   UNL A   1      38.737  29.537  31.640  1.00  0.00     0.060 A 
ATOM     35  C   UNL A   1      38.789  29.568  30.238  1.00  0.00     0.016 A 
ATOM     36  C   UNL A   1      39.900  29.718  32.392  1.00  0.00     0.016 A 
ATOM     37  C   UNL A   1      40.012  29.705  29.582  1.00  0.00     0.010 A 
ATOM     38  C   UNL A   1      41.130  29.836  31.732  1.00  0.00     0.010 A 
ATOM     39  C   UNL A   1      41.195  29.774  30.326  1.00  0.00    -0.014 A 
BRANCH  39  40
ATOM     40  C   UNL A   1      42.484  29.471  29.651  1.00  0.00     0.031 A 
ATOM     41  C   UNL A   1      42.644  28.104  29.036  1.00  0.00     0.074 A 
ATOM     42  C   UNL A   1      43.472  30.376  29.534  1.00  0.00     0.049 A 
ATOM     43  N   UNL A   1      43.666  27.585  28.407  1.00  0.00    -0.248 NA
ATOM     44  C   UNL A   1      41.486  27.201  29.150  1.00  0.00     0.031 C 
ATOM     45  C   UNL A   1      43.429  31.750  30.026  1.00  0.00     0.029 A 
ATOM     46  N   UNL A   1      44.713  30.262  28.956  1.00  0.00    -0.354 N 
ATOM     47  C   UNL A   1      43.275  26.299  28.052  1.00  0.00     0.074 A 
ATOM     48  C   UNL A   1      41.938  26.103  28.566  1.00  0.00     0.031 C 
ATOM     49  C   UNL A   1      44.597  32.352  29.736  1.00  0.00     0.029 A 
ATOM     50  C   UNL A   1      45.480  31.399  29.062  1.00  0.00     0.049 A 
ATOM     51  H   UNL A   1      45.025  29.443  28.509  1.00  0.00     0.167 HD
ATOM     52  C   UNL A   1      43.959  25.362  27.352  1.00  0.00     0.037 A 
ATOM     53  C   UNL A   1      46.750  31.634  28.670  1.00  0.00     0.037 A 
ATOM     54  C   UNL A   1      45.295  25.543  26.853  1.00  0.00     0.049 A 
ATOM     55  C   UNL A   1      47.531  30.547  27.972  1.00  0.00     0.074 A 
ATOM     56  C   UNL A   1      46.077  24.650  26.142  1.00  0.00     0.029 A 
ATOM     57  N   UNL A   1      46.053  26.693  27.022  1.00  0.00    -0.354 N 
ATOM     58  N   UNL A   1      47.148  29.337  27.635  1.00  0.00    -0.248 NA
ATOM     59  C   UNL A   1      48.919  30.860  27.597  1.00  0.00     0.031 C 
ATOM     60  C   UNL A   1      47.325  25.243  25.921  1.00  0.00     0.029 A 
ATOM     61  C   UNL A   1      47.301  26.525  26.448  1.00  0.00     0.049 A 
ATOM     62  H   UNL A   1      45.747  27.507  27.483  1.00  0.00     0.167 HD
ATOM     63  C   UNL A   1      48.232  28.761  26.980  1.00  0.00     0.074 A 
ATOM     64  C   UNL A   1      49.287  29.752  26.967  1.00  0.00     0.031 C 
ATOM     65  C   UNL A   1      48.341  27.525  26.431  1.00  0.00     0.037 A 
BRANCH  52  66
ATOM     66  C   UNL A   1      43.274  24.043  27.131  1.00  0.00     0.058 A 
ATOM     67  C   UNL A   1      42.515  23.789  25.977  1.00  0.00     0.135 A 
ATOM     68  C   UNL A   1      43.353  23.030  28.100  1.00  0.00     0.135 A 
ATOM     69  F   UNL A   1      42.389  24.733  25.030  1.00  0.00    -0.206 F 
ATOM     70  C   UNL A   1      41.820  22.596  25.811  1.00  0.00     0.059 A 
ATOM     71  C   UNL A   1      42.690  21.817  27.941  1.00  0.00     0.059 A 
ATOM     72  F   UNL A   1      44.061  23.222  29.222  1.00  0.00    -0.206 F 
ATOM     73  C   UNL A   1      41.907  21.620  26.805  1.00  0.00     0.060 A 
BRANCH  73  74
ATOM     74  S   UNL A   1      40.969  20.092  26.599  1.00  0.00     0.124 S 
ATOM     75  O   UNL A   1      40.954  19.575  27.964  1.00  0.00    -0.237 OA
ATOM     76  O   UNL A   1      39.689  20.574  26.089  1.00  0.00    -0.237 OA
ATOM     77  O   UNL A   1      41.770  19.327  25.647  1.00  0.00    -0.744 OA
ENDBRANCH  73  74
ENDBRANCH  52  66
BRANCH  53  78
ATOM     78  C   UNL A   1      47.370  32.962  28.923  1.00  0.00     0.058 A 
ATOM     79  C   UNL A   1      48.063  33.221  30.115  1.00  0.00     0.135 A 
ATOM     80  C   UNL A   1      47.285  33.998  27.980  1.00  0.00     0.135 A 
ATOM     81  F   UNL A   1      48.156  32.269  31.057  1.00  0.00    -0.206 F 
ATOM     82  C   UNL A   1      48.649  34.459  30.365  1.00  0.00     0.059 A 
ATOM     83  C   UNL A   1      47.881  35.237  28.197  1.00  0.00     0.059 A 
ATOM     84  F   UNL A   1      46.634  33.802  26.823  1.00  0.00    -0.206 F 
ATOM     85  C   UNL A   1      48.558  35.459  29.395  1.00  0.00     0.060 A 
BRANCH  85  86
ATOM     86  S   UNL A   1      49.388  37.034  29.698  1.00  0.00     0.124 S 
ATOM     87  O   UNL A   1      48.871  37.393  31.014  1.00  0.00    -0.237 OA
ATOM     88  O   UNL A   1      50.796  36.652  29.647  1.00  0.00    -0.237 OA
ATOM     89  O   UNL A   1      48.934  37.870  28.591  1.00  0.00    -0.744 OA
ENDBRANCH  85  86
ENDBRANCH  53  78
BRANCH  65  90
ATOM     90  C   UNL A   1      49.624  27.179  25.723  1.00  0.00     0.058 A 
ATOM     91  C   UNL A   1      49.787  27.372  24.343  1.00  0.00     0.135 A 
ATOM     92  C   UNL A   1      50.731  26.714  26.453  1.00  0.00     0.135 A 
ATOM     93  F   UNL A   1      48.762  27.812  23.597  1.00  0.00    -0.206 F 
ATOM     94  C   UNL A   1      50.995  27.097  23.708  1.00  0.00     0.059 A 
ATOM     95  C   UNL A   1      51.955  26.458  25.843  1.00  0.00     0.059 A 
ATOM     96  F   UNL A   1      50.635  26.525  27.779  1.00  0.00    -0.206 F 
ATOM     97  C   UNL A   1      52.075  26.642  24.467  1.00  0.00     0.060 A 
BRANCH  97  98
ATOM     98  S   UNL A   1      53.649  26.326  23.639  1.00  0.00     0.124 S 
ATOM     99  O   UNL A   1      53.208  26.000  22.287  1.00  0.00    -0.237 OA
ATOM    100  O   UNL A   1      54.344  27.601  23.789  1.00  0.00    -0.237 OA
ATOM    101  O   UNL A   1      54.217  25.217  24.400  1.00  0.00    -0.744 OA
ENDBRANCH  97  98
ENDBRANCH  65  90
ENDBRANCH  39  40
ENDBRANCH  32  34
ENDBRANCH  31  32
ENDBRANCH  30  31
ENDBRANCH  29  30
ENDBRANCH  28  29
ENDBRANCH  27  28
ENDBRANCH   1  27
TORSDOF 25
ENDMDL
