MODEL 1
REMARK VINA RESULT:     -12.0      0.000      0.000
REMARK SMILES O=C(OCCOCCOCCOC(=O)c1ccc([C@@H]2CC(O)=Nc3c2ncn3-c2cccc(Cl)c2)cc1)c1ccc(-c2c3nc(c(-c4c(F)cc(S(=O)(=O)[O-])cc4F)c4ccc([nH]4)c(-c4c(F)cc(S(=O)(=O)[O-])cc4F)c4nc(c(-c5c(F)cc(S(=O)(=O)[O-])cc5F)c5ccc2[nH]5)C=C4)C=C3)cc1
REMARK SMILES IDX 7 1 6 2 5 3 4 4 3 5 2 6 1 7 38 8 39 9 103 10 40 11 102 12
REMARK SMILES IDX 41 13 42 14 43 15 96 16 44 17 101 18 95 19 97 20 45 21
REMARK SMILES IDX 100 22 94 23 93 24 46 26 80 27 59 28 79 29 60 30 63 31 78 32
REMARK SMILES IDX 98 33 61 34 62 35 77 37 99 38 64 39 47 40 48 41 57 42 49 43
REMARK SMILES IDX 50 44 56 45 58 46 51 47 52 48 53 49 54 50 55 51 81 52 82 53
REMARK SMILES IDX 91 54 83 55 84 56 90 57 92 58 85 59 86 60 87 61 88 62 89 63
REMARK SMILES IDX 65 64 66 65 75 66 67 67 68 68 74 69 76 70 69 71 70 72 71 73
REMARK SMILES IDX 72 74 73 75 8 76 9 77 10 78 11 79 12 80 13 81 14 82 15 83
REMARK SMILES IDX 16 84 37 85 17 86 36 87 18 88 19 89 20 90 25 91 21 92 24 93
REMARK SMILES IDX 26 94 23 95 28 96 27 97 22 98 29 100 30 101 35 102 31 103
REMARK SMILES IDX 33 104 32 105 34 106
REMARK H PARENT 97 25 63 36 22 99
REMARK Flexibility Score: inf
ROOT
ATOM      1  C   UNL A   1      36.144  22.712  25.935  1.00  0.00     0.188 C 
ENDROOT
BRANCH   1   2
ATOM      2  O   UNL A   1      37.316  22.630  25.137  1.00  0.00    -0.376 OA
BRANCH   2   3
ATOM      3  C   UNL A   1      38.201  21.564  25.428  1.00  0.00     0.202 C 
BRANCH   3   4
ATOM      4  C   UNL A   1      39.388  21.939  26.319  1.00  0.00     0.261 C 
BRANCH   4   5
ATOM      5  O   UNL A   1      40.631  21.281  26.021  1.00  0.00    -0.460 OA
BRANCH   5   6
ATOM      6  C   UNL A   1      41.862  21.429  26.546  1.00  0.00     0.338 C 
ATOM      7  O   UNL A   1      42.518  20.428  26.831  1.00  0.00    -0.246 OA
BRANCH   6   8
ATOM      8  C   UNL A   1      42.380  22.745  26.990  1.00  0.00     0.060 A 
ATOM      9  C   UNL A   1      42.914  23.001  28.252  1.00  0.00     0.016 A 
ATOM     10  C   UNL A   1      42.208  23.809  26.081  1.00  0.00     0.016 A 
ATOM     11  C   UNL A   1      43.165  24.307  28.645  1.00  0.00     0.010 A 
ATOM     12  C   UNL A   1      42.450  25.117  26.473  1.00  0.00     0.010 A 
ATOM     13  C   UNL A   1      42.840  25.357  27.787  1.00  0.00    -0.014 A 
BRANCH  13  14
ATOM     14  C   UNL A   1      42.721  26.676  28.394  1.00  0.00     0.031 A 
ATOM     15  C   UNL A   1      43.851  27.622  28.219  1.00  0.00     0.074 A 
ATOM     16  C   UNL A   1      41.606  26.997  29.082  1.00  0.00     0.049 A 
ATOM     17  N   UNL A   1      44.592  28.174  29.128  1.00  0.00    -0.248 NA
ATOM     18  C   UNL A   1      44.249  27.946  26.841  1.00  0.00     0.031 C 
ATOM     19  C   UNL A   1      40.336  26.259  29.129  1.00  0.00     0.029 A 
ATOM     20  N   UNL A   1      41.337  28.116  29.808  1.00  0.00    -0.354 N 
ATOM     21  C   UNL A   1      45.415  29.074  28.453  1.00  0.00     0.074 A 
ATOM     22  C   UNL A   1      45.254  28.798  27.047  1.00  0.00     0.031 C 
ATOM     23  C   UNL A   1      39.377  27.060  29.635  1.00  0.00     0.029 A 
ATOM     24  C   UNL A   1      39.988  28.305  30.065  1.00  0.00     0.049 A 
ATOM     25  H   UNL A   1      42.036  28.735  30.122  1.00  0.00     0.167 HD
ATOM     26  C   UNL A   1      46.016  30.126  29.076  1.00  0.00     0.037 A 
ATOM     27  C   UNL A   1      39.399  29.445  30.499  1.00  0.00     0.037 A 
ATOM     28  C   UNL A   1      46.103  29.942  30.500  1.00  0.00     0.049 A 
ATOM     29  C   UNL A   1      40.449  30.267  31.153  1.00  0.00     0.074 A 
ATOM     30  C   UNL A   1      46.703  29.012  31.326  1.00  0.00     0.029 A 
ATOM     31  N   UNL A   1      45.243  30.647  31.305  1.00  0.00    -0.354 N 
ATOM     32  N   UNL A   1      41.056  29.936  32.260  1.00  0.00    -0.248 NA
ATOM     33  C   UNL A   1      41.130  31.273  30.352  1.00  0.00     0.031 C 
ATOM     34  C   UNL A   1      45.835  28.892  32.450  1.00  0.00     0.029 A 
ATOM     35  C   UNL A   1      44.769  29.771  32.249  1.00  0.00     0.049 A 
ATOM     36  H   UNL A   1      45.011  31.601  31.222  1.00  0.00     0.167 HD
ATOM     37  C   UNL A   1      42.363  30.377  32.102  1.00  0.00     0.074 A 
ATOM     38  C   UNL A   1      42.319  31.283  30.959  1.00  0.00     0.031 C 
ATOM     39  C   UNL A   1      43.405  29.760  32.735  1.00  0.00     0.037 A 
BRANCH  26  40
ATOM     40  C   UNL A   1      46.233  31.466  28.417  1.00  0.00     0.058 A 
ATOM     41  C   UNL A   1      45.133  32.293  28.112  1.00  0.00     0.135 A 
ATOM     42  C   UNL A   1      47.460  31.837  27.820  1.00  0.00     0.135 A 
ATOM     43  F   UNL A   1      43.916  32.022  28.612  1.00  0.00    -0.206 F 
ATOM     44  C   UNL A   1      45.231  33.369  27.228  1.00  0.00     0.059 A 
ATOM     45  C   UNL A   1      47.592  32.936  26.982  1.00  0.00     0.059 A 
ATOM     46  F   UNL A   1      48.562  31.086  27.942  1.00  0.00    -0.206 F 
ATOM     47  C   UNL A   1      46.464  33.668  26.651  1.00  0.00     0.060 A 
BRANCH  47  48
ATOM     48  S   UNL A   1      46.572  34.960  25.400  1.00  0.00     0.124 S 
ATOM     49  O   UNL A   1      45.598  34.492  24.420  1.00  0.00    -0.237 OA
ATOM     50  O   UNL A   1      46.198  36.151  26.157  1.00  0.00    -0.237 OA
ATOM     51  O   UNL A   1      47.970  34.904  24.982  1.00  0.00    -0.744 OA
ENDBRANCH  47  48
ENDBRANCH  26  40
BRANCH  27  52
ATOM     52  C   UNL A   1      38.103  29.986  30.016  1.00  0.00     0.058 A 
ATOM     53  C   UNL A   1      37.180  30.573  30.895  1.00  0.00     0.135 A 
ATOM     54  C   UNL A   1      37.846  30.157  28.638  1.00  0.00     0.135 A 
ATOM     55  F   UNL A   1      37.366  30.493  32.221  1.00  0.00    -0.206 F 
ATOM     56  C   UNL A   1      36.079  31.307  30.435  1.00  0.00     0.059 A 
ATOM     57  C   UNL A   1      36.748  30.864  28.157  1.00  0.00     0.059 A 
ATOM     58  F   UNL A   1      38.706  29.719  27.707  1.00  0.00    -0.206 F 
ATOM     59  C   UNL A   1      35.879  31.456  29.062  1.00  0.00     0.060 A 
BRANCH  59  60
ATOM     60  S   UNL A   1      34.551  32.524  28.460  1.00  0.00     0.124 S 
ATOM     61  O   UNL A   1      33.991  33.037  29.705  1.00  0.00    -0.237 OA
ATOM     62  O   UNL A   1      35.279  33.488  27.642  1.00  0.00    -0.237 OA
ATOM     63  O   UNL A   1      33.688  31.608  27.719  1.00  0.00    -0.744 OA
ENDBRANCH  59  60
ENDBRANCH  27  52
BRANCH  39  64
ATOM     64  C   UNL A   1      43.087  28.773  33.829  1.00  0.00     0.058 A 
ATOM     65  C   UNL A   1      42.851  29.146  35.164  1.00  0.00     0.135 A 
ATOM     66  C   UNL A   1      42.851  27.433  33.489  1.00  0.00     0.135 A 
ATOM     67  F   UNL A   1      42.941  30.427  35.544  1.00  0.00    -0.206 F 
ATOM     68  C   UNL A   1      42.437  28.223  36.125  1.00  0.00     0.059 A 
ATOM     69  C   UNL A   1      42.408  26.500  34.426  1.00  0.00     0.059 A 
ATOM     70  F   UNL A   1      42.989  27.027  32.216  1.00  0.00    -0.206 F 
ATOM     71  C   UNL A   1      42.214  26.901  35.747  1.00  0.00     0.060 A 
BRANCH  71  72
ATOM     72  S   UNL A   1      41.575  25.737  36.972  1.00  0.00     0.124 S 
ATOM     73  O   UNL A   1      42.662  25.683  37.943  1.00  0.00    -0.237 OA
ATOM     74  O   UNL A   1      40.352  26.395  37.427  1.00  0.00    -0.237 OA
ATOM     75  O   UNL A   1      41.362  24.514  36.203  1.00  0.00    -0.744 OA
ENDBRANCH  71  72
ENDBRANCH  39  64
ENDBRANCH  13  14
ENDBRANCH   6   8
ENDBRANCH   5   6
ENDBRANCH   4   5
ENDBRANCH   3   4
ENDBRANCH   2   3
ENDBRANCH   1   2
BRANCH   1  76
ATOM     76  C   UNL A   1      35.392  21.373  26.103  1.00  0.00     0.188 C 
BRANCH  76  77
ATOM     77  O   UNL A   1      35.511  20.305  25.168  1.00  0.00    -0.376 OA
BRANCH  77  78
ATOM     78  C   UNL A   1      34.354  19.681  24.649  1.00  0.00     0.202 C 
BRANCH  78  79
ATOM     79  C   UNL A   1      33.086  19.748  25.507  1.00  0.00     0.261 C 
BRANCH  79  80
ATOM     80  O   UNL A   1      31.951  20.377  24.889  1.00  0.00    -0.460 OA
BRANCH  80  81
ATOM     81  C   UNL A   1      32.220  21.069  23.755  1.00  0.00     0.338 C 
ATOM     82  O   UNL A   1      32.035  20.713  22.606  1.00  0.00    -0.246 OA
BRANCH  81  83
ATOM     83  C   UNL A   1      32.738  22.410  24.088  1.00  0.00     0.060 A 
ATOM     84  C   UNL A   1      32.170  23.096  25.165  1.00  0.00     0.016 A 
ATOM     85  C   UNL A   1      33.670  23.041  23.264  1.00  0.00     0.016 A 
ATOM     86  C   UNL A   1      32.522  24.421  25.409  1.00  0.00     0.005 A 
ATOM     87  C   UNL A   1      33.985  24.388  23.485  1.00  0.00     0.005 A 
ATOM     88  C   UNL A   1      33.401  25.101  24.549  1.00  0.00    -0.038 A 
BRANCH  88  89
ATOM     89  C   UNL A   1      33.524  26.607  24.726  1.00  0.00     0.081 C 
ATOM     90  C   UNL A   1      33.301  26.999  26.203  1.00  0.00     0.111 C 
ATOM     91  C   UNL A   1      32.548  27.282  23.842  1.00  0.00     0.093 A 
ATOM     92  C   UNL A   1      31.933  27.597  26.495  1.00  0.00     0.188 C 
ATOM     93  C   UNL A   1      31.503  28.019  24.356  1.00  0.00     0.164 A 
ATOM     94  N   UNL A   1      32.541  27.265  22.479  1.00  0.00    -0.238 NA
ATOM     95  N   UNL A   1      31.114  28.137  25.650  1.00  0.00    -0.198 NA
ATOM     96  N   UNL A   1      30.831  28.509  23.251  1.00  0.00    -0.283 N 
ATOM     97  C   UNL A   1      31.483  27.981  22.153  1.00  0.00     0.206 A 
BRANCH  92  98
ATOM     98  O   UNL A   1      31.600  27.600  27.801  1.00  0.00    -0.496 OA
ATOM     99  H   UNL A   1      32.180  27.979  28.432  1.00  0.00     0.294 HD
ENDBRANCH  92  98
BRANCH  96 100
ATOM    100  C   UNL A   1      29.707  29.369  23.233  1.00  0.00     0.050 A 
ATOM    101  C   UNL A   1      28.417  28.835  23.120  1.00  0.00     0.027 A 
ATOM    102  C   UNL A   1      29.891  30.756  23.318  1.00  0.00     0.047 A 
ATOM    103  C   UNL A   1      27.313  29.688  23.129  1.00  0.00     0.004 A 
ATOM    104  C   UNL A   1      28.782  31.599  23.280  1.00  0.00     0.043 A 
ATOM    105  C   UNL A   1      27.494  31.071  23.198  1.00  0.00     0.020 A 
ATOM    106  Cl  UNL A   1      29.001  33.306  23.317  1.00  0.00    -0.084 Cl
ENDBRANCH  96 100
ENDBRANCH  88  89
ENDBRANCH  81  83
ENDBRANCH  80  81
ENDBRANCH  79  80
ENDBRANCH  78  79
ENDBRANCH  77  78
ENDBRANCH  76  77
ENDBRANCH   1  76
TORSDOF 23
ENDMDL
MODEL 2
REMARK VINA RESULT:     -11.7      3.056      9.729
REMARK SMILES O=C(OCCOCCOCCOC(=O)c1ccc([C@@H]2CC(O)=Nc3c2ncn3-c2cccc(Cl)c2)cc1)c1ccc(-c2c3nc(c(-c4c(F)cc(S(=O)(=O)[O-])cc4F)c4ccc([nH]4)c(-c4c(F)cc(S(=O)(=O)[O-])cc4F)c4nc(c(-c5c(F)cc(S(=O)(=O)[O-])cc5F)c5ccc2[nH]5)C=C4)C=C3)cc1
REMARK SMILES IDX 7 1 6 2 5 3 4 4 3 5 2 6 1 7 38 8 39 9 103 10 40 11 102 12
REMARK SMILES IDX 41 13 42 14 43 15 96 16 44 17 101 18 95 19 97 20 45 21
REMARK SMILES IDX 100 22 94 23 93 24 46 26 80 27 59 28 79 29 60 30 63 31 78 32
REMARK SMILES IDX 98 33 61 34 62 35 77 37 99 38 64 39 47 40 48 41 57 42 49 43
REMARK SMILES IDX 50 44 56 45 58 46 51 47 52 48 53 49 54 50 55 51 81 52 82 53
REMARK SMILES IDX 91 54 83 55 84 56 90 57 92 58 85 59 86 60 87 61 88 62 89 63
REMARK SMILES IDX 65 64 66 65 75 66 67 67 68 68 74 69 76 70 69 71 70 72 71 73
REMARK SMILES IDX 72 74 73 75 8 76 9 77 10 78 11 79 12 80 13 81 14 82 15 83
REMARK SMILES IDX 16 84 37 85 17 86 36 87 18 88 19 89 20 90 25 91 21 92 24 93
REMARK SMILES IDX 26 94 23 95 28 96 27 97 22 98 29 100 30 101 35 102 31 103
REMARK SMILES IDX 33 104 32 105 34 106
REMARK H PARENT 97 25 63 36 22 99
REMARK Flexibility Score: inf
ROOT
ATOM      1  C   UNL A   1      32.542  36.289  30.834  1.00  0.00     0.188 C 
ENDROOT
BRANCH   1   2
ATOM      2  O   UNL A   1      32.916  37.547  31.375  1.00  0.00    -0.376 OA
BRANCH   2   3
ATOM      3  C   UNL A   1      33.969  37.536  32.322  1.00  0.00     0.202 C 
BRANCH   3   4
ATOM      4  C   UNL A   1      34.303  36.157  32.897  1.00  0.00     0.261 C 
BRANCH   4   5
ATOM      5  O   UNL A   1      35.359  35.439  32.237  1.00  0.00    -0.460 OA
BRANCH   5   6
ATOM      6  C   UNL A   1      35.507  34.128  31.964  1.00  0.00     0.338 C 
ATOM      7  O   UNL A   1      34.518  33.464  31.658  1.00  0.00    -0.246 OA
BRANCH   6   8
ATOM      8  C   UNL A   1      36.774  33.404  32.220  1.00  0.00     0.060 A 
ATOM      9  C   UNL A   1      38.045  33.903  31.934  1.00  0.00     0.016 A 
ATOM     10  C   UNL A   1      36.639  32.082  32.690  1.00  0.00     0.016 A 
ATOM     11  C   UNL A   1      39.148  33.067  32.004  1.00  0.00     0.010 A 
ATOM     12  C   UNL A   1      37.739  31.239  32.754  1.00  0.00     0.010 A 
ATOM     13  C   UNL A   1      38.971  31.721  32.320  1.00  0.00    -0.014 A 
BRANCH  13  14
ATOM     14  C   UNL A   1      40.063  30.823  31.967  1.00  0.00     0.031 A 
ATOM     15  C   UNL A   1      41.094  30.548  33.000  1.00  0.00     0.074 A 
ATOM     16  C   UNL A   1      40.106  30.275  30.735  1.00  0.00     0.049 A 
ATOM     17  N   UNL A   1      42.366  30.788  32.957  1.00  0.00    -0.248 NA
ATOM     18  C   UNL A   1      40.631  29.989  34.278  1.00  0.00     0.031 C 
ATOM     19  C   UNL A   1      39.047  30.271  29.717  1.00  0.00     0.029 A 
ATOM     20  N   UNL A   1      41.078  29.508  30.170  1.00  0.00    -0.354 N 
ATOM     21  C   UNL A   1      42.899  30.223  34.114  1.00  0.00     0.074 A 
ATOM     22  C   UNL A   1      41.778  29.865  34.947  1.00  0.00     0.031 C 
ATOM     23  C   UNL A   1      39.339  29.348  28.778  1.00  0.00     0.029 A 
ATOM     24  C   UNL A   1      40.654  28.799  29.057  1.00  0.00     0.049 A 
ATOM     25  H   UNL A   1      41.998  29.461  30.519  1.00  0.00     0.167 HD
ATOM     26  C   UNL A   1      44.216  29.893  34.229  1.00  0.00     0.037 A 
ATOM     27  C   UNL A   1      41.291  27.758  28.471  1.00  0.00     0.037 A 
ATOM     28  C   UNL A   1      45.040  30.589  33.278  1.00  0.00     0.049 A 
ATOM     29  C   UNL A   1      42.723  27.839  28.856  1.00  0.00     0.074 A 
ATOM     30  C   UNL A   1      45.318  31.917  33.020  1.00  0.00     0.029 A 
ATOM     31  N   UNL A   1      45.513  29.898  32.191  1.00  0.00    -0.354 N 
ATOM     32  N   UNL A   1      43.532  28.791  28.477  1.00  0.00    -0.248 NA
ATOM     33  C   UNL A   1      43.166  27.075  30.012  1.00  0.00     0.031 C 
ATOM     34  C   UNL A   1      45.500  31.996  31.609  1.00  0.00     0.029 A 
ATOM     35  C   UNL A   1      45.342  30.707  31.096  1.00  0.00     0.049 A 
ATOM     36  H   UNL A   1      45.902  28.993  32.195  1.00  0.00     0.167 HD
ATOM     37  C   UNL A   1      44.366  29.011  29.564  1.00  0.00     0.074 A 
ATOM     38  C   UNL A   1      44.164  27.857  30.434  1.00  0.00     0.031 C 
ATOM     39  C   UNL A   1      44.935  30.233  29.790  1.00  0.00     0.037 A 
BRANCH  26  40
ATOM     40  C   UNL A   1      44.705  28.689  34.998  1.00  0.00     0.058 A 
ATOM     41  C   UNL A   1      44.336  27.391  34.592  1.00  0.00     0.135 A 
ATOM     42  C   UNL A   1      45.288  28.785  36.282  1.00  0.00     0.135 A 
ATOM     43  F   UNL A   1      43.757  27.187  33.397  1.00  0.00    -0.206 F 
ATOM     44  C   UNL A   1      44.476  26.280  35.427  1.00  0.00     0.059 A 
ATOM     45  C   UNL A   1      45.489  27.686  37.107  1.00  0.00     0.059 A 
ATOM     46  F   UNL A   1      45.594  29.966  36.834  1.00  0.00    -0.206 F 
ATOM     47  C   UNL A   1      45.035  26.444  36.692  1.00  0.00     0.060 A 
BRANCH  47  48
ATOM     48  S   UNL A   1      45.088  25.049  37.831  1.00  0.00     0.124 S 
ATOM     49  O   UNL A   1      44.366  24.033  37.072  1.00  0.00    -0.237 OA
ATOM     50  O   UNL A   1      46.523  24.834  37.986  1.00  0.00    -0.237 OA
ATOM     51  O   UNL A   1      44.405  25.559  39.016  1.00  0.00    -0.744 OA
ENDBRANCH  47  48
ENDBRANCH  26  40
BRANCH  27  52
ATOM     52  C   UNL A   1      40.640  26.528  27.951  1.00  0.00     0.058 A 
ATOM     53  C   UNL A   1      39.650  25.856  28.684  1.00  0.00     0.135 A 
ATOM     54  C   UNL A   1      40.806  26.119  26.609  1.00  0.00     0.135 A 
ATOM     55  F   UNL A   1      39.399  26.205  29.955  1.00  0.00    -0.206 F 
ATOM     56  C   UNL A   1      38.854  24.855  28.113  1.00  0.00     0.059 A 
ATOM     57  C   UNL A   1      40.042  25.113  26.026  1.00  0.00     0.059 A 
ATOM     58  F   UNL A   1      41.659  26.749  25.787  1.00  0.00    -0.206 F 
ATOM     59  C   UNL A   1      39.051  24.499  26.778  1.00  0.00     0.060 A 
BRANCH  59  60
ATOM     60  S   UNL A   1      37.933  23.317  25.991  1.00  0.00     0.124 S 
ATOM     61  O   UNL A   1      37.821  23.863  24.642  1.00  0.00    -0.237 OA
ATOM     62  O   UNL A   1      38.673  22.066  26.115  1.00  0.00    -0.237 OA
ATOM     63  O   UNL A   1      36.721  23.404  26.801  1.00  0.00    -0.744 OA
ENDBRANCH  59  60
ENDBRANCH  27  52
BRANCH  39  64
ATOM     64  C   UNL A   1      44.873  31.260  28.689  1.00  0.00     0.058 A 
ATOM     65  C   UNL A   1      45.769  31.289  27.605  1.00  0.00     0.135 A 
ATOM     66  C   UNL A   1      43.779  32.136  28.636  1.00  0.00     0.135 A 
ATOM     67  F   UNL A   1      46.774  30.407  27.522  1.00  0.00    -0.206 F 
ATOM     68  C   UNL A   1      45.609  32.175  26.539  1.00  0.00     0.059 A 
ATOM     69  C   UNL A   1      43.582  33.009  27.566  1.00  0.00     0.059 A 
ATOM     70  F   UNL A   1      42.848  32.109  29.604  1.00  0.00    -0.206 F 
ATOM     71  C   UNL A   1      44.509  33.030  26.526  1.00  0.00     0.060 A 
BRANCH  71  72
ATOM     72  S   UNL A   1      44.249  34.096  25.090  1.00  0.00     0.124 S 
ATOM     73  O   UNL A   1      44.104  33.128  24.009  1.00  0.00    -0.237 OA
ATOM     74  O   UNL A   1      43.038  34.828  25.453  1.00  0.00    -0.237 OA
ATOM     75  O   UNL A   1      45.463  34.908  25.044  1.00  0.00    -0.744 OA
ENDBRANCH  71  72
ENDBRANCH  39  64
ENDBRANCH  13  14
ENDBRANCH   6   8
ENDBRANCH   5   6
ENDBRANCH   4   5
ENDBRANCH   3   4
ENDBRANCH   2   3
ENDBRANCH   1   2
BRANCH   1  76
ATOM     76  C   UNL A   1      33.096  36.013  29.419  1.00  0.00     0.188 C 
BRANCH  76  77
ATOM     77  O   UNL A   1      32.928  34.760  28.762  1.00  0.00    -0.376 OA
BRANCH  77  78
ATOM     78  C   UNL A   1      34.026  34.137  28.126  1.00  0.00     0.202 C 
BRANCH  78  79
ATOM     79  C   UNL A   1      34.224  32.641  28.393  1.00  0.00     0.261 C 
BRANCH  79  80
ATOM     80  O   UNL A   1      33.480  31.755  27.541  1.00  0.00    -0.460 OA
BRANCH  80  81
ATOM     81  C   UNL A   1      34.074  30.564  27.286  1.00  0.00     0.338 C 
ATOM     82  O   UNL A   1      35.231  30.249  27.499  1.00  0.00    -0.246 OA
BRANCH  81  83
ATOM     83  C   UNL A   1      33.088  29.609  26.745  1.00  0.00     0.060 A 
ATOM     84  C   UNL A   1      33.186  28.266  27.116  1.00  0.00     0.016 A 
ATOM     85  C   UNL A   1      32.167  30.007  25.774  1.00  0.00     0.016 A 
ATOM     86  C   UNL A   1      32.375  27.314  26.504  1.00  0.00     0.005 A 
ATOM     87  C   UNL A   1      31.387  29.040  25.128  1.00  0.00     0.005 A 
ATOM     88  C   UNL A   1      31.493  27.678  25.471  1.00  0.00    -0.038 A 
BRANCH  88  89
ATOM     89  C   UNL A   1      30.846  26.552  24.678  1.00  0.00     0.081 C 
ATOM     90  C   UNL A   1      29.727  25.882  25.504  1.00  0.00     0.111 C 
ATOM     91  C   UNL A   1      31.883  25.572  24.289  1.00  0.00     0.093 A 
ATOM     92  C   UNL A   1      30.110  24.539  26.107  1.00  0.00     0.188 C 
ATOM     93  C   UNL A   1      31.872  24.283  24.777  1.00  0.00     0.164 A 
ATOM     94  N   UNL A   1      32.937  25.794  23.453  1.00  0.00    -0.238 NA
ATOM     95  N   UNL A   1      31.068  23.752  25.732  1.00  0.00    -0.198 NA
ATOM     96  N   UNL A   1      32.959  23.665  24.185  1.00  0.00    -0.283 N 
ATOM     97  C   UNL A   1      33.582  24.644  23.435  1.00  0.00     0.206 A 
BRANCH  92  98
ATOM     98  O   UNL A   1      29.299  24.130  27.103  1.00  0.00    -0.496 OA
ATOM     99  H   UNL A   1      28.469  23.744  26.903  1.00  0.00     0.294 HD
ENDBRANCH  92  98
BRANCH  96 100
ATOM    100  C   UNL A   1      33.363  22.315  24.316  1.00  0.00     0.050 A 
ATOM    101  C   UNL A   1      34.531  21.998  25.022  1.00  0.00     0.027 A 
ATOM    102  C   UNL A   1      32.597  21.299  23.727  1.00  0.00     0.047 A 
ATOM    103  C   UNL A   1      34.909  20.662  25.167  1.00  0.00     0.004 A 
ATOM    104  C   UNL A   1      33.011  19.974  23.842  1.00  0.00     0.043 A 
ATOM    105  C   UNL A   1      34.156  19.650  24.569  1.00  0.00     0.020 A 
ATOM    106  Cl  UNL A   1      32.113  18.726  23.066  1.00  0.00    -0.084 Cl
ENDBRANCH  96 100
ENDBRANCH  88  89
ENDBRANCH  81  83
ENDBRANCH  80  81
ENDBRANCH  79  80
ENDBRANCH  78  79
ENDBRANCH  77  78
ENDBRANCH  76  77
ENDBRANCH   1  76
TORSDOF 23
ENDMDL
MODEL 3
REMARK VINA RESULT:     -11.5      2.579      3.809
REMARK SMILES O=C(OCCOCCOCCOC(=O)c1ccc([C@@H]2CC(O)=Nc3c2ncn3-c2cccc(Cl)c2)cc1)c1ccc(-c2c3nc(c(-c4c(F)cc(S(=O)(=O)[O-])cc4F)c4ccc([nH]4)c(-c4c(F)cc(S(=O)(=O)[O-])cc4F)c4nc(c(-c5c(F)cc(S(=O)(=O)[O-])cc5F)c5ccc2[nH]5)C=C4)C=C3)cc1
REMARK SMILES IDX 7 1 6 2 5 3 4 4 3 5 2 6 1 7 38 8 39 9 103 10 40 11 102 12
REMARK SMILES IDX 41 13 42 14 43 15 96 16 44 17 101 18 95 19 97 20 45 21
REMARK SMILES IDX 100 22 94 23 93 24 46 26 80 27 59 28 79 29 60 30 63 31 78 32
REMARK SMILES IDX 98 33 61 34 62 35 77 37 99 38 64 39 47 40 48 41 57 42 49 43
REMARK SMILES IDX 50 44 56 45 58 46 51 47 52 48 53 49 54 50 55 51 81 52 82 53
REMARK SMILES IDX 91 54 83 55 84 56 90 57 92 58 85 59 86 60 87 61 88 62 89 63
REMARK SMILES IDX 65 64 66 65 75 66 67 67 68 68 74 69 76 70 69 71 70 72 71 73
REMARK SMILES IDX 72 74 73 75 8 76 9 77 10 78 11 79 12 80 13 81 14 82 15 83
REMARK SMILES IDX 16 84 37 85 17 86 36 87 18 88 19 89 20 90 25 91 21 92 24 93
REMARK SMILES IDX 26 94 23 95 28 96 27 97 22 98 29 100 30 101 35 102 31 103
REMARK SMILES IDX 33 104 32 105 34 106
REMARK H PARENT 97 25 63 36 22 99
REMARK Flexibility Score: inf
ROOT
ATOM      1  C   UNL A   1      41.401  20.081  26.271  1.00  0.00     0.188 C 
ENDROOT
BRANCH   1   2
ATOM      2  O   UNL A   1      42.157  21.278  26.377  1.00  0.00    -0.376 OA
BRANCH   2   3
ATOM      3  C   UNL A   1      42.266  21.841  27.671  1.00  0.00     0.202 C 
BRANCH   3   4
ATOM      4  C   UNL A   1      42.547  23.345  27.696  1.00  0.00     0.261 C 
BRANCH   4   5
ATOM      5  O   UNL A   1      42.206  24.069  26.502  1.00  0.00    -0.460 OA
BRANCH   5   6
ATOM      6  C   UNL A   1      42.869  25.025  25.823  1.00  0.00     0.338 C 
ATOM      7  O   UNL A   1      43.567  24.705  24.862  1.00  0.00    -0.246 OA
BRANCH   6   8
ATOM      8  C   UNL A   1      42.963  26.421  26.311  1.00  0.00     0.060 A 
ATOM      9  C   UNL A   1      43.909  26.879  27.228  1.00  0.00     0.016 A 
ATOM     10  C   UNL A   1      41.944  27.292  25.874  1.00  0.00     0.016 A 
ATOM     11  C   UNL A   1      43.776  28.141  27.786  1.00  0.00     0.010 A 
ATOM     12  C   UNL A   1      41.803  28.552  26.436  1.00  0.00     0.010 A 
ATOM     13  C   UNL A   1      42.672  28.926  27.457  1.00  0.00    -0.014 A 
BRANCH  13  14
ATOM     14  C   UNL A   1      42.361  30.021  28.366  1.00  0.00     0.031 A 
ATOM     15  C   UNL A   1      43.385  31.080  28.549  1.00  0.00     0.074 A 
ATOM     16  C   UNL A   1      41.172  30.044  29.003  1.00  0.00     0.049 A 
ATOM     17  N   UNL A   1      43.994  31.438  29.635  1.00  0.00    -0.248 NA
ATOM     18  C   UNL A   1      43.838  31.792  27.345  1.00  0.00     0.031 C 
ATOM     19  C   UNL A   1      39.995  29.206  28.736  1.00  0.00     0.029 A 
ATOM     20  N   UNL A   1      40.727  30.901  29.960  1.00  0.00    -0.354 N 
ATOM     21  C   UNL A   1      44.753  32.556  29.296  1.00  0.00     0.074 A 
ATOM     22  C   UNL A   1      44.722  32.649  27.858  1.00  0.00     0.031 C 
ATOM     23  C   UNL A   1      38.918  29.752  29.335  1.00  0.00     0.029 A 
ATOM     24  C   UNL A   1      39.351  30.890  30.126  1.00  0.00     0.049 A 
ATOM     25  H   UNL A   1      41.327  31.477  30.488  1.00  0.00     0.167 HD
ATOM     26  C   UNL A   1      45.185  33.457  30.222  1.00  0.00     0.037 A 
ATOM     27  C   UNL A   1      38.607  31.815  30.778  1.00  0.00     0.037 A 
ATOM     28  C   UNL A   1      45.193  32.912  31.553  1.00  0.00     0.049 A 
ATOM     29  C   UNL A   1      39.509  32.528  31.718  1.00  0.00     0.074 A 
ATOM     30  C   UNL A   1      45.838  31.856  32.169  1.00  0.00     0.029 A 
ATOM     31  N   UNL A   1      44.205  33.297  32.425  1.00  0.00    -0.354 N 
ATOM     32  N   UNL A   1      40.072  31.974  32.757  1.00  0.00    -0.248 NA
ATOM     33  C   UNL A   1      40.123  33.769  31.271  1.00  0.00     0.031 C 
ATOM     34  C   UNL A   1      44.913  31.364  33.134  1.00  0.00     0.029 A 
ATOM     35  C   UNL A   1      43.770  32.162  33.063  1.00  0.00     0.049 A 
ATOM     36  H   UNL A   1      43.872  34.212  32.567  1.00  0.00     0.167 HD
ATOM     37  C   UNL A   1      41.327  32.560  32.844  1.00  0.00     0.074 A 
ATOM     38  C   UNL A   1      41.259  33.728  31.973  1.00  0.00     0.031 C 
ATOM     39  C   UNL A   1      42.386  31.896  33.396  1.00  0.00     0.037 A 
BRANCH  26  40
ATOM     40  C   UNL A   1      45.292  34.938  29.952  1.00  0.00     0.058 A 
ATOM     41  C   UNL A   1      44.134  35.696  29.689  1.00  0.00     0.135 A 
ATOM     42  C   UNL A   1      46.519  35.577  29.664  1.00  0.00     0.135 A 
ATOM     43  F   UNL A   1      42.914  35.179  29.910  1.00  0.00    -0.206 F 
ATOM     44  C   UNL A   1      44.190  36.970  29.120  1.00  0.00     0.059 A 
ATOM     45  C   UNL A   1      46.600  36.865  29.150  1.00  0.00     0.059 A 
ATOM     46  F   UNL A   1      47.692  34.940  29.771  1.00  0.00    -0.206 F 
ATOM     47  C   UNL A   1      45.430  37.536  28.835  1.00  0.00     0.060 A 
BRANCH  47  48
ATOM     48  S   UNL A   1      45.511  39.114  27.969  1.00  0.00     0.124 S 
ATOM     49  O   UNL A   1      45.188  38.710  26.605  1.00  0.00    -0.237 OA
ATOM     50  O   UNL A   1      44.494  39.898  28.663  1.00  0.00    -0.237 OA
ATOM     51  O   UNL A   1      46.888  39.548  28.192  1.00  0.00    -0.744 OA
ENDBRANCH  47  48
ENDBRANCH  26  40
BRANCH  27  52
ATOM     52  C   UNL A   1      37.294  32.343  30.327  1.00  0.00     0.058 A 
ATOM     53  C   UNL A   1      36.137  32.199  31.108  1.00  0.00     0.135 A 
ATOM     54  C   UNL A   1      37.193  33.217  29.222  1.00  0.00     0.135 A 
ATOM     55  F   UNL A   1      36.154  31.417  32.199  1.00  0.00    -0.206 F 
ATOM     56  C   UNL A   1      34.958  32.899  30.826  1.00  0.00     0.059 A 
ATOM     57  C   UNL A   1      36.027  33.907  28.909  1.00  0.00     0.059 A 
ATOM     58  F   UNL A   1      38.258  33.502  28.458  1.00  0.00    -0.206 F 
ATOM     59  C   UNL A   1      34.917  33.760  29.728  1.00  0.00     0.060 A 
BRANCH  59  60
ATOM     60  S   UNL A   1      33.452  34.779  29.442  1.00  0.00     0.124 S 
ATOM     61  O   UNL A   1      32.657  33.924  28.568  1.00  0.00    -0.237 OA
ATOM     62  O   UNL A   1      32.938  34.964  30.795  1.00  0.00    -0.237 OA
ATOM     63  O   UNL A   1      33.992  35.982  28.815  1.00  0.00    -0.744 OA
ENDBRANCH  59  60
ENDBRANCH  27  52
BRANCH  39  64
ATOM     64  C   UNL A   1      42.109  30.630  34.165  1.00  0.00     0.058 A 
ATOM     65  C   UNL A   1      41.974  29.369  33.558  1.00  0.00     0.135 A 
ATOM     66  C   UNL A   1      42.148  30.663  35.567  1.00  0.00     0.135 A 
ATOM     67  F   UNL A   1      42.043  29.238  32.226  1.00  0.00    -0.206 F 
ATOM     68  C   UNL A   1      41.841  28.200  34.307  1.00  0.00     0.059 A 
ATOM     69  C   UNL A   1      42.048  29.503  36.336  1.00  0.00     0.059 A 
ATOM     70  F   UNL A   1      42.347  31.826  36.208  1.00  0.00    -0.206 F 
ATOM     71  C   UNL A   1      41.884  28.276  35.698  1.00  0.00     0.060 A 
BRANCH  71  72
ATOM     72  S   UNL A   1      41.822  26.746  36.659  1.00  0.00     0.124 S 
ATOM     73  O   UNL A   1      41.774  25.729  35.615  1.00  0.00    -0.237 OA
ATOM     74  O   UNL A   1      43.061  26.805  37.430  1.00  0.00    -0.237 OA
ATOM     75  O   UNL A   1      40.602  26.890  37.450  1.00  0.00    -0.744 OA
ENDBRANCH  71  72
ENDBRANCH  39  64
ENDBRANCH  13  14
ENDBRANCH   6   8
ENDBRANCH   5   6
ENDBRANCH   4   5
ENDBRANCH   3   4
ENDBRANCH   2   3
ENDBRANCH   1   2
BRANCH   1  76
ATOM     76  C   UNL A   1      39.871  20.287  26.316  1.00  0.00     0.188 C 
BRANCH  76  77
ATOM     77  O   UNL A   1      39.030  20.025  25.196  1.00  0.00    -0.376 OA
BRANCH  77  78
ATOM     78  C   UNL A   1      37.855  20.785  24.995  1.00  0.00     0.202 C 
BRANCH  78  79
ATOM     79  C   UNL A   1      36.529  20.017  24.966  1.00  0.00     0.261 C 
BRANCH  79  80
ATOM     80  O   UNL A   1      35.349  20.807  25.185  1.00  0.00    -0.460 OA
BRANCH  80  81
ATOM     81  C   UNL A   1      34.203  20.287  24.682  1.00  0.00     0.338 C 
ATOM     82  O   UNL A   1      33.850  19.122  24.688  1.00  0.00    -0.246 OA
BRANCH  81  83
ATOM     83  C   UNL A   1      33.347  21.364  24.147  1.00  0.00     0.060 A 
ATOM     84  C   UNL A   1      33.933  22.342  23.340  1.00  0.00     0.016 A 
ATOM     85  C   UNL A   1      32.018  21.487  24.552  1.00  0.00     0.016 A 
ATOM     86  C   UNL A   1      33.193  23.456  22.949  1.00  0.00     0.005 A 
ATOM     87  C   UNL A   1      31.292  22.631  24.196  1.00  0.00     0.005 A 
ATOM     88  C   UNL A   1      31.876  23.639  23.405  1.00  0.00    -0.038 A 
BRANCH  88  89
ATOM     89  C   UNL A   1      31.236  24.997  23.156  1.00  0.00     0.081 C 
ATOM     90  C   UNL A   1      31.913  25.705  21.963  1.00  0.00     0.111 C 
ATOM     91  C   UNL A   1      31.333  25.813  24.387  1.00  0.00     0.093 A 
ATOM     92  C   UNL A   1      32.880  26.811  22.355  1.00  0.00     0.188 C 
ATOM     93  C   UNL A   1      32.088  26.966  24.426  1.00  0.00     0.164 A 
ATOM     94  N   UNL A   1      30.734  25.552  25.583  1.00  0.00    -0.238 NA
ATOM     95  N   UNL A   1      32.927  27.454  23.479  1.00  0.00    -0.198 NA
ATOM     96  N   UNL A   1      31.921  27.461  25.707  1.00  0.00    -0.283 N 
ATOM     97  C   UNL A   1      31.131  26.538  26.364  1.00  0.00     0.206 A 
BRANCH  92  98
ATOM     98  O   UNL A   1      33.729  27.176  21.374  1.00  0.00    -0.496 OA
ATOM     99  H   UNL A   1      34.632  27.333  21.570  1.00  0.00     0.294 HD
ENDBRANCH  92  98
BRANCH  96 100
ATOM    100  C   UNL A   1      32.449  28.659  26.246  1.00  0.00     0.050 A 
ATOM    101  C   UNL A   1      31.679  29.829  26.238  1.00  0.00     0.027 A 
ATOM    102  C   UNL A   1      33.746  28.671  26.777  1.00  0.00     0.047 A 
ATOM    103  C   UNL A   1      32.197  31.001  26.793  1.00  0.00     0.004 A 
ATOM    104  C   UNL A   1      34.267  29.858  27.288  1.00  0.00     0.043 A 
ATOM    105  C   UNL A   1      33.494  31.019  27.310  1.00  0.00     0.020 A 
ATOM    106  Cl  UNL A   1      35.883  29.899  27.881  1.00  0.00    -0.084 Cl
ENDBRANCH  96 100
ENDBRANCH  88  89
ENDBRANCH  81  83
ENDBRANCH  80  81
ENDBRANCH  79  80
ENDBRANCH  78  79
ENDBRANCH  77  78
ENDBRANCH  76  77
ENDBRANCH   1  76
TORSDOF 23
ENDMDL
