MODEL 1
REMARK VINA RESULT:      -8.7      0.000      0.000
REMARK SMILES O=C(/C=C/c1ccc(O)c(O)c1)OCCOCCOCCOC(=O)c1ccc(-c2c3nc(c(-c4c(F)cc(S(=O)(=O)[O-])cc4F)c4ccc([nH]4)c(-c4c(F)cc(S(=O)(=O)[O-])cc4F)c4nc(c(-c5c(F)cc(S(=O)(=O)[O-])cc5F)c5ccc2[nH]5)C=C4)C=C3)cc1
REMARK SMILES IDX 18 1 17 2 16 3 15 4 14 5 13 6 2 7 1 8 3 9 4 10 5 11 6 12
REMARK SMILES IDX 12 13 7 14 10 15 8 16 11 17 9 19 19 21 20 22 21 23 22 24
REMARK SMILES IDX 23 25 24 26 25 27 26 28 90 29 27 30 89 31 28 32 29 33 30 34
REMARK SMILES IDX 83 35 31 36 88 37 82 38 84 39 32 40 87 41 81 42 80 43 33 45
REMARK SMILES IDX 67 46 46 47 66 48 47 49 50 50 65 51 85 52 48 53 49 54 64 56
REMARK SMILES IDX 86 57 51 58 34 59 35 60 44 61 36 62 37 63 43 64 45 65 38 66
REMARK SMILES IDX 39 67 40 68 41 69 42 70 68 71 69 72 78 73 70 74 71 75 77 76
REMARK SMILES IDX 79 77 72 78 73 79 74 80 75 81 76 82 52 83 53 84 62 85 54 86
REMARK SMILES IDX 55 87 61 88 63 89 56 90 57 91 58 92 59 93 60 94
REMARK H PARENT 11 18 9 20 84 44 50 55
REMARK Flexibility Score: inf
ROOT
ATOM      1  C   UNL A   1      34.219  35.162  33.288  1.00  0.00     0.188 C 
ENDROOT
BRANCH   1   2
ATOM      2  C   UNL A   1      34.241  36.449  32.447  1.00  0.00     0.188 C 
BRANCH   2   3
ATOM      3  O   UNL A   1      33.135  36.472  31.571  1.00  0.00    -0.376 OA
BRANCH   3   4
ATOM      4  C   UNL A   1      33.006  35.462  30.600  1.00  0.00     0.202 C 
BRANCH   4   5
ATOM      5  C   UNL A   1      33.745  35.756  29.303  1.00  0.00     0.261 C 
BRANCH   5   6
ATOM      6  O   UNL A   1      34.214  34.674  28.458  1.00  0.00    -0.460 OA
BRANCH   6   7
ATOM      7  C   UNL A   1      35.353  33.963  28.378  1.00  0.00     0.330 C 
ATOM      8  O   UNL A   1      35.499  33.130  27.488  1.00  0.00    -0.247 OA
BRANCH   7   9
ATOM      9  C   UNL A   1      36.371  34.052  29.424  1.00  0.00     0.094 C 
ATOM     10  C   UNL A   1      37.693  34.019  29.209  1.00  0.00     0.016 C 
BRANCH  10  11
ATOM     11  C   UNL A   1      38.635  34.115  30.329  1.00  0.00    -0.021 A 
ATOM     12  C   UNL A   1      39.997  33.831  30.142  1.00  0.00     0.012 A 
ATOM     13  C   UNL A   1      38.182  34.490  31.602  1.00  0.00     0.058 A 
ATOM     14  C   UNL A   1      40.903  33.939  31.204  1.00  0.00     0.051 A 
ATOM     15  C   UNL A   1      39.085  34.587  32.651  1.00  0.00     0.157 A 
ATOM     16  C   UNL A   1      40.438  34.325  32.454  1.00  0.00     0.157 A 
BRANCH  15  17
ATOM     17  O   UNL A   1      38.634  34.951  33.889  1.00  0.00    -0.504 OA
ATOM     18  H   UNL A   1      37.987  35.623  33.972  1.00  0.00     0.293 HD
ENDBRANCH  15  17
BRANCH  16  19
ATOM     19  O   UNL A   1      41.273  34.469  33.526  1.00  0.00    -0.504 OA
ATOM     20  H   UNL A   1      41.639  35.309  33.725  1.00  0.00     0.293 HD
ENDBRANCH  16  19
ENDBRANCH  10  11
ENDBRANCH   7   9
ENDBRANCH   6   7
ENDBRANCH   5   6
ENDBRANCH   4   5
ENDBRANCH   3   4
ENDBRANCH   2   3
ENDBRANCH   1   2
BRANCH   1  21
ATOM     21  O   UNL A   1      35.128  34.112  32.962  1.00  0.00    -0.376 OA
BRANCH  21  22
ATOM     22  C   UNL A   1      34.623  32.803  32.710  1.00  0.00     0.202 C 
BRANCH  22  23
ATOM     23  C   UNL A   1      35.343  31.930  31.680  1.00  0.00     0.261 C 
BRANCH  23  24
ATOM     24  O   UNL A   1      36.677  31.535  32.048  1.00  0.00    -0.460 OA
BRANCH  24  25
ATOM     25  C   UNL A   1      37.066  30.342  31.532  1.00  0.00     0.338 C 
ATOM     26  O   UNL A   1      36.407  29.320  31.460  1.00  0.00    -0.246 OA
BRANCH  25  27
ATOM     27  C   UNL A   1      38.415  30.433  30.946  1.00  0.00     0.060 A 
ATOM     28  C   UNL A   1      38.530  30.396  29.551  1.00  0.00     0.016 A 
ATOM     29  C   UNL A   1      39.550  30.363  31.755  1.00  0.00     0.016 A 
ATOM     30  C   UNL A   1      39.785  30.239  28.960  1.00  0.00     0.010 A 
ATOM     31  C   UNL A   1      40.806  30.195  31.161  1.00  0.00     0.010 A 
ATOM     32  C   UNL A   1      40.923  30.091  29.764  1.00  0.00    -0.014 A 
BRANCH  32  33
ATOM     33  C   UNL A   1      42.211  29.679  29.150  1.00  0.00     0.031 A 
ATOM     34  C   UNL A   1      42.373  28.264  28.662  1.00  0.00     0.074 A 
ATOM     35  C   UNL A   1      43.219  30.558  29.011  1.00  0.00     0.049 A 
ATOM     36  N   UNL A   1      43.421  27.682  28.138  1.00  0.00    -0.248 NA
ATOM     37  C   UNL A   1      41.194  27.389  28.779  1.00  0.00     0.031 C 
ATOM     38  C   UNL A   1      43.174  31.965  29.403  1.00  0.00     0.029 A 
ATOM     39  N   UNL A   1      44.483  30.388  28.502  1.00  0.00    -0.354 N 
ATOM     40  C   UNL A   1      43.032  26.375  27.865  1.00  0.00     0.074 A 
ATOM     41  C   UNL A   1      41.658  26.244  28.302  1.00  0.00     0.031 C 
ATOM     42  C   UNL A   1      44.363  32.530  29.130  1.00  0.00     0.029 A 
ATOM     43  C   UNL A   1      45.261  31.517  28.575  1.00  0.00     0.049 A 
ATOM     44  H   UNL A   1      44.801  29.538  28.122  1.00  0.00     0.167 HD
ATOM     45  C   UNL A   1      43.752  25.377  27.298  1.00  0.00     0.037 A 
ATOM     46  C   UNL A   1      46.557  31.706  28.252  1.00  0.00     0.037 A 
ATOM     47  C   UNL A   1      45.119  25.504  26.868  1.00  0.00     0.049 A 
ATOM     48  C   UNL A   1      47.359  30.563  27.687  1.00  0.00     0.074 A 
ATOM     49  C   UNL A   1      45.929  24.549  26.276  1.00  0.00     0.029 A 
ATOM     50  N   UNL A   1      45.882  26.656  26.988  1.00  0.00    -0.354 N 
ATOM     51  N   UNL A   1      46.976  29.335  27.428  1.00  0.00    -0.248 NA
ATOM     52  C   UNL A   1      48.771  30.830  27.375  1.00  0.00     0.031 C 
ATOM     53  C   UNL A   1      47.194  25.113  26.074  1.00  0.00     0.029 A 
ATOM     54  C   UNL A   1      47.160  26.429  26.503  1.00  0.00     0.049 A 
ATOM     55  H   UNL A   1      45.564  27.507  27.364  1.00  0.00     0.167 HD
ATOM     56  C   UNL A   1      48.092  28.692  26.902  1.00  0.00     0.074 A 
ATOM     57  C   UNL A   1      49.163  29.666  26.874  1.00  0.00     0.031 C 
ATOM     58  C   UNL A   1      48.217  27.409  26.478  1.00  0.00     0.037 A 
BRANCH  45  59
ATOM     59  C   UNL A   1      43.076  24.046  27.132  1.00  0.00     0.058 A 
ATOM     60  C   UNL A   1      42.942  23.150  28.206  1.00  0.00     0.135 A 
ATOM     61  C   UNL A   1      42.531  23.672  25.894  1.00  0.00     0.135 A 
ATOM     62  F   UNL A   1      43.459  23.454  29.407  1.00  0.00    -0.206 F 
ATOM     63  C   UNL A   1      42.314  21.919  28.050  1.00  0.00     0.059 A 
ATOM     64  C   UNL A   1      41.880  22.454  25.720  1.00  0.00     0.059 A 
ATOM     65  F   UNL A   1      42.634  24.491  24.836  1.00  0.00    -0.206 F 
ATOM     66  C   UNL A   1      41.789  21.578  26.802  1.00  0.00     0.060 A 
BRANCH  66  67
ATOM     67  S   UNL A   1      40.980  19.976  26.610  1.00  0.00     0.124 S 
ATOM     68  O   UNL A   1      41.919  19.278  25.736  1.00  0.00    -0.237 OA
ATOM     69  O   UNL A   1      40.915  19.489  27.985  1.00  0.00    -0.237 OA
ATOM     70  O   UNL A   1      39.695  20.314  26.008  1.00  0.00    -0.744 OA
ENDBRANCH  66  67
ENDBRANCH  45  59
BRANCH  46  71
ATOM     71  C   UNL A   1      47.185  33.033  28.476  1.00  0.00     0.058 A 
ATOM     72  C   UNL A   1      47.142  34.032  27.492  1.00  0.00     0.135 A 
ATOM     73  C   UNL A   1      47.838  33.328  29.683  1.00  0.00     0.135 A 
ATOM     74  F   UNL A   1      46.538  33.791  26.319  1.00  0.00    -0.206 F 
ATOM     75  C   UNL A   1      47.731  35.275  27.693  1.00  0.00     0.059 A 
ATOM     76  C   UNL A   1      48.418  34.569  29.914  1.00  0.00     0.059 A 
ATOM     77  F   UNL A   1      47.891  32.412  30.665  1.00  0.00    -0.206 F 
ATOM     78  C   UNL A   1      48.365  35.535  28.909  1.00  0.00     0.060 A 
BRANCH  78  79
ATOM     79  S   UNL A   1      49.074  37.172  29.194  1.00  0.00     0.124 S 
ATOM     80  O   UNL A   1      50.453  36.839  29.525  1.00  0.00    -0.237 OA
ATOM     81  O   UNL A   1      48.862  37.828  27.908  1.00  0.00    -0.237 OA
ATOM     82  O   UNL A   1      48.264  37.691  30.294  1.00  0.00    -0.744 OA
ENDBRANCH  78  79
ENDBRANCH  46  71
BRANCH  58  83
ATOM     83  C   UNL A   1      49.548  26.986  25.923  1.00  0.00     0.058 A 
ATOM     84  C   UNL A   1      49.875  27.177  24.572  1.00  0.00     0.135 A 
ATOM     85  C   UNL A   1      50.530  26.441  26.766  1.00  0.00     0.135 A 
ATOM     86  F   UNL A   1      48.969  27.689  23.724  1.00  0.00    -0.206 F 
ATOM     87  C   UNL A   1      51.126  26.827  24.071  1.00  0.00     0.059 A 
ATOM     88  C   UNL A   1      51.795  26.103  26.290  1.00  0.00     0.059 A 
ATOM     89  F   UNL A   1      50.272  26.247  28.068  1.00  0.00    -0.206 F 
ATOM     90  C   UNL A   1      52.080  26.292  24.939  1.00  0.00     0.060 A 
BRANCH  90  91
ATOM     91  S   UNL A   1      53.713  25.881  24.287  1.00  0.00     0.124 S 
ATOM     92  O   UNL A   1      54.548  26.890  24.929  1.00  0.00    -0.237 OA
ATOM     93  O   UNL A   1      53.902  24.510  24.754  1.00  0.00    -0.237 OA
ATOM     94  O   UNL A   1      53.549  26.025  22.844  1.00  0.00    -0.744 OA
ENDBRANCH  90  91
ENDBRANCH  58  83
ENDBRANCH  32  33
ENDBRANCH  25  27
ENDBRANCH  24  25
ENDBRANCH  23  24
ENDBRANCH  22  23
ENDBRANCH  21  22
ENDBRANCH   1  21
TORSDOF 23
ENDMDL
MODEL 2
REMARK VINA RESULT:      -8.7      6.425     12.618
REMARK SMILES O=C(/C=C/c1ccc(O)c(O)c1)OCCOCCOCCOC(=O)c1ccc(-c2c3nc(c(-c4c(F)cc(S(=O)(=O)[O-])cc4F)c4ccc([nH]4)c(-c4c(F)cc(S(=O)(=O)[O-])cc4F)c4nc(c(-c5c(F)cc(S(=O)(=O)[O-])cc5F)c5ccc2[nH]5)C=C4)C=C3)cc1
REMARK SMILES IDX 18 1 17 2 16 3 15 4 14 5 13 6 2 7 1 8 3 9 4 10 5 11 6 12
REMARK SMILES IDX 12 13 7 14 10 15 8 16 11 17 9 19 19 21 20 22 21 23 22 24
REMARK SMILES IDX 23 25 24 26 25 27 26 28 90 29 27 30 89 31 28 32 29 33 30 34
REMARK SMILES IDX 83 35 31 36 88 37 82 38 84 39 32 40 87 41 81 42 80 43 33 45
REMARK SMILES IDX 67 46 46 47 66 48 47 49 50 50 65 51 85 52 48 53 49 54 64 56
REMARK SMILES IDX 86 57 51 58 34 59 35 60 44 61 36 62 37 63 43 64 45 65 38 66
REMARK SMILES IDX 39 67 40 68 41 69 42 70 68 71 69 72 78 73 70 74 71 75 77 76
REMARK SMILES IDX 79 77 72 78 73 79 74 80 75 81 76 82 52 83 53 84 62 85 54 86
REMARK SMILES IDX 55 87 61 88 63 89 56 90 57 91 58 92 59 93 60 94
REMARK H PARENT 11 18 9 20 84 44 50 55
REMARK Flexibility Score: inf
ROOT
ATOM      1  C   UNL A   1      37.488  22.092  25.583  1.00  0.00     0.188 C 
ENDROOT
BRANCH   1   2
ATOM      2  C   UNL A   1      36.407  21.153  25.023  1.00  0.00     0.188 C 
BRANCH   2   3
ATOM      3  O   UNL A   1      35.232  21.252  25.798  1.00  0.00    -0.376 OA
BRANCH   3   4
ATOM      4  C   UNL A   1      34.386  22.362  25.625  1.00  0.00     0.202 C 
BRANCH   4   5
ATOM      5  C   UNL A   1      33.487  22.644  26.820  1.00  0.00     0.261 C 
BRANCH   5   6
ATOM      6  O   UNL A   1      32.095  23.004  26.630  1.00  0.00    -0.460 OA
BRANCH   6   7
ATOM      7  C   UNL A   1      31.456  24.066  26.107  1.00  0.00     0.330 C 
ATOM      8  O   UNL A   1      30.647  23.913  25.196  1.00  0.00    -0.247 OA
BRANCH   7   9
ATOM      9  C   UNL A   1      31.814  25.429  26.501  1.00  0.00     0.094 C 
ATOM     10  C   UNL A   1      32.495  26.291  25.735  1.00  0.00     0.016 C 
BRANCH  10  11
ATOM     11  C   UNL A   1      32.806  27.639  26.222  1.00  0.00    -0.021 A 
ATOM     12  C   UNL A   1      31.776  28.530  26.562  1.00  0.00     0.012 A 
ATOM     13  C   UNL A   1      34.140  28.053  26.349  1.00  0.00     0.058 A 
ATOM     14  C   UNL A   1      32.069  29.811  27.045  1.00  0.00     0.051 A 
ATOM     15  C   UNL A   1      34.421  29.327  26.821  1.00  0.00     0.157 A 
ATOM     16  C   UNL A   1      33.396  30.198  27.177  1.00  0.00     0.157 A 
BRANCH  15  17
ATOM     17  O   UNL A   1      35.724  29.723  26.940  1.00  0.00    -0.504 OA
ATOM     18  H   UNL A   1      36.132  30.204  26.248  1.00  0.00     0.293 HD
ENDBRANCH  15  17
BRANCH  16  19
ATOM     19  O   UNL A   1      33.749  31.427  27.662  1.00  0.00    -0.504 OA
ATOM     20  H   UNL A   1      33.226  32.178  27.460  1.00  0.00     0.293 HD
ENDBRANCH  16  19
ENDBRANCH  10  11
ENDBRANCH   7   9
ENDBRANCH   6   7
ENDBRANCH   5   6
ENDBRANCH   4   5
ENDBRANCH   3   4
ENDBRANCH   2   3
ENDBRANCH   1   2
BRANCH   1  21
ATOM     21  O   UNL A   1      38.857  21.704  25.479  1.00  0.00    -0.376 OA
BRANCH  21  22
ATOM     22  C   UNL A   1      39.707  21.829  26.617  1.00  0.00     0.202 C 
BRANCH  22  23
ATOM     23  C   UNL A   1      41.203  22.057  26.387  1.00  0.00     0.261 C 
BRANCH  23  24
ATOM     24  O   UNL A   1      41.774  23.140  27.142  1.00  0.00    -0.460 OA
BRANCH  24  25
ATOM     25  C   UNL A   1      41.908  24.295  26.444  1.00  0.00     0.338 C 
ATOM     26  O   UNL A   1      42.276  24.420  25.289  1.00  0.00    -0.246 OA
BRANCH  25  27
ATOM     27  C   UNL A   1      41.446  25.449  27.236  1.00  0.00     0.060 A 
ATOM     28  C   UNL A   1      42.192  26.632  27.171  1.00  0.00     0.016 A 
ATOM     29  C   UNL A   1      40.416  25.307  28.167  1.00  0.00     0.016 A 
ATOM     30  C   UNL A   1      41.939  27.665  28.075  1.00  0.00     0.010 A 
ATOM     31  C   UNL A   1      40.171  26.340  29.080  1.00  0.00     0.010 A 
ATOM     32  C   UNL A   1      40.958  27.505  29.063  1.00  0.00    -0.014 A 
BRANCH  32  33
ATOM     33  C   UNL A   1      40.859  28.490  30.170  1.00  0.00     0.031 A 
ATOM     34  C   UNL A   1      41.816  28.395  31.328  1.00  0.00     0.074 A 
ATOM     35  C   UNL A   1      39.939  29.471  30.136  1.00  0.00     0.049 A 
ATOM     36  N   UNL A   1      41.877  29.119  32.415  1.00  0.00    -0.248 NA
ATOM     37  C   UNL A   1      42.842  27.342  31.247  1.00  0.00     0.031 C 
ATOM     38  C   UNL A   1      38.984  29.698  29.054  1.00  0.00     0.029 A 
ATOM     39  N   UNL A   1      39.659  30.459  31.048  1.00  0.00    -0.354 N 
ATOM     40  C   UNL A   1      42.943  28.611  33.150  1.00  0.00     0.074 A 
ATOM     41  C   UNL A   1      43.485  27.502  32.394  1.00  0.00     0.031 C 
ATOM     42  C   UNL A   1      38.213  30.754  29.368  1.00  0.00     0.029 A 
ATOM     43  C   UNL A   1      38.599  31.255  30.688  1.00  0.00     0.049 A 
ATOM     44  H   UNL A   1      40.169  30.584  31.880  1.00  0.00     0.167 HD
ATOM     45  C   UNL A   1      43.429  29.033  34.342  1.00  0.00     0.037 A 
ATOM     46  C   UNL A   1      37.996  32.259  31.356  1.00  0.00     0.037 A 
ATOM     47  C   UNL A   1      42.887  30.131  35.098  1.00  0.00     0.049 A 
ATOM     48  C   UNL A   1      38.509  32.666  32.713  1.00  0.00     0.074 A 
ATOM     49  C   UNL A   1      43.316  30.636  36.313  1.00  0.00     0.029 A 
ATOM     50  N   UNL A   1      41.793  30.893  34.714  1.00  0.00    -0.354 N 
ATOM     51  N   UNL A   1      39.522  32.181  33.391  1.00  0.00    -0.248 NA
ATOM     52  C   UNL A   1      37.793  33.754  33.396  1.00  0.00     0.031 C 
ATOM     53  C   UNL A   1      42.458  31.678  36.682  1.00  0.00     0.029 A 
ATOM     54  C   UNL A   1      41.519  31.848  35.679  1.00  0.00     0.049 A 
ATOM     55  H   UNL A   1      41.286  30.771  33.879  1.00  0.00     0.167 HD
ATOM     56  C   UNL A   1      39.579  32.920  34.569  1.00  0.00     0.074 A 
ATOM     57  C   UNL A   1      38.503  33.887  34.510  1.00  0.00     0.031 C 
ATOM     58  C   UNL A   1      40.446  32.808  35.606  1.00  0.00     0.037 A 
BRANCH  45  59
ATOM     59  C   UNL A   1      44.596  28.282  34.917  1.00  0.00     0.058 A 
ATOM     60  C   UNL A   1      45.920  28.668  34.652  1.00  0.00     0.135 A 
ATOM     61  C   UNL A   1      44.388  27.181  35.762  1.00  0.00     0.135 A 
ATOM     62  F   UNL A   1      46.172  29.704  33.837  1.00  0.00    -0.206 F 
ATOM     63  C   UNL A   1      46.999  27.971  35.187  1.00  0.00     0.059 A 
ATOM     64  C   UNL A   1      45.453  26.483  36.326  1.00  0.00     0.059 A 
ATOM     65  F   UNL A   1      43.142  26.772  36.045  1.00  0.00    -0.206 F 
ATOM     66  C   UNL A   1      46.756  26.877  36.020  1.00  0.00     0.060 A 
BRANCH  66  67
ATOM     67  S   UNL A   1      48.163  25.979  36.705  1.00  0.00     0.124 S 
ATOM     68  O   UNL A   1      47.782  25.869  38.110  1.00  0.00    -0.237 OA
ATOM     69  O   UNL A   1      48.143  24.733  35.944  1.00  0.00    -0.237 OA
ATOM     70  O   UNL A   1      49.294  26.860  36.429  1.00  0.00    -0.744 OA
ENDBRANCH  66  67
ENDBRANCH  45  59
BRANCH  46  71
ATOM     71  C   UNL A   1      36.818  32.938  30.757  1.00  0.00     0.058 A 
ATOM     72  C   UNL A   1      35.515  32.627  31.170  1.00  0.00     0.135 A 
ATOM     73  C   UNL A   1      36.977  33.916  29.763  1.00  0.00     0.135 A 
ATOM     74  F   UNL A   1      35.314  31.692  32.110  1.00  0.00    -0.206 F 
ATOM     75  C   UNL A   1      34.406  33.257  30.612  1.00  0.00     0.059 A 
ATOM     76  C   UNL A   1      35.887  34.571  29.204  1.00  0.00     0.059 A 
ATOM     77  F   UNL A   1      38.206  34.263  29.346  1.00  0.00    -0.206 F 
ATOM     78  C   UNL A   1      34.604  34.229  29.631  1.00  0.00     0.060 A 
BRANCH  78  79
ATOM     79  S   UNL A   1      33.169  35.092  28.953  1.00  0.00     0.124 S 
ATOM     80  O   UNL A   1      33.789  36.272  28.366  1.00  0.00    -0.237 OA
ATOM     81  O   UNL A   1      32.635  34.111  28.014  1.00  0.00    -0.237 OA
ATOM     82  O   UNL A   1      32.342  35.329  30.135  1.00  0.00    -0.744 OA
ENDBRANCH  78  79
ENDBRANCH  46  71
BRANCH  58  83
ATOM     83  C   UNL A   1      40.289  33.767  36.752  1.00  0.00     0.058 A 
ATOM     84  C   UNL A   1      41.004  34.974  36.803  1.00  0.00     0.135 A 
ATOM     85  C   UNL A   1      39.368  33.506  37.779  1.00  0.00     0.135 A 
ATOM     86  F   UNL A   1      41.902  35.268  35.849  1.00  0.00    -0.206 F 
ATOM     87  C   UNL A   1      40.822  35.883  37.841  1.00  0.00     0.059 A 
ATOM     88  C   UNL A   1      39.155  34.411  38.816  1.00  0.00     0.059 A 
ATOM     89  F   UNL A   1      38.652  32.372  37.772  1.00  0.00    -0.206 F 
ATOM     90  C   UNL A   1      39.894  35.593  38.843  1.00  0.00     0.060 A 
BRANCH  90  91
ATOM     91  S   UNL A   1      39.635  36.797  40.163  1.00  0.00     0.124 S 
ATOM     92  O   UNL A   1      38.527  37.582  39.631  1.00  0.00    -0.237 OA
ATOM     93  O   UNL A   1      39.319  35.947  41.307  1.00  0.00    -0.237 OA
ATOM     94  O   UNL A   1      40.916  37.492  40.244  1.00  0.00    -0.744 OA
ENDBRANCH  90  91
ENDBRANCH  58  83
ENDBRANCH  32  33
ENDBRANCH  25  27
ENDBRANCH  24  25
ENDBRANCH  23  24
ENDBRANCH  22  23
ENDBRANCH  21  22
ENDBRANCH   1  21
TORSDOF 23
ENDMDL
MODEL 3
REMARK VINA RESULT:      -8.6      6.720     10.651
REMARK SMILES O=C(/C=C/c1ccc(O)c(O)c1)OCCOCCOCCOC(=O)c1ccc(-c2c3nc(c(-c4c(F)cc(S(=O)(=O)[O-])cc4F)c4ccc([nH]4)c(-c4c(F)cc(S(=O)(=O)[O-])cc4F)c4nc(c(-c5c(F)cc(S(=O)(=O)[O-])cc5F)c5ccc2[nH]5)C=C4)C=C3)cc1
REMARK SMILES IDX 18 1 17 2 16 3 15 4 14 5 13 6 2 7 1 8 3 9 4 10 5 11 6 12
REMARK SMILES IDX 12 13 7 14 10 15 8 16 11 17 9 19 19 21 20 22 21 23 22 24
REMARK SMILES IDX 23 25 24 26 25 27 26 28 90 29 27 30 89 31 28 32 29 33 30 34
REMARK SMILES IDX 83 35 31 36 88 37 82 38 84 39 32 40 87 41 81 42 80 43 33 45
REMARK SMILES IDX 67 46 46 47 66 48 47 49 50 50 65 51 85 52 48 53 49 54 64 56
REMARK SMILES IDX 86 57 51 58 34 59 35 60 44 61 36 62 37 63 43 64 45 65 38 66
REMARK SMILES IDX 39 67 40 68 41 69 42 70 68 71 69 72 78 73 70 74 71 75 77 76
REMARK SMILES IDX 79 77 72 78 73 79 74 80 75 81 76 82 52 83 53 84 62 85 54 86
REMARK SMILES IDX 55 87 61 88 63 89 56 90 57 91 58 92 59 93 60 94
REMARK H PARENT 11 18 9 20 84 44 50 55
REMARK Flexibility Score: inf
ROOT
ATOM      1  C   UNL A   1      33.860  28.885  25.939  1.00  0.00     0.188 C 
ENDROOT
BRANCH   1   2
ATOM      2  C   UNL A   1      33.565  27.434  26.350  1.00  0.00     0.188 C 
BRANCH   2   3
ATOM      3  O   UNL A   1      34.423  26.552  25.659  1.00  0.00    -0.376 OA
BRANCH   3   4
ATOM      4  C   UNL A   1      33.897  25.740  24.638  1.00  0.00     0.202 C 
BRANCH   4   5
ATOM      5  C   UNL A   1      33.311  24.427  25.135  1.00  0.00     0.261 C 
BRANCH   5   6
ATOM      6  O   UNL A   1      31.875  24.219  25.158  1.00  0.00    -0.460 OA
BRANCH   6   7
ATOM      7  C   UNL A   1      30.827  24.915  25.632  1.00  0.00     0.330 C 
ATOM      8  O   UNL A   1      30.349  24.642  26.730  1.00  0.00    -0.247 OA
BRANCH   7   9
ATOM      9  C   UNL A   1      30.139  25.902  24.798  1.00  0.00     0.094 C 
ATOM     10  C   UNL A   1      30.651  27.086  24.436  1.00  0.00     0.016 C 
BRANCH  10  11
ATOM     11  C   UNL A   1      29.880  28.008  23.596  1.00  0.00    -0.021 A 
ATOM     12  C   UNL A   1      30.532  28.954  22.790  1.00  0.00     0.012 A 
ATOM     13  C   UNL A   1      28.479  27.956  23.594  1.00  0.00     0.058 A 
ATOM     14  C   UNL A   1      29.801  29.824  21.973  1.00  0.00     0.051 A 
ATOM     15  C   UNL A   1      27.761  28.828  22.787  1.00  0.00     0.157 A 
ATOM     16  C   UNL A   1      28.414  29.748  21.973  1.00  0.00     0.157 A 
BRANCH  15  17
ATOM     17  O   UNL A   1      26.395  28.771  22.792  1.00  0.00    -0.504 OA
ATOM     18  H   UNL A   1      25.934  28.529  22.013  1.00  0.00     0.293 HD
ENDBRANCH  15  17
BRANCH  16  19
ATOM     19  O   UNL A   1      27.643  30.554  21.184  1.00  0.00    -0.504 OA
ATOM     20  H   UNL A   1      27.269  30.217  20.393  1.00  0.00     0.293 HD
ENDBRANCH  16  19
ENDBRANCH  10  11
ENDBRANCH   7   9
ENDBRANCH   6   7
ENDBRANCH   5   6
ENDBRANCH   4   5
ENDBRANCH   3   4
ENDBRANCH   2   3
ENDBRANCH   1   2
BRANCH   1  21
ATOM     21  O   UNL A   1      33.042  29.929  26.466  1.00  0.00    -0.376 OA
BRANCH  21  22
ATOM     22  C   UNL A   1      33.628  30.914  27.314  1.00  0.00     0.202 C 
BRANCH  22  23
ATOM     23  C   UNL A   1      32.866  32.222  27.543  1.00  0.00     0.261 C 
BRANCH  23  24
ATOM     24  O   UNL A   1      33.669  33.413  27.458  1.00  0.00    -0.460 OA
BRANCH  24  25
ATOM     25  C   UNL A   1      33.511  34.266  28.501  1.00  0.00     0.338 C 
ATOM     26  O   UNL A   1      32.576  35.021  28.700  1.00  0.00    -0.246 OA
BRANCH  25  27
ATOM     27  C   UNL A   1      34.602  34.114  29.479  1.00  0.00     0.060 A 
ATOM     28  C   UNL A   1      35.915  34.310  29.036  1.00  0.00     0.016 A 
ATOM     29  C   UNL A   1      34.350  33.602  30.753  1.00  0.00     0.016 A 
ATOM     30  C   UNL A   1      36.988  33.947  29.852  1.00  0.00     0.010 A 
ATOM     31  C   UNL A   1      35.427  33.228  31.566  1.00  0.00     0.010 A 
ATOM     32  C   UNL A   1      36.748  33.362  31.103  1.00  0.00    -0.014 A 
BRANCH  32  33
ATOM     33  C   UNL A   1      37.871  32.753  31.859  1.00  0.00     0.031 A 
ATOM     34  C   UNL A   1      38.588  31.562  31.280  1.00  0.00     0.074 A 
ATOM     35  C   UNL A   1      38.262  33.264  33.040  1.00  0.00     0.049 A 
ATOM     36  N   UNL A   1      39.560  30.851  31.789  1.00  0.00    -0.248 NA
ATOM     37  C   UNL A   1      38.149  31.116  29.947  1.00  0.00     0.031 C 
ATOM     38  C   UNL A   1      37.679  34.437  33.688  1.00  0.00     0.029 A 
ATOM     39  N   UNL A   1      39.244  32.851  33.906  1.00  0.00    -0.354 N 
ATOM     40  C   UNL A   1      39.850  29.872  30.844  1.00  0.00     0.074 A 
ATOM     41  C   UNL A   1      38.934  30.069  29.740  1.00  0.00     0.031 C 
ATOM     42  C   UNL A   1      38.309  34.646  34.857  1.00  0.00     0.029 A 
ATOM     43  C   UNL A   1      39.315  33.602  35.054  1.00  0.00     0.049 A 
ATOM     44  H   UNL A   1      39.840  32.090  33.722  1.00  0.00     0.167 HD
ATOM     45  C   UNL A   1      40.795  28.903  30.889  1.00  0.00     0.037 A 
ATOM     46  C   UNL A   1      40.087  33.450  36.149  1.00  0.00     0.037 A 
ATOM     47  C   UNL A   1      41.702  28.703  31.988  1.00  0.00     0.049 A 
ATOM     48  C   UNL A   1      41.085  32.322  36.208  1.00  0.00     0.074 A 
ATOM     49  C   UNL A   1      42.699  27.751  32.121  1.00  0.00     0.029 A 
ATOM     50  N   UNL A   1      41.721  29.465  33.147  1.00  0.00    -0.354 N 
ATOM     51  N   UNL A   1      41.352  31.410  35.304  1.00  0.00    -0.248 NA
ATOM     52  C   UNL A   1      41.881  32.201  37.438  1.00  0.00     0.031 C 
ATOM     53  C   UNL A   1      43.293  27.913  33.378  1.00  0.00     0.029 A 
ATOM     54  C   UNL A   1      42.696  28.990  34.010  1.00  0.00     0.049 A 
ATOM     55  H   UNL A   1      41.129  30.229  33.331  1.00  0.00     0.167 HD
ATOM     56  C   UNL A   1      42.363  30.622  35.847  1.00  0.00     0.074 A 
ATOM     57  C   UNL A   1      42.663  31.167  37.154  1.00  0.00     0.031 C 
ATOM     58  C   UNL A   1      42.987  29.544  35.309  1.00  0.00     0.037 A 
BRANCH  45  59
ATOM     59  C   UNL A   1      40.878  27.965  29.720  1.00  0.00     0.058 A 
ATOM     60  C   UNL A   1      41.898  28.074  28.760  1.00  0.00     0.135 A 
ATOM     61  C   UNL A   1      39.943  26.928  29.570  1.00  0.00     0.135 A 
ATOM     62  F   UNL A   1      42.806  29.057  28.850  1.00  0.00    -0.206 F 
ATOM     63  C   UNL A   1      41.973  27.202  27.678  1.00  0.00     0.059 A 
ATOM     64  C   UNL A   1      40.012  26.031  28.507  1.00  0.00     0.059 A 
ATOM     65  F   UNL A   1      38.949  26.782  30.459  1.00  0.00    -0.206 F 
ATOM     66  C   UNL A   1      41.023  26.186  27.558  1.00  0.00     0.060 A 
BRANCH  66  67
ATOM     67  S   UNL A   1      41.128  25.063  26.149  1.00  0.00     0.124 S 
ATOM     68  O   UNL A   1      39.777  24.510  26.117  1.00  0.00    -0.237 OA
ATOM     69  O   UNL A   1      41.469  25.965  25.052  1.00  0.00    -0.237 OA
ATOM     70  O   UNL A   1      42.180  24.129  26.537  1.00  0.00    -0.744 OA
ENDBRANCH  66  67
ENDBRANCH  45  59
BRANCH  46  71
ATOM     71  C   UNL A   1      39.933  34.383  37.294  1.00  0.00     0.058 A 
ATOM     72  C   UNL A   1      40.681  35.567  37.370  1.00  0.00     0.135 A 
ATOM     73  C   UNL A   1      39.030  34.109  38.333  1.00  0.00     0.135 A 
ATOM     74  F   UNL A   1      41.564  35.865  36.406  1.00  0.00    -0.206 F 
ATOM     75  C   UNL A   1      40.545  36.445  38.441  1.00  0.00     0.059 A 
ATOM     76  C   UNL A   1      38.863  34.979  39.403  1.00  0.00     0.059 A 
ATOM     77  F   UNL A   1      38.277  32.997  38.297  1.00  0.00    -0.206 F 
ATOM     78  C   UNL A   1      39.631  36.142  39.451  1.00  0.00     0.060 A 
BRANCH  78  79
ATOM     79  S   UNL A   1      39.408  37.313  40.808  1.00  0.00     0.124 S 
ATOM     80  O   UNL A   1      40.770  37.787  41.012  1.00  0.00    -0.237 OA
ATOM     81  O   UNL A   1      38.472  38.274  40.235  1.00  0.00    -0.237 OA
ATOM     82  O   UNL A   1      38.859  36.478  41.874  1.00  0.00    -0.744 OA
ENDBRANCH  78  79
ENDBRANCH  46  71
BRANCH  58  83
ATOM     83  C   UNL A   1      44.075  28.894  36.116  1.00  0.00     0.058 A 
ATOM     84  C   UNL A   1      45.385  29.396  36.121  1.00  0.00     0.135 A 
ATOM     85  C   UNL A   1      43.789  27.796  36.943  1.00  0.00     0.135 A 
ATOM     86  F   UNL A   1      45.712  30.441  35.344  1.00  0.00    -0.206 F 
ATOM     87  C   UNL A   1      46.380  28.821  36.907  1.00  0.00     0.059 A 
ATOM     88  C   UNL A   1      44.764  27.218  37.752  1.00  0.00     0.059 A 
ATOM     89  F   UNL A   1      42.550  27.284  36.982  1.00  0.00    -0.206 F 
ATOM     90  C   UNL A   1      46.059  27.733  37.720  1.00  0.00     0.060 A 
BRANCH  90  91
ATOM     91  S   UNL A   1      47.347  27.020  38.767  1.00  0.00     0.124 S 
ATOM     92  O   UNL A   1      48.122  28.203  39.124  1.00  0.00    -0.237 OA
ATOM     93  O   UNL A   1      46.575  26.417  39.849  1.00  0.00    -0.237 OA
ATOM     94  O   UNL A   1      48.017  26.073  37.882  1.00  0.00    -0.744 OA
ENDBRANCH  90  91
ENDBRANCH  58  83
ENDBRANCH  32  33
ENDBRANCH  25  27
ENDBRANCH  24  25
ENDBRANCH  23  24
ENDBRANCH  22  23
ENDBRANCH  21  22
ENDBRANCH   1  21
TORSDOF 23
ENDMDL
