MODEL 1
REMARK VINA RESULT:     -10.6      0.000      0.000
REMARK SMILES Cc1cccc2c1N=CN1C2=[NH+]NC(=O)[C@@H]1CC(=O)OCCOCCOCCOC(=O)c1ccc(-c2c3nc(c(-c4c(F)cc(S(=O)(=O)[O-])cc4F)c4ccc([nH]4)c(-c4c(F)cc(S(=O)(=O)[O-])cc4F)c4nc(c(-c5c(F)cc(S(=O)(=O)[O-])cc5F)c5ccc2[nH]5)C=C4)C=C3)cc1
REMARK SMILES IDX 25 1 24 2 23 3 22 4 21 5 20 6 18 7 19 8 17 9 16 10 1 11 2 12
REMARK SMILES IDX 3 13 7 14 4 15 6 16 8 17 5 18 11 19 9 20 10 21 12 22 13 23
REMARK SMILES IDX 14 25 15 27 26 28 27 29 28 30 29 31 30 32 31 33 32 34 33 35
REMARK SMILES IDX 97 36 34 37 96 38 35 39 36 40 37 41 90 42 38 43 95 44 89 45
REMARK SMILES IDX 91 46 39 47 94 48 88 49 87 50 40 52 74 53 53 54 73 55 54 56
REMARK SMILES IDX 57 57 72 58 92 59 55 60 56 61 71 63 93 64 58 65 41 66 42 67
REMARK SMILES IDX 51 68 43 69 44 70 50 71 52 72 45 73 46 74 47 75 48 76 49 77
REMARK SMILES IDX 75 78 76 79 85 80 77 81 78 82 84 83 86 84 79 85 80 86 81 87
REMARK SMILES IDX 82 88 83 89 59 90 60 91 69 92 61 93 62 94 68 95 70 96 63 97
REMARK SMILES IDX 64 98 65 99 66 100 67 101
REMARK H PARENT 12 24 13 26 91 51 57 62
REMARK Flexibility Score: inf
ROOT
ATOM      1  C   UNL A   1      34.807  29.592  27.589  1.00  0.00     0.188 C 
ENDROOT
BRANCH   1   2
ATOM      2  C   UNL A   1      34.296  28.975  26.284  1.00  0.00     0.188 C 
BRANCH   2   3
ATOM      3  O   UNL A   1      34.005  27.584  26.340  1.00  0.00    -0.376 OA
BRANCH   3   4
ATOM      4  C   UNL A   1      32.629  27.243  26.504  1.00  0.00     0.202 C 
BRANCH   4   5
ATOM      5  C   UNL A   1      31.722  27.486  25.280  1.00  0.00     0.261 C 
BRANCH   5   6
ATOM      6  O   UNL A   1      30.604  26.564  25.184  1.00  0.00    -0.463 OA
BRANCH   6   7
ATOM      7  C   UNL A   1      30.656  25.672  24.166  1.00  0.00     0.310 C 
ATOM      8  O   UNL A   1      30.862  25.975  22.994  1.00  0.00    -0.252 OA
BRANCH   7   9
ATOM      9  C   UNL A   1      30.619  24.224  24.599  1.00  0.00     0.183 C 
BRANCH   9  10
ATOM     10  C   UNL A   1      31.826  23.528  25.227  1.00  0.00     0.286 C 
ATOM     11  C   UNL A   1      32.241  18.116  21.873  1.00  0.00     0.047 C 
ATOM     12  C   UNL A   1      32.459  18.415  23.327  1.00  0.00    -0.024 A 
ATOM     13  C   UNL A   1      32.393  17.378  24.278  1.00  0.00     0.006 A 
ATOM     14  C   UNL A   1      32.678  19.734  23.751  1.00  0.00     0.085 A 
ATOM     15  C   UNL A   1      32.605  17.627  25.635  1.00  0.00     0.001 A 
ATOM     16  C   UNL A   1      32.907  19.951  25.120  1.00  0.00     0.092 A 
ATOM     17  N   UNL A   1      32.527  20.802  22.827  1.00  0.00    -0.215 NA
ATOM     18  C   UNL A   1      32.896  18.914  26.058  1.00  0.00     0.019 A 
ATOM     19  C   UNL A   1      32.807  21.344  25.602  1.00  0.00     0.309 C 
ATOM     20  C   UNL A   1      32.267  21.960  23.348  1.00  0.00     0.317 C 
ATOM     21  N   UNL A   1      32.243  22.235  24.695  1.00  0.00    -0.202 N 
ATOM     22  N   UNL A   1      33.144  21.583  26.836  1.00  0.00    -0.169 N 
ATOM     23  N   UNL A   1      32.680  22.743  27.372  1.00  0.00    -0.193 N 
ATOM     24  H   UNL A   1      33.704  20.960  27.353  1.00  0.00     0.340 HD
ATOM     25  C   UNL A   1      31.696  23.464  26.739  1.00  0.00     0.300 C 
ATOM     26  H   UNL A   1      33.053  23.069  28.222  1.00  0.00     0.216 HD
ATOM     27  O   UNL A   1      30.847  24.082  27.365  1.00  0.00    -0.267 OA
ENDBRANCH   9  10
ENDBRANCH   7   9
ENDBRANCH   6   7
ENDBRANCH   5   6
ENDBRANCH   4   5
ENDBRANCH   3   4
ENDBRANCH   2   3
ENDBRANCH   1   2
BRANCH   1  28
ATOM     28  O   UNL A   1      34.296  30.892  27.894  1.00  0.00    -0.376 OA
BRANCH  28  29
ATOM     29  C   UNL A   1      32.960  31.128  27.451  1.00  0.00     0.202 C 
BRANCH  29  30
ATOM     30  C   UNL A   1      32.533  32.595  27.286  1.00  0.00     0.261 C 
BRANCH  30  31
ATOM     31  O   UNL A   1      33.611  33.505  27.539  1.00  0.00    -0.460 OA
BRANCH  31  32
ATOM     32  C   UNL A   1      33.474  34.287  28.650  1.00  0.00     0.338 C 
ATOM     33  O   UNL A   1      32.552  35.015  28.931  1.00  0.00    -0.246 OA
BRANCH  32  34
ATOM     34  C   UNL A   1      34.626  33.985  29.543  1.00  0.00     0.060 A 
ATOM     35  C   UNL A   1      35.933  34.163  29.067  1.00  0.00     0.016 A 
ATOM     36  C   UNL A   1      34.415  33.570  30.858  1.00  0.00     0.016 A 
ATOM     37  C   UNL A   1      37.030  33.924  29.889  1.00  0.00     0.010 A 
ATOM     38  C   UNL A   1      35.513  33.286  31.671  1.00  0.00     0.010 A 
ATOM     39  C   UNL A   1      36.822  33.434  31.181  1.00  0.00    -0.014 A 
BRANCH  39  40
ATOM     40  C   UNL A   1      37.952  32.849  31.935  1.00  0.00     0.031 A 
ATOM     41  C   UNL A   1      38.591  31.607  31.379  1.00  0.00     0.074 A 
ATOM     42  C   UNL A   1      38.393  33.392  33.083  1.00  0.00     0.049 A 
ATOM     43  N   UNL A   1      39.531  30.859  31.892  1.00  0.00    -0.248 NA
ATOM     44  C   UNL A   1      38.099  31.145  30.069  1.00  0.00     0.031 C 
ATOM     45  C   UNL A   1      37.884  34.619  33.692  1.00  0.00     0.029 A 
ATOM     46  N   UNL A   1      39.367  32.963  33.949  1.00  0.00    -0.354 N 
ATOM     47  C   UNL A   1      39.744  29.842  30.971  1.00  0.00     0.074 A 
ATOM     48  C   UNL A   1      38.814  30.046  29.882  1.00  0.00     0.031 C 
ATOM     49  C   UNL A   1      38.541  34.835  34.847  1.00  0.00     0.029 A 
ATOM     50  C   UNL A   1      39.491  33.745  35.072  1.00  0.00     0.049 A 
ATOM     51  H   UNL A   1      39.925  32.169  33.782  1.00  0.00     0.167 HD
ATOM     52  C   UNL A   1      40.643  28.834  31.022  1.00  0.00     0.037 A 
ATOM     53  C   UNL A   1      40.266  33.583  36.164  1.00  0.00     0.037 A 
ATOM     54  C   UNL A   1      41.556  28.626  32.113  1.00  0.00     0.049 A 
ATOM     55  C   UNL A   1      41.191  32.391  36.244  1.00  0.00     0.074 A 
ATOM     56  C   UNL A   1      42.510  27.635  32.255  1.00  0.00     0.029 A 
ATOM     57  N   UNL A   1      41.625  29.416  33.251  1.00  0.00    -0.354 N 
ATOM     58  N   UNL A   1      41.402  31.446  35.358  1.00  0.00    -0.248 NA
ATOM     59  C   UNL A   1      41.981  32.240  37.476  1.00  0.00     0.031 C 
ATOM     60  C   UNL A   1      43.116  27.790  33.504  1.00  0.00     0.029 A 
ATOM     61  C   UNL A   1      42.584  28.916  34.113  1.00  0.00     0.049 A 
ATOM     62  H   UNL A   1      41.072  30.213  33.419  1.00  0.00     0.167 HD
ATOM     63  C   UNL A   1      42.367  30.609  35.912  1.00  0.00     0.074 A 
ATOM     64  C   UNL A   1      42.706  31.163  37.205  1.00  0.00     0.031 C 
ATOM     65  C   UNL A   1      42.921  29.484  35.395  1.00  0.00     0.037 A 
BRANCH  52  66
ATOM     66  C   UNL A   1      40.679  27.869  29.872  1.00  0.00     0.058 A 
ATOM     67  C   UNL A   1      39.693  26.883  29.711  1.00  0.00     0.135 A 
ATOM     68  C   UNL A   1      41.674  27.971  28.886  1.00  0.00     0.135 A 
ATOM     69  F   UNL A   1      38.735  26.727  30.638  1.00  0.00    -0.206 F 
ATOM     70  C   UNL A   1      39.696  26.027  28.616  1.00  0.00     0.059 A 
ATOM     71  C   UNL A   1      41.680  27.143  27.768  1.00  0.00     0.059 A 
ATOM     72  F   UNL A   1      42.646  28.890  28.999  1.00  0.00    -0.206 F 
ATOM     73  C   UNL A   1      40.688  26.171  27.645  1.00  0.00     0.060 A 
BRANCH  73  74
ATOM     74  S   UNL A   1      40.651  25.072  26.214  1.00  0.00     0.124 S 
ATOM     75  O   UNL A   1      41.552  24.005  26.641  1.00  0.00    -0.237 OA
ATOM     76  O   UNL A   1      39.238  24.715  26.136  1.00  0.00    -0.237 OA
ATOM     77  O   UNL A   1      41.146  25.911  25.126  1.00  0.00    -0.744 OA
ENDBRANCH  73  74
ENDBRANCH  52  66
BRANCH  53  78
ATOM     78  C   UNL A   1      40.202  34.567  37.278  1.00  0.00     0.058 A 
ATOM     79  C   UNL A   1      39.330  34.377  38.360  1.00  0.00     0.135 A 
ATOM     80  C   UNL A   1      41.003  35.720  37.283  1.00  0.00     0.135 A 
ATOM     81  F   UNL A   1      38.531  33.299  38.394  1.00  0.00    -0.206 F 
ATOM     82  C   UNL A   1      39.245  35.296  39.400  1.00  0.00     0.059 A 
ATOM     83  C   UNL A   1      40.956  36.642  38.325  1.00  0.00     0.059 A 
ATOM     84  F   UNL A   1      41.858  35.951  36.273  1.00  0.00    -0.206 F 
ATOM     85  C   UNL A   1      40.067  36.424  39.377  1.00  0.00     0.060 A 
BRANCH  85  86
ATOM     86  S   UNL A   1      39.978  37.584  40.758  1.00  0.00     0.124 S 
ATOM     87  O   UNL A   1      38.871  37.036  41.533  1.00  0.00    -0.237 OA
ATOM     88  O   UNL A   1      41.304  37.450  41.352  1.00  0.00    -0.237 OA
ATOM     89  O   UNL A   1      39.717  38.865  40.106  1.00  0.00    -0.744 OA
ENDBRANCH  85  86
ENDBRANCH  53  78
BRANCH  65  90
ATOM     90  C   UNL A   1      43.975  28.776  36.205  1.00  0.00     0.058 A 
ATOM     91  C   UNL A   1      43.673  27.643  36.976  1.00  0.00     0.135 A 
ATOM     92  C   UNL A   1      45.320  29.172  36.123  1.00  0.00     0.135 A 
ATOM     93  F   UNL A   1      42.403  27.223  37.092  1.00  0.00    -0.206 F 
ATOM     94  C   UNL A   1      44.666  26.932  37.643  1.00  0.00     0.059 A 
ATOM     95  C   UNL A   1      46.333  28.460  36.758  1.00  0.00     0.059 A 
ATOM     96  F   UNL A   1      45.666  30.241  35.389  1.00  0.00    -0.206 F 
ATOM     97  C   UNL A   1      45.995  27.343  37.520  1.00  0.00     0.060 A 
BRANCH  97  98
ATOM     98  S   UNL A   1      47.277  26.372  38.343  1.00  0.00     0.124 S 
ATOM     99  O   UNL A   1      47.295  26.975  39.673  1.00  0.00    -0.237 OA
ATOM    100  O   UNL A   1      46.736  25.019  38.268  1.00  0.00    -0.237 OA
ATOM    101  O   UNL A   1      48.464  26.613  37.529  1.00  0.00    -0.744 OA
ENDBRANCH  97  98
ENDBRANCH  65  90
ENDBRANCH  39  40
ENDBRANCH  32  34
ENDBRANCH  31  32
ENDBRANCH  30  31
ENDBRANCH  29  30
ENDBRANCH  28  29
ENDBRANCH   1  28
TORSDOF 21
ENDMDL
MODEL 2
REMARK VINA RESULT:     -10.6      6.289      8.521
REMARK SMILES Cc1cccc2c1N=CN1C2=[NH+]NC(=O)[C@@H]1CC(=O)OCCOCCOCCOC(=O)c1ccc(-c2c3nc(c(-c4c(F)cc(S(=O)(=O)[O-])cc4F)c4ccc([nH]4)c(-c4c(F)cc(S(=O)(=O)[O-])cc4F)c4nc(c(-c5c(F)cc(S(=O)(=O)[O-])cc5F)c5ccc2[nH]5)C=C4)C=C3)cc1
REMARK SMILES IDX 25 1 24 2 23 3 22 4 21 5 20 6 18 7 19 8 17 9 16 10 1 11 2 12
REMARK SMILES IDX 3 13 7 14 4 15 6 16 8 17 5 18 11 19 9 20 10 21 12 22 13 23
REMARK SMILES IDX 14 25 15 27 26 28 27 29 28 30 29 31 30 32 31 33 32 34 33 35
REMARK SMILES IDX 97 36 34 37 96 38 35 39 36 40 37 41 90 42 38 43 95 44 89 45
REMARK SMILES IDX 91 46 39 47 94 48 88 49 87 50 40 52 74 53 53 54 73 55 54 56
REMARK SMILES IDX 57 57 72 58 92 59 55 60 56 61 71 63 93 64 58 65 41 66 42 67
REMARK SMILES IDX 51 68 43 69 44 70 50 71 52 72 45 73 46 74 47 75 48 76 49 77
REMARK SMILES IDX 75 78 76 79 85 80 77 81 78 82 84 83 86 84 79 85 80 86 81 87
REMARK SMILES IDX 82 88 83 89 59 90 60 91 69 92 61 93 62 94 68 95 70 96 63 97
REMARK SMILES IDX 64 98 65 99 66 100 67 101
REMARK H PARENT 12 24 13 26 91 51 57 62
REMARK Flexibility Score: inf
ROOT
ATOM      1  C   UNL A   1      33.968  29.908  27.558  1.00  0.00     0.188 C 
ENDROOT
BRANCH   1   2
ATOM      2  C   UNL A   1      32.481  29.770  27.218  1.00  0.00     0.188 C 
BRANCH   2   3
ATOM      3  O   UNL A   1      32.059  30.449  26.042  1.00  0.00    -0.376 OA
BRANCH   3   4
ATOM      4  C   UNL A   1      31.706  29.617  24.937  1.00  0.00     0.202 C 
BRANCH   4   5
ATOM      5  C   UNL A   1      32.882  29.049  24.117  1.00  0.00     0.261 C 
BRANCH   5   6
ATOM      6  O   UNL A   1      32.472  28.248  22.977  1.00  0.00    -0.463 OA
BRANCH   6   7
ATOM      7  C   UNL A   1      33.467  27.638  22.291  1.00  0.00     0.310 C 
ATOM      8  O   UNL A   1      34.347  28.236  21.677  1.00  0.00    -0.252 OA
BRANCH   7   9
ATOM      9  C   UNL A   1      33.532  26.139  22.476  1.00  0.00     0.183 C 
BRANCH   9  10
ATOM     10  C   UNL A   1      32.721  25.414  23.549  1.00  0.00     0.286 C 
ATOM     11  C   UNL A   1      36.481  20.492  25.081  1.00  0.00     0.047 C 
ATOM     12  C   UNL A   1      34.993  20.611  24.938  1.00  0.00    -0.024 A 
ATOM     13  C   UNL A   1      34.210  19.460  24.723  1.00  0.00     0.006 A 
ATOM     14  C   UNL A   1      34.380  21.873  24.967  1.00  0.00     0.085 A 
ATOM     15  C   UNL A   1      32.822  19.541  24.599  1.00  0.00     0.001 A 
ATOM     16  C   UNL A   1      32.980  21.922  24.858  1.00  0.00     0.092 A 
ATOM     17  N   UNL A   1      35.184  23.043  24.962  1.00  0.00    -0.215 NA
ATOM     18  C   UNL A   1      32.197  20.774  24.700  1.00  0.00     0.019 A 
ATOM     19  C   UNL A   1      32.378  23.237  24.559  1.00  0.00     0.309 C 
ATOM     20  C   UNL A   1      34.609  24.116  24.514  1.00  0.00     0.317 C 
ATOM     21  N   UNL A   1      33.284  24.216  24.161  1.00  0.00    -0.202 N 
ATOM     22  N   UNL A   1      31.080  23.330  24.586  1.00  0.00    -0.169 N 
ATOM     23  N   UNL A   1      30.539  24.393  23.936  1.00  0.00    -0.193 N 
ATOM     24  H   UNL A   1      30.521  22.666  25.052  1.00  0.00     0.340 HD
ATOM     25  C   UNL A   1      31.299  25.152  23.079  1.00  0.00     0.300 C 
ATOM     26  H   UNL A   1      29.593  24.622  24.081  1.00  0.00     0.216 HD
ATOM     27  O   UNL A   1      30.826  25.654  22.070  1.00  0.00    -0.267 OA
ENDBRANCH   9  10
ENDBRANCH   7   9
ENDBRANCH   6   7
ENDBRANCH   5   6
ENDBRANCH   4   5
ENDBRANCH   3   4
ENDBRANCH   2   3
ENDBRANCH   1   2
BRANCH   1  28
ATOM     28  O   UNL A   1      34.524  31.211  27.363  1.00  0.00    -0.376 OA
BRANCH  28  29
ATOM     29  C   UNL A   1      34.137  32.177  28.340  1.00  0.00     0.202 C 
BRANCH  29  30
ATOM     30  C   UNL A   1      35.230  32.659  29.308  1.00  0.00     0.261 C 
BRANCH  30  31
ATOM     31  O   UNL A   1      36.478  31.988  29.094  1.00  0.00    -0.460 OA
BRANCH  31  32
ATOM     32  C   UNL A   1      36.852  31.114  30.074  1.00  0.00     0.338 C 
ATOM     33  O   UNL A   1      36.220  30.785  31.050  1.00  0.00    -0.246 OA
BRANCH  32  34
ATOM     34  C   UNL A   1      38.153  30.521  29.660  1.00  0.00     0.060 A 
ATOM     35  C   UNL A   1      39.172  30.363  30.610  1.00  0.00     0.016 A 
ATOM     36  C   UNL A   1      38.348  30.084  28.351  1.00  0.00     0.016 A 
ATOM     37  C   UNL A   1      40.387  29.778  30.262  1.00  0.00     0.010 A 
ATOM     38  C   UNL A   1      39.581  29.539  27.987  1.00  0.00     0.010 A 
ATOM     39  C   UNL A   1      40.612  29.412  28.933  1.00  0.00    -0.014 A 
BRANCH  39  40
ATOM     40  C   UNL A   1      41.989  29.123  28.475  1.00  0.00     0.031 A 
ATOM     41  C   UNL A   1      42.308  27.707  28.082  1.00  0.00     0.074 A 
ATOM     42  C   UNL A   1      42.932  30.079  28.420  1.00  0.00     0.049 A 
ATOM     43  N   UNL A   1      43.452  27.182  27.735  1.00  0.00    -0.248 NA
ATOM     44  C   UNL A   1      41.183  26.754  28.088  1.00  0.00     0.031 C 
ATOM     45  C   UNL A   1      42.727  31.492  28.729  1.00  0.00     0.029 A 
ATOM     46  N   UNL A   1      44.262  29.993  28.093  1.00  0.00    -0.354 N 
ATOM     47  C   UNL A   1      43.187  25.843  27.478  1.00  0.00     0.074 A 
ATOM     48  C   UNL A   1      41.782  25.625  27.742  1.00  0.00     0.031 C 
ATOM     49  C   UNL A   1      43.899  32.140  28.594  1.00  0.00     0.029 A 
ATOM     50  C   UNL A   1      44.940  31.181  28.222  1.00  0.00     0.049 A 
ATOM     51  H   UNL A   1      44.690  29.158  27.795  1.00  0.00     0.167 HD
ATOM     52  C   UNL A   1      44.037  24.884  27.049  1.00  0.00     0.037 A 
ATOM     53  C   UNL A   1      46.254  31.454  28.078  1.00  0.00     0.037 A 
ATOM     54  C   UNL A   1      45.436  25.102  26.802  1.00  0.00     0.049 A 
ATOM     55  C   UNL A   1      47.202  30.341  27.697  1.00  0.00     0.074 A 
ATOM     56  C   UNL A   1      46.380  24.193  26.360  1.00  0.00     0.029 A 
ATOM     57  N   UNL A   1      46.094  26.309  26.982  1.00  0.00    -0.354 N 
ATOM     58  N   UNL A   1      46.938  29.083  27.435  1.00  0.00    -0.248 NA
ATOM     59  C   UNL A   1      48.628  30.686  27.596  1.00  0.00     0.031 C 
ATOM     60  C   UNL A   1      47.620  24.834  26.328  1.00  0.00     0.029 A 
ATOM     61  C   UNL A   1      47.438  26.160  26.689  1.00  0.00     0.049 A 
ATOM     62  H   UNL A   1      45.668  27.147  27.275  1.00  0.00     0.167 HD
ATOM     63  C   UNL A   1      48.158  28.495  27.111  1.00  0.00     0.074 A 
ATOM     64  C   UNL A   1      49.160  29.537  27.200  1.00  0.00     0.031 C 
ATOM     65  C   UNL A   1      48.424  27.209  26.771  1.00  0.00     0.037 A 
BRANCH  52  66
ATOM     66  C   UNL A   1      43.483  23.505  26.830  1.00  0.00     0.058 A 
ATOM     67  C   UNL A   1      43.275  22.995  25.539  1.00  0.00     0.135 A 
ATOM     68  C   UNL A   1      43.217  22.662  27.921  1.00  0.00     0.135 A 
ATOM     69  F   UNL A   1      43.490  23.770  24.463  1.00  0.00    -0.206 F 
ATOM     70  C   UNL A   1      42.817  21.700  25.336  1.00  0.00     0.059 A 
ATOM     71  C   UNL A   1      42.783  21.352  27.741  1.00  0.00     0.059 A 
ATOM     72  F   UNL A   1      43.389  23.104  29.176  1.00  0.00    -0.206 F 
ATOM     73  C   UNL A   1      42.582  20.882  26.443  1.00  0.00     0.060 A 
BRANCH  73  74
ATOM     74  S   UNL A   1      42.021  19.191  26.156  1.00  0.00     0.124 S 
ATOM     75  O   UNL A   1      42.787  18.826  24.967  1.00  0.00    -0.237 OA
ATOM     76  O   UNL A   1      42.413  18.522  27.392  1.00  0.00    -0.237 OA
ATOM     77  O   UNL A   1      40.583  19.338  25.952  1.00  0.00    -0.744 OA
ENDBRANCH  73  74
ENDBRANCH  52  66
BRANCH  53  78
ATOM     78  C   UNL A   1      46.758  32.836  28.299  1.00  0.00     0.058 A 
ATOM     79  C   UNL A   1      47.273  33.225  29.545  1.00  0.00     0.135 A 
ATOM     80  C   UNL A   1      46.729  33.798  27.278  1.00  0.00     0.135 A 
ATOM     81  F   UNL A   1      47.307  32.347  30.559  1.00  0.00    -0.206 F 
ATOM     82  C   UNL A   1      47.732  34.517  29.774  1.00  0.00     0.059 A 
ATOM     83  C   UNL A   1      47.207  35.091  27.473  1.00  0.00     0.059 A 
ATOM     84  F   UNL A   1      46.249  33.479  26.065  1.00  0.00    -0.206 F 
ATOM     85  C   UNL A   1      47.701  35.443  28.729  1.00  0.00     0.060 A 
BRANCH  85  86
ATOM     86  S   UNL A   1      48.343  37.104  29.029  1.00  0.00     0.124 S 
ATOM     87  O   UNL A   1      48.165  37.730  27.724  1.00  0.00    -0.237 OA
ATOM     88  O   UNL A   1      47.465  37.580  30.093  1.00  0.00    -0.237 OA
ATOM     89  O   UNL A   1      49.727  36.864  29.428  1.00  0.00    -0.744 OA
ENDBRANCH  85  86
ENDBRANCH  53  78
BRANCH  65  90
ATOM     90  C   UNL A   1      49.847  26.842  26.440  1.00  0.00     0.058 A 
ATOM     91  C   UNL A   1      50.704  26.281  27.398  1.00  0.00     0.135 A 
ATOM     92  C   UNL A   1      50.323  26.955  25.122  1.00  0.00     0.135 A 
ATOM     93  F   UNL A   1      50.302  26.152  28.673  1.00  0.00    -0.206 F 
ATOM     94  C   UNL A   1      51.985  25.851  27.064  1.00  0.00     0.059 A 
ATOM     95  C   UNL A   1      51.588  26.506  24.759  1.00  0.00     0.059 A 
ATOM     96  F   UNL A   1      49.539  27.474  24.163  1.00  0.00    -0.206 F 
ATOM     97  C   UNL A   1      52.415  25.959  25.740  1.00  0.00     0.060 A 
BRANCH  97  98
ATOM     98  S   UNL A   1      54.057  25.340  25.313  1.00  0.00     0.124 S 
ATOM     99  O   UNL A   1      54.262  25.933  23.995  1.00  0.00    -0.237 OA
ATOM    100  O   UNL A   1      54.880  25.884  26.388  1.00  0.00    -0.237 OA
ATOM    101  O   UNL A   1      53.891  23.890  25.329  1.00  0.00    -0.744 OA
ENDBRANCH  97  98
ENDBRANCH  65  90
ENDBRANCH  39  40
ENDBRANCH  32  34
ENDBRANCH  31  32
ENDBRANCH  30  31
ENDBRANCH  29  30
ENDBRANCH  28  29
ENDBRANCH   1  28
TORSDOF 21
ENDMDL
MODEL 3
REMARK VINA RESULT:     -10.5      7.330     16.172
REMARK SMILES Cc1cccc2c1N=CN1C2=[NH+]NC(=O)[C@@H]1CC(=O)OCCOCCOCCOC(=O)c1ccc(-c2c3nc(c(-c4c(F)cc(S(=O)(=O)[O-])cc4F)c4ccc([nH]4)c(-c4c(F)cc(S(=O)(=O)[O-])cc4F)c4nc(c(-c5c(F)cc(S(=O)(=O)[O-])cc5F)c5ccc2[nH]5)C=C4)C=C3)cc1
REMARK SMILES IDX 25 1 24 2 23 3 22 4 21 5 20 6 18 7 19 8 17 9 16 10 1 11 2 12
REMARK SMILES IDX 3 13 7 14 4 15 6 16 8 17 5 18 11 19 9 20 10 21 12 22 13 23
REMARK SMILES IDX 14 25 15 27 26 28 27 29 28 30 29 31 30 32 31 33 32 34 33 35
REMARK SMILES IDX 97 36 34 37 96 38 35 39 36 40 37 41 90 42 38 43 95 44 89 45
REMARK SMILES IDX 91 46 39 47 94 48 88 49 87 50 40 52 74 53 53 54 73 55 54 56
REMARK SMILES IDX 57 57 72 58 92 59 55 60 56 61 71 63 93 64 58 65 41 66 42 67
REMARK SMILES IDX 51 68 43 69 44 70 50 71 52 72 45 73 46 74 47 75 48 76 49 77
REMARK SMILES IDX 75 78 76 79 85 80 77 81 78 82 84 83 86 84 79 85 80 86 81 87
REMARK SMILES IDX 82 88 83 89 59 90 60 91 69 92 61 93 62 94 68 95 70 96 63 97
REMARK SMILES IDX 64 98 65 99 66 100 67 101
REMARK H PARENT 12 24 13 26 91 51 57 62
REMARK Flexibility Score: inf
ROOT
ATOM      1  C   UNL A   1      47.435  19.995  37.103  1.00  0.00     0.188 C 
ENDROOT
BRANCH   1   2
ATOM      2  C   UNL A   1      47.110  19.523  38.524  1.00  0.00     0.188 C 
BRANCH   2   3
ATOM      3  O   UNL A   1      48.224  19.078  39.288  1.00  0.00    -0.376 OA
BRANCH   3   4
ATOM      4  C   UNL A   1      47.917  18.252  40.410  1.00  0.00     0.202 C 
BRANCH   4   5
ATOM      5  C   UNL A   1      46.842  18.793  41.374  1.00  0.00     0.261 C 
BRANCH   5   6
ATOM      6  O   UNL A   1      46.030  17.759  41.991  1.00  0.00    -0.463 OA
BRANCH   6   7
ATOM      7  C   UNL A   1      44.778  17.613  41.498  1.00  0.00     0.310 C 
ATOM      8  O   UNL A   1      44.028  18.549  41.233  1.00  0.00    -0.252 OA
BRANCH   7   9
ATOM      9  C   UNL A   1      44.414  16.196  41.118  1.00  0.00     0.183 C 
BRANCH   9  10
ATOM     10  C   UNL A   1      43.081  15.562  41.512  1.00  0.00     0.286 C 
ATOM     11  C   UNL A   1      44.708  11.739  46.355  1.00  0.00     0.047 C 
ATOM     12  C   UNL A   1      43.729  11.573  45.230  1.00  0.00    -0.024 A 
ATOM     13  C   UNL A   1      43.300  10.286  44.853  1.00  0.00     0.006 A 
ATOM     14  C   UNL A   1      43.276  12.694  44.518  1.00  0.00     0.085 A 
ATOM     15  C   UNL A   1      42.381  10.104  43.819  1.00  0.00     0.001 A 
ATOM     16  C   UNL A   1      42.337  12.482  43.496  1.00  0.00     0.092 A 
ATOM     17  N   UNL A   1      43.872  13.961  44.752  1.00  0.00    -0.215 NA
ATOM     18  C   UNL A   1      41.869  11.208  43.156  1.00  0.00     0.019 A 
ATOM     19  C   UNL A   1      42.118  13.593  42.547  1.00  0.00     0.309 C 
ATOM     20  C   UNL A   1      43.774  14.814  43.780  1.00  0.00     0.317 C 
ATOM     21  N   UNL A   1      43.057  14.617  42.624  1.00  0.00    -0.202 N 
ATOM     22  N   UNL A   1      41.160  13.466  41.676  1.00  0.00    -0.169 N 
ATOM     23  N   UNL A   1      41.225  14.277  40.588  1.00  0.00    -0.193 N 
ATOM     24  H   UNL A   1      40.428  12.819  41.798  1.00  0.00     0.340 HD
ATOM     25  C   UNL A   1      42.373  14.977  40.302  1.00  0.00     0.300 C 
ATOM     26  H   UNL A   1      40.441  14.365  39.999  1.00  0.00     0.216 HD
ATOM     27  O   UNL A   1      42.729  15.188  39.152  1.00  0.00    -0.267 OA
ENDBRANCH   9  10
ENDBRANCH   7   9
ENDBRANCH   6   7
ENDBRANCH   5   6
ENDBRANCH   4   5
ENDBRANCH   3   4
ENDBRANCH   2   3
ENDBRANCH   1   2
BRANCH   1  28
ATOM     28  O   UNL A   1      48.081  21.268  37.012  1.00  0.00    -0.376 OA
BRANCH  28  29
ATOM     29  C   UNL A   1      47.323  22.361  37.530  1.00  0.00     0.202 C 
BRANCH  29  30
ATOM     30  C   UNL A   1      47.842  23.774  37.218  1.00  0.00     0.261 C 
BRANCH  30  31
ATOM     31  O   UNL A   1      46.779  24.727  37.101  1.00  0.00    -0.460 OA
BRANCH  31  32
ATOM     32  C   UNL A   1      47.070  25.991  37.528  1.00  0.00     0.338 C 
ATOM     33  O   UNL A   1      48.024  26.348  38.179  1.00  0.00    -0.246 OA
BRANCH  32  34
ATOM     34  C   UNL A   1      46.055  26.901  36.932  1.00  0.00     0.060 A 
ATOM     35  C   UNL A   1      44.694  26.678  37.188  1.00  0.00     0.016 A 
ATOM     36  C   UNL A   1      46.448  27.994  36.160  1.00  0.00     0.016 A 
ATOM     37  C   UNL A   1      43.723  27.533  36.675  1.00  0.00     0.010 A 
ATOM     38  C   UNL A   1      45.474  28.826  35.606  1.00  0.00     0.010 A 
ATOM     39  C   UNL A   1      44.110  28.581  35.837  1.00  0.00    -0.014 A 
BRANCH  39  40
ATOM     40  C   UNL A   1      43.096  29.274  35.011  1.00  0.00     0.031 A 
ATOM     41  C   UNL A   1      42.293  30.364  35.665  1.00  0.00     0.074 A 
ATOM     42  C   UNL A   1      42.882  28.941  33.727  1.00  0.00     0.049 A 
ATOM     43  N   UNL A   1      41.293  31.055  35.188  1.00  0.00    -0.248 NA
ATOM     44  C   UNL A   1      42.668  30.717  37.047  1.00  0.00     0.031 C 
ATOM     45  C   UNL A   1      43.630  27.936  32.974  1.00  0.00     0.029 A 
ATOM     46  N   UNL A   1      41.954  29.412  32.832  1.00  0.00    -0.354 N 
ATOM     47  C   UNL A   1      40.921  31.925  36.205  1.00  0.00     0.074 A 
ATOM     48  C   UNL A   1      41.777  31.653  37.338  1.00  0.00     0.031 C 
ATOM     49  C   UNL A   1      43.117  27.853  31.733  1.00  0.00     0.029 A 
ATOM     50  C   UNL A   1      41.986  28.775  31.615  1.00  0.00     0.049 A 
ATOM     51  H   UNL A   1      41.324  30.139  33.043  1.00  0.00     0.167 HD
ATOM     52  C   UNL A   1      39.958  32.873  36.191  1.00  0.00     0.037 A 
ATOM     53  C   UNL A   1      41.179  28.906  30.543  1.00  0.00     0.037 A 
ATOM     54  C   UNL A   1      39.099  33.131  35.068  1.00  0.00     0.049 A 
ATOM     55  C   UNL A   1      40.044  29.903  30.588  1.00  0.00     0.074 A 
ATOM     56  C   UNL A   1      38.095  34.075  34.955  1.00  0.00     0.029 A 
ATOM     57  N   UNL A   1      39.135  32.438  33.867  1.00  0.00    -0.354 N 
ATOM     58  N   UNL A   1      39.714  30.737  31.547  1.00  0.00    -0.248 NA
ATOM     59  C   UNL A   1      39.170  29.974  29.408  1.00  0.00     0.031 C 
ATOM     60  C   UNL A   1      37.486  33.916  33.708  1.00  0.00     0.029 A 
ATOM     61  C   UNL A   1      38.152  32.914  33.019  1.00  0.00     0.049 A 
ATOM     62  H   UNL A   1      39.767  31.714  33.651  1.00  0.00     0.167 HD
ATOM     63  C   UNL A   1      38.615  31.448  31.073  1.00  0.00     0.074 A 
ATOM     64  C   UNL A   1      38.342  30.955  29.740  1.00  0.00     0.031 C 
ATOM     65  C   UNL A   1      37.897  32.422  31.688  1.00  0.00     0.037 A 
BRANCH  52  66
ATOM     66  C   UNL A   1      39.771  33.699  37.432  1.00  0.00     0.058 A 
ATOM     67  C   UNL A   1      40.451  34.913  37.614  1.00  0.00     0.135 A 
ATOM     68  C   UNL A   1      38.854  33.304  38.420  1.00  0.00     0.135 A 
ATOM     69  F   UNL A   1      41.357  35.323  36.712  1.00  0.00    -0.206 F 
ATOM     70  C   UNL A   1      40.235  35.704  38.736  1.00  0.00     0.059 A 
ATOM     71  C   UNL A   1      38.601  34.094  39.537  1.00  0.00     0.059 A 
ATOM     72  F   UNL A   1      38.185  32.147  38.298  1.00  0.00    -0.206 F 
ATOM     73  C   UNL A   1      39.301  35.290  39.688  1.00  0.00     0.060 A 
BRANCH  73  74
ATOM     74  S   UNL A   1      39.010  36.350  41.119  1.00  0.00     0.124 S 
ATOM     75  O   UNL A   1      37.947  35.626  41.809  1.00  0.00    -0.237 OA
ATOM     76  O   UNL A   1      40.312  36.342  41.778  1.00  0.00    -0.237 OA
ATOM     77  O   UNL A   1      38.616  37.625  40.526  1.00  0.00    -0.744 OA
ENDBRANCH  73  74
ENDBRANCH  52  66
BRANCH  53  78
ATOM     78  C   UNL A   1      41.405  28.072  29.331  1.00  0.00     0.058 A 
ATOM     79  C   UNL A   1      42.450  28.361  28.442  1.00  0.00     0.135 A 
ATOM     80  C   UNL A   1      40.580  26.976  29.032  1.00  0.00     0.135 A 
ATOM     81  F   UNL A   1      43.257  29.408  28.674  1.00  0.00    -0.206 F 
ATOM     82  C   UNL A   1      42.665  27.603  27.296  1.00  0.00     0.059 A 
ATOM     83  C   UNL A   1      40.790  26.186  27.906  1.00  0.00     0.059 A 
ATOM     84  F   UNL A   1      39.566  26.653  29.851  1.00  0.00    -0.206 F 
ATOM     85  C   UNL A   1      41.833  26.512  27.039  1.00  0.00     0.060 A 
BRANCH  85  86
ATOM     86  S   UNL A   1      42.153  25.510  25.571  1.00  0.00     0.124 S 
ATOM     87  O   UNL A   1      40.801  25.250  25.090  1.00  0.00    -0.237 OA
ATOM     88  O   UNL A   1      42.959  26.415  24.758  1.00  0.00    -0.237 OA
ATOM     89  O   UNL A   1      42.865  24.352  26.103  1.00  0.00    -0.744 OA
ENDBRANCH  85  86
ENDBRANCH  53  78
BRANCH  65  90
ATOM     90  C   UNL A   1      36.758  33.050  30.929  1.00  0.00     0.058 A 
ATOM     91  C   UNL A   1      35.421  32.739  31.218  1.00  0.00     0.135 A 
ATOM     92  C   UNL A   1      37.005  34.052  29.976  1.00  0.00     0.135 A 
ATOM     93  F   UNL A   1      35.127  31.786  32.118  1.00  0.00    -0.206 F 
ATOM     94  C   UNL A   1      34.369  33.394  30.584  1.00  0.00     0.059 A 
ATOM     95  C   UNL A   1      35.970  34.741  29.351  1.00  0.00     0.059 A 
ATOM     96  F   UNL A   1      38.266  34.398  29.671  1.00  0.00    -0.206 F 
ATOM     97  C   UNL A   1      34.653  34.401  29.660  1.00  0.00     0.060 A 
BRANCH  97  98
ATOM     98  S   UNL A   1      33.276  35.282  28.893  1.00  0.00     0.124 S 
ATOM     99  O   UNL A   1      33.972  36.330  28.153  1.00  0.00    -0.237 OA
ATOM    100  O   UNL A   1      32.655  34.239  28.082  1.00  0.00    -0.237 OA
ATOM    101  O   UNL A   1      32.485  35.737  30.032  1.00  0.00    -0.744 OA
ENDBRANCH  97  98
ENDBRANCH  65  90
ENDBRANCH  39  40
ENDBRANCH  32  34
ENDBRANCH  31  32
ENDBRANCH  30  31
ENDBRANCH  29  30
ENDBRANCH  28  29
ENDBRANCH   1  28
TORSDOF 21
ENDMDL
