MODEL 1
REMARK VINA RESULT:      -8.6      0.000      0.000
REMARK SMILES COC[C@H](C)[C@H](CC(C)C)C(=O)OCCOCCOCCOC(=O)c1ccc(-c2c3nc(c(-c4c(F)cc(S(=O)(=O)[O-])cc4F)c4ccc([nH]4)c(-c4c(F)cc(S(=O)(=O)[O-])cc4F)c4nc(c(-c5c(F)cc(S(=O)(=O)[O-])cc5F)c5ccc2[nH]5)C=C4)C=C3)cc1
REMARK SMILES IDX 17 1 16 2 15 3 14 4 13 5 11 6 12 7 6 8 4 9 5 10 3 11 2 12
REMARK SMILES IDX 1 13 7 14 8 15 9 16 10 17 18 18 19 19 20 20 21 21 22 22
REMARK SMILES IDX 23 23 24 24 25 25 26 26 90 27 27 28 89 29 28 30 29 31 30 32
REMARK SMILES IDX 83 33 31 34 88 35 82 36 84 37 32 38 87 39 81 40 80 41 33 43
REMARK SMILES IDX 67 44 46 45 66 46 47 47 50 48 65 49 85 50 48 51 49 52 64 54
REMARK SMILES IDX 86 55 51 56 34 57 35 58 44 59 36 60 37 61 43 62 45 63 38 64
REMARK SMILES IDX 39 65 40 66 41 67 42 68 68 69 69 70 78 71 70 72 71 73 77 74
REMARK SMILES IDX 79 75 72 76 73 77 74 78 75 79 76 80 52 81 53 82 62 83 54 84
REMARK SMILES IDX 55 85 61 86 63 87 56 88 57 89 58 90 59 91 60 92
REMARK H PARENT 84 42 50 53
REMARK Flexibility Score: inf
ROOT
ATOM      1  C   UNL A   1      39.017  21.732  25.830  1.00  0.00     0.188 C 
ENDROOT
BRANCH   1   2
ATOM      2  O   UNL A   1      38.624  23.020  26.289  1.00  0.00    -0.376 OA
BRANCH   2   3
ATOM      3  C   UNL A   1      37.498  23.620  25.652  1.00  0.00     0.202 C 
BRANCH   3   4
ATOM      4  C   UNL A   1      36.746  22.772  24.615  1.00  0.00     0.261 C 
BRANCH   4   5
ATOM      5  O   UNL A   1      36.157  23.515  23.524  1.00  0.00    -0.463 OA
BRANCH   5   6
ATOM      6  C   UNL A   1      34.797  23.534  23.494  1.00  0.00     0.309 C 
ATOM      7  O   UNL A   1      34.123  22.779  22.801  1.00  0.00    -0.252 OA
BRANCH   6   8
ATOM      8  C   UNL A   1      34.147  24.556  24.446  1.00  0.00     0.104 C 
BRANCH   8   9
ATOM      9  C   UNL A   1      33.110  23.754  25.302  1.00  0.00     0.026 C 
ATOM     10  C   UNL A   1      33.666  23.290  26.656  1.00  0.00     0.011 C 
BRANCH   9  11
ATOM     11  C   UNL A   1      31.740  24.465  25.354  1.00  0.00     0.163 C 
BRANCH  11  12
ATOM     12  O   UNL A   1      30.678  23.726  24.762  1.00  0.00    -0.384 OA
ATOM     13  C   UNL A   1      30.610  23.862  23.353  1.00  0.00     0.194 C 
ENDBRANCH  11  12
ENDBRANCH   9  11
ENDBRANCH   8   9
BRANCH   8  14
ATOM     14  C   UNL A   1      33.618  25.846  23.754  1.00  0.00     0.018 C 
BRANCH  14  15
ATOM     15  C   UNL A   1      33.980  27.193  24.428  1.00  0.00    -0.017 C 
ATOM     16  C   UNL A   1      33.099  28.347  23.949  1.00  0.00     0.007 C 
ATOM     17  C   UNL A   1      33.911  27.090  25.953  1.00  0.00     0.007 C 
ENDBRANCH  14  15
ENDBRANCH   8  14
ENDBRANCH   6   8
ENDBRANCH   5   6
ENDBRANCH   4   5
ENDBRANCH   3   4
ENDBRANCH   2   3
ENDBRANCH   1   2
BRANCH   1  18
ATOM     18  C   UNL A   1      40.210  21.091  26.543  1.00  0.00     0.188 C 
BRANCH  18  19
ATOM     19  O   UNL A   1      41.385  20.974  25.750  1.00  0.00    -0.376 OA
BRANCH  19  20
ATOM     20  C   UNL A   1      42.530  21.710  26.190  1.00  0.00     0.202 C 
BRANCH  20  21
ATOM     21  C   UNL A   1      42.695  23.123  25.598  1.00  0.00     0.261 C 
BRANCH  21  22
ATOM     22  O   UNL A   1      41.797  24.111  26.142  1.00  0.00    -0.460 OA
BRANCH  22  23
ATOM     23  C   UNL A   1      42.036  25.408  25.832  1.00  0.00     0.338 C 
ATOM     24  O   UNL A   1      42.093  25.885  24.711  1.00  0.00    -0.246 OA
BRANCH  23  25
ATOM     25  C   UNL A   1      41.949  26.210  27.082  1.00  0.00     0.060 A 
ATOM     26  C   UNL A   1      40.936  25.894  28.000  1.00  0.00     0.016 A 
ATOM     27  C   UNL A   1      42.886  27.199  27.394  1.00  0.00     0.016 A 
ATOM     28  C   UNL A   1      40.828  26.599  29.201  1.00  0.00     0.010 A 
ATOM     29  C   UNL A   1      42.774  27.911  28.594  1.00  0.00     0.010 A 
ATOM     30  C   UNL A   1      41.722  27.641  29.487  1.00  0.00    -0.014 A 
BRANCH  30  31
ATOM     31  C   UNL A   1      41.425  28.587  30.591  1.00  0.00     0.031 A 
ATOM     32  C   UNL A   1      42.272  28.507  31.835  1.00  0.00     0.074 A 
ATOM     33  C   UNL A   1      40.450  29.511  30.503  1.00  0.00     0.049 A 
ATOM     34  N   UNL A   1      42.193  29.197  32.943  1.00  0.00    -0.248 NA
ATOM     35  C   UNL A   1      43.356  27.511  31.823  1.00  0.00     0.031 C 
ATOM     36  C   UNL A   1      39.582  29.725  29.348  1.00  0.00     0.029 A 
ATOM     37  N   UNL A   1      40.025  30.443  31.419  1.00  0.00    -0.354 N 
ATOM     38  C   UNL A   1      43.208  28.715  33.760  1.00  0.00     0.074 A 
ATOM     39  C   UNL A   1      43.872  27.655  33.033  1.00  0.00     0.031 C 
ATOM     40  C   UNL A   1      38.722  30.720  29.627  1.00  0.00     0.029 A 
ATOM     41  C   UNL A   1      38.956  31.197  30.990  1.00  0.00     0.049 A 
ATOM     42  H   UNL A   1      40.446  30.563  32.301  1.00  0.00     0.167 HD
ATOM     43  C   UNL A   1      43.564  29.122  35.000  1.00  0.00     0.037 A 
ATOM     44  C   UNL A   1      38.242  32.145  31.632  1.00  0.00     0.037 A 
ATOM     45  C   UNL A   1      42.908  30.175  35.728  1.00  0.00     0.049 A 
ATOM     46  C   UNL A   1      38.611  32.532  33.044  1.00  0.00     0.074 A 
ATOM     47  C   UNL A   1      43.213  30.670  36.984  1.00  0.00     0.029 A 
ATOM     48  N   UNL A   1      41.809  30.888  35.272  1.00  0.00    -0.354 N 
ATOM     49  N   UNL A   1      39.593  32.089  33.794  1.00  0.00    -0.248 NA
ATOM     50  C   UNL A   1      37.773  33.548  33.698  1.00  0.00     0.031 C 
ATOM     51  C   UNL A   1      42.266  31.647  37.309  1.00  0.00     0.029 A 
ATOM     52  C   UNL A   1      41.407  31.800  36.233  1.00  0.00     0.049 A 
ATOM     53  H   UNL A   1      41.380  30.763  34.395  1.00  0.00     0.167 HD
ATOM     54  C   UNL A   1      39.509  32.795  34.991  1.00  0.00     0.074 A 
ATOM     55  C   UNL A   1      38.386  33.699  34.866  1.00  0.00     0.031 C 
ATOM     56  C   UNL A   1      40.295  32.705  36.094  1.00  0.00     0.037 A 
BRANCH  43  57
ATOM     57  C   UNL A   1      44.706  28.403  35.663  1.00  0.00     0.058 A 
ATOM     58  C   UNL A   1      46.030  28.849  35.543  1.00  0.00     0.135 A 
ATOM     59  C   UNL A   1      44.463  27.264  36.449  1.00  0.00     0.135 A 
ATOM     60  F   UNL A   1      46.319  29.918  34.785  1.00  0.00    -0.206 F 
ATOM     61  C   UNL A   1      47.080  28.176  36.160  1.00  0.00     0.059 A 
ATOM     62  C   UNL A   1      45.494  26.592  37.097  1.00  0.00     0.059 A 
ATOM     63  F   UNL A   1      43.214  26.793  36.589  1.00  0.00    -0.206 F 
ATOM     64  C   UNL A   1      46.801  27.049  36.935  1.00  0.00     0.060 A 
BRANCH  64  65
ATOM     65  S   UNL A   1      48.174  26.190  37.732  1.00  0.00     0.124 S 
ATOM     66  O   UNL A   1      49.151  27.267  37.866  1.00  0.00    -0.237 OA
ATOM     67  O   UNL A   1      47.570  25.725  38.976  1.00  0.00    -0.237 OA
ATOM     68  O   UNL A   1      48.522  25.144  36.777  1.00  0.00    -0.744 OA
ENDBRANCH  64  65
ENDBRANCH  43  57
BRANCH  44  69
ATOM     69  C   UNL A   1      37.086  32.798  30.956  1.00  0.00     0.058 A 
ATOM     70  C   UNL A   1      35.773  32.352  31.170  1.00  0.00     0.135 A 
ATOM     71  C   UNL A   1      37.276  33.861  30.059  1.00  0.00     0.135 A 
ATOM     72  F   UNL A   1      35.541  31.326  32.003  1.00  0.00    -0.206 F 
ATOM     73  C   UNL A   1      34.690  32.925  30.509  1.00  0.00     0.059 A 
ATOM     74  C   UNL A   1      36.206  34.468  29.406  1.00  0.00     0.059 A 
ATOM     75  F   UNL A   1      38.511  34.327  29.819  1.00  0.00    -0.206 F 
ATOM     76  C   UNL A   1      34.917  33.984  29.628  1.00  0.00     0.060 A 
BRANCH  76  77
ATOM     77  S   UNL A   1      33.501  34.747  28.806  1.00  0.00     0.124 S 
ATOM     78  O   UNL A   1      33.106  33.700  27.872  1.00  0.00    -0.237 OA
ATOM     79  O   UNL A   1      32.591  34.987  29.921  1.00  0.00    -0.237 OA
ATOM     80  O   UNL A   1      34.072  35.948  28.203  1.00  0.00    -0.744 OA
ENDBRANCH  76  77
ENDBRANCH  44  69
BRANCH  56  81
ATOM     81  C   UNL A   1      40.005  33.635  37.243  1.00  0.00     0.058 A 
ATOM     82  C   UNL A   1      40.615  34.895  37.350  1.00  0.00     0.135 A 
ATOM     83  C   UNL A   1      39.050  33.287  38.214  1.00  0.00     0.135 A 
ATOM     84  F   UNL A   1      41.536  35.278  36.451  1.00  0.00    -0.206 F 
ATOM     85  C   UNL A   1      40.305  35.767  38.390  1.00  0.00     0.059 A 
ATOM     86  C   UNL A   1      38.705  34.153  39.246  1.00  0.00     0.059 A 
ATOM     87  F   UNL A   1      38.426  32.100  38.152  1.00  0.00    -0.206 F 
ATOM     88  C   UNL A   1      39.347  35.388  39.333  1.00  0.00     0.060 A 
BRANCH  88  89
ATOM     89  S   UNL A   1      38.927  36.543  40.655  1.00  0.00     0.124 S 
ATOM     90  O   UNL A   1      40.201  36.664  41.356  1.00  0.00    -0.237 OA
ATOM     91  O   UNL A   1      38.496  37.724  39.915  1.00  0.00    -0.237 OA
ATOM     92  O   UNL A   1      37.870  35.851  41.389  1.00  0.00    -0.744 OA
ENDBRANCH  88  89
ENDBRANCH  56  81
ENDBRANCH  30  31
ENDBRANCH  23  25
ENDBRANCH  22  23
ENDBRANCH  21  22
ENDBRANCH  20  21
ENDBRANCH  19  20
ENDBRANCH  18  19
ENDBRANCH   1  18
TORSDOF 25
ENDMDL
MODEL 2
REMARK VINA RESULT:      -8.3      1.148      8.401
REMARK SMILES COC[C@H](C)[C@H](CC(C)C)C(=O)OCCOCCOCCOC(=O)c1ccc(-c2c3nc(c(-c4c(F)cc(S(=O)(=O)[O-])cc4F)c4ccc([nH]4)c(-c4c(F)cc(S(=O)(=O)[O-])cc4F)c4nc(c(-c5c(F)cc(S(=O)(=O)[O-])cc5F)c5ccc2[nH]5)C=C4)C=C3)cc1
REMARK SMILES IDX 17 1 16 2 15 3 14 4 13 5 11 6 12 7 6 8 4 9 5 10 3 11 2 12
REMARK SMILES IDX 1 13 7 14 8 15 9 16 10 17 18 18 19 19 20 20 21 21 22 22
REMARK SMILES IDX 23 23 24 24 25 25 26 26 90 27 27 28 89 29 28 30 29 31 30 32
REMARK SMILES IDX 83 33 31 34 88 35 82 36 84 37 32 38 87 39 81 40 80 41 33 43
REMARK SMILES IDX 67 44 46 45 66 46 47 47 50 48 65 49 85 50 48 51 49 52 64 54
REMARK SMILES IDX 86 55 51 56 34 57 35 58 44 59 36 60 37 61 43 62 45 63 38 64
REMARK SMILES IDX 39 65 40 66 41 67 42 68 68 69 69 70 78 71 70 72 71 73 77 74
REMARK SMILES IDX 79 75 72 76 73 77 74 78 75 79 76 80 52 81 53 82 62 83 54 84
REMARK SMILES IDX 55 85 61 86 63 87 56 88 57 89 58 90 59 91 60 92
REMARK H PARENT 84 42 50 53
REMARK Flexibility Score: inf
ROOT
ATOM      1  C   UNL A   1      38.058  21.282  25.403  1.00  0.00     0.188 C 
ENDROOT
BRANCH   1   2
ATOM      2  O   UNL A   1      36.993  21.991  24.782  1.00  0.00    -0.376 OA
BRANCH   2   3
ATOM      3  C   UNL A   1      36.484  23.131  25.471  1.00  0.00     0.202 C 
BRANCH   3   4
ATOM      4  C   UNL A   1      35.223  23.792  24.894  1.00  0.00     0.261 C 
BRANCH   4   5
ATOM      5  O   UNL A   1      34.755  24.955  25.614  1.00  0.00    -0.463 OA
BRANCH   5   6
ATOM      6  C   UNL A   1      33.481  24.881  26.083  1.00  0.00     0.309 C 
ATOM      7  O   UNL A   1      33.048  23.927  26.722  1.00  0.00    -0.252 OA
BRANCH   6   8
ATOM      8  C   UNL A   1      32.614  26.121  25.791  1.00  0.00     0.104 C 
BRANCH   8   9
ATOM      9  C   UNL A   1      31.829  25.802  24.474  1.00  0.00     0.026 C 
ATOM     10  C   UNL A   1      30.335  26.147  24.557  1.00  0.00     0.011 C 
BRANCH   9  11
ATOM     11  C   UNL A   1      32.567  26.333  23.226  1.00  0.00     0.163 C 
BRANCH  11  12
ATOM     12  O   UNL A   1      32.741  25.366  22.197  1.00  0.00    -0.384 OA
ATOM     13  C   UNL A   1      32.267  25.794  20.932  1.00  0.00     0.194 C 
ENDBRANCH  11  12
ENDBRANCH   9  11
ENDBRANCH   8   9
BRANCH   8  14
ATOM     14  C   UNL A   1      33.380  27.474  25.825  1.00  0.00     0.018 C 
BRANCH  14  15
ATOM     15  C   UNL A   1      32.738  28.615  26.653  1.00  0.00    -0.017 C 
ATOM     16  C   UNL A   1      32.218  29.757  25.780  1.00  0.00     0.007 C 
ATOM     17  C   UNL A   1      31.608  28.090  27.542  1.00  0.00     0.007 C 
ENDBRANCH  14  15
ENDBRANCH   8  14
ENDBRANCH   6   8
ENDBRANCH   5   6
ENDBRANCH   4   5
ENDBRANCH   3   4
ENDBRANCH   2   3
ENDBRANCH   1   2
BRANCH   1  18
ATOM     18  C   UNL A   1      39.045  22.119  26.221  1.00  0.00     0.188 C 
BRANCH  18  19
ATOM     19  O   UNL A   1      40.416  21.796  26.014  1.00  0.00    -0.376 OA
BRANCH  19  20
ATOM     20  C   UNL A   1      41.376  22.630  26.667  1.00  0.00     0.202 C 
BRANCH  20  21
ATOM     21  C   UNL A   1      42.316  23.431  25.745  1.00  0.00     0.261 C 
BRANCH  21  22
ATOM     22  O   UNL A   1      42.728  24.709  26.270  1.00  0.00    -0.460 OA
BRANCH  22  23
ATOM     23  C   UNL A   1      41.844  25.731  26.185  1.00  0.00     0.338 C 
ATOM     24  O   UNL A   1      41.046  25.925  25.283  1.00  0.00    -0.246 OA
BRANCH  23  25
ATOM     25  C   UNL A   1      41.812  26.432  27.498  1.00  0.00     0.060 A 
ATOM     26  C   UNL A   1      40.669  26.284  28.298  1.00  0.00     0.016 A 
ATOM     27  C   UNL A   1      42.909  27.155  27.978  1.00  0.00     0.016 A 
ATOM     28  C   UNL A   1      40.601  26.899  29.550  1.00  0.00     0.010 A 
ATOM     29  C   UNL A   1      42.838  27.777  29.229  1.00  0.00     0.010 A 
ATOM     30  C   UNL A   1      41.669  27.684  30.006  1.00  0.00    -0.014 A 
BRANCH  30  31
ATOM     31  C   UNL A   1      41.481  28.584  31.172  1.00  0.00     0.031 A 
ATOM     32  C   UNL A   1      40.373  29.603  31.104  1.00  0.00     0.074 A 
ATOM     33  C   UNL A   1      42.248  28.500  32.275  1.00  0.00     0.049 A 
ATOM     34  N   UNL A   1      40.028  30.516  31.973  1.00  0.00    -0.248 NA
ATOM     35  C   UNL A   1      39.543  29.585  29.888  1.00  0.00     0.031 C 
ATOM     36  C   UNL A   1      43.327  27.538  32.490  1.00  0.00     0.029 A 
ATOM     37  N   UNL A   1      42.233  29.251  33.426  1.00  0.00    -0.354 N 
ATOM     38  C   UNL A   1      38.950  31.185  31.408  1.00  0.00     0.074 A 
ATOM     39  C   UNL A   1      38.714  30.592  30.110  1.00  0.00     0.031 C 
ATOM     40  C   UNL A   1      43.876  27.763  33.698  1.00  0.00     0.029 A 
ATOM     41  C   UNL A   1      43.209  28.901  34.331  1.00  0.00     0.049 A 
ATOM     42  H   UNL A   1      41.583  29.972  33.590  1.00  0.00     0.167 HD
ATOM     43  C   UNL A   1      38.212  32.196  31.924  1.00  0.00     0.037 A 
ATOM     44  C   UNL A   1      43.535  29.449  35.519  1.00  0.00     0.037 A 
ATOM     45  C   UNL A   1      38.441  32.790  33.214  1.00  0.00     0.049 A 
ATOM     46  C   UNL A   1      42.746  30.626  36.043  1.00  0.00     0.074 A 
ATOM     47  C   UNL A   1      37.732  33.807  33.829  1.00  0.00     0.029 A 
ATOM     48  N   UNL A   1      39.461  32.431  34.082  1.00  0.00    -0.354 N 
ATOM     49  N   UNL A   1      41.708  31.229  35.511  1.00  0.00    -0.248 NA
ATOM     50  C   UNL A   1      43.173  31.197  37.329  1.00  0.00     0.031 C 
ATOM     51  C   UNL A   1      38.354  34.098  35.047  1.00  0.00     0.029 A 
ATOM     52  C   UNL A   1      39.416  33.224  35.216  1.00  0.00     0.049 A 
ATOM     53  H   UNL A   1      40.118  31.717  33.916  1.00  0.00     0.167 HD
ATOM     54  C   UNL A   1      41.341  32.225  36.412  1.00  0.00     0.074 A 
ATOM     55  C   UNL A   1      42.261  32.141  37.526  1.00  0.00     0.031 C 
ATOM     56  C   UNL A   1      40.329  33.125  36.326  1.00  0.00     0.037 A 
BRANCH  43  57
ATOM     57  C   UNL A   1      37.100  32.744  31.075  1.00  0.00     0.058 A 
ATOM     58  C   UNL A   1      35.760  32.387  31.290  1.00  0.00     0.135 A 
ATOM     59  C   UNL A   1      37.380  33.659  30.046  1.00  0.00     0.135 A 
ATOM     60  F   UNL A   1      35.441  31.499  32.243  1.00  0.00    -0.206 F 
ATOM     61  C   UNL A   1      34.737  32.900  30.498  1.00  0.00     0.059 A 
ATOM     62  C   UNL A   1      36.371  34.205  29.261  1.00  0.00     0.059 A 
ATOM     63  F   UNL A   1      38.647  34.028  29.796  1.00  0.00    -0.206 F 
ATOM     64  C   UNL A   1      35.053  33.808  29.487  1.00  0.00     0.060 A 
BRANCH  64  65
ATOM     65  S   UNL A   1      33.715  34.468  28.472  1.00  0.00     0.124 S 
ATOM     66  O   UNL A   1      34.351  35.642  27.880  1.00  0.00    -0.237 OA
ATOM     67  O   UNL A   1      33.445  33.365  27.556  1.00  0.00    -0.237 OA
ATOM     68  O   UNL A   1      32.660  34.749  29.439  1.00  0.00    -0.744 OA
ENDBRANCH  64  65
ENDBRANCH  43  57
BRANCH  44  69
ATOM     69  C   UNL A   1      44.678  28.906  36.306  1.00  0.00     0.058 A 
ATOM     70  C   UNL A   1      44.503  27.834  37.195  1.00  0.00     0.135 A 
ATOM     71  C   UNL A   1      45.960  29.469  36.208  1.00  0.00     0.135 A 
ATOM     72  F   UNL A   1      43.292  27.275  37.340  1.00  0.00    -0.206 F 
ATOM     73  C   UNL A   1      45.553  27.349  37.969  1.00  0.00     0.059 A 
ATOM     74  C   UNL A   1      47.032  28.983  36.952  1.00  0.00     0.059 A 
ATOM     75  F   UNL A   1      46.182  30.494  35.372  1.00  0.00    -0.206 F 
ATOM     76  C   UNL A   1      46.816  27.929  37.839  1.00  0.00     0.060 A 
BRANCH  76  77
ATOM     77  S   UNL A   1      48.181  27.266  38.819  1.00  0.00     0.124 S 
ATOM     78  O   UNL A   1      47.543  26.136  39.483  1.00  0.00    -0.237 OA
ATOM     79  O   UNL A   1      49.162  26.933  37.791  1.00  0.00    -0.237 OA
ATOM     80  O   UNL A   1      48.545  28.384  39.685  1.00  0.00    -0.744 OA
ENDBRANCH  76  77
ENDBRANCH  44  69
BRANCH  56  81
ATOM     81  C   UNL A   1      40.127  34.069  37.482  1.00  0.00     0.058 A 
ATOM     82  C   UNL A   1      40.830  35.279  37.583  1.00  0.00     0.135 A 
ATOM     83  C   UNL A   1      39.165  33.789  38.467  1.00  0.00     0.135 A 
ATOM     84  F   UNL A   1      41.763  35.597  36.672  1.00  0.00    -0.206 F 
ATOM     85  C   UNL A   1      40.602  36.168  38.631  1.00  0.00     0.059 A 
ATOM     86  C   UNL A   1      38.901  34.673  39.507  1.00  0.00     0.059 A 
ATOM     87  F   UNL A   1      38.453  32.651  38.411  1.00  0.00    -0.206 F 
ATOM     88  C   UNL A   1      39.633  35.857  39.588  1.00  0.00     0.060 A 
BRANCH  88  89
ATOM     89  S   UNL A   1      39.321  37.035  40.920  1.00  0.00     0.124 S 
ATOM     90  O   UNL A   1      40.642  37.625  41.108  1.00  0.00    -0.237 OA
ATOM     91  O   UNL A   1      38.313  37.912  40.334  1.00  0.00    -0.237 OA
ATOM     92  O   UNL A   1      38.848  36.192  42.015  1.00  0.00    -0.744 OA
ENDBRANCH  88  89
ENDBRANCH  56  81
ENDBRANCH  30  31
ENDBRANCH  23  25
ENDBRANCH  22  23
ENDBRANCH  21  22
ENDBRANCH  20  21
ENDBRANCH  19  20
ENDBRANCH  18  19
ENDBRANCH   1  18
TORSDOF 25
ENDMDL
MODEL 3
REMARK VINA RESULT:      -8.3      0.925      2.285
REMARK SMILES COC[C@H](C)[C@H](CC(C)C)C(=O)OCCOCCOCCOC(=O)c1ccc(-c2c3nc(c(-c4c(F)cc(S(=O)(=O)[O-])cc4F)c4ccc([nH]4)c(-c4c(F)cc(S(=O)(=O)[O-])cc4F)c4nc(c(-c5c(F)cc(S(=O)(=O)[O-])cc5F)c5ccc2[nH]5)C=C4)C=C3)cc1
REMARK SMILES IDX 17 1 16 2 15 3 14 4 13 5 11 6 12 7 6 8 4 9 5 10 3 11 2 12
REMARK SMILES IDX 1 13 7 14 8 15 9 16 10 17 18 18 19 19 20 20 21 21 22 22
REMARK SMILES IDX 23 23 24 24 25 25 26 26 90 27 27 28 89 29 28 30 29 31 30 32
REMARK SMILES IDX 83 33 31 34 88 35 82 36 84 37 32 38 87 39 81 40 80 41 33 43
REMARK SMILES IDX 67 44 46 45 66 46 47 47 50 48 65 49 85 50 48 51 49 52 64 54
REMARK SMILES IDX 86 55 51 56 34 57 35 58 44 59 36 60 37 61 43 62 45 63 38 64
REMARK SMILES IDX 39 65 40 66 41 67 42 68 68 69 69 70 78 71 70 72 71 73 77 74
REMARK SMILES IDX 79 75 72 76 73 77 74 78 75 79 76 80 52 81 53 82 62 83 54 84
REMARK SMILES IDX 55 85 61 86 63 87 56 88 57 89 58 90 59 91 60 92
REMARK H PARENT 84 42 50 53
REMARK Flexibility Score: inf
ROOT
ATOM      1  C   UNL A   1      37.920  21.134  25.522  1.00  0.00     0.188 C 
ENDROOT
BRANCH   1   2
ATOM      2  O   UNL A   1      37.158  21.483  24.373  1.00  0.00    -0.376 OA
BRANCH   2   3
ATOM      3  C   UNL A   1      36.777  22.850  24.238  1.00  0.00     0.202 C 
BRANCH   3   4
ATOM      4  C   UNL A   1      35.832  23.204  23.079  1.00  0.00     0.261 C 
BRANCH   4   5
ATOM      5  O   UNL A   1      35.035  24.394  23.277  1.00  0.00    -0.463 OA
BRANCH   5   6
ATOM      6  C   UNL A   1      33.712  24.266  22.991  1.00  0.00     0.309 C 
ATOM      7  O   UNL A   1      33.286  23.896  21.901  1.00  0.00    -0.252 OA
BRANCH   6   8
ATOM      8  C   UNL A   1      32.767  24.580  24.167  1.00  0.00     0.104 C 
BRANCH   8   9
ATOM      9  C   UNL A   1      32.372  26.087  24.016  1.00  0.00     0.026 C 
ATOM     10  C   UNL A   1      30.920  26.380  24.422  1.00  0.00     0.011 C 
BRANCH   9  11
ATOM     11  C   UNL A   1      33.436  27.021  24.633  1.00  0.00     0.163 C 
BRANCH  11  12
ATOM     12  O   UNL A   1      32.905  28.013  25.504  1.00  0.00    -0.384 OA
ATOM     13  C   UNL A   1      33.054  29.334  25.015  1.00  0.00     0.194 C 
ENDBRANCH  11  12
ENDBRANCH   9  11
ENDBRANCH   8   9
BRANCH   8  14
ATOM     14  C   UNL A   1      33.296  24.142  25.563  1.00  0.00     0.018 C 
BRANCH  14  15
ATOM     15  C   UNL A   1      32.301  23.382  26.475  1.00  0.00    -0.017 C 
ATOM     16  C   UNL A   1      31.355  22.475  25.689  1.00  0.00     0.007 C 
ATOM     17  C   UNL A   1      33.036  22.563  27.539  1.00  0.00     0.007 C 
ENDBRANCH  14  15
ENDBRANCH   8  14
ENDBRANCH   6   8
ENDBRANCH   5   6
ENDBRANCH   4   5
ENDBRANCH   3   4
ENDBRANCH   2   3
ENDBRANCH   1   2
BRANCH   1  18
ATOM     18  C   UNL A   1      38.929  22.176  26.011  1.00  0.00     0.188 C 
BRANCH  18  19
ATOM     19  O   UNL A   1      40.275  21.718  26.075  1.00  0.00    -0.376 OA
BRANCH  19  20
ATOM     20  C   UNL A   1      41.207  22.562  26.757  1.00  0.00     0.202 C 
BRANCH  20  21
ATOM     21  C   UNL A   1      42.367  23.115  25.907  1.00  0.00     0.261 C 
BRANCH  21  22
ATOM     22  O   UNL A   1      42.923  24.356  26.384  1.00  0.00    -0.460 OA
BRANCH  22  23
ATOM     23  C   UNL A   1      42.271  25.497  26.059  1.00  0.00     0.338 C 
ATOM     24  O   UNL A   1      41.683  25.721  25.014  1.00  0.00    -0.246 OA
BRANCH  23  25
ATOM     25  C   UNL A   1      42.152  26.333  27.284  1.00  0.00     0.060 A 
ATOM     26  C   UNL A   1      41.179  25.982  28.232  1.00  0.00     0.016 A 
ATOM     27  C   UNL A   1      43.027  27.392  27.545  1.00  0.00     0.016 A 
ATOM     28  C   UNL A   1      41.045  26.718  29.411  1.00  0.00     0.010 A 
ATOM     29  C   UNL A   1      42.888  28.134  28.724  1.00  0.00     0.010 A 
ATOM     30  C   UNL A   1      41.873  27.825  29.645  1.00  0.00    -0.014 A 
BRANCH  30  31
ATOM     31  C   UNL A   1      41.534  28.786  30.725  1.00  0.00     0.031 A 
ATOM     32  C   UNL A   1      42.363  28.756  31.983  1.00  0.00     0.074 A 
ATOM     33  C   UNL A   1      40.534  29.680  30.603  1.00  0.00     0.049 A 
ATOM     34  N   UNL A   1      42.248  29.466  33.073  1.00  0.00    -0.248 NA
ATOM     35  C   UNL A   1      43.474  27.790  32.008  1.00  0.00     0.031 C 
ATOM     36  C   UNL A   1      39.679  29.844  29.430  1.00  0.00     0.029 A 
ATOM     37  N   UNL A   1      40.069  30.619  31.492  1.00  0.00    -0.354 N 
ATOM     38  C   UNL A   1      43.263  29.031  33.915  1.00  0.00     0.074 A 
ATOM     39  C   UNL A   1      43.968  27.975  33.222  1.00  0.00     0.031 C 
ATOM     40  C   UNL A   1      38.786  30.821  29.675  1.00  0.00     0.029 A 
ATOM     41  C   UNL A   1      38.987  31.333  31.031  1.00  0.00     0.049 A 
ATOM     42  H   UNL A   1      40.473  30.769  32.377  1.00  0.00     0.167 HD
ATOM     43  C   UNL A   1      43.590  29.475  35.152  1.00  0.00     0.037 A 
ATOM     44  C   UNL A   1      38.237  32.274  31.642  1.00  0.00     0.037 A 
ATOM     45  C   UNL A   1      42.893  30.524  35.847  1.00  0.00     0.049 A 
ATOM     46  C   UNL A   1      38.574  32.701  33.051  1.00  0.00     0.074 A 
ATOM     47  C   UNL A   1      43.165  31.054  37.096  1.00  0.00     0.029 A 
ATOM     48  N   UNL A   1      41.783  31.195  35.360  1.00  0.00    -0.354 N 
ATOM     49  N   UNL A   1      39.556  32.302  33.824  1.00  0.00    -0.248 NA
ATOM     50  C   UNL A   1      37.698  33.707  33.670  1.00  0.00     0.031 C 
ATOM     51  C   UNL A   1      42.187  32.010  37.387  1.00  0.00     0.029 A 
ATOM     52  C   UNL A   1      41.340  32.116  36.295  1.00  0.00     0.049 A 
ATOM     53  H   UNL A   1      41.370  31.040  34.479  1.00  0.00     0.167 HD
ATOM     54  C   UNL A   1      39.435  33.031  35.004  1.00  0.00     0.074 A 
ATOM     55  C   UNL A   1      38.289  33.900  34.843  1.00  0.00     0.031 C 
ATOM     56  C   UNL A   1      40.206  32.987  36.120  1.00  0.00     0.037 A 
BRANCH  43  57
ATOM     57  C   UNL A   1      44.740  28.801  35.846  1.00  0.00     0.058 A 
ATOM     58  C   UNL A   1      44.553  27.688  36.679  1.00  0.00     0.135 A 
ATOM     59  C   UNL A   1      46.052  29.265  35.652  1.00  0.00     0.135 A 
ATOM     60  F   UNL A   1      43.318  27.220  36.916  1.00  0.00    -0.206 F 
ATOM     61  C   UNL A   1      45.625  27.071  37.316  1.00  0.00     0.059 A 
ATOM     62  C   UNL A   1      47.141  28.647  36.258  1.00  0.00     0.059 A 
ATOM     63  F   UNL A   1      46.284  30.331  34.870  1.00  0.00    -0.206 F 
ATOM     64  C   UNL A   1      46.914  27.559  37.100  1.00  0.00     0.060 A 
BRANCH  64  65
ATOM     65  S   UNL A   1      48.294  26.745  37.931  1.00  0.00     0.124 S 
ATOM     66  O   UNL A   1      48.340  27.473  39.196  1.00  0.00    -0.237 OA
ATOM     67  O   UNL A   1      47.838  25.362  38.012  1.00  0.00    -0.237 OA
ATOM     68  O   UNL A   1      49.420  26.980  37.032  1.00  0.00    -0.744 OA
ENDBRANCH  64  65
ENDBRANCH  43  57
BRANCH  44  69
ATOM     69  C   UNL A   1      37.074  32.880  30.935  1.00  0.00     0.058 A 
ATOM     70  C   UNL A   1      37.250  33.910  29.998  1.00  0.00     0.135 A 
ATOM     71  C   UNL A   1      35.762  32.461  31.205  1.00  0.00     0.135 A 
ATOM     72  F   UNL A   1      38.483  34.359  29.720  1.00  0.00    -0.206 F 
ATOM     73  C   UNL A   1      36.167  34.514  29.366  1.00  0.00     0.059 A 
ATOM     74  C   UNL A   1      34.665  33.031  30.565  1.00  0.00     0.059 A 
ATOM     75  F   UNL A   1      35.538  31.478  32.090  1.00  0.00    -0.206 F 
ATOM     76  C   UNL A   1      34.877  34.066  29.655  1.00  0.00     0.060 A 
BRANCH  76  77
ATOM     77  S   UNL A   1      33.481  34.830  28.800  1.00  0.00     0.124 S 
ATOM     78  O   UNL A   1      33.168  33.824  27.793  1.00  0.00    -0.237 OA
ATOM     79  O   UNL A   1      32.508  34.982  29.876  1.00  0.00    -0.237 OA
ATOM     80  O   UNL A   1      34.043  36.078  28.292  1.00  0.00    -0.744 OA
ENDBRANCH  76  77
ENDBRANCH  44  69
BRANCH  56  81
ATOM     81  C   UNL A   1      39.872  33.932  37.244  1.00  0.00     0.058 A 
ATOM     82  C   UNL A   1      38.954  33.594  38.250  1.00  0.00     0.135 A 
ATOM     83  C   UNL A   1      40.533  35.167  37.352  1.00  0.00     0.135 A 
ATOM     84  F   UNL A   1      38.292  32.427  38.196  1.00  0.00    -0.206 F 
ATOM     85  C   UNL A   1      38.687  34.455  39.311  1.00  0.00     0.059 A 
ATOM     86  C   UNL A   1      40.303  36.032  38.417  1.00  0.00     0.059 A 
ATOM     87  F   UNL A   1      41.432  35.536  36.425  1.00  0.00    -0.206 F 
ATOM     88  C   UNL A   1      39.369  35.672  39.388  1.00  0.00     0.060 A 
BRANCH  88  89
ATOM     89  S   UNL A   1      39.042  36.763  40.788  1.00  0.00     0.124 S 
ATOM     90  O   UNL A   1      38.248  37.816  40.162  1.00  0.00    -0.237 OA
ATOM     91  O   UNL A   1      38.321  35.888  41.706  1.00  0.00    -0.237 OA
ATOM     92  O   UNL A   1      40.376  37.161  41.229  1.00  0.00    -0.744 OA
ENDBRANCH  88  89
ENDBRANCH  56  81
ENDBRANCH  30  31
ENDBRANCH  23  25
ENDBRANCH  22  23
ENDBRANCH  21  22
ENDBRANCH  20  21
ENDBRANCH  19  20
ENDBRANCH  18  19
ENDBRANCH   1  18
TORSDOF 25
ENDMDL
