MODEL 1
REMARK VINA RESULT:     -10.4      0.000      0.000
REMARK SMILES Cc1cc2c(cc1S(=O)(=O)N(C)CC(=O)OCCOCCOCCOC(=O)c1ccc(-c3c4nc(c(-c5c(F)cc(S(=O)(=O)[O-])cc5F)c5ccc([nH]5)c(-c5c(F)cc(S(=O)(=O)[O-])cc5F)c5nc(c(-c6c(F)cc(S(=O)(=O)[O-])cc6F)c6ccc3[nH]6)C=C5)C=C4)cc1)OCC(=O)N2
REMARK SMILES IDX 20 1 19 2 18 3 17 4 16 5 14 6 15 7 13 8 11 9 12 10 8 11 9 12
REMARK SMILES IDX 10 13 7 14 1 15 2 16 3 17 4 18 6 19 5 20 98 21 94 22 96 23
REMARK SMILES IDX 95 25 97 26 21 27 22 28 23 29 24 30 25 31 26 32 27 33 28 34
REMARK SMILES IDX 29 35 93 36 30 37 92 38 31 39 32 40 33 41 86 42 34 43 91 44
REMARK SMILES IDX 85 45 87 46 35 47 90 48 84 49 83 50 36 52 70 53 49 54 69 55
REMARK SMILES IDX 50 56 53 57 68 58 88 59 51 60 52 61 67 63 89 64 54 65 37 66
REMARK SMILES IDX 38 67 47 68 39 69 40 70 46 71 48 72 41 73 42 74 43 75 44 76
REMARK SMILES IDX 45 77 71 78 72 79 81 80 73 81 74 82 80 83 82 84 75 85 76 86
REMARK SMILES IDX 77 87 78 88 79 89 55 90 56 91 65 92 57 93 58 94 64 95 66 96
REMARK SMILES IDX 59 97 60 98 61 99 62 100 63 101
REMARK H PARENT 98 24 87 51 53 62
REMARK Flexibility Score: inf
ROOT
ATOM      1  C   UNL A   1      38.114  22.262  25.779  1.00  0.00     0.188 C 
ENDROOT
BRANCH   1   2
ATOM      2  O   UNL A   1      37.281  21.615  24.819  1.00  0.00    -0.376 OA
BRANCH   2   3
ATOM      3  C   UNL A   1      36.671  20.376  25.160  1.00  0.00     0.202 C 
BRANCH   3   4
ATOM      4  C   UNL A   1      35.250  20.173  24.634  1.00  0.00     0.261 C 
BRANCH   4   5
ATOM      5  O   UNL A   1      34.275  20.814  25.480  1.00  0.00    -0.462 OA
BRANCH   5   6
ATOM      6  C   UNL A   1      33.011  20.900  24.996  1.00  0.00     0.321 C 
ATOM      7  O   UNL A   1      32.167  20.021  25.132  1.00  0.00    -0.251 OA
BRANCH   6   8
ATOM      8  C   UNL A   1      32.720  22.183  24.244  1.00  0.00     0.224 C 
BRANCH   8   9
ATOM      9  N   UNL A   1      32.737  23.526  24.939  1.00  0.00    -0.190 NA
ATOM     10  C   UNL A   1      32.480  23.399  26.382  1.00  0.00     0.125 C 
BRANCH   9  11
ATOM     11  S   UNL A   1      34.089  24.448  24.429  1.00  0.00     0.243 S 
ATOM     12  O   UNL A   1      34.313  24.077  23.056  1.00  0.00    -0.207 OA
ATOM     13  O   UNL A   1      35.149  24.238  25.403  1.00  0.00    -0.207 OA
BRANCH  11  14
ATOM     14  C   UNL A   1      33.628  26.187  24.471  1.00  0.00     0.089 A 
ATOM     15  C   UNL A   1      33.213  26.381  21.911  1.00  0.00     0.046 C 
ATOM     16  C   UNL A   1      33.166  26.880  23.329  1.00  0.00    -0.029 A 
ATOM     17  C   UNL A   1      32.655  28.186  23.493  1.00  0.00     0.035 A 
ATOM     18  C   UNL A   1      32.563  28.775  24.752  1.00  0.00     0.084 A 
ATOM     19  C   UNL A   1      33.549  26.805  25.738  1.00  0.00     0.070 A 
ATOM     20  C   UNL A   1      33.021  28.094  25.874  1.00  0.00     0.144 A 
ATOM     21  N   UNL A   1      31.955  30.022  24.876  1.00  0.00    -0.320 N 
ATOM     22  O   UNL A   1      32.912  28.590  27.145  1.00  0.00    -0.482 OA
ATOM     23  C   UNL A   1      31.856  30.655  26.083  1.00  0.00     0.262 C 
ATOM     24  H   UNL A   1      31.586  30.459  24.073  1.00  0.00     0.170 HD
ATOM     25  C   UNL A   1      32.602  29.975  27.230  1.00  0.00     0.329 C 
ATOM     26  O   UNL A   1      31.274  31.731  26.190  1.00  0.00    -0.271 OA
ENDBRANCH  11  14
ENDBRANCH   9  11
ENDBRANCH   8   9
ENDBRANCH   6   8
ENDBRANCH   5   6
ENDBRANCH   4   5
ENDBRANCH   3   4
ENDBRANCH   2   3
ENDBRANCH   1   2
BRANCH   1  27
ATOM     27  C   UNL A   1      39.481  21.637  26.088  1.00  0.00     0.188 C 
BRANCH  27  28
ATOM     28  O   UNL A   1      40.223  22.399  27.031  1.00  0.00    -0.376 OA
BRANCH  28  29
ATOM     29  C   UNL A   1      41.616  22.147  27.013  1.00  0.00     0.202 C 
BRANCH  29  30
ATOM     30  C   UNL A   1      42.319  23.053  26.001  1.00  0.00     0.261 C 
BRANCH  30  31
ATOM     31  O   UNL A   1      41.891  24.429  26.022  1.00  0.00    -0.460 OA
BRANCH  31  32
ATOM     32  C   UNL A   1      42.848  25.356  26.252  1.00  0.00     0.338 C 
ATOM     33  O   UNL A   1      43.866  25.524  25.604  1.00  0.00    -0.246 OA
BRANCH  32  34
ATOM     34  C   UNL A   1      42.378  26.243  27.337  1.00  0.00     0.060 A 
ATOM     35  C   UNL A   1      41.355  25.841  28.194  1.00  0.00     0.016 A 
ATOM     36  C   UNL A   1      42.986  27.489  27.514  1.00  0.00     0.016 A 
ATOM     37  C   UNL A   1      40.955  26.692  29.232  1.00  0.00     0.010 A 
ATOM     38  C   UNL A   1      42.596  28.332  28.559  1.00  0.00     0.010 A 
ATOM     39  C   UNL A   1      41.580  27.940  29.436  1.00  0.00    -0.014 A 
BRANCH  39  40
ATOM     40  C   UNL A   1      41.248  28.747  30.643  1.00  0.00     0.031 A 
ATOM     41  C   UNL A   1      42.062  28.684  31.904  1.00  0.00     0.074 A 
ATOM     42  C   UNL A   1      40.162  29.545  30.594  1.00  0.00     0.049 A 
ATOM     43  N   UNL A   1      42.009  29.463  32.955  1.00  0.00    -0.248 NA
ATOM     44  C   UNL A   1      43.043  27.594  32.016  1.00  0.00     0.031 C 
ATOM     45  C   UNL A   1      39.217  29.600  29.477  1.00  0.00     0.029 A 
ATOM     46  N   UNL A   1      39.680  30.470  31.486  1.00  0.00    -0.354 N 
ATOM     47  C   UNL A   1      42.955  28.972  33.847  1.00  0.00     0.074 A 
ATOM     48  C   UNL A   1      43.524  27.788  33.237  1.00  0.00     0.031 C 
ATOM     49  C   UNL A   1      38.305  30.552  29.722  1.00  0.00     0.029 A 
ATOM     50  C   UNL A   1      38.591  31.166  31.015  1.00  0.00     0.049 A 
ATOM     51  H   UNL A   1      40.074  30.621  32.375  1.00  0.00     0.167 HD
ATOM     52  C   UNL A   1      43.328  29.477  35.050  1.00  0.00     0.037 A 
ATOM     53  C   UNL A   1      37.915  32.203  31.546  1.00  0.00     0.037 A 
ATOM     54  C   UNL A   1      42.742  30.654  35.645  1.00  0.00     0.049 A 
ATOM     55  C   UNL A   1      38.374  32.789  32.849  1.00  0.00     0.074 A 
ATOM     56  C   UNL A   1      43.114  31.309  36.807  1.00  0.00     0.029 A 
ATOM     57  N   UNL A   1      41.645  31.337  35.139  1.00  0.00    -0.354 N 
ATOM     58  N   UNL A   1      39.374  32.411  33.611  1.00  0.00    -0.248 NA
ATOM     59  C   UNL A   1      37.629  33.945  33.361  1.00  0.00     0.031 C 
ATOM     60  C   UNL A   1      42.208  32.353  37.031  1.00  0.00     0.029 A 
ATOM     61  C   UNL A   1      41.303  32.384  35.982  1.00  0.00     0.049 A 
ATOM     62  H   UNL A   1      41.177  31.112  34.302  1.00  0.00     0.167 HD
ATOM     63  C   UNL A   1      39.381  33.284  34.692  1.00  0.00     0.074 A 
ATOM     64  C   UNL A   1      38.300  34.225  34.473  1.00  0.00     0.031 C 
ATOM     65  C   UNL A   1      40.207  33.300  35.767  1.00  0.00     0.037 A 
BRANCH  52  66
ATOM     66  C   UNL A   1      44.432  28.772  35.798  1.00  0.00     0.058 A 
ATOM     67  C   UNL A   1      45.782  29.120  35.615  1.00  0.00     0.135 A 
ATOM     68  C   UNL A   1      44.143  27.770  36.738  1.00  0.00     0.135 A 
ATOM     69  F   UNL A   1      46.121  30.071  34.731  1.00  0.00    -0.206 F 
ATOM     70  C   UNL A   1      46.804  28.473  36.304  1.00  0.00     0.059 A 
ATOM     71  C   UNL A   1      45.148  27.129  37.461  1.00  0.00     0.059 A 
ATOM     72  F   UNL A   1      42.873  27.402  36.967  1.00  0.00    -0.206 F 
ATOM     73  C   UNL A   1      46.478  27.476  37.224  1.00  0.00     0.060 A 
BRANCH  73  74
ATOM     74  S   UNL A   1      47.819  26.642  38.100  1.00  0.00     0.124 S 
ATOM     75  O   UNL A   1      48.865  26.622  37.082  1.00  0.00    -0.237 OA
ATOM     76  O   UNL A   1      48.055  27.533  39.231  1.00  0.00    -0.237 OA
ATOM     77  O   UNL A   1      47.251  25.341  38.438  1.00  0.00    -0.744 OA
ENDBRANCH  73  74
ENDBRANCH  52  66
BRANCH  53  78
ATOM     78  C   UNL A   1      36.783  32.787  30.778  1.00  0.00     0.058 A 
ATOM     79  C   UNL A   1      35.455  32.501  31.125  1.00  0.00     0.135 A 
ATOM     80  C   UNL A   1      37.006  33.733  29.765  1.00  0.00     0.135 A 
ATOM     81  F   UNL A   1      35.191  31.600  32.084  1.00  0.00    -0.206 F 
ATOM     82  C   UNL A   1      34.387  33.147  30.510  1.00  0.00     0.059 A 
ATOM     83  C   UNL A   1      35.955  34.409  29.151  1.00  0.00     0.059 A 
ATOM     84  F   UNL A   1      38.260  34.055  29.411  1.00  0.00    -0.206 F 
ATOM     85  C   UNL A   1      34.648  34.113  29.537  1.00  0.00     0.060 A 
BRANCH  85  86
ATOM     86  S   UNL A   1      33.258  35.032  28.839  1.00  0.00     0.124 S 
ATOM     87  O   UNL A   1      32.736  34.084  27.862  1.00  0.00    -0.237 OA
ATOM     88  O   UNL A   1      32.425  35.260  30.016  1.00  0.00    -0.237 OA
ATOM     89  O   UNL A   1      33.887  36.227  28.286  1.00  0.00    -0.744 OA
ENDBRANCH  85  86
ENDBRANCH  53  78
BRANCH  65  90
ATOM     90  C   UNL A   1      39.966  34.357  36.811  1.00  0.00     0.058 A 
ATOM     91  C   UNL A   1      39.086  34.138  37.882  1.00  0.00     0.135 A 
ATOM     92  C   UNL A   1      40.674  35.570  36.782  1.00  0.00     0.135 A 
ATOM     93  F   UNL A   1      38.377  33.000  37.955  1.00  0.00    -0.206 F 
ATOM     94  C   UNL A   1      38.905  35.091  38.881  1.00  0.00     0.059 A 
ATOM     95  C   UNL A   1      40.528  36.525  37.784  1.00  0.00     0.059 A 
ATOM     96  F   UNL A   1      41.535  35.827  35.785  1.00  0.00    -0.206 F 
ATOM     97  C   UNL A   1      39.635  36.279  38.827  1.00  0.00     0.060 A 
BRANCH  97  98
ATOM     98  S   UNL A   1      39.422  37.485  40.154  1.00  0.00     0.124 S 
ATOM     99  O   UNL A   1      40.769  38.034  40.273  1.00  0.00    -0.237 OA
ATOM    100  O   UNL A   1      38.417  38.386  39.597  1.00  0.00    -0.237 OA
ATOM    101  O   UNL A   1      38.974  36.675  41.282  1.00  0.00    -0.744 OA
ENDBRANCH  97  98
ENDBRANCH  65  90
ENDBRANCH  39  40
ENDBRANCH  32  34
ENDBRANCH  31  32
ENDBRANCH  30  31
ENDBRANCH  29  30
ENDBRANCH  28  29
ENDBRANCH  27  28
ENDBRANCH   1  27
TORSDOF 23
ENDMDL
MODEL 2
REMARK VINA RESULT:     -10.4      1.576      3.785
REMARK SMILES Cc1cc2c(cc1S(=O)(=O)N(C)CC(=O)OCCOCCOCCOC(=O)c1ccc(-c3c4nc(c(-c5c(F)cc(S(=O)(=O)[O-])cc5F)c5ccc([nH]5)c(-c5c(F)cc(S(=O)(=O)[O-])cc5F)c5nc(c(-c6c(F)cc(S(=O)(=O)[O-])cc6F)c6ccc3[nH]6)C=C5)C=C4)cc1)OCC(=O)N2
REMARK SMILES IDX 20 1 19 2 18 3 17 4 16 5 14 6 15 7 13 8 11 9 12 10 8 11 9 12
REMARK SMILES IDX 10 13 7 14 1 15 2 16 3 17 4 18 6 19 5 20 98 21 94 22 96 23
REMARK SMILES IDX 95 25 97 26 21 27 22 28 23 29 24 30 25 31 26 32 27 33 28 34
REMARK SMILES IDX 29 35 93 36 30 37 92 38 31 39 32 40 33 41 86 42 34 43 91 44
REMARK SMILES IDX 85 45 87 46 35 47 90 48 84 49 83 50 36 52 70 53 49 54 69 55
REMARK SMILES IDX 50 56 53 57 68 58 88 59 51 60 52 61 67 63 89 64 54 65 37 66
REMARK SMILES IDX 38 67 47 68 39 69 40 70 46 71 48 72 41 73 42 74 43 75 44 76
REMARK SMILES IDX 45 77 71 78 72 79 81 80 73 81 74 82 80 83 82 84 75 85 76 86
REMARK SMILES IDX 77 87 78 88 79 89 55 90 56 91 65 92 57 93 58 94 64 95 66 96
REMARK SMILES IDX 59 97 60 98 61 99 62 100 63 101
REMARK H PARENT 98 24 87 51 53 62
REMARK Flexibility Score: inf
ROOT
ATOM      1  C   UNL A   1      40.428  21.425  26.849  1.00  0.00     0.188 C 
ENDROOT
BRANCH   1   2
ATOM      2  O   UNL A   1      39.383  21.996  26.066  1.00  0.00    -0.376 OA
BRANCH   2   3
ATOM      3  C   UNL A   1      38.784  23.212  26.498  1.00  0.00     0.202 C 
BRANCH   3   4
ATOM      4  C   UNL A   1      37.810  23.856  25.511  1.00  0.00     0.261 C 
BRANCH   4   5
ATOM      5  O   UNL A   1      36.899  22.886  24.957  1.00  0.00    -0.462 OA
BRANCH   5   6
ATOM      6  C   UNL A   1      36.388  23.162  23.731  1.00  0.00     0.321 C 
ATOM      7  O   UNL A   1      37.030  23.077  22.689  1.00  0.00    -0.251 OA
BRANCH   6   8
ATOM      8  C   UNL A   1      34.941  23.609  23.747  1.00  0.00     0.224 C 
BRANCH   8   9
ATOM      9  N   UNL A   1      34.388  24.452  24.875  1.00  0.00    -0.190 NA
ATOM     10  C   UNL A   1      33.643  25.617  24.372  1.00  0.00     0.125 C 
BRANCH   9  11
ATOM     11  S   UNL A   1      33.646  23.457  26.058  1.00  0.00     0.243 S 
ATOM     12  O   UNL A   1      32.391  24.094  26.363  1.00  0.00    -0.207 OA
ATOM     13  O   UNL A   1      34.615  23.253  27.122  1.00  0.00    -0.207 OA
BRANCH  11  14
ATOM     14  C   UNL A   1      33.295  21.861  25.306  1.00  0.00     0.089 A 
ATOM     15  C   UNL A   1      31.218  22.680  23.973  1.00  0.00     0.046 C 
ATOM     16  C   UNL A   1      32.281  21.681  24.338  1.00  0.00    -0.029 A 
ATOM     17  C   UNL A   1      32.198  20.441  23.670  1.00  0.00     0.035 A 
ATOM     18  C   UNL A   1      33.114  19.421  23.919  1.00  0.00     0.084 A 
ATOM     19  C   UNL A   1      34.204  20.812  25.563  1.00  0.00     0.070 A 
ATOM     20  C   UNL A   1      34.109  19.597  24.873  1.00  0.00     0.144 A 
ATOM     21  N   UNL A   1      33.056  18.254  23.159  1.00  0.00    -0.320 N 
ATOM     22  O   UNL A   1      35.073  18.661  25.129  1.00  0.00    -0.482 OA
ATOM     23  C   UNL A   1      33.916  17.215  23.374  1.00  0.00     0.262 C 
ATOM     24  H   UNL A   1      32.377  18.177  22.449  1.00  0.00     0.170 HD
ATOM     25  C   UNL A   1      34.815  17.366  24.600  1.00  0.00     0.329 C 
ATOM     26  O   UNL A   1      33.889  16.211  22.666  1.00  0.00    -0.271 OA
ENDBRANCH  11  14
ENDBRANCH   9  11
ENDBRANCH   8   9
ENDBRANCH   6   8
ENDBRANCH   5   6
ENDBRANCH   4   5
ENDBRANCH   3   4
ENDBRANCH   2   3
ENDBRANCH   1   2
BRANCH   1  27
ATOM     27  C   UNL A   1      41.689  20.934  26.125  1.00  0.00     0.188 C 
BRANCH  27  28
ATOM     28  O   UNL A   1      42.336  21.971  25.401  1.00  0.00    -0.376 OA
BRANCH  28  29
ATOM     29  C   UNL A   1      43.621  22.307  25.892  1.00  0.00     0.202 C 
BRANCH  29  30
ATOM     30  C   UNL A   1      43.526  23.380  26.977  1.00  0.00     0.261 C 
BRANCH  30  31
ATOM     31  O   UNL A   1      43.847  24.715  26.538  1.00  0.00    -0.460 OA
BRANCH  31  32
ATOM     32  C   UNL A   1      42.819  25.464  26.080  1.00  0.00     0.338 C 
ATOM     33  O   UNL A   1      42.293  25.379  24.984  1.00  0.00    -0.246 OA
BRANCH  32  34
ATOM     34  C   UNL A   1      42.332  26.307  27.193  1.00  0.00     0.060 A 
ATOM     35  C   UNL A   1      41.275  25.884  27.997  1.00  0.00     0.016 A 
ATOM     36  C   UNL A   1      42.958  27.530  27.449  1.00  0.00     0.016 A 
ATOM     37  C   UNL A   1      40.858  26.691  29.063  1.00  0.00     0.010 A 
ATOM     38  C   UNL A   1      42.550  28.329  28.521  1.00  0.00     0.010 A 
ATOM     39  C   UNL A   1      41.500  27.915  29.347  1.00  0.00    -0.014 A 
BRANCH  39  40
ATOM     40  C   UNL A   1      41.145  28.669  30.581  1.00  0.00     0.031 A 
ATOM     41  C   UNL A   1      41.930  28.545  31.855  1.00  0.00     0.074 A 
ATOM     42  C   UNL A   1      40.065  29.476  30.543  1.00  0.00     0.049 A 
ATOM     43  N   UNL A   1      41.857  29.277  32.939  1.00  0.00    -0.248 NA
ATOM     44  C   UNL A   1      42.903  27.446  31.940  1.00  0.00     0.031 C 
ATOM     45  C   UNL A   1      39.145  29.586  29.410  1.00  0.00     0.029 A 
ATOM     46  N   UNL A   1      39.567  30.363  31.465  1.00  0.00    -0.354 N 
ATOM     47  C   UNL A   1      42.781  28.740  33.829  1.00  0.00     0.074 A 
ATOM     48  C   UNL A   1      43.357  27.582  33.179  1.00  0.00     0.031 C 
ATOM     49  C   UNL A   1      38.232  30.532  29.677  1.00  0.00     0.029 A 
ATOM     50  C   UNL A   1      38.492  31.085  31.002  1.00  0.00     0.049 A 
ATOM     51  H   UNL A   1      39.942  30.471  32.369  1.00  0.00     0.167 HD
ATOM     52  C   UNL A   1      43.129  29.189  35.061  1.00  0.00     0.037 A 
ATOM     53  C   UNL A   1      37.810  32.102  31.564  1.00  0.00     0.037 A 
ATOM     54  C   UNL A   1      42.536  30.342  35.695  1.00  0.00     0.049 A 
ATOM     55  C   UNL A   1      38.243  32.626  32.902  1.00  0.00     0.074 A 
ATOM     56  C   UNL A   1      42.885  30.942  36.893  1.00  0.00     0.029 A 
ATOM     57  N   UNL A   1      41.454  31.054  35.196  1.00  0.00    -0.354 N 
ATOM     58  N   UNL A   1      39.224  32.208  33.668  1.00  0.00    -0.248 NA
ATOM     59  C   UNL A   1      37.492  33.763  33.449  1.00  0.00     0.031 C 
ATOM     60  C   UNL A   1      41.980  31.980  37.144  1.00  0.00     0.029 A 
ATOM     61  C   UNL A   1      41.099  32.064  36.077  1.00  0.00     0.049 A 
ATOM     62  H   UNL A   1      41.004  30.869  34.340  1.00  0.00     0.167 HD
ATOM     63  C   UNL A   1      39.211  33.032  34.787  1.00  0.00     0.074 A 
ATOM     64  C   UNL A   1      38.140  33.988  34.586  1.00  0.00     0.031 C 
ATOM     65  C   UNL A   1      40.013  32.995  35.880  1.00  0.00     0.037 A 
BRANCH  52  66
ATOM     66  C   UNL A   1      44.213  28.445  35.801  1.00  0.00     0.058 A 
ATOM     67  C   UNL A   1      45.572  28.758  35.623  1.00  0.00     0.135 A 
ATOM     68  C   UNL A   1      43.896  27.440  36.729  1.00  0.00     0.135 A 
ATOM     69  F   UNL A   1      45.938  29.710  34.751  1.00  0.00    -0.206 F 
ATOM     70  C   UNL A   1      46.575  28.074  36.304  1.00  0.00     0.059 A 
ATOM     71  C   UNL A   1      44.882  26.763  37.445  1.00  0.00     0.059 A 
ATOM     72  F   UNL A   1      42.616  27.105  36.953  1.00  0.00    -0.206 F 
ATOM     73  C   UNL A   1      46.221  27.075  37.212  1.00  0.00     0.060 A 
BRANCH  73  74
ATOM     74  S   UNL A   1      47.538  26.194  38.078  1.00  0.00     0.124 S 
ATOM     75  O   UNL A   1      48.698  27.025  37.772  1.00  0.00    -0.237 OA
ATOM     76  O   UNL A   1      47.080  26.232  39.464  1.00  0.00    -0.237 OA
ATOM     77  O   UNL A   1      47.534  24.874  37.456  1.00  0.00    -0.744 OA
ENDBRANCH  73  74
ENDBRANCH  52  66
BRANCH  53  78
ATOM     78  C   UNL A   1      36.698  32.727  30.798  1.00  0.00     0.058 A 
ATOM     79  C   UNL A   1      35.361  32.468  31.132  1.00  0.00     0.135 A 
ATOM     80  C   UNL A   1      36.952  33.682  29.802  1.00  0.00     0.135 A 
ATOM     81  F   UNL A   1      35.068  31.559  32.074  1.00  0.00    -0.206 F 
ATOM     82  C   UNL A   1      34.314  33.151  30.521  1.00  0.00     0.059 A 
ATOM     83  C   UNL A   1      35.923  34.394  29.192  1.00  0.00     0.059 A 
ATOM     84  F   UNL A   1      38.216  33.978  29.461  1.00  0.00    -0.206 F 
ATOM     85  C   UNL A   1      34.606  34.125  29.565  1.00  0.00     0.060 A 
BRANCH  85  86
ATOM     86  S   UNL A   1      33.244  35.090  28.873  1.00  0.00     0.124 S 
ATOM     87  O   UNL A   1      32.663  34.146  27.925  1.00  0.00    -0.237 OA
ATOM     88  O   UNL A   1      32.444  35.379  30.059  1.00  0.00    -0.237 OA
ATOM     89  O   UNL A   1      33.915  36.245  28.283  1.00  0.00    -0.744 OA
ENDBRANCH  85  86
ENDBRANCH  53  78
BRANCH  65  90
ATOM     90  C   UNL A   1      39.754  34.006  36.965  1.00  0.00     0.058 A 
ATOM     91  C   UNL A   1      39.072  33.656  38.141  1.00  0.00     0.135 A 
ATOM     92  C   UNL A   1      40.253  35.314  36.861  1.00  0.00     0.135 A 
ATOM     93  F   UNL A   1      38.567  32.421  38.289  1.00  0.00    -0.206 F 
ATOM     94  C   UNL A   1      38.882  34.573  39.171  1.00  0.00     0.059 A 
ATOM     95  C   UNL A   1      40.097  36.239  37.890  1.00  0.00     0.059 A 
ATOM     96  F   UNL A   1      40.919  35.699  35.761  1.00  0.00    -0.206 F 
ATOM     97  C   UNL A   1      39.403  35.860  39.039  1.00  0.00     0.060 A 
BRANCH  97  98
ATOM     98  S   UNL A   1      39.187  37.023  40.404  1.00  0.00     0.124 S 
ATOM     99  O   UNL A   1      40.570  37.294  40.783  1.00  0.00    -0.237 OA
ATOM    100  O   UNL A   1      38.479  38.127  39.761  1.00  0.00    -0.237 OA
ATOM    101  O   UNL A   1      38.406  36.267  41.377  1.00  0.00    -0.744 OA
ENDBRANCH  97  98
ENDBRANCH  65  90
ENDBRANCH  39  40
ENDBRANCH  32  34
ENDBRANCH  31  32
ENDBRANCH  30  31
ENDBRANCH  29  30
ENDBRANCH  28  29
ENDBRANCH  27  28
ENDBRANCH   1  27
TORSDOF 23
ENDMDL
MODEL 3
REMARK VINA RESULT:     -10.3      1.468      2.195
REMARK SMILES Cc1cc2c(cc1S(=O)(=O)N(C)CC(=O)OCCOCCOCCOC(=O)c1ccc(-c3c4nc(c(-c5c(F)cc(S(=O)(=O)[O-])cc5F)c5ccc([nH]5)c(-c5c(F)cc(S(=O)(=O)[O-])cc5F)c5nc(c(-c6c(F)cc(S(=O)(=O)[O-])cc6F)c6ccc3[nH]6)C=C5)C=C4)cc1)OCC(=O)N2
REMARK SMILES IDX 20 1 19 2 18 3 17 4 16 5 14 6 15 7 13 8 11 9 12 10 8 11 9 12
REMARK SMILES IDX 10 13 7 14 1 15 2 16 3 17 4 18 6 19 5 20 98 21 94 22 96 23
REMARK SMILES IDX 95 25 97 26 21 27 22 28 23 29 24 30 25 31 26 32 27 33 28 34
REMARK SMILES IDX 29 35 93 36 30 37 92 38 31 39 32 40 33 41 86 42 34 43 91 44
REMARK SMILES IDX 85 45 87 46 35 47 90 48 84 49 83 50 36 52 70 53 49 54 69 55
REMARK SMILES IDX 50 56 53 57 68 58 88 59 51 60 52 61 67 63 89 64 54 65 37 66
REMARK SMILES IDX 38 67 47 68 39 69 40 70 46 71 48 72 41 73 42 74 43 75 44 76
REMARK SMILES IDX 45 77 71 78 72 79 81 80 73 81 74 82 80 83 82 84 75 85 76 86
REMARK SMILES IDX 77 87 78 88 79 89 55 90 56 91 65 92 57 93 58 94 64 95 66 96
REMARK SMILES IDX 59 97 60 98 61 99 62 100 63 101
REMARK H PARENT 98 24 87 51 53 62
REMARK Flexibility Score: inf
ROOT
ATOM      1  C   UNL A   1      40.979  20.160  26.637  1.00  0.00     0.188 C 
ENDROOT
BRANCH   1   2
ATOM      2  O   UNL A   1      39.952  20.683  25.797  1.00  0.00    -0.376 OA
BRANCH   2   3
ATOM      3  C   UNL A   1      39.243  21.843  26.217  1.00  0.00     0.202 C 
BRANCH   3   4
ATOM      4  C   UNL A   1      37.986  22.176  25.412  1.00  0.00     0.261 C 
BRANCH   4   5
ATOM      5  O   UNL A   1      36.794  21.712  26.074  1.00  0.00    -0.462 OA
BRANCH   5   6
ATOM      6  C   UNL A   1      35.840  21.152  25.289  1.00  0.00     0.321 C 
ATOM      7  O   UNL A   1      35.873  19.991  24.897  1.00  0.00    -0.251 OA
BRANCH   6   8
ATOM      8  C   UNL A   1      34.715  22.094  24.911  1.00  0.00     0.224 C 
BRANCH   8   9
ATOM      9  N   UNL A   1      33.486  22.244  25.779  1.00  0.00    -0.190 NA
ATOM     10  C   UNL A   1      33.664  23.285  26.804  1.00  0.00     0.125 C 
BRANCH   9  11
ATOM     11  S   UNL A   1      32.070  22.285  24.812  1.00  0.00     0.243 S 
ATOM     12  O   UNL A   1      30.970  22.237  25.738  1.00  0.00    -0.207 OA
ATOM     13  O   UNL A   1      32.200  21.240  23.809  1.00  0.00    -0.207 OA
BRANCH  11  14
ATOM     14  C   UNL A   1      32.019  23.871  23.964  1.00  0.00     0.089 A 
ATOM     15  C   UNL A   1      33.383  23.076  21.898  1.00  0.00     0.046 C 
ATOM     16  C   UNL A   1      32.532  24.054  22.660  1.00  0.00    -0.029 A 
ATOM     17  C   UNL A   1      32.286  25.279  22.003  1.00  0.00     0.035 A 
ATOM     18  C   UNL A   1      31.520  26.278  22.598  1.00  0.00     0.084 A 
ATOM     19  C   UNL A   1      31.262  24.901  24.563  1.00  0.00     0.070 A 
ATOM     20  C   UNL A   1      31.018  26.100  23.882  1.00  0.00     0.144 A 
ATOM     21  N   UNL A   1      31.216  27.427  21.869  1.00  0.00    -0.320 N 
ATOM     22  O   UNL A   1      30.215  27.015  24.504  1.00  0.00    -0.482 OA
ATOM     23  C   UNL A   1      30.486  28.447  22.411  1.00  0.00     0.262 C 
ATOM     24  H   UNL A   1      31.535  27.505  20.941  1.00  0.00     0.170 HD
ATOM     25  C   UNL A   1      30.184  28.302  23.902  1.00  0.00     0.329 C 
ATOM     26  O   UNL A   1      30.181  29.433  21.744  1.00  0.00    -0.271 OA
ENDBRANCH  11  14
ENDBRANCH   9  11
ENDBRANCH   8   9
ENDBRANCH   6   8
ENDBRANCH   5   6
ENDBRANCH   4   5
ENDBRANCH   3   4
ENDBRANCH   2   3
ENDBRANCH   1   2
BRANCH   1  27
ATOM     27  C   UNL A   1      42.431  20.265  26.154  1.00  0.00     0.188 C 
BRANCH  27  28
ATOM     28  O   UNL A   1      42.674  21.458  25.421  1.00  0.00    -0.376 OA
BRANCH  28  29
ATOM     29  C   UNL A   1      43.802  22.191  25.861  1.00  0.00     0.202 C 
BRANCH  29  30
ATOM     30  C   UNL A   1      43.396  23.251  26.885  1.00  0.00     0.261 C 
BRANCH  30  31
ATOM     31  O   UNL A   1      43.813  24.593  26.565  1.00  0.00    -0.460 OA
BRANCH  31  32
ATOM     32  C   UNL A   1      42.860  25.424  26.086  1.00  0.00     0.338 C 
ATOM     33  O   UNL A   1      42.376  25.403  24.967  1.00  0.00    -0.246 OA
BRANCH  32  34
ATOM     34  C   UNL A   1      42.386  26.272  27.199  1.00  0.00     0.060 A 
ATOM     35  C   UNL A   1      41.264  25.910  27.943  1.00  0.00     0.016 A 
ATOM     36  C   UNL A   1      43.089  27.437  27.519  1.00  0.00     0.016 A 
ATOM     37  C   UNL A   1      40.859  26.719  29.012  1.00  0.00     0.010 A 
ATOM     38  C   UNL A   1      42.692  28.237  28.595  1.00  0.00     0.010 A 
ATOM     39  C   UNL A   1      41.576  27.883  29.360  1.00  0.00    -0.014 A 
BRANCH  39  40
ATOM     40  C   UNL A   1      41.221  28.630  30.599  1.00  0.00     0.031 A 
ATOM     41  C   UNL A   1      42.012  28.505  31.870  1.00  0.00     0.074 A 
ATOM     42  C   UNL A   1      40.137  29.430  30.569  1.00  0.00     0.049 A 
ATOM     43  N   UNL A   1      41.939  29.232  32.957  1.00  0.00    -0.248 NA
ATOM     44  C   UNL A   1      42.992  27.411  31.946  1.00  0.00     0.031 C 
ATOM     45  C   UNL A   1      39.212  29.540  29.439  1.00  0.00     0.029 A 
ATOM     46  N   UNL A   1      39.637  30.310  31.496  1.00  0.00    -0.354 N 
ATOM     47  C   UNL A   1      42.869  28.697  33.841  1.00  0.00     0.074 A 
ATOM     48  C   UNL A   1      43.450  27.544  33.185  1.00  0.00     0.031 C 
ATOM     49  C   UNL A   1      38.295  30.479  29.713  1.00  0.00     0.029 A 
ATOM     50  C   UNL A   1      38.556  31.028  31.040  1.00  0.00     0.049 A 
ATOM     51  H   UNL A   1      40.015  30.417  32.399  1.00  0.00     0.167 HD
ATOM     52  C   UNL A   1      43.219  29.143  35.074  1.00  0.00     0.037 A 
ATOM     53  C   UNL A   1      37.870  32.039  31.609  1.00  0.00     0.037 A 
ATOM     54  C   UNL A   1      42.622  30.289  35.715  1.00  0.00     0.049 A 
ATOM     55  C   UNL A   1      38.304  32.559  32.948  1.00  0.00     0.074 A 
ATOM     56  C   UNL A   1      42.971  30.886  36.914  1.00  0.00     0.029 A 
ATOM     57  N   UNL A   1      41.534  30.997  35.223  1.00  0.00    -0.354 N 
ATOM     58  N   UNL A   1      39.291  32.145  33.708  1.00  0.00    -0.248 NA
ATOM     59  C   UNL A   1      37.549  33.689  33.502  1.00  0.00     0.031 C 
ATOM     60  C   UNL A   1      42.061  31.918  37.173  1.00  0.00     0.029 A 
ATOM     61  C   UNL A   1      41.175  32.001  36.110  1.00  0.00     0.049 A 
ATOM     62  H   UNL A   1      41.082  30.813  34.368  1.00  0.00     0.167 HD
ATOM     63  C   UNL A   1      39.277  32.963  34.831  1.00  0.00     0.074 A 
ATOM     64  C   UNL A   1      38.199  33.914  34.638  1.00  0.00     0.031 C 
ATOM     65  C   UNL A   1      40.083  32.927  35.920  1.00  0.00     0.037 A 
BRANCH  52  66
ATOM     66  C   UNL A   1      44.310  28.402  35.806  1.00  0.00     0.058 A 
ATOM     67  C   UNL A   1      44.013  27.420  36.768  1.00  0.00     0.135 A 
ATOM     68  C   UNL A   1      45.664  28.638  35.519  1.00  0.00     0.135 A 
ATOM     69  F   UNL A   1      42.738  27.148  37.085  1.00  0.00    -0.206 F 
ATOM     70  C   UNL A   1      45.017  26.733  37.445  1.00  0.00     0.059 A 
ATOM     71  C   UNL A   1      46.685  27.940  36.163  1.00  0.00     0.059 A 
ATOM     72  F   UNL A   1      46.012  29.554  34.601  1.00  0.00    -0.206 F 
ATOM     73  C   UNL A   1      46.351  27.002  37.139  1.00  0.00     0.060 A 
BRANCH  73  74
ATOM     74  S   UNL A   1      47.637  26.106  38.036  1.00  0.00     0.124 S 
ATOM     75  O   UNL A   1      46.986  25.867  39.320  1.00  0.00    -0.237 OA
ATOM     76  O   UNL A   1      47.839  24.927  37.199  1.00  0.00    -0.237 OA
ATOM     77  O   UNL A   1      48.752  27.047  38.067  1.00  0.00    -0.744 OA
ENDBRANCH  73  74
ENDBRANCH  52  66
BRANCH  53  78
ATOM     78  C   UNL A   1      36.752  32.660  30.849  1.00  0.00     0.058 A 
ATOM     79  C   UNL A   1      35.418  32.415  31.205  1.00  0.00     0.135 A 
ATOM     80  C   UNL A   1      36.998  33.600  29.838  1.00  0.00     0.135 A 
ATOM     81  F   UNL A   1      35.132  31.520  32.164  1.00  0.00    -0.206 F 
ATOM     82  C   UNL A   1      34.367  33.096  30.599  1.00  0.00     0.059 A 
ATOM     83  C   UNL A   1      35.965  34.310  29.232  1.00  0.00     0.059 A 
ATOM     84  F   UNL A   1      38.259  33.883  29.475  1.00  0.00    -0.206 F 
ATOM     85  C   UNL A   1      34.652  34.055  29.626  1.00  0.00     0.060 A 
BRANCH  85  86
ATOM     86  S   UNL A   1      33.286  35.019  28.940  1.00  0.00     0.124 S 
ATOM     87  O   UNL A   1      32.467  35.256  30.122  1.00  0.00    -0.237 OA
ATOM     88  O   UNL A   1      33.980  36.184  28.400  1.00  0.00    -0.237 OA
ATOM     89  O   UNL A   1      32.709  34.125  27.941  1.00  0.00    -0.744 OA
ENDBRANCH  85  86
ENDBRANCH  53  78
BRANCH  65  90
ATOM     90  C   UNL A   1      39.822  33.931  37.010  1.00  0.00     0.058 A 
ATOM     91  C   UNL A   1      39.038  33.608  38.129  1.00  0.00     0.135 A 
ATOM     92  C   UNL A   1      40.418  35.202  36.974  1.00  0.00     0.135 A 
ATOM     93  F   UNL A   1      38.438  32.409  38.212  1.00  0.00    -0.206 F 
ATOM     94  C   UNL A   1      38.843  34.515  39.167  1.00  0.00     0.059 A 
ATOM     95  C   UNL A   1      40.258  36.115  38.012  1.00  0.00     0.059 A 
ATOM     96  F   UNL A   1      41.184  35.560  35.931  1.00  0.00    -0.206 F 
ATOM     97  C   UNL A   1      39.462  35.763  39.102  1.00  0.00     0.060 A 
BRANCH  97  98
ATOM     98  S   UNL A   1      39.234  36.911  40.478  1.00  0.00     0.124 S 
ATOM     99  O   UNL A   1      39.101  38.186  39.780  1.00  0.00    -0.237 OA
ATOM    100  O   UNL A   1      38.019  36.404  41.108  1.00  0.00    -0.237 OA
ATOM    101  O   UNL A   1      40.454  36.751  41.262  1.00  0.00    -0.744 OA
ENDBRANCH  97  98
ENDBRANCH  65  90
ENDBRANCH  39  40
ENDBRANCH  32  34
ENDBRANCH  31  32
ENDBRANCH  30  31
ENDBRANCH  29  30
ENDBRANCH  28  29
ENDBRANCH  27  28
ENDBRANCH   1  27
TORSDOF 23
ENDMDL
