MODEL 1
REMARK VINA RESULT:     -10.1      0.000      0.000
REMARK SMILES O=C(OCCOCCOCCOC(=O)[C@@H]1CCCC[C@H]1C(=O)N[C@@H]1CONC1=O)c1ccc(-c2c3nc(c(-c4c(F)cc(S(=O)(=O)[O-])cc4F)c4ccc([nH]4)c(-c4c(F)cc(S(=O)(=O)[O-])cc4F)c4nc(c(-c5c(F)cc(S(=O)(=O)[O-])cc5F)c5ccc2[nH]5)C=C4)C=C3)cc1
REMARK SMILES IDX 7 1 6 2 5 3 4 4 3 5 2 6 1 7 30 8 31 9 95 10 32 11 94 12
REMARK SMILES IDX 33 13 34 14 35 15 88 16 36 17 93 18 87 19 89 20 37 21 92 22
REMARK SMILES IDX 86 23 85 24 38 26 72 27 51 28 71 29 52 30 55 31 70 32 90 33
REMARK SMILES IDX 53 34 54 35 69 37 91 38 56 39 39 40 40 41 49 42 41 43 42 44
REMARK SMILES IDX 48 45 50 46 43 47 44 48 45 49 46 50 47 51 73 52 74 53 83 54
REMARK SMILES IDX 75 55 76 56 82 57 84 58 77 59 78 60 79 61 80 62 81 63 57 64
REMARK SMILES IDX 58 65 67 66 59 67 60 68 66 69 68 70 61 71 62 72 63 73 64 74
REMARK SMILES IDX 65 75 8 76 9 77 10 78 11 79 12 80 13 81 14 82 15 83 16 84
REMARK SMILES IDX 20 85 17 86 19 87 18 88 21 89 22 90 23 91 24 93 25 94 28 95
REMARK SMILES IDX 26 96 27 97 29 98
REMARK H PARENT 89 25 55 36 23 92 27 99
REMARK Flexibility Score: inf
ROOT
ATOM      1  C   UNL A   1      32.803  29.576  26.310  1.00  0.00     0.188 C 
ENDROOT
BRANCH   1   2
ATOM      2  O   UNL A   1      33.333  29.660  27.640  1.00  0.00    -0.376 OA
BRANCH   2   3
ATOM      3  C   UNL A   1      34.690  30.123  27.673  1.00  0.00     0.202 C 
BRANCH   3   4
ATOM      4  C   UNL A   1      34.896  31.528  28.268  1.00  0.00     0.261 C 
BRANCH   4   5
ATOM      5  O   UNL A   1      35.786  31.549  29.393  1.00  0.00    -0.460 OA
BRANCH   5   6
ATOM      6  C   UNL A   1      36.476  30.523  29.947  1.00  0.00     0.338 C 
ATOM      7  O   UNL A   1      35.954  29.922  30.886  1.00  0.00    -0.246 OA
BRANCH   6   8
ATOM      8  C   UNL A   1      37.842  30.078  29.513  1.00  0.00     0.060 A 
ATOM      9  C   UNL A   1      38.230  29.758  28.209  1.00  0.00     0.016 A 
ATOM     10  C   UNL A   1      38.838  30.055  30.506  1.00  0.00     0.016 A 
ATOM     11  C   UNL A   1      39.535  29.377  27.896  1.00  0.00     0.010 A 
ATOM     12  C   UNL A   1      40.163  29.735  30.189  1.00  0.00     0.010 A 
ATOM     13  C   UNL A   1      40.520  29.391  28.874  1.00  0.00    -0.014 A 
BRANCH  13  14
ATOM     14  C   UNL A   1      41.892  28.930  28.564  1.00  0.00     0.031 A 
ATOM     15  C   UNL A   1      42.933  29.983  28.405  1.00  0.00     0.074 A 
ATOM     16  C   UNL A   1      42.217  27.625  28.453  1.00  0.00     0.049 A 
ATOM     17  N   UNL A   1      44.171  29.857  28.033  1.00  0.00    -0.248 NA
ATOM     18  C   UNL A   1      42.537  31.360  28.760  1.00  0.00     0.031 C 
ATOM     19  C   UNL A   1      41.341  26.523  28.805  1.00  0.00     0.029 A 
ATOM     20  N   UNL A   1      43.334  26.982  27.992  1.00  0.00    -0.354 N 
ATOM     21  C   UNL A   1      44.715  31.123  28.150  1.00  0.00     0.074 A 
ATOM     22  C   UNL A   1      43.656  32.026  28.534  1.00  0.00     0.031 C 
ATOM     23  C   UNL A   1      41.843  25.358  28.376  1.00  0.00     0.029 A 
ATOM     24  C   UNL A   1      43.139  25.626  27.792  1.00  0.00     0.049 A 
ATOM     25  H   UNL A   1      44.191  27.437  27.821  1.00  0.00     0.167 HD
ATOM     26  C   UNL A   1      46.009  31.471  28.009  1.00  0.00     0.037 A 
ATOM     27  C   UNL A   1      43.926  24.704  27.210  1.00  0.00     0.037 A 
ATOM     28  C   UNL A   1      47.030  30.532  27.642  1.00  0.00     0.049 A 
ATOM     29  C   UNL A   1      45.310  25.151  26.861  1.00  0.00     0.074 A 
ATOM     30  C   UNL A   1      48.383  30.749  27.479  1.00  0.00     0.029 A 
ATOM     31  N   UNL A   1      46.800  29.186  27.371  1.00  0.00    -0.354 N 
ATOM     32  N   UNL A   1      45.823  26.355  26.979  1.00  0.00    -0.248 NA
ATOM     33  C   UNL A   1      46.242  24.133  26.372  1.00  0.00     0.031 C 
ATOM     34  C   UNL A   1      48.962  29.547  27.061  1.00  0.00     0.029 A 
ATOM     35  C   UNL A   1      47.981  28.566  27.010  1.00  0.00     0.049 A 
ATOM     36  H   UNL A   1      45.923  28.740  27.429  1.00  0.00     0.167 HD
ATOM     37  C   UNL A   1      47.157  26.231  26.641  1.00  0.00     0.074 A 
ATOM     38  C   UNL A   1      47.364  24.837  26.288  1.00  0.00     0.031 C 
ATOM     39  C   UNL A   1      48.129  27.176  26.654  1.00  0.00     0.037 A 
BRANCH  26  40
ATOM     40  C   UNL A   1      46.347  32.907  28.246  1.00  0.00     0.058 A 
ATOM     41  C   UNL A   1      46.327  33.852  27.206  1.00  0.00     0.135 A 
ATOM     42  C   UNL A   1      46.742  33.337  29.520  1.00  0.00     0.135 A 
ATOM     43  F   UNL A   1      46.010  33.477  25.955  1.00  0.00    -0.206 F 
ATOM     44  C   UNL A   1      46.698  35.174  27.420  1.00  0.00     0.059 A 
ATOM     45  C   UNL A   1      47.095  34.660  29.761  1.00  0.00     0.059 A 
ATOM     46  F   UNL A   1      46.814  32.463  30.536  1.00  0.00    -0.206 F 
ATOM     47  C   UNL A   1      47.075  35.569  28.704  1.00  0.00     0.060 A 
BRANCH  47  48
ATOM     48  S   UNL A   1      47.522  37.296  28.974  1.00  0.00     0.124 S 
ATOM     49  O   UNL A   1      48.399  37.192  30.136  1.00  0.00    -0.237 OA
ATOM     50  O   UNL A   1      48.173  37.648  27.717  1.00  0.00    -0.237 OA
ATOM     51  O   UNL A   1      46.236  37.944  29.215  1.00  0.00    -0.744 OA
ENDBRANCH  47  48
ENDBRANCH  26  40
BRANCH  27  52
ATOM     52  C   UNL A   1      43.437  23.320  26.947  1.00  0.00     0.058 A 
ATOM     53  C   UNL A   1      43.260  22.376  27.969  1.00  0.00     0.135 A 
ATOM     54  C   UNL A   1      43.144  22.910  25.635  1.00  0.00     0.135 A 
ATOM     55  F   UNL A   1      43.524  22.708  29.241  1.00  0.00    -0.206 F 
ATOM     56  C   UNL A   1      42.841  21.072  27.699  1.00  0.00     0.059 A 
ATOM     57  C   UNL A   1      42.705  21.621  25.342  1.00  0.00     0.059 A 
ATOM     58  F   UNL A   1      43.298  23.765  24.613  1.00  0.00    -0.206 F 
ATOM     59  C   UNL A   1      42.572  20.701  26.379  1.00  0.00     0.060 A 
BRANCH  59  60
ATOM     60  S   UNL A   1      42.045  19.006  26.036  1.00  0.00     0.124 S 
ATOM     61  O   UNL A   1      40.622  19.186  25.770  1.00  0.00    -0.237 OA
ATOM     62  O   UNL A   1      42.870  18.654  24.884  1.00  0.00    -0.237 OA
ATOM     63  O   UNL A   1      42.369  18.294  27.270  1.00  0.00    -0.744 OA
ENDBRANCH  59  60
ENDBRANCH  27  52
BRANCH  39  64
ATOM     64  C   UNL A   1      49.503  26.702  26.310  1.00  0.00     0.058 A 
ATOM     65  C   UNL A   1      50.039  26.879  25.027  1.00  0.00     0.135 A 
ATOM     66  C   UNL A   1      50.296  26.087  27.290  1.00  0.00     0.135 A 
ATOM     67  F   UNL A   1      49.304  27.447  24.058  1.00  0.00    -0.206 F 
ATOM     68  C   UNL A   1      51.316  26.438  24.719  1.00  0.00     0.059 A 
ATOM     69  C   UNL A   1      51.587  25.667  27.012  1.00  0.00     0.059 A 
ATOM     70  F   UNL A   1      49.819  25.904  28.532  1.00  0.00    -0.206 F 
ATOM     71  C   UNL A   1      52.083  25.835  25.720  1.00  0.00     0.060 A 
BRANCH  71  72
ATOM     72  S   UNL A   1      53.756  25.300  25.318  1.00  0.00     0.124 S 
ATOM     73  O   UNL A   1      53.887  25.762  23.940  1.00  0.00    -0.237 OA
ATOM     74  O   UNL A   1      54.558  26.016  26.307  1.00  0.00    -0.237 OA
ATOM     75  O   UNL A   1      53.699  23.853  25.494  1.00  0.00    -0.744 OA
ENDBRANCH  71  72
ENDBRANCH  39  64
ENDBRANCH  13  14
ENDBRANCH   6   8
ENDBRANCH   5   6
ENDBRANCH   4   5
ENDBRANCH   3   4
ENDBRANCH   2   3
ENDBRANCH   1   2
BRANCH   1  76
ATOM     76  C   UNL A   1      33.771  28.929  25.319  1.00  0.00     0.188 C 
BRANCH  76  77
ATOM     77  O   UNL A   1      33.393  27.665  24.773  1.00  0.00    -0.376 OA
BRANCH  77  78
ATOM     78  C   UNL A   1      32.617  26.799  25.596  1.00  0.00     0.202 C 
BRANCH  78  79
ATOM     79  C   UNL A   1      33.183  25.406  25.902  1.00  0.00     0.261 C 
BRANCH  79  80
ATOM     80  O   UNL A   1      34.565  25.279  25.576  1.00  0.00    -0.463 OA
BRANCH  80  81
ATOM     81  C   UNL A   1      34.933  24.273  24.730  1.00  0.00     0.309 C 
ATOM     82  O   UNL A   1      34.650  24.204  23.545  1.00  0.00    -0.252 OA
BRANCH  81  83
ATOM     83  C   UNL A   1      35.803  23.279  25.500  1.00  0.00     0.111 C 
ATOM     84  C   UNL A   1      37.291  23.568  25.358  1.00  0.00     0.016 C 
ATOM     85  C   UNL A   1      35.363  21.854  25.144  1.00  0.00     0.092 C 
ATOM     86  C   UNL A   1      38.133  22.399  25.846  1.00  0.00     0.001 C 
ATOM     87  C   UNL A   1      36.397  20.732  25.084  1.00  0.00     0.014 C 
ATOM     88  C   UNL A   1      37.850  21.172  25.001  1.00  0.00     0.001 C 
BRANCH  85  89
ATOM     89  C   UNL A   1      34.209  21.553  26.079  1.00  0.00     0.224 C 
ATOM     90  O   UNL A   1      34.322  21.825  27.282  1.00  0.00    -0.275 OA
ATOM     91  N   UNL A   1      33.076  20.899  25.728  1.00  0.00    -0.342 N 
ATOM     92  H   UNL A   1      32.592  20.607  26.533  1.00  0.00     0.164 HD
BRANCH  91  93
ATOM     93  C   UNL A   1      32.350  20.494  24.526  1.00  0.00     0.202 C 
ATOM     94  C   UNL A   1      32.597  19.126  23.918  1.00  0.00     0.228 C 
ATOM     95  C   UNL A   1      32.043  21.362  23.336  1.00  0.00     0.268 C 
ATOM     96  O   UNL A   1      32.162  19.174  22.549  1.00  0.00    -0.271 OA
ATOM     97  N   UNL A   1      31.926  20.533  22.254  1.00  0.00    -0.233 N 
ATOM     98  O   UNL A   1      31.806  22.555  23.323  1.00  0.00    -0.270 OA
ATOM     99  H   UNL A   1      31.700  20.856  21.351  1.00  0.00     0.199 HD
ENDBRANCH  91  93
ENDBRANCH  85  89
ENDBRANCH  81  83
ENDBRANCH  80  81
ENDBRANCH  79  80
ENDBRANCH  78  79
ENDBRANCH  77  78
ENDBRANCH  76  77
ENDBRANCH   1  76
TORSDOF 22
ENDMDL
MODEL 2
REMARK VINA RESULT:     -10.0      6.473     11.863
REMARK SMILES O=C(OCCOCCOCCOC(=O)[C@@H]1CCCC[C@H]1C(=O)N[C@@H]1CONC1=O)c1ccc(-c2c3nc(c(-c4c(F)cc(S(=O)(=O)[O-])cc4F)c4ccc([nH]4)c(-c4c(F)cc(S(=O)(=O)[O-])cc4F)c4nc(c(-c5c(F)cc(S(=O)(=O)[O-])cc5F)c5ccc2[nH]5)C=C4)C=C3)cc1
REMARK SMILES IDX 7 1 6 2 5 3 4 4 3 5 2 6 1 7 30 8 31 9 95 10 32 11 94 12
REMARK SMILES IDX 33 13 34 14 35 15 88 16 36 17 93 18 87 19 89 20 37 21 92 22
REMARK SMILES IDX 86 23 85 24 38 26 72 27 51 28 71 29 52 30 55 31 70 32 90 33
REMARK SMILES IDX 53 34 54 35 69 37 91 38 56 39 39 40 40 41 49 42 41 43 42 44
REMARK SMILES IDX 48 45 50 46 43 47 44 48 45 49 46 50 47 51 73 52 74 53 83 54
REMARK SMILES IDX 75 55 76 56 82 57 84 58 77 59 78 60 79 61 80 62 81 63 57 64
REMARK SMILES IDX 58 65 67 66 59 67 60 68 66 69 68 70 61 71 62 72 63 73 64 74
REMARK SMILES IDX 65 75 8 76 9 77 10 78 11 79 12 80 13 81 14 82 15 83 16 84
REMARK SMILES IDX 20 85 17 86 19 87 18 88 21 89 22 90 23 91 24 93 25 94 28 95
REMARK SMILES IDX 26 96 27 97 29 98
REMARK H PARENT 89 25 55 36 23 92 27 99
REMARK Flexibility Score: inf
ROOT
ATOM      1  C   UNL A   1      40.782  21.363  26.756  1.00  0.00     0.188 C 
ENDROOT
BRANCH   1   2
ATOM      2  O   UNL A   1      41.756  21.061  25.748  1.00  0.00    -0.376 OA
BRANCH   2   3
ATOM      3  C   UNL A   1      43.098  21.341  26.165  1.00  0.00     0.202 C 
BRANCH   3   4
ATOM      4  C   UNL A   1      43.247  22.458  27.213  1.00  0.00     0.261 C 
BRANCH   4   5
ATOM      5  O   UNL A   1      43.402  23.764  26.642  1.00  0.00    -0.460 OA
BRANCH   5   6
ATOM      6  C   UNL A   1      42.506  24.779  26.590  1.00  0.00     0.338 C 
ATOM      7  O   UNL A   1      41.785  24.858  25.594  1.00  0.00    -0.246 OA
BRANCH   6   8
ATOM      8  C   UNL A   1      42.340  25.828  27.650  1.00  0.00     0.060 A 
ATOM      9  C   UNL A   1      43.186  26.919  27.871  1.00  0.00     0.016 A 
ATOM     10  C   UNL A   1      41.183  25.738  28.446  1.00  0.00     0.016 A 
ATOM     11  C   UNL A   1      42.935  27.861  28.869  1.00  0.00     0.010 A 
ATOM     12  C   UNL A   1      40.893  26.713  29.407  1.00  0.00     0.010 A 
ATOM     13  C   UNL A   1      41.775  27.786  29.626  1.00  0.00    -0.014 A 
BRANCH  13  14
ATOM     14  C   UNL A   1      41.532  28.745  30.727  1.00  0.00     0.031 A 
ATOM     15  C   UNL A   1      42.286  28.518  31.991  1.00  0.00     0.074 A 
ATOM     16  C   UNL A   1      40.697  29.797  30.607  1.00  0.00     0.049 A 
ATOM     17  N   UNL A   1      42.178  29.140  33.127  1.00  0.00    -0.248 NA
ATOM     18  C   UNL A   1      43.335  27.481  31.957  1.00  0.00     0.031 C 
ATOM     19  C   UNL A   1      40.092  30.236  29.363  1.00  0.00     0.029 A 
ATOM     20  N   UNL A   1      40.175  30.677  31.518  1.00  0.00    -0.354 N 
ATOM     21  C   UNL A   1      43.171  28.605  33.927  1.00  0.00     0.074 A 
ATOM     22  C   UNL A   1      43.811  27.541  33.189  1.00  0.00     0.031 C 
ATOM     23  C   UNL A   1      39.141  31.151  29.590  1.00  0.00     0.029 A 
ATOM     24  C   UNL A   1      39.135  31.435  31.009  1.00  0.00     0.049 A 
ATOM     25  H   UNL A   1      40.506  30.762  32.442  1.00  0.00     0.167 HD
ATOM     26  C   UNL A   1      43.547  29.024  35.151  1.00  0.00     0.037 A 
ATOM     27  C   UNL A   1      38.279  32.273  31.621  1.00  0.00     0.037 A 
ATOM     28  C   UNL A   1      42.891  30.099  35.839  1.00  0.00     0.049 A 
ATOM     29  C   UNL A   1      38.580  32.583  33.053  1.00  0.00     0.074 A 
ATOM     30  C   UNL A   1      43.180  30.634  37.078  1.00  0.00     0.029 A 
ATOM     31  N   UNL A   1      41.796  30.800  35.340  1.00  0.00    -0.354 N 
ATOM     32  N   UNL A   1      39.528  32.075  33.807  1.00  0.00    -0.248 NA
ATOM     33  C   UNL A   1      37.764  33.610  33.704  1.00  0.00     0.031 C 
ATOM     34  C   UNL A   1      42.230  31.624  37.349  1.00  0.00     0.029 A 
ATOM     35  C   UNL A   1      41.377  31.741  36.261  1.00  0.00     0.049 A 
ATOM     36  H   UNL A   1      41.382  30.647  34.459  1.00  0.00     0.167 HD
ATOM     37  C   UNL A   1      39.467  32.763  35.004  1.00  0.00     0.074 A 
ATOM     38  C   UNL A   1      38.370  33.708  34.881  1.00  0.00     0.031 C 
ATOM     39  C   UNL A   1      40.268  32.649  36.092  1.00  0.00     0.037 A 
BRANCH  26  40
ATOM     40  C   UNL A   1      44.695  28.306  35.783  1.00  0.00     0.058 A 
ATOM     41  C   UNL A   1      44.498  27.208  36.638  1.00  0.00     0.135 A 
ATOM     42  C   UNL A   1      46.007  28.749  35.571  1.00  0.00     0.135 A 
ATOM     43  F   UNL A   1      43.256  26.781  36.918  1.00  0.00    -0.206 F 
ATOM     44  C   UNL A   1      45.565  26.580  37.268  1.00  0.00     0.059 A 
ATOM     45  C   UNL A   1      47.091  28.121  36.173  1.00  0.00     0.059 A 
ATOM     46  F   UNL A   1      46.242  29.818  34.794  1.00  0.00    -0.206 F 
ATOM     47  C   UNL A   1      46.860  27.041  37.025  1.00  0.00     0.060 A 
BRANCH  47  48
ATOM     48  S   UNL A   1      48.238  26.195  37.824  1.00  0.00     0.124 S 
ATOM     49  O   UNL A   1      47.701  24.846  37.981  1.00  0.00    -0.237 OA
ATOM     50  O   UNL A   1      49.304  26.342  36.839  1.00  0.00    -0.237 OA
ATOM     51  O   UNL A   1      48.424  26.945  39.063  1.00  0.00    -0.744 OA
ENDBRANCH  47  48
ENDBRANCH  26  40
BRANCH  27  52
ATOM     52  C   UNL A   1      37.114  32.858  30.898  1.00  0.00     0.058 A 
ATOM     53  C   UNL A   1      37.241  33.943  30.018  1.00  0.00     0.135 A 
ATOM     54  C   UNL A   1      35.825  32.335  31.092  1.00  0.00     0.135 A 
ATOM     55  F   UNL A   1      38.445  34.487  29.792  1.00  0.00    -0.206 F 
ATOM     56  C   UNL A   1      36.132  34.505  29.382  1.00  0.00     0.059 A 
ATOM     57  C   UNL A   1      34.706  32.865  30.453  1.00  0.00     0.059 A 
ATOM     58  F   UNL A   1      35.637  31.301  31.925  1.00  0.00    -0.206 F 
ATOM     59  C   UNL A   1      34.866  33.963  29.611  1.00  0.00     0.060 A 
BRANCH  59  60
ATOM     60  S   UNL A   1      33.433  34.705  28.796  1.00  0.00     0.124 S 
ATOM     61  O   UNL A   1      34.027  35.878  28.163  1.00  0.00    -0.237 OA
ATOM     62  O   UNL A   1      33.005  33.641  27.893  1.00  0.00    -0.237 OA
ATOM     63  O   UNL A   1      32.520  34.983  29.902  1.00  0.00    -0.744 OA
ENDBRANCH  59  60
ENDBRANCH  27  52
BRANCH  39  64
ATOM     64  C   UNL A   1      39.992  33.603  37.207  1.00  0.00     0.058 A 
ATOM     65  C   UNL A   1      40.671  34.825  37.310  1.00  0.00     0.135 A 
ATOM     66  C   UNL A   1      39.017  33.294  38.166  1.00  0.00     0.135 A 
ATOM     67  F   UNL A   1      41.623  35.149  36.420  1.00  0.00    -0.206 F 
ATOM     68  C   UNL A   1      40.406  35.705  38.347  1.00  0.00     0.059 A 
ATOM     69  C   UNL A   1      38.714  34.173  39.195  1.00  0.00     0.059 A 
ATOM     70  F   UNL A   1      38.342  32.135  38.099  1.00  0.00    -0.206 F 
ATOM     71  C   UNL A   1      39.423  35.371  39.283  1.00  0.00     0.060 A 
BRANCH  71  72
ATOM     72  S   UNL A   1      39.061  36.539  40.606  1.00  0.00     0.124 S 
ATOM     73  O   UNL A   1      38.614  37.705  39.851  1.00  0.00    -0.237 OA
ATOM     74  O   UNL A   1      38.028  35.839  41.365  1.00  0.00    -0.237 OA
ATOM     75  O   UNL A   1      40.342  36.684  41.289  1.00  0.00    -0.744 OA
ENDBRANCH  71  72
ENDBRANCH  39  64
ENDBRANCH  13  14
ENDBRANCH   6   8
ENDBRANCH   5   6
ENDBRANCH   4   5
ENDBRANCH   3   4
ENDBRANCH   2   3
ENDBRANCH   1   2
BRANCH   1  76
ATOM     76  C   UNL A   1      39.513  22.003  26.191  1.00  0.00     0.188 C 
BRANCH  76  77
ATOM     77  O   UNL A   1      39.069  23.215  26.801  1.00  0.00    -0.376 OA
BRANCH  77  78
ATOM     78  C   UNL A   1      38.181  24.041  26.053  1.00  0.00     0.202 C 
BRANCH  78  79
ATOM     79  C   UNL A   1      36.711  23.612  25.962  1.00  0.00     0.261 C 
BRANCH  79  80
ATOM     80  O   UNL A   1      36.508  22.485  25.113  1.00  0.00    -0.463 OA
BRANCH  80  81
ATOM     81  C   UNL A   1      35.911  22.693  23.904  1.00  0.00     0.309 C 
ATOM     82  O   UNL A   1      36.490  22.962  22.864  1.00  0.00    -0.252 OA
BRANCH  81  83
ATOM     83  C   UNL A   1      34.405  22.477  24.058  1.00  0.00     0.111 C 
ATOM     84  C   UNL A   1      34.058  21.067  24.514  1.00  0.00     0.016 C 
ATOM     85  C   UNL A   1      33.702  22.959  22.783  1.00  0.00     0.092 C 
ATOM     86  C   UNL A   1      32.574  20.778  24.343  1.00  0.00     0.001 C 
ATOM     87  C   UNL A   1      32.447  22.242  22.290  1.00  0.00     0.014 C 
ATOM     88  C   UNL A   1      32.198  20.861  22.876  1.00  0.00     0.001 C 
BRANCH  85  89
ATOM     89  C   UNL A   1      33.499  24.448  22.983  1.00  0.00     0.224 C 
ATOM     90  O   UNL A   1      34.155  25.242  22.295  1.00  0.00    -0.275 OA
ATOM     91  N   UNL A   1      32.724  25.003  23.943  1.00  0.00    -0.342 N 
ATOM     92  H   UNL A   1      32.934  25.959  24.037  1.00  0.00     0.164 HD
BRANCH  91  93
ATOM     93  C   UNL A   1      31.671  24.623  24.884  1.00  0.00     0.202 C 
ATOM     94  C   UNL A   1      30.379  25.417  24.935  1.00  0.00     0.228 C 
ATOM     95  C   UNL A   1      31.868  24.174  26.307  1.00  0.00     0.268 C 
ATOM     96  O   UNL A   1      29.764  25.165  26.209  1.00  0.00    -0.271 OA
ATOM     97  N   UNL A   1      30.728  24.496  26.991  1.00  0.00    -0.233 N 
ATOM     98  O   UNL A   1      32.791  23.528  26.764  1.00  0.00    -0.270 OA
ATOM     99  H   UNL A   1      30.593  24.281  27.943  1.00  0.00     0.199 HD
ENDBRANCH  91  93
ENDBRANCH  85  89
ENDBRANCH  81  83
ENDBRANCH  80  81
ENDBRANCH  79  80
ENDBRANCH  78  79
ENDBRANCH  77  78
ENDBRANCH  76  77
ENDBRANCH   1  76
TORSDOF 22
ENDMDL
MODEL 3
REMARK VINA RESULT:     -10.0      6.524     11.958
REMARK SMILES O=C(OCCOCCOCCOC(=O)[C@@H]1CCCC[C@H]1C(=O)N[C@@H]1CONC1=O)c1ccc(-c2c3nc(c(-c4c(F)cc(S(=O)(=O)[O-])cc4F)c4ccc([nH]4)c(-c4c(F)cc(S(=O)(=O)[O-])cc4F)c4nc(c(-c5c(F)cc(S(=O)(=O)[O-])cc5F)c5ccc2[nH]5)C=C4)C=C3)cc1
REMARK SMILES IDX 7 1 6 2 5 3 4 4 3 5 2 6 1 7 30 8 31 9 95 10 32 11 94 12
REMARK SMILES IDX 33 13 34 14 35 15 88 16 36 17 93 18 87 19 89 20 37 21 92 22
REMARK SMILES IDX 86 23 85 24 38 26 72 27 51 28 71 29 52 30 55 31 70 32 90 33
REMARK SMILES IDX 53 34 54 35 69 37 91 38 56 39 39 40 40 41 49 42 41 43 42 44
REMARK SMILES IDX 48 45 50 46 43 47 44 48 45 49 46 50 47 51 73 52 74 53 83 54
REMARK SMILES IDX 75 55 76 56 82 57 84 58 77 59 78 60 79 61 80 62 81 63 57 64
REMARK SMILES IDX 58 65 67 66 59 67 60 68 66 69 68 70 61 71 62 72 63 73 64 74
REMARK SMILES IDX 65 75 8 76 9 77 10 78 11 79 12 80 13 81 14 82 15 83 16 84
REMARK SMILES IDX 20 85 17 86 19 87 18 88 21 89 22 90 23 91 24 93 25 94 28 95
REMARK SMILES IDX 26 96 27 97 29 98
REMARK H PARENT 89 25 55 36 23 92 27 99
REMARK Flexibility Score: inf
ROOT
ATOM      1  C   UNL A   1      37.705  22.046  25.330  1.00  0.00     0.188 C 
ENDROOT
BRANCH   1   2
ATOM      2  O   UNL A   1      38.935  21.401  25.686  1.00  0.00    -0.376 OA
BRANCH   2   3
ATOM      3  C   UNL A   1      39.748  22.193  26.562  1.00  0.00     0.202 C 
BRANCH   3   4
ATOM      4  C   UNL A   1      41.267  22.073  26.345  1.00  0.00     0.261 C 
BRANCH   4   5
ATOM      5  O   UNL A   1      42.026  23.072  27.040  1.00  0.00    -0.460 OA
BRANCH   5   6
ATOM      6  C   UNL A   1      42.134  24.395  26.771  1.00  0.00     0.338 C 
ATOM      7  O   UNL A   1      42.374  24.727  25.609  1.00  0.00    -0.246 OA
BRANCH   6   8
ATOM      8  C   UNL A   1      42.002  25.489  27.790  1.00  0.00     0.060 A 
ATOM      9  C   UNL A   1      42.939  26.492  28.051  1.00  0.00     0.016 A 
ATOM     10  C   UNL A   1      40.785  25.544  28.495  1.00  0.00     0.016 A 
ATOM     11  C   UNL A   1      42.717  27.485  29.004  1.00  0.00     0.010 A 
ATOM     12  C   UNL A   1      40.529  26.573  29.408  1.00  0.00     0.010 A 
ATOM     13  C   UNL A   1      41.501  27.555  29.671  1.00  0.00    -0.014 A 
BRANCH  13  14
ATOM     14  C   UNL A   1      41.280  28.568  30.727  1.00  0.00     0.031 A 
ATOM     15  C   UNL A   1      42.047  28.395  31.992  1.00  0.00     0.074 A 
ATOM     16  C   UNL A   1      40.452  29.620  30.567  1.00  0.00     0.049 A 
ATOM     17  N   UNL A   1      41.959  29.071  33.097  1.00  0.00    -0.248 NA
ATOM     18  C   UNL A   1      43.088  27.348  31.995  1.00  0.00     0.031 C 
ATOM     19  C   UNL A   1      39.836  30.004  29.311  1.00  0.00     0.029 A 
ATOM     20  N   UNL A   1      39.949  30.547  31.441  1.00  0.00    -0.354 N 
ATOM     21  C   UNL A   1      42.957  28.566  33.910  1.00  0.00     0.074 A 
ATOM     22  C   UNL A   1      43.579  27.463  33.216  1.00  0.00     0.031 C 
ATOM     23  C   UNL A   1      38.896  30.937  29.505  1.00  0.00     0.029 A 
ATOM     24  C   UNL A   1      38.909  31.289  30.908  1.00  0.00     0.049 A 
ATOM     25  H   UNL A   1      40.292  30.674  32.355  1.00  0.00     0.167 HD
ATOM     26  C   UNL A   1      43.352  29.041  35.108  1.00  0.00     0.037 A 
ATOM     27  C   UNL A   1      38.067  32.163  31.490  1.00  0.00     0.037 A 
ATOM     28  C   UNL A   1      42.713  30.153  35.752  1.00  0.00     0.049 A 
ATOM     29  C   UNL A   1      38.388  32.538  32.902  1.00  0.00     0.074 A 
ATOM     30  C   UNL A   1      43.022  30.744  36.960  1.00  0.00     0.029 A 
ATOM     31  N   UNL A   1      41.618  30.838  35.233  1.00  0.00    -0.354 N 
ATOM     32  N   UNL A   1      39.341  32.059  33.668  1.00  0.00    -0.248 NA
ATOM     33  C   UNL A   1      37.589  33.602  33.512  1.00  0.00     0.031 C 
ATOM     34  C   UNL A   1      42.083  31.754  37.195  1.00  0.00     0.029 A 
ATOM     35  C   UNL A   1      41.218  31.827  36.112  1.00  0.00     0.049 A 
ATOM     36  H   UNL A   1      41.192  30.647  34.366  1.00  0.00     0.167 HD
ATOM     37  C   UNL A   1      39.301  32.804  34.831  1.00  0.00     0.074 A 
ATOM     38  C   UNL A   1      38.210  33.751  34.675  1.00  0.00     0.031 C 
ATOM     39  C   UNL A   1      40.114  32.735  35.913  1.00  0.00     0.037 A 
BRANCH  26  40
ATOM     40  C   UNL A   1      44.502  28.343  35.760  1.00  0.00     0.058 A 
ATOM     41  C   UNL A   1      44.306  27.284  36.664  1.00  0.00     0.135 A 
ATOM     42  C   UNL A   1      45.814  28.769  35.518  1.00  0.00     0.135 A 
ATOM     43  F   UNL A   1      43.064  26.877  36.973  1.00  0.00    -0.206 F 
ATOM     44  C   UNL A   1      45.376  26.677  37.311  1.00  0.00     0.059 A 
ATOM     45  C   UNL A   1      46.900  28.161  36.136  1.00  0.00     0.059 A 
ATOM     46  F   UNL A   1      46.048  29.801  34.693  1.00  0.00    -0.206 F 
ATOM     47  C   UNL A   1      46.670  27.119  37.036  1.00  0.00     0.060 A 
BRANCH  47  48
ATOM     48  S   UNL A   1      48.051  26.300  37.858  1.00  0.00     0.124 S 
ATOM     49  O   UNL A   1      47.721  26.512  39.264  1.00  0.00    -0.237 OA
ATOM     50  O   UNL A   1      47.928  24.928  37.377  1.00  0.00    -0.237 OA
ATOM     51  O   UNL A   1      49.217  27.031  37.370  1.00  0.00    -0.744 OA
ENDBRANCH  47  48
ENDBRANCH  26  40
BRANCH  27  52
ATOM     52  C   UNL A   1      36.899  32.723  30.753  1.00  0.00     0.058 A 
ATOM     53  C   UNL A   1      35.654  32.078  30.710  1.00  0.00     0.135 A 
ATOM     54  C   UNL A   1      37.018  33.937  30.054  1.00  0.00     0.135 A 
ATOM     55  F   UNL A   1      35.478  30.916  31.356  1.00  0.00    -0.206 F 
ATOM     56  C   UNL A   1      34.583  32.597  29.979  1.00  0.00     0.059 A 
ATOM     57  C   UNL A   1      35.958  34.486  29.336  1.00  0.00     0.059 A 
ATOM     58  F   UNL A   1      38.184  34.600  30.053  1.00  0.00    -0.206 F 
ATOM     59  C   UNL A   1      34.747  33.800  29.289  1.00  0.00     0.060 A 
BRANCH  59  60
ATOM     60  S   UNL A   1      33.361  34.457  28.333  1.00  0.00     0.124 S 
ATOM     61  O   UNL A   1      34.039  35.363  27.412  1.00  0.00    -0.237 OA
ATOM     62  O   UNL A   1      32.795  33.250  27.740  1.00  0.00    -0.237 OA
ATOM     63  O   UNL A   1      32.526  35.100  29.345  1.00  0.00    -0.744 OA
ENDBRANCH  59  60
ENDBRANCH  27  52
BRANCH  39  64
ATOM     64  C   UNL A   1      39.860  33.744  36.984  1.00  0.00     0.058 A 
ATOM     65  C   UNL A   1      39.045  33.453  38.087  1.00  0.00     0.135 A 
ATOM     66  C   UNL A   1      40.464  35.008  36.910  1.00  0.00     0.135 A 
ATOM     67  F   UNL A   1      38.437  32.260  38.184  1.00  0.00    -0.206 F 
ATOM     68  C   UNL A   1      38.819  34.396  39.077  1.00  0.00     0.059 A 
ATOM     69  C   UNL A   1      40.276  35.955  37.905  1.00  0.00     0.059 A 
ATOM     70  F   UNL A   1      41.255  35.323  35.871  1.00  0.00    -0.206 F 
ATOM     71  C   UNL A   1      39.441  35.644  38.978  1.00  0.00     0.060 A 
BRANCH  71  72
ATOM     72  S   UNL A   1      39.169  36.848  40.289  1.00  0.00     0.124 S 
ATOM     73  O   UNL A   1      40.506  36.965  40.861  1.00  0.00    -0.237 OA
ATOM     74  O   UNL A   1      38.691  38.013  39.549  1.00  0.00    -0.237 OA
ATOM     75  O   UNL A   1      38.174  36.203  41.140  1.00  0.00    -0.744 OA
ENDBRANCH  71  72
ENDBRANCH  39  64
ENDBRANCH  13  14
ENDBRANCH   6   8
ENDBRANCH   5   6
ENDBRANCH   4   5
ENDBRANCH   3   4
ENDBRANCH   2   3
ENDBRANCH   1   2
BRANCH   1  76
ATOM     76  C   UNL A   1      36.638  21.069  24.834  1.00  0.00     0.188 C 
BRANCH  76  77
ATOM     77  O   UNL A   1      35.496  20.875  25.668  1.00  0.00    -0.376 OA
BRANCH  77  78
ATOM     78  C   UNL A   1      34.228  20.747  25.029  1.00  0.00     0.202 C 
BRANCH  78  79
ATOM     79  C   UNL A   1      33.726  21.932  24.194  1.00  0.00     0.261 C 
BRANCH  79  80
ATOM     80  O   UNL A   1      33.386  23.070  24.984  1.00  0.00    -0.463 OA
BRANCH  80  81
ATOM     81  C   UNL A   1      34.037  24.243  24.730  1.00  0.00     0.309 C 
ATOM     82  O   UNL A   1      35.216  24.350  24.434  1.00  0.00    -0.252 OA
BRANCH  81  83
ATOM     83  C   UNL A   1      33.030  25.390  24.823  1.00  0.00     0.111 C 
ATOM     84  C   UNL A   1      32.271  25.401  26.141  1.00  0.00     0.016 C 
ATOM     85  C   UNL A   1      32.167  25.396  23.555  1.00  0.00     0.092 C 
ATOM     86  C   UNL A   1      31.066  26.327  26.081  1.00  0.00     0.001 C 
ATOM     87  C   UNL A   1      30.702  25.821  23.635  1.00  0.00     0.014 C 
ATOM     88  C   UNL A   1      30.091  25.838  25.027  1.00  0.00     0.001 C 
BRANCH  85  89
ATOM     89  C   UNL A   1      32.964  26.189  22.539  1.00  0.00     0.224 C 
ATOM     90  O   UNL A   1      33.648  25.582  21.704  1.00  0.00    -0.275 OA
ATOM     91  N   UNL A   1      33.082  27.538  22.527  1.00  0.00    -0.342 N 
ATOM     92  H   UNL A   1      33.828  27.807  21.944  1.00  0.00     0.164 HD
BRANCH  91  93
ATOM     93  C   UNL A   1      32.446  28.718  23.111  1.00  0.00     0.202 C 
ATOM     94  C   UNL A   1      32.787  29.138  24.528  1.00  0.00     0.228 C 
ATOM     95  C   UNL A   1      31.004  29.119  22.959  1.00  0.00     0.268 C 
ATOM     96  O   UNL A   1      31.719  29.973  25.003  1.00  0.00    -0.271 OA
ATOM     97  N   UNL A   1      30.673  29.852  24.065  1.00  0.00    -0.233 N 
ATOM     98  O   UNL A   1      30.282  28.957  21.994  1.00  0.00    -0.270 OA
ATOM     99  H   UNL A   1      29.784  30.258  24.195  1.00  0.00     0.199 HD
ENDBRANCH  91  93
ENDBRANCH  85  89
ENDBRANCH  81  83
ENDBRANCH  80  81
ENDBRANCH  79  80
ENDBRANCH  78  79
ENDBRANCH  77  78
ENDBRANCH  76  77
ENDBRANCH   1  76
TORSDOF 22
ENDMDL
