MODEL 1
REMARK VINA RESULT:      -7.8      0.000      0.000
REMARK SMILES CCC1(C(=O)N[C@H]2C=C[C@H](C(=O)OCCOCCOCCOC(=O)c3ccc(-c4c5nc(c(-c6c(F)cc(S(=O)(=O)[O-])cc6F)c6ccc([nH]6)c(-c6c(F)cc(S(=O)(=O)[O-])cc6F)c6nc(c(-c7c(F)cc(S(=O)(=O)[O-])cc7F)c7ccc4[nH]7)C=C6)C=C5)cc3)C2)CC[NH2+]CC1
REMARK SMILES IDX 17 1 16 2 15 3 14 4 13 5 11 6 12 7 10 8 7 9 8 10 91 11 9 12
REMARK SMILES IDX 6 13 4 14 5 15 3 17 92 18 96 19 93 20 95 21 94 22 2 25 1 26
REMARK SMILES IDX 18 27 19 28 20 29 21 30 22 31 23 32 24 33 25 34 26 35 90 36
REMARK SMILES IDX 27 37 89 38 28 39 29 40 30 41 83 42 31 43 88 44 82 45 84 46
REMARK SMILES IDX 32 47 87 48 81 49 80 50 33 52 67 53 46 54 66 55 47 56 50 57
REMARK SMILES IDX 65 58 85 59 48 60 49 61 64 63 86 64 51 65 34 66 35 67 44 68
REMARK SMILES IDX 36 69 37 70 43 71 45 72 38 73 39 74 40 75 41 76 42 77 68 78
REMARK SMILES IDX 69 79 78 80 70 81 71 82 77 83 79 84 72 85 73 86 74 87 75 88
REMARK SMILES IDX 76 89 52 90 53 91 62 92 54 93 55 94 61 95 63 96 56 97 57 98
REMARK SMILES IDX 58 99 59 100 60 101
REMARK H PARENT 6 16 94 23 94 24 84 51 50 62
REMARK Flexibility Score: inf
ROOT
ATOM      1  C   UNL A   1      49.001  26.794  29.223  1.00  0.00     0.188 C 
ENDROOT
BRANCH   1   2
ATOM      2  O   UNL A   1      48.180  27.790  29.825  1.00  0.00    -0.376 OA
BRANCH   2   3
ATOM      3  C   UNL A   1      48.186  27.826  31.250  1.00  0.00     0.202 C 
BRANCH   3   4
ATOM      4  C   UNL A   1      47.054  27.051  31.940  1.00  0.00     0.261 C 
BRANCH   4   5
ATOM      5  O   UNL A   1      46.833  25.715  31.418  1.00  0.00    -0.463 OA
BRANCH   5   6
ATOM      6  C   UNL A   1      45.721  25.082  31.892  1.00  0.00     0.312 C 
ATOM      7  O   UNL A   1      44.863  24.587  31.164  1.00  0.00    -0.252 OA
BRANCH   6   8
ATOM      8  C   UNL A   1      45.574  25.119  33.424  1.00  0.00     0.124 C 
ATOM      9  C   UNL A   1      45.074  23.101  34.860  1.00  0.00     0.106 C 
ATOM     10  C   UNL A   1      43.864  23.875  34.483  1.00  0.00    -0.006 C 
ATOM     11  C   UNL A   1      46.210  24.019  34.299  1.00  0.00     0.048 C 
ATOM     12  C   UNL A   1      44.121  24.964  33.754  1.00  0.00    -0.014 C 
BRANCH   9  13
ATOM     13  N   UNL A   1      45.207  22.898  36.315  1.00  0.00    -0.349 N 
ATOM     14  C   UNL A   1      45.797  22.016  37.180  1.00  0.00     0.227 C 
ATOM     15  O   UNL A   1      45.888  22.453  38.337  1.00  0.00    -0.274 OA
ATOM     16  H   UNL A   1      44.733  23.605  36.810  1.00  0.00     0.164 HD
BRANCH  14  17
ATOM     17  C   UNL A   1      46.277  20.566  36.848  1.00  0.00     0.060 C 
ATOM     18  C   UNL A   1      46.370  19.794  38.204  1.00  0.00     0.078 C 
ATOM     19  C   UNL A   1      45.297  19.923  35.860  1.00  0.00     0.078 C 
ATOM     20  C   UNL A   1      46.033  18.297  38.152  1.00  0.00     0.261 C 
ATOM     21  C   UNL A   1      45.383  18.408  35.891  1.00  0.00     0.261 C 
ATOM     22  N   UNL A   1      44.958  17.985  37.217  1.00  0.00    -0.346 N 
ATOM     23  H   UNL A   1      44.110  18.484  37.485  1.00  0.00     0.346 HD
ATOM     24  H   UNL A   1      44.758  16.985  37.226  1.00  0.00     0.346 HD
BRANCH  17  25
ATOM     25  C   UNL A   1      47.751  20.560  36.247  1.00  0.00     0.014 C 
ATOM     26  C   UNL A   1      47.946  20.674  34.732  1.00  0.00     0.005 C 
ENDBRANCH  17  25
ENDBRANCH  14  17
ENDBRANCH   9  13
ENDBRANCH   6   8
ENDBRANCH   5   6
ENDBRANCH   4   5
ENDBRANCH   3   4
ENDBRANCH   2   3
ENDBRANCH   1   2
BRANCH   1  27
ATOM     27  C   UNL A   1      48.247  25.544  28.765  1.00  0.00     0.188 C 
BRANCH  27  28
ATOM     28  O   UNL A   1      47.061  25.774  28.039  1.00  0.00    -0.376 OA
BRANCH  28  29
ATOM     29  C   UNL A   1      46.377  24.651  27.495  1.00  0.00     0.202 C 
BRANCH  29  30
ATOM     30  C   UNL A   1      45.399  24.689  26.287  1.00  0.00     0.261 C 
BRANCH  30  31
ATOM     31  O   UNL A   1      44.242  25.540  26.348  1.00  0.00    -0.460 OA
BRANCH  31  32
ATOM     32  C   UNL A   1      43.043  24.948  26.516  1.00  0.00     0.338 C 
ATOM     33  O   UNL A   1      42.737  23.814  26.159  1.00  0.00    -0.246 OA
BRANCH  32  34
ATOM     34  C   UNL A   1      42.215  25.778  27.418  1.00  0.00     0.060 A 
ATOM     35  C   UNL A   1      42.435  27.148  27.392  1.00  0.00     0.016 A 
ATOM     36  C   UNL A   1      41.293  25.264  28.332  1.00  0.00     0.016 A 
ATOM     37  C   UNL A   1      41.754  28.002  28.245  1.00  0.00     0.010 A 
ATOM     38  C   UNL A   1      40.673  26.133  29.267  1.00  0.00     0.010 A 
ATOM     39  C   UNL A   1      40.950  27.514  29.276  1.00  0.00    -0.014 A 
BRANCH  39  40
ATOM     40  C   UNL A   1      40.703  28.422  30.455  1.00  0.00     0.031 A 
ATOM     41  C   UNL A   1      41.776  28.550  31.523  1.00  0.00     0.074 A 
ATOM     42  C   UNL A   1      39.708  29.341  30.479  1.00  0.00     0.049 A 
ATOM     43  N   UNL A   1      41.768  29.249  32.632  1.00  0.00    -0.248 NA
ATOM     44  C   UNL A   1      43.030  27.811  31.303  1.00  0.00     0.031 C 
ATOM     45  C   UNL A   1      38.700  29.527  29.434  1.00  0.00     0.029 A 
ATOM     46  N   UNL A   1      39.457  30.376  31.359  1.00  0.00    -0.354 N 
ATOM     47  C   UNL A   1      42.959  28.948  33.285  1.00  0.00     0.074 A 
ATOM     48  C   UNL A   1      43.692  28.046  32.426  1.00  0.00     0.031 C 
ATOM     49  C   UNL A   1      38.027  30.667  29.670  1.00  0.00     0.029 A 
ATOM     50  C   UNL A   1      38.457  31.233  30.948  1.00  0.00     0.049 A 
ATOM     51  H   UNL A   1      39.947  30.492  32.204  1.00  0.00     0.167 HD
ATOM     52  C   UNL A   1      43.397  29.363  34.498  1.00  0.00     0.037 A 
ATOM     53  C   UNL A   1      37.921  32.327  31.534  1.00  0.00     0.037 A 
ATOM     54  C   UNL A   1      42.740  30.342  35.323  1.00  0.00     0.049 A 
ATOM     55  C   UNL A   1      38.389  32.750  32.906  1.00  0.00     0.074 A 
ATOM     56  C   UNL A   1      43.090  30.771  36.593  1.00  0.00     0.029 A 
ATOM     57  N   UNL A   1      41.629  31.077  34.949  1.00  0.00    -0.354 N 
ATOM     58  N   UNL A   1      39.410  32.313  33.603  1.00  0.00    -0.248 NA
ATOM     59  C   UNL A   1      37.595  33.783  33.593  1.00  0.00     0.031 C 
ATOM     60  C   UNL A   1      42.164  31.735  37.004  1.00  0.00     0.029 A 
ATOM     61  C   UNL A   1      41.268  31.941  35.971  1.00  0.00     0.049 A 
ATOM     62  H   UNL A   1      41.164  30.998  34.086  1.00  0.00     0.167 HD
ATOM     63  C   UNL A   1      39.364  33.001  34.814  1.00  0.00     0.074 A 
ATOM     64  C   UNL A   1      38.254  33.924  34.734  1.00  0.00     0.031 C 
ATOM     65  C   UNL A   1      40.156  32.855  35.906  1.00  0.00     0.037 A 
BRANCH  52  66
ATOM     66  C   UNL A   1      44.604  28.674  35.072  1.00  0.00     0.058 A 
ATOM     67  C   UNL A   1      45.917  29.077  34.795  1.00  0.00     0.135 A 
ATOM     68  C   UNL A   1      44.417  27.611  35.972  1.00  0.00     0.135 A 
ATOM     69  F   UNL A   1      46.151  30.070  33.921  1.00  0.00    -0.206 F 
ATOM     70  C   UNL A   1      47.006  28.440  35.384  1.00  0.00     0.059 A 
ATOM     71  C   UNL A   1      45.487  26.979  36.592  1.00  0.00     0.059 A 
ATOM     72  F   UNL A   1      43.177  27.187  36.266  1.00  0.00    -0.206 F 
ATOM     73  C   UNL A   1      46.780  27.394  36.284  1.00  0.00     0.060 A 
BRANCH  73  74
ATOM     74  S   UNL A   1      48.198  26.590  37.059  1.00  0.00     0.124 S 
ATOM     75  O   UNL A   1      48.275  25.344  36.303  1.00  0.00    -0.237 OA
ATOM     76  O   UNL A   1      49.271  27.548  36.818  1.00  0.00    -0.237 OA
ATOM     77  O   UNL A   1      47.789  26.451  38.454  1.00  0.00    -0.744 OA
ENDBRANCH  73  74
ENDBRANCH  52  66
BRANCH  53  78
ATOM     78  C   UNL A   1      36.797  33.068  30.883  1.00  0.00     0.058 A 
ATOM     79  C   UNL A   1      35.457  32.810  31.215  1.00  0.00     0.135 A 
ATOM     80  C   UNL A   1      37.042  34.008  29.869  1.00  0.00     0.135 A 
ATOM     81  F   UNL A   1      35.161  31.900  32.155  1.00  0.00    -0.206 F 
ATOM     82  C   UNL A   1      34.404  33.449  30.562  1.00  0.00     0.059 A 
ATOM     83  C   UNL A   1      36.010  34.688  29.231  1.00  0.00     0.059 A 
ATOM     84  F   UNL A   1      38.301  34.284  29.496  1.00  0.00    -0.206 F 
ATOM     85  C   UNL A   1      34.693  34.390  29.572  1.00  0.00     0.060 A 
BRANCH  85  86
ATOM     86  S   UNL A   1      33.337  35.256  28.751  1.00  0.00     0.124 S 
ATOM     87  O   UNL A   1      34.058  36.087  27.795  1.00  0.00    -0.237 OA
ATOM     88  O   UNL A   1      32.562  34.157  28.186  1.00  0.00    -0.237 OA
ATOM     89  O   UNL A   1      32.690  35.970  29.848  1.00  0.00    -0.744 OA
ENDBRANCH  85  86
ENDBRANCH  53  78
BRANCH  65  90
ATOM     90  C   UNL A   1      39.847  33.694  37.118  1.00  0.00     0.058 A 
ATOM     91  C   UNL A   1      40.390  34.981  37.273  1.00  0.00     0.135 A 
ATOM     92  C   UNL A   1      38.974  33.232  38.116  1.00  0.00     0.135 A 
ATOM     93  F   UNL A   1      41.230  35.475  36.349  1.00  0.00    -0.206 F 
ATOM     94  C   UNL A   1      40.105  35.765  38.386  1.00  0.00     0.059 A 
ATOM     95  C   UNL A   1      38.653  34.011  39.227  1.00  0.00     0.059 A 
ATOM     96  F   UNL A   1      38.413  32.017  38.015  1.00  0.00    -0.206 F 
ATOM     97  C   UNL A   1      39.237  35.270  39.362  1.00  0.00     0.060 A 
BRANCH  97  98
ATOM     98  S   UNL A   1      38.871  36.301  40.799  1.00  0.00     0.124 S 
ATOM     99  O   UNL A   1      37.807  35.538  41.443  1.00  0.00    -0.237 OA
ATOM    100  O   UNL A   1      40.149  36.324  41.503  1.00  0.00    -0.237 OA
ATOM    101  O   UNL A   1      38.463  37.572  40.210  1.00  0.00    -0.744 OA
ENDBRANCH  97  98
ENDBRANCH  65  90
ENDBRANCH  39  40
ENDBRANCH  32  34
ENDBRANCH  31  32
ENDBRANCH  30  31
ENDBRANCH  29  30
ENDBRANCH  28  29
ENDBRANCH  27  28
ENDBRANCH   1  27
TORSDOF 23
ENDMDL
MODEL 2
REMARK VINA RESULT:      -7.6      5.284     12.382
REMARK SMILES CCC1(C(=O)N[C@H]2C=C[C@H](C(=O)OCCOCCOCCOC(=O)c3ccc(-c4c5nc(c(-c6c(F)cc(S(=O)(=O)[O-])cc6F)c6ccc([nH]6)c(-c6c(F)cc(S(=O)(=O)[O-])cc6F)c6nc(c(-c7c(F)cc(S(=O)(=O)[O-])cc7F)c7ccc4[nH]7)C=C6)C=C5)cc3)C2)CC[NH2+]CC1
REMARK SMILES IDX 17 1 16 2 15 3 14 4 13 5 11 6 12 7 10 8 7 9 8 10 91 11 9 12
REMARK SMILES IDX 6 13 4 14 5 15 3 17 92 18 96 19 93 20 95 21 94 22 2 25 1 26
REMARK SMILES IDX 18 27 19 28 20 29 21 30 22 31 23 32 24 33 25 34 26 35 90 36
REMARK SMILES IDX 27 37 89 38 28 39 29 40 30 41 83 42 31 43 88 44 82 45 84 46
REMARK SMILES IDX 32 47 87 48 81 49 80 50 33 52 67 53 46 54 66 55 47 56 50 57
REMARK SMILES IDX 65 58 85 59 48 60 49 61 64 63 86 64 51 65 34 66 35 67 44 68
REMARK SMILES IDX 36 69 37 70 43 71 45 72 38 73 39 74 40 75 41 76 42 77 68 78
REMARK SMILES IDX 69 79 78 80 70 81 71 82 77 83 79 84 72 85 73 86 74 87 75 88
REMARK SMILES IDX 76 89 52 90 53 91 62 92 54 93 55 94 61 95 63 96 56 97 57 98
REMARK SMILES IDX 58 99 59 100 60 101
REMARK H PARENT 6 16 94 23 94 24 84 51 50 62
REMARK Flexibility Score: inf
ROOT
ATOM      1  C   UNL A   1      37.358  34.339  32.688  1.00  0.00     0.188 C 
ENDROOT
BRANCH   1   2
ATOM      2  O   UNL A   1      38.132  34.659  31.535  1.00  0.00    -0.376 OA
BRANCH   2   3
ATOM      3  C   UNL A   1      38.871  33.583  30.960  1.00  0.00     0.202 C 
BRANCH   3   4
ATOM      4  C   UNL A   1      39.820  32.845  31.915  1.00  0.00     0.261 C 
BRANCH   4   5
ATOM      5  O   UNL A   1      40.681  33.710  32.699  1.00  0.00    -0.463 OA
BRANCH   5   6
ATOM      6  C   UNL A   1      41.848  34.073  32.094  1.00  0.00     0.312 C 
ATOM      7  O   UNL A   1      41.905  34.861  31.152  1.00  0.00    -0.252 OA
BRANCH   6   8
ATOM      8  C   UNL A   1      43.093  33.340  32.625  1.00  0.00     0.124 C 
ATOM      9  C   UNL A   1      43.091  31.777  34.611  1.00  0.00     0.106 C 
ATOM     10  C   UNL A   1      43.468  33.172  34.955  1.00  0.00    -0.006 C 
ATOM     11  C   UNL A   1      43.009  31.859  33.051  1.00  0.00     0.048 C 
ATOM     12  C   UNL A   1      43.508  33.997  33.906  1.00  0.00    -0.014 C 
BRANCH   9  13
ATOM     13  N   UNL A   1      44.083  30.778  35.052  1.00  0.00    -0.349 N 
ATOM     14  C   UNL A   1      44.375  29.458  34.843  1.00  0.00     0.227 C 
ATOM     15  O   UNL A   1      45.518  29.146  35.208  1.00  0.00    -0.274 OA
ATOM     16  H   UNL A   1      44.725  31.181  35.681  1.00  0.00     0.164 HD
BRANCH  14  17
ATOM     17  C   UNL A   1      43.408  28.369  34.273  1.00  0.00     0.060 C 
ATOM     18  C   UNL A   1      44.280  27.119  33.929  1.00  0.00     0.078 C 
ATOM     19  C   UNL A   1      42.316  28.072  35.306  1.00  0.00     0.078 C 
ATOM     20  C   UNL A   1      43.606  25.753  34.124  1.00  0.00     0.261 C 
ATOM     21  C   UNL A   1      41.676  26.716  35.070  1.00  0.00     0.261 C 
ATOM     22  N   UNL A   1      42.713  25.715  35.276  1.00  0.00    -0.346 N 
ATOM     23  H   UNL A   1      43.234  25.927  36.126  1.00  0.00     0.346 HD
ATOM     24  H   UNL A   1      42.299  24.788  35.375  1.00  0.00     0.346 HD
BRANCH  17  25
ATOM     25  C   UNL A   1      42.755  28.831  32.896  1.00  0.00     0.014 C 
ATOM     26  C   UNL A   1      41.231  28.823  32.746  1.00  0.00     0.005 C 
ENDBRANCH  17  25
ENDBRANCH  14  17
ENDBRANCH   9  13
ENDBRANCH   6   8
ENDBRANCH   5   6
ENDBRANCH   4   5
ENDBRANCH   3   4
ENDBRANCH   2   3
ENDBRANCH   1   2
BRANCH   1  27
ATOM     27  C   UNL A   1      35.942  34.916  32.679  1.00  0.00     0.188 C 
BRANCH  27  28
ATOM     28  O   UNL A   1      34.914  34.017  32.328  1.00  0.00    -0.376 OA
BRANCH  28  29
ATOM     29  C   UNL A   1      34.548  33.916  30.957  1.00  0.00     0.202 C 
BRANCH  29  30
ATOM     30  C   UNL A   1      35.345  33.149  29.865  1.00  0.00     0.261 C 
BRANCH  30  31
ATOM     31  O   UNL A   1      35.342  31.711  29.875  1.00  0.00    -0.460 OA
BRANCH  31  32
ATOM     32  C   UNL A   1      36.170  31.094  30.742  1.00  0.00     0.338 C 
ATOM     33  O   UNL A   1      36.002  30.985  31.954  1.00  0.00    -0.246 OA
BRANCH  32  34
ATOM     34  C   UNL A   1      37.197  30.347  29.984  1.00  0.00     0.060 A 
ATOM     35  C   UNL A   1      38.084  29.575  30.721  1.00  0.00     0.016 A 
ATOM     36  C   UNL A   1      37.369  30.429  28.601  1.00  0.00     0.016 A 
ATOM     37  C   UNL A   1      39.121  28.889  30.108  1.00  0.00     0.010 A 
ATOM     38  C   UNL A   1      38.488  29.805  27.995  1.00  0.00     0.010 A 
ATOM     39  C   UNL A   1      39.421  29.075  28.758  1.00  0.00    -0.014 A 
BRANCH  39  40
ATOM     40  C   UNL A   1      40.825  28.758  28.306  1.00  0.00     0.031 A 
ATOM     41  C   UNL A   1      41.938  29.744  28.618  1.00  0.00     0.074 A 
ATOM     42  C   UNL A   1      41.202  27.525  27.890  1.00  0.00     0.049 A 
ATOM     43  N   UNL A   1      43.210  29.689  28.305  1.00  0.00    -0.248 NA
ATOM     44  C   UNL A   1      41.577  30.935  29.404  1.00  0.00     0.031 C 
ATOM     45  C   UNL A   1      40.313  26.373  27.737  1.00  0.00     0.029 A 
ATOM     46  N   UNL A   1      42.456  27.001  27.641  1.00  0.00    -0.354 N 
ATOM     47  C   UNL A   1      43.770  30.880  28.757  1.00  0.00     0.074 A 
ATOM     48  C   UNL A   1      42.713  31.616  29.414  1.00  0.00     0.031 C 
ATOM     49  C   UNL A   1      41.053  25.268  27.542  1.00  0.00     0.029 A 
ATOM     50  C   UNL A   1      42.463  25.639  27.423  1.00  0.00     0.049 A 
ATOM     51  H   UNL A   1      43.271  27.552  27.620  1.00  0.00     0.167 HD
ATOM     52  C   UNL A   1      45.038  31.336  28.620  1.00  0.00     0.037 A 
ATOM     53  C   UNL A   1      43.470  24.786  27.132  1.00  0.00     0.037 A 
ATOM     54  C   UNL A   1      46.131  30.580  28.068  1.00  0.00     0.049 A 
ATOM     55  C   UNL A   1      44.871  25.316  26.938  1.00  0.00     0.074 A 
ATOM     56  C   UNL A   1      47.434  30.994  27.839  1.00  0.00     0.029 A 
ATOM     57  N   UNL A   1      46.068  29.248  27.699  1.00  0.00    -0.354 N 
ATOM     58  N   UNL A   1      45.345  26.514  27.185  1.00  0.00    -0.248 NA
ATOM     59  C   UNL A   1      45.864  24.386  26.375  1.00  0.00     0.031 C 
ATOM     60  C   UNL A   1      48.147  29.922  27.291  1.00  0.00     0.029 A 
ATOM     61  C   UNL A   1      47.302  28.829  27.225  1.00  0.00     0.049 A 
ATOM     62  H   UNL A   1      45.267  28.681  27.763  1.00  0.00     0.167 HD
ATOM     63  C   UNL A   1      46.679  26.484  26.785  1.00  0.00     0.074 A 
ATOM     64  C   UNL A   1      46.956  25.137  26.337  1.00  0.00     0.031 C 
ATOM     65  C   UNL A   1      47.584  27.494  26.765  1.00  0.00     0.037 A 
BRANCH  52  66
ATOM     66  C   UNL A   1      45.301  32.772  28.975  1.00  0.00     0.058 A 
ATOM     67  C   UNL A   1      45.101  33.830  28.079  1.00  0.00     0.135 A 
ATOM     68  C   UNL A   1      45.716  33.085  30.281  1.00  0.00     0.135 A 
ATOM     69  F   UNL A   1      44.732  33.583  26.812  1.00  0.00    -0.206 F 
ATOM     70  C   UNL A   1      45.315  35.152  28.464  1.00  0.00     0.059 A 
ATOM     71  C   UNL A   1      45.909  34.397  30.695  1.00  0.00     0.059 A 
ATOM     72  F   UNL A   1      45.924  32.104  31.175  1.00  0.00    -0.206 F 
ATOM     73  C   UNL A   1      45.715  35.424  29.775  1.00  0.00     0.060 A 
BRANCH  73  74
ATOM     74  S   UNL A   1      45.966  37.141  30.271  1.00  0.00     0.124 S 
ATOM     75  O   UNL A   1      47.339  37.373  29.831  1.00  0.00    -0.237 OA
ATOM     76  O   UNL A   1      44.931  37.839  29.516  1.00  0.00    -0.237 OA
ATOM     77  O   UNL A   1      45.770  37.111  31.717  1.00  0.00    -0.744 OA
ENDBRANCH  73  74
ENDBRANCH  52  66
BRANCH  53  78
ATOM     78  C   UNL A   1      43.198  23.335  26.899  1.00  0.00     0.058 A 
ATOM     79  C   UNL A   1      43.144  22.795  25.604  1.00  0.00     0.135 A 
ATOM     80  C   UNL A   1      42.925  22.469  27.972  1.00  0.00     0.135 A 
ATOM     81  F   UNL A   1      43.365  23.581  24.540  1.00  0.00    -0.206 F 
ATOM     82  C   UNL A   1      42.822  21.457  25.381  1.00  0.00     0.059 A 
ATOM     83  C   UNL A   1      42.642  21.122  27.777  1.00  0.00     0.059 A 
ATOM     84  F   UNL A   1      42.945  22.931  29.232  1.00  0.00    -0.206 F 
ATOM     85  C   UNL A   1      42.575  20.628  26.476  1.00  0.00     0.060 A 
BRANCH  85  86
ATOM     86  S   UNL A   1      42.202  18.883  26.199  1.00  0.00     0.124 S 
ATOM     87  O   UNL A   1      40.801  18.943  25.801  1.00  0.00    -0.237 OA
ATOM     88  O   UNL A   1      43.150  18.523  25.150  1.00  0.00    -0.237 OA
ATOM     89  O   UNL A   1      42.464  18.279  27.502  1.00  0.00    -0.744 OA
ENDBRANCH  85  86
ENDBRANCH  53  78
BRANCH  65  90
ATOM     90  C   UNL A   1      48.958  27.199  26.222  1.00  0.00     0.058 A 
ATOM     91  C   UNL A   1      49.246  27.334  24.853  1.00  0.00     0.135 A 
ATOM     92  C   UNL A   1      50.009  26.820  27.073  1.00  0.00     0.135 A 
ATOM     93  F   UNL A   1      48.280  27.695  23.992  1.00  0.00    -0.206 F 
ATOM     94  C   UNL A   1      50.513  27.070  24.344  1.00  0.00     0.059 A 
ATOM     95  C   UNL A   1      51.293  26.576  26.588  1.00  0.00     0.059 A 
ATOM     96  F   UNL A   1      49.797  26.691  28.392  1.00  0.00    -0.206 F 
ATOM     97  C   UNL A   1      51.531  26.687  25.219  1.00  0.00     0.060 A 
BRANCH  97  98
ATOM     98  S   UNL A   1      53.174  26.355  24.546  1.00  0.00     0.124 S 
ATOM     99  O   UNL A   1      53.911  27.540  24.973  1.00  0.00    -0.237 OA
ATOM    100  O   UNL A   1      53.539  25.108  25.209  1.00  0.00    -0.237 OA
ATOM    101  O   UNL A   1      52.937  26.248  23.110  1.00  0.00    -0.744 OA
ENDBRANCH  97  98
ENDBRANCH  65  90
ENDBRANCH  39  40
ENDBRANCH  32  34
ENDBRANCH  31  32
ENDBRANCH  30  31
ENDBRANCH  29  30
ENDBRANCH  28  29
ENDBRANCH  27  28
ENDBRANCH   1  27
TORSDOF 23
ENDMDL
MODEL 3
REMARK VINA RESULT:      -7.3      4.992     11.983
REMARK SMILES CCC1(C(=O)N[C@H]2C=C[C@H](C(=O)OCCOCCOCCOC(=O)c3ccc(-c4c5nc(c(-c6c(F)cc(S(=O)(=O)[O-])cc6F)c6ccc([nH]6)c(-c6c(F)cc(S(=O)(=O)[O-])cc6F)c6nc(c(-c7c(F)cc(S(=O)(=O)[O-])cc7F)c7ccc4[nH]7)C=C6)C=C5)cc3)C2)CC[NH2+]CC1
REMARK SMILES IDX 17 1 16 2 15 3 14 4 13 5 11 6 12 7 10 8 7 9 8 10 91 11 9 12
REMARK SMILES IDX 6 13 4 14 5 15 3 17 92 18 96 19 93 20 95 21 94 22 2 25 1 26
REMARK SMILES IDX 18 27 19 28 20 29 21 30 22 31 23 32 24 33 25 34 26 35 90 36
REMARK SMILES IDX 27 37 89 38 28 39 29 40 30 41 83 42 31 43 88 44 82 45 84 46
REMARK SMILES IDX 32 47 87 48 81 49 80 50 33 52 67 53 46 54 66 55 47 56 50 57
REMARK SMILES IDX 65 58 85 59 48 60 49 61 64 63 86 64 51 65 34 66 35 67 44 68
REMARK SMILES IDX 36 69 37 70 43 71 45 72 38 73 39 74 40 75 41 76 42 77 68 78
REMARK SMILES IDX 69 79 78 80 70 81 71 82 77 83 79 84 72 85 73 86 74 87 75 88
REMARK SMILES IDX 76 89 52 90 53 91 62 92 54 93 55 94 61 95 63 96 56 97 57 98
REMARK SMILES IDX 58 99 59 100 60 101
REMARK H PARENT 6 16 94 23 94 24 84 51 50 62
REMARK Flexibility Score: inf
ROOT
ATOM      1  C   UNL A   1      37.234  33.009  32.488  1.00  0.00     0.188 C 
ENDROOT
BRANCH   1   2
ATOM      2  O   UNL A   1      38.197  33.234  31.462  1.00  0.00    -0.376 OA
BRANCH   2   3
ATOM      3  C   UNL A   1      39.118  32.172  31.225  1.00  0.00     0.202 C 
BRANCH   3   4
ATOM      4  C   UNL A   1      39.751  31.550  32.479  1.00  0.00     0.261 C 
BRANCH   4   5
ATOM      5  O   UNL A   1      40.333  32.508  33.399  1.00  0.00    -0.463 OA
BRANCH   5   6
ATOM      6  C   UNL A   1      41.654  32.784  33.194  1.00  0.00     0.312 C 
ATOM      7  O   UNL A   1      42.069  33.433  32.236  1.00  0.00    -0.252 OA
BRANCH   6   8
ATOM      8  C   UNL A   1      42.603  32.132  34.216  1.00  0.00     0.124 C 
ATOM      9  C   UNL A   1      42.223  29.870  35.278  1.00  0.00     0.106 C 
ATOM     10  C   UNL A   1      41.725  31.002  36.100  1.00  0.00    -0.006 C 
ATOM     11  C   UNL A   1      42.948  30.631  34.119  1.00  0.00     0.048 C 
ATOM     12  C   UNL A   1      41.954  32.204  35.564  1.00  0.00    -0.014 C 
BRANCH   9  13
ATOM     13  N   UNL A   1      43.146  28.981  36.007  1.00  0.00    -0.349 N 
ATOM     14  C   UNL A   1      43.785  27.785  35.819  1.00  0.00     0.227 C 
ATOM     15  O   UNL A   1      44.720  27.600  36.611  1.00  0.00    -0.274 OA
ATOM     16  H   UNL A   1      43.371  29.360  36.888  1.00  0.00     0.164 HD
BRANCH  14  17
ATOM     17  C   UNL A   1      43.402  26.678  34.783  1.00  0.00     0.060 C 
ATOM     18  C   UNL A   1      43.672  27.269  33.362  1.00  0.00     0.078 C 
ATOM     19  C   UNL A   1      44.219  25.413  35.071  1.00  0.00     0.078 C 
ATOM     20  C   UNL A   1      44.147  26.270  32.296  1.00  0.00     0.261 C 
ATOM     21  C   UNL A   1      44.301  24.510  33.854  1.00  0.00     0.261 C 
ATOM     22  N   UNL A   1      45.032  25.242  32.830  1.00  0.00    -0.346 N 
ATOM     23  H   UNL A   1      45.860  25.675  33.239  1.00  0.00     0.346 HD
ATOM     24  H   UNL A   1      45.334  24.611  32.087  1.00  0.00     0.346 HD
BRANCH  17  25
ATOM     25  C   UNL A   1      41.845  26.351  34.825  1.00  0.00     0.014 C 
ATOM     26  C   UNL A   1      41.297  25.436  35.925  1.00  0.00     0.005 C 
ENDBRANCH  17  25
ENDBRANCH  14  17
ENDBRANCH   9  13
ENDBRANCH   6   8
ENDBRANCH   5   6
ENDBRANCH   4   5
ENDBRANCH   3   4
ENDBRANCH   2   3
ENDBRANCH   1   2
BRANCH   1  27
ATOM     27  C   UNL A   1      35.842  33.562  32.181  1.00  0.00     0.188 C 
BRANCH  27  28
ATOM     28  O   UNL A   1      34.915  32.638  31.656  1.00  0.00    -0.376 OA
BRANCH  28  29
ATOM     29  C   UNL A   1      34.719  32.608  30.248  1.00  0.00     0.202 C 
BRANCH  29  30
ATOM     30  C   UNL A   1      35.712  32.010  29.211  1.00  0.00     0.261 C 
BRANCH  30  31
ATOM     31  O   UNL A   1      35.752  30.586  29.019  1.00  0.00    -0.460 OA
BRANCH  31  32
ATOM     32  C   UNL A   1      36.448  29.857  29.914  1.00  0.00     0.338 C 
ATOM     33  O   UNL A   1      36.056  29.501  31.022  1.00  0.00    -0.246 OA
BRANCH  32  34
ATOM     34  C   UNL A   1      37.672  29.335  29.268  1.00  0.00     0.060 A 
ATOM     35  C   UNL A   1      38.464  28.479  30.021  1.00  0.00     0.016 A 
ATOM     36  C   UNL A   1      38.107  29.704  27.994  1.00  0.00     0.016 A 
ATOM     37  C   UNL A   1      39.662  27.988  29.527  1.00  0.00     0.010 A 
ATOM     38  C   UNL A   1      39.378  29.276  27.536  1.00  0.00     0.010 A 
ATOM     39  C   UNL A   1      40.206  28.459  28.332  1.00  0.00    -0.014 A 
BRANCH  39  40
ATOM     40  C   UNL A   1      41.695  28.316  28.140  1.00  0.00     0.031 A 
ATOM     41  C   UNL A   1      42.627  29.254  28.888  1.00  0.00     0.074 A 
ATOM     42  C   UNL A   1      42.260  27.228  27.564  1.00  0.00     0.049 A 
ATOM     43  N   UNL A   1      43.936  29.330  28.855  1.00  0.00    -0.248 NA
ATOM     44  C   UNL A   1      42.006  30.220  29.810  1.00  0.00     0.031 C 
ATOM     45  C   UNL A   1      41.531  26.101  26.981  1.00  0.00     0.029 A 
ATOM     46  N   UNL A   1      43.582  26.831  27.489  1.00  0.00    -0.354 N 
ATOM     47  C   UNL A   1      44.280  30.411  29.659  1.00  0.00     0.074 A 
ATOM     48  C   UNL A   1      43.049  30.930  30.211  1.00  0.00     0.031 C 
ATOM     49  C   UNL A   1      42.394  25.104  26.722  1.00  0.00     0.029 A 
ATOM     50  C   UNL A   1      43.758  25.555  26.994  1.00  0.00     0.049 A 
ATOM     51  H   UNL A   1      44.331  27.408  27.763  1.00  0.00     0.167 HD
ATOM     52  C   UNL A   1      45.502  30.942  29.901  1.00  0.00     0.037 A 
ATOM     53  C   UNL A   1      44.878  24.837  26.755  1.00  0.00     0.037 A 
ATOM     54  C   UNL A   1      46.749  30.382  29.453  1.00  0.00     0.049 A 
ATOM     55  C   UNL A   1      46.234  25.459  26.988  1.00  0.00     0.074 A 
ATOM     56  C   UNL A   1      48.027  30.895  29.607  1.00  0.00     0.029 A 
ATOM     57  N   UNL A   1      46.885  29.166  28.806  1.00  0.00    -0.354 N 
ATOM     58  N   UNL A   1      46.536  26.590  27.580  1.00  0.00    -0.248 NA
ATOM     59  C   UNL A   1      47.402  24.726  26.470  1.00  0.00     0.031 C 
ATOM     60  C   UNL A   1      48.932  30.008  29.013  1.00  0.00     0.029 A 
ATOM     61  C   UNL A   1      48.222  28.921  28.535  1.00  0.00     0.049 A 
ATOM     62  H   UNL A   1      46.143  28.564  28.573  1.00  0.00     0.167 HD
ATOM     63  C   UNL A   1      47.921  26.711  27.484  1.00  0.00     0.074 A 
ATOM     64  C   UNL A   1      48.405  25.515  26.831  1.00  0.00     0.031 C 
ATOM     65  C   UNL A   1      48.714  27.739  27.875  1.00  0.00     0.037 A 
BRANCH  52  66
ATOM     66  C   UNL A   1      45.554  32.271  30.602  1.00  0.00     0.058 A 
ATOM     67  C   UNL A   1      45.409  33.494  29.932  1.00  0.00     0.135 A 
ATOM     68  C   UNL A   1      45.701  32.298  31.999  1.00  0.00     0.135 A 
ATOM     69  F   UNL A   1      45.293  33.524  28.595  1.00  0.00    -0.206 F 
ATOM     70  C   UNL A   1      45.419  34.701  30.627  1.00  0.00     0.059 A 
ATOM     71  C   UNL A   1      45.687  33.489  32.715  1.00  0.00     0.059 A 
ATOM     72  F   UNL A   1      45.847  31.152  32.684  1.00  0.00    -0.206 F 
ATOM     73  C   UNL A   1      45.555  34.687  32.018  1.00  0.00     0.060 A 
BRANCH  73  74
ATOM     74  S   UNL A   1      45.543  36.256  32.910  1.00  0.00     0.124 S 
ATOM     75  O   UNL A   1      46.555  37.014  32.180  1.00  0.00    -0.237 OA
ATOM     76  O   UNL A   1      44.166  36.704  32.738  1.00  0.00    -0.237 OA
ATOM     77  O   UNL A   1      45.909  35.876  34.272  1.00  0.00    -0.744 OA
ENDBRANCH  73  74
ENDBRANCH  52  66
BRANCH  53  78
ATOM     78  C   UNL A   1      44.793  23.465  26.167  1.00  0.00     0.058 A 
ATOM     79  C   UNL A   1      45.023  23.235  24.801  1.00  0.00     0.135 A 
ATOM     80  C   UNL A   1      44.419  22.363  26.953  1.00  0.00     0.135 A 
ATOM     81  F   UNL A   1      45.353  24.255  23.995  1.00  0.00    -0.206 F 
ATOM     82  C   UNL A   1      44.877  21.968  24.236  1.00  0.00     0.059 A 
ATOM     83  C   UNL A   1      44.307  21.083  26.422  1.00  0.00     0.059 A 
ATOM     84  F   UNL A   1      44.170  22.523  28.263  1.00  0.00    -0.206 F 
ATOM     85  C   UNL A   1      44.521  20.898  25.058  1.00  0.00     0.060 A 
BRANCH  85  86
ATOM     86  S   UNL A   1      44.374  19.245  24.344  1.00  0.00     0.124 S 
ATOM     87  O   UNL A   1      44.534  19.526  22.923  1.00  0.00    -0.237 OA
ATOM     88  O   UNL A   1      45.473  18.530  24.983  1.00  0.00    -0.237 OA
ATOM     89  O   UNL A   1      43.039  18.825  24.759  1.00  0.00    -0.744 OA
ENDBRANCH  85  86
ENDBRANCH  53  78
BRANCH  65  90
ATOM     90  C   UNL A   1      50.190  27.637  27.594  1.00  0.00     0.058 A 
ATOM     91  C   UNL A   1      50.730  28.054  26.365  1.00  0.00     0.135 A 
ATOM     92  C   UNL A   1      51.083  27.160  28.568  1.00  0.00     0.135 A 
ATOM     93  F   UNL A   1      49.924  28.521  25.398  1.00  0.00    -0.206 F 
ATOM     94  C   UNL A   1      52.093  27.969  26.100  1.00  0.00     0.059 A 
ATOM     95  C   UNL A   1      52.455  27.091  28.333  1.00  0.00     0.059 A 
ATOM     96  F   UNL A   1      50.627  26.763  29.766  1.00  0.00    -0.206 F 
ATOM     97  C   UNL A   1      52.949  27.483  27.090  1.00  0.00     0.060 A 
BRANCH  97  98
ATOM     98  S   UNL A   1      54.717  27.385  26.735  1.00  0.00     0.124 S 
ATOM     99  O   UNL A   1      55.109  26.215  27.514  1.00  0.00    -0.237 OA
ATOM    100  O   UNL A   1      54.737  27.216  25.285  1.00  0.00    -0.237 OA
ATOM    101  O   UNL A   1      55.232  28.662  27.218  1.00  0.00    -0.744 OA
ENDBRANCH  97  98
ENDBRANCH  65  90
ENDBRANCH  39  40
ENDBRANCH  32  34
ENDBRANCH  31  32
ENDBRANCH  30  31
ENDBRANCH  29  30
ENDBRANCH  28  29
ENDBRANCH  27  28
ENDBRANCH   1  27
TORSDOF 23
ENDMDL
