MODEL 1
REMARK VINA RESULT:     -12.9      0.000      0.000
REMARK SMILES CC(=O)Nc1cnc(N2CC=C(c3ccccc3C)CC2)c(C(=O)OCCOCCOCCOC(=O)c2ccc(-c3c4nc(c(-c5c(F)cc(S(=O)(=O)[O-])cc5F)c5ccc([nH]5)c(-c5c(F)cc(S(=O)(=O)[O-])cc5F)c5nc(c(-c6c(F)cc(S(=O)(=O)[O-])cc6F)c6ccc3[nH]6)C=C5)C=C4)cc2)c1
REMARK SMILES IDX 30 1 29 2 28 3 27 4 26 5 25 6 23 7 24 8 22 9 5 10 6 11
REMARK SMILES IDX 103 12 7 13 8 14 4 15 1 16 2 17 3 18 9 20 10 21 21 22 11 23
REMARK SMILES IDX 20 24 12 25 13 26 14 27 18 28 15 29 17 30 19 31 16 32 31 33
REMARK SMILES IDX 32 34 33 35 34 36 35 37 36 38 37 39 38 40 102 41 39 42
REMARK SMILES IDX 101 43 40 44 41 45 42 46 95 47 43 48 100 49 94 50 96 51
REMARK SMILES IDX 44 52 99 53 93 54 92 55 45 57 79 58 58 59 78 60 59 61 62 62
REMARK SMILES IDX 77 63 97 64 60 65 61 66 76 68 98 69 63 70 46 71 47 72 56 73
REMARK SMILES IDX 48 74 49 75 55 76 57 77 50 78 51 79 52 80 53 81 54 82 80 83
REMARK SMILES IDX 81 84 90 85 82 86 83 87 89 88 91 89 84 90 85 91 86 92 87 93
REMARK SMILES IDX 88 94 64 95 65 96 74 97 66 98 67 99 73 100 75 101 68 102
REMARK SMILES IDX 69 103 70 104 71 105 72 106
REMARK H PARENT 4 19 96 56 62 67
REMARK Flexibility Score: inf
ROOT
ATOM      1  C   UNL A   1      32.579  29.917  27.194  1.00  0.00     0.188 C 
ENDROOT
BRANCH   1   2
ATOM      2  C   UNL A   1      32.745  28.682  26.303  1.00  0.00     0.188 C 
BRANCH   2   3
ATOM      3  O   UNL A   1      33.638  27.639  26.728  1.00  0.00    -0.376 OA
BRANCH   3   4
ATOM      4  C   UNL A   1      33.260  26.323  26.218  1.00  0.00     0.202 C 
BRANCH   4   5
ATOM      5  C   UNL A   1      34.285  25.486  25.248  1.00  0.00     0.261 C 
BRANCH   5   6
ATOM      6  O   UNL A   1      34.623  23.868  25.223  1.00  0.00    -0.460 OA
BRANCH   6   7
ATOM      7  C   UNL A   1      35.216  22.689  24.734  1.00  0.00     0.342 C 
ATOM      8  O   UNL A   1      36.376  22.367  24.545  1.00  0.00    -0.246 OA
BRANCH   7   9
ATOM      9  C   UNL A   1      34.229  21.617  24.502  1.00  0.00     0.104 A 
ATOM     10  C   UNL A   1      34.024  19.223  24.738  1.00  0.00     0.060 A 
ATOM     11  C   UNL A   1      32.760  19.364  24.196  1.00  0.00     0.139 A 
ATOM     12  C   UNL A   1      34.745  20.376  24.869  1.00  0.00     0.047 A 
ATOM     13  N   UNL A   1      32.193  20.554  23.847  1.00  0.00    -0.236 NA
ATOM     14  C   UNL A   1      32.901  21.712  23.999  1.00  0.00     0.143 A 
BRANCH  10  15
ATOM     15  N   UNL A   1      34.608  17.981  25.029  1.00  0.00    -0.325 N 
ATOM     16  C   UNL A   1      34.171  16.765  22.865  1.00  0.00     0.114 C 
ATOM     17  C   UNL A   1      34.527  16.794  24.340  1.00  0.00     0.221 C 
ATOM     18  O   UNL A   1      34.796  15.749  24.938  1.00  0.00    -0.275 OA
ATOM     19  H   UNL A   1      35.157  17.956  25.846  1.00  0.00     0.169 HD
ENDBRANCH  10  15
BRANCH  14  20
ATOM     20  N   UNL A   1      32.251  22.816  23.476  1.00  0.00    -0.352 N 
ATOM     21  C   UNL A   1      32.792  23.630  22.385  1.00  0.00     0.146 C 
ATOM     22  C   UNL A   1      30.959  23.187  24.027  1.00  0.00     0.123 C 
ATOM     23  C   UNL A   1      32.203  25.053  22.342  1.00  0.00    -0.002 C 
ATOM     24  C   UNL A   1      30.855  24.691  24.336  1.00  0.00     0.057 C 
ATOM     25  C   UNL A   1      31.299  25.582  23.200  1.00  0.00    -0.041 C 
BRANCH  25  26
ATOM     26  C   UNL A   1      30.646  26.944  23.043  1.00  0.00    -0.020 A 
ATOM     27  C   UNL A   1      29.244  27.048  23.197  1.00  0.00     0.008 A 
ATOM     28  C   UNL A   1      31.343  28.170  22.858  1.00  0.00    -0.044 A 
ATOM     29  C   UNL A   1      28.570  28.283  23.218  1.00  0.00     0.001 A 
ATOM     30  C   UNL A   1      30.652  29.408  22.904  1.00  0.00     0.004 A 
ATOM     31  C   UNL A   1      32.828  28.265  22.628  1.00  0.00     0.045 C 
ATOM     32  C   UNL A   1      29.278  29.467  23.086  1.00  0.00     0.000 A 
ENDBRANCH  25  26
ENDBRANCH  14  20
ENDBRANCH   7   9
ENDBRANCH   6   7
ENDBRANCH   5   6
ENDBRANCH   4   5
ENDBRANCH   3   4
ENDBRANCH   2   3
ENDBRANCH   1   2
BRANCH   1  33
ATOM     33  O   UNL A   1      33.677  30.810  27.384  1.00  0.00    -0.376 OA
BRANCH  33  34
ATOM     34  C   UNL A   1      34.913  30.369  27.935  1.00  0.00     0.202 C 
BRANCH  34  35
ATOM     35  C   UNL A   1      35.893  31.308  28.683  1.00  0.00     0.261 C 
BRANCH  35  36
ATOM     36  O   UNL A   1      36.066  31.065  30.089  1.00  0.00    -0.460 OA
BRANCH  36  37
ATOM     37  C   UNL A   1      36.944  30.088  30.495  1.00  0.00     0.338 C 
ATOM     38  O   UNL A   1      36.594  29.116  31.161  1.00  0.00    -0.246 OA
BRANCH  37  39
ATOM     39  C   UNL A   1      38.106  30.014  29.587  1.00  0.00     0.060 A 
ATOM     40  C   UNL A   1      38.348  29.087  28.602  1.00  0.00     0.016 A 
ATOM     41  C   UNL A   1      39.119  30.870  29.842  1.00  0.00     0.016 A 
ATOM     42  C   UNL A   1      39.668  28.831  28.133  1.00  0.00     0.010 A 
ATOM     43  C   UNL A   1      40.415  30.448  29.489  1.00  0.00     0.010 A 
ATOM     44  C   UNL A   1      40.812  29.308  28.753  1.00  0.00    -0.014 A 
BRANCH  44  45
ATOM     45  C   UNL A   1      42.273  28.583  28.523  1.00  0.00     0.031 A 
ATOM     46  C   UNL A   1      42.658  27.101  28.017  1.00  0.00     0.074 A 
ATOM     47  C   UNL A   1      43.403  29.254  28.870  1.00  0.00     0.049 A 
ATOM     48  N   UNL A   1      42.544  25.922  28.584  1.00  0.00    -0.248 NA
ATOM     49  C   UNL A   1      43.325  26.937  26.694  1.00  0.00     0.031 C 
ATOM     50  C   UNL A   1      44.753  28.688  28.955  1.00  0.00     0.029 A 
ATOM     51  N   UNL A   1      43.549  30.480  29.513  1.00  0.00    -0.354 N 
ATOM     52  C   UNL A   1      43.000  24.932  27.707  1.00  0.00     0.074 A 
ATOM     53  C   UNL A   1      43.292  25.619  26.467  1.00  0.00     0.031 C 
ATOM     54  C   UNL A   1      45.394  29.326  29.949  1.00  0.00     0.029 A 
ATOM     55  C   UNL A   1      44.462  30.269  30.545  1.00  0.00     0.049 A 
ATOM     56  H   UNL A   1      43.099  31.325  29.284  1.00  0.00     0.167 HD
ATOM     57  C   UNL A   1      43.773  23.846  28.040  1.00  0.00     0.037 A 
ATOM     58  C   UNL A   1      44.110  30.338  31.865  1.00  0.00     0.037 A 
ATOM     59  C   UNL A   1      44.688  24.250  29.084  1.00  0.00     0.049 A 
ATOM     60  C   UNL A   1      44.260  28.977  32.553  1.00  0.00     0.074 A 
ATOM     61  C   UNL A   1      45.896  24.922  28.983  1.00  0.00     0.029 A 
ATOM     62  N   UNL A   1      44.253  24.397  30.386  1.00  0.00    -0.354 N 
ATOM     63  N   UNL A   1      44.445  27.841  31.924  1.00  0.00    -0.248 NA
ATOM     64  C   UNL A   1      44.248  28.793  34.003  1.00  0.00     0.031 C 
ATOM     65  C   UNL A   1      46.116  25.603  30.200  1.00  0.00     0.029 A 
ATOM     66  C   UNL A   1      45.093  25.265  31.065  1.00  0.00     0.049 A 
ATOM     67  H   UNL A   1      43.465  23.952  30.774  1.00  0.00     0.167 HD
ATOM     68  C   UNL A   1      44.616  26.820  32.831  1.00  0.00     0.074 A 
ATOM     69  C   UNL A   1      44.493  27.474  34.120  1.00  0.00     0.031 C 
ATOM     70  C   UNL A   1      44.875  25.524  32.473  1.00  0.00     0.037 A 
BRANCH  57  71
ATOM     71  C   UNL A   1      44.059  22.800  26.963  1.00  0.00     0.058 A 
ATOM     72  C   UNL A   1      43.169  21.778  26.582  1.00  0.00     0.135 A 
ATOM     73  C   UNL A   1      45.326  22.762  26.333  1.00  0.00     0.135 A 
ATOM     74  F   UNL A   1      41.925  21.721  27.073  1.00  0.00    -0.206 F 
ATOM     75  C   UNL A   1      43.541  20.731  25.725  1.00  0.00     0.059 A 
ATOM     76  C   UNL A   1      45.718  21.728  25.465  1.00  0.00     0.059 A 
ATOM     77  F   UNL A   1      46.229  23.726  26.583  1.00  0.00    -0.206 F 
ATOM     78  C   UNL A   1      44.825  20.697  25.191  1.00  0.00     0.060 A 
BRANCH  78  79
ATOM     79  S   UNL A   1      45.332  19.242  24.234  1.00  0.00     0.124 S 
ATOM     80  O   UNL A   1      46.777  19.428  24.135  1.00  0.00    -0.237 OA
ATOM     81  O   UNL A   1      44.892  18.142  25.086  1.00  0.00    -0.237 OA
ATOM     82  O   UNL A   1      44.606  19.394  22.977  1.00  0.00    -0.744 OA
ENDBRANCH  78  79
ENDBRANCH  57  71
BRANCH  58  83
ATOM     83  C   UNL A   1      43.201  31.484  32.225  1.00  0.00     0.058 A 
ATOM     84  C   UNL A   1      41.898  31.162  32.664  1.00  0.00     0.135 A 
ATOM     85  C   UNL A   1      43.611  32.803  32.459  1.00  0.00     0.135 A 
ATOM     86  F   UNL A   1      41.391  29.947  32.408  1.00  0.00    -0.206 F 
ATOM     87  C   UNL A   1      41.147  32.004  33.483  1.00  0.00     0.059 A 
ATOM     88  C   UNL A   1      42.851  33.694  33.250  1.00  0.00     0.059 A 
ATOM     89  F   UNL A   1      44.842  33.178  32.099  1.00  0.00    -0.206 F 
ATOM     90  C   UNL A   1      41.658  33.250  33.829  1.00  0.00     0.060 A 
BRANCH  90  91
ATOM     91  S   UNL A   1      40.897  34.091  35.264  1.00  0.00     0.124 S 
ATOM     92  O   UNL A   1      39.735  33.257  35.532  1.00  0.00    -0.237 OA
ATOM     93  O   UNL A   1      41.979  34.026  36.247  1.00  0.00    -0.237 OA
ATOM     94  O   UNL A   1      40.620  35.434  34.770  1.00  0.00    -0.744 OA
ENDBRANCH  90  91
ENDBRANCH  58  83
BRANCH  70  95
ATOM     95  C   UNL A   1      45.043  24.333  33.391  1.00  0.00     0.058 A 
ATOM     96  C   UNL A   1      44.081  23.328  33.556  1.00  0.00     0.135 A 
ATOM     97  C   UNL A   1      46.304  24.086  34.002  1.00  0.00     0.135 A 
ATOM     98  F   UNL A   1      42.882  23.420  32.963  1.00  0.00    -0.206 F 
ATOM     99  C   UNL A   1      44.339  22.171  34.297  1.00  0.00     0.059 A 
ATOM    100  C   UNL A   1      46.600  22.916  34.689  1.00  0.00     0.059 A 
ATOM    101  F   UNL A   1      47.303  24.981  33.932  1.00  0.00    -0.206 F 
ATOM    102  C   UNL A   1      45.602  21.970  34.853  1.00  0.00     0.060 A 
BRANCH 102 103
ATOM    103  S   UNL A   1      45.976  20.459  35.763  1.00  0.00     0.124 S 
ATOM    104  O   UNL A   1      45.062  19.511  35.135  1.00  0.00    -0.237 OA
ATOM    105  O   UNL A   1      47.393  20.249  35.483  1.00  0.00    -0.237 OA
ATOM    106  O   UNL A   1      45.664  20.820  37.143  1.00  0.00    -0.744 OA
ENDBRANCH 102 103
ENDBRANCH  70  95
ENDBRANCH  44  45
ENDBRANCH  37  39
ENDBRANCH  36  37
ENDBRANCH  35  36
ENDBRANCH  34  35
ENDBRANCH  33  34
ENDBRANCH   1  33
TORSDOF 23
ENDMDL
MODEL 2
REMARK VINA RESULT:     -11.7      4.278      7.654
REMARK SMILES CC(=O)Nc1cnc(N2CC=C(c3ccccc3C)CC2)c(C(=O)OCCOCCOCCOC(=O)c2ccc(-c3c4nc(c(-c5c(F)cc(S(=O)(=O)[O-])cc5F)c5ccc([nH]5)c(-c5c(F)cc(S(=O)(=O)[O-])cc5F)c5nc(c(-c6c(F)cc(S(=O)(=O)[O-])cc6F)c6ccc3[nH]6)C=C5)C=C4)cc2)c1
REMARK SMILES IDX 30 1 29 2 28 3 27 4 26 5 25 6 23 7 24 8 22 9 5 10 6 11
REMARK SMILES IDX 103 12 7 13 8 14 4 15 1 16 2 17 3 18 9 20 10 21 21 22 11 23
REMARK SMILES IDX 20 24 12 25 13 26 14 27 18 28 15 29 17 30 19 31 16 32 31 33
REMARK SMILES IDX 32 34 33 35 34 36 35 37 36 38 37 39 38 40 102 41 39 42
REMARK SMILES IDX 101 43 40 44 41 45 42 46 95 47 43 48 100 49 94 50 96 51
REMARK SMILES IDX 44 52 99 53 93 54 92 55 45 57 79 58 58 59 78 60 59 61 62 62
REMARK SMILES IDX 77 63 97 64 60 65 61 66 76 68 98 69 63 70 46 71 47 72 56 73
REMARK SMILES IDX 48 74 49 75 55 76 57 77 50 78 51 79 52 80 53 81 54 82 80 83
REMARK SMILES IDX 81 84 90 85 82 86 83 87 89 88 91 89 84 90 85 91 86 92 87 93
REMARK SMILES IDX 88 94 64 95 65 96 74 97 66 98 67 99 73 100 75 101 68 102
REMARK SMILES IDX 69 103 70 104 71 105 72 106
REMARK H PARENT 4 19 96 56 62 67
REMARK Flexibility Score: inf
ROOT
ATOM      1  C   UNL A   1      40.231  21.200  26.285  1.00  0.00     0.188 C 
ENDROOT
BRANCH   1   2
ATOM      2  C   UNL A   1      39.000  22.095  26.109  1.00  0.00     0.188 C 
BRANCH   2   3
ATOM      3  O   UNL A   1      37.785  21.508  25.615  1.00  0.00    -0.376 OA
BRANCH   3   4
ATOM      4  C   UNL A   1      36.694  22.474  25.495  1.00  0.00     0.202 C 
BRANCH   4   5
ATOM      5  C   UNL A   1      36.561  23.411  24.155  1.00  0.00     0.261 C 
BRANCH   5   6
ATOM      6  O   UNL A   1      35.315  23.534  23.077  1.00  0.00    -0.460 OA
BRANCH   6   7
ATOM      7  C   UNL A   1      34.032  23.267  22.563  1.00  0.00     0.342 C 
ATOM      8  O   UNL A   1      33.593  23.219  21.427  1.00  0.00    -0.246 OA
BRANCH   7   9
ATOM      9  C   UNL A   1      33.074  22.880  23.615  1.00  0.00     0.104 A 
ATOM     10  C   UNL A   1      32.698  21.093  25.195  1.00  0.00     0.060 A 
ATOM     11  C   UNL A   1      31.555  21.777  25.566  1.00  0.00     0.139 A 
ATOM     12  C   UNL A   1      33.437  21.670  24.200  1.00  0.00     0.047 A 
ATOM     13  N   UNL A   1      31.167  22.977  25.050  1.00  0.00    -0.236 NA
ATOM     14  C   UNL A   1      31.915  23.568  24.072  1.00  0.00     0.143 A 
BRANCH  10  15
ATOM     15  N   UNL A   1      33.042  19.829  25.696  1.00  0.00    -0.325 N 
ATOM     16  C   UNL A   1      32.365  18.380  23.748  1.00  0.00     0.114 C 
ATOM     17  C   UNL A   1      32.733  18.581  25.206  1.00  0.00     0.221 C 
ATOM     18  O   UNL A   1      32.807  17.616  25.971  1.00  0.00    -0.275 OA
ATOM     19  H   UNL A   1      33.583  19.836  26.518  1.00  0.00     0.169 HD
ENDBRANCH  10  15
BRANCH  14  20
ATOM     20  N   UNL A   1      31.324  24.707  23.553  1.00  0.00    -0.352 N 
ATOM     21  C   UNL A   1      31.987  25.595  22.594  1.00  0.00     0.146 C 
ATOM     22  C   UNL A   1      29.973  25.041  23.969  1.00  0.00     0.123 C 
ATOM     23  C   UNL A   1      31.397  27.018  22.580  1.00  0.00    -0.002 C 
ATOM     24  C   UNL A   1      29.822  26.520  24.368  1.00  0.00     0.057 C 
ATOM     25  C   UNL A   1      30.392  27.487  23.358  1.00  0.00    -0.041 C 
BRANCH  25  26
ATOM     26  C   UNL A   1      29.753  28.857  23.219  1.00  0.00    -0.020 A 
ATOM     27  C   UNL A   1      28.673  29.017  22.320  1.00  0.00     0.008 A 
ATOM     28  C   UNL A   1      30.078  29.996  24.007  1.00  0.00    -0.044 A 
ATOM     29  C   UNL A   1      27.924  30.205  22.233  1.00  0.00     0.001 A 
ATOM     30  C   UNL A   1      29.300  31.179  23.924  1.00  0.00     0.004 A 
ATOM     31  C   UNL A   1      31.223  30.042  24.984  1.00  0.00     0.045 C 
ATOM     32  C   UNL A   1      28.229  31.284  23.048  1.00  0.00     0.000 A 
ENDBRANCH  25  26
ENDBRANCH  14  20
ENDBRANCH   7   9
ENDBRANCH   6   7
ENDBRANCH   5   6
ENDBRANCH   4   5
ENDBRANCH   3   4
ENDBRANCH   2   3
ENDBRANCH   1   2
BRANCH   1  33
ATOM     33  O   UNL A   1      41.400  21.716  26.923  1.00  0.00    -0.376 OA
BRANCH  33  34
ATOM     34  C   UNL A   1      42.603  21.955  26.201  1.00  0.00     0.202 C 
BRANCH  34  35
ATOM     35  C   UNL A   1      43.646  23.023  26.617  1.00  0.00     0.261 C 
BRANCH  35  36
ATOM     36  O   UNL A   1      44.690  23.302  25.669  1.00  0.00    -0.460 OA
BRANCH  36  37
ATOM     37  C   UNL A   1      44.999  24.612  25.383  1.00  0.00     0.338 C 
ATOM     38  O   UNL A   1      44.152  25.434  25.042  1.00  0.00    -0.246 OA
BRANCH  37  39
ATOM     39  C   UNL A   1      46.229  25.028  26.086  1.00  0.00     0.060 A 
ATOM     40  C   UNL A   1      47.108  24.238  26.786  1.00  0.00     0.016 A 
ATOM     41  C   UNL A   1      46.444  26.359  26.174  1.00  0.00     0.016 A 
ATOM     42  C   UNL A   1      47.958  24.785  27.790  1.00  0.00     0.010 A 
ATOM     43  C   UNL A   1      47.157  26.817  27.299  1.00  0.00     0.010 A 
ATOM     44  C   UNL A   1      47.829  26.069  28.294  1.00  0.00    -0.014 A 
BRANCH  44  45
ATOM     45  C   UNL A   1      48.443  26.474  29.767  1.00  0.00     0.031 A 
ATOM     46  C   UNL A   1      49.692  25.883  30.599  1.00  0.00     0.074 A 
ATOM     47  C   UNL A   1      47.798  27.407  30.516  1.00  0.00     0.049 A 
ATOM     48  N   UNL A   1      49.873  24.738  31.216  1.00  0.00    -0.248 NA
ATOM     49  C   UNL A   1      50.892  26.740  30.811  1.00  0.00     0.031 C 
ATOM     50  C   UNL A   1      48.060  27.718  31.924  1.00  0.00     0.029 A 
ATOM     51  N   UNL A   1      46.585  28.050  30.286  1.00  0.00    -0.354 N 
ATOM     52  C   UNL A   1      51.158  24.698  31.767  1.00  0.00     0.074 A 
ATOM     53  C   UNL A   1      51.812  25.905  31.308  1.00  0.00     0.031 C 
ATOM     54  C   UNL A   1      46.889  28.063  32.485  1.00  0.00     0.029 A 
ATOM     55  C   UNL A   1      45.856  27.936  31.469  1.00  0.00     0.049 A 
ATOM     56  H   UNL A   1      46.300  28.496  29.456  1.00  0.00     0.167 HD
ATOM     57  C   UNL A   1      51.494  24.214  33.008  1.00  0.00     0.037 A 
ATOM     58  C   UNL A   1      44.715  27.187  31.561  1.00  0.00     0.037 A 
ATOM     59  C   UNL A   1      50.415  24.525  33.918  1.00  0.00     0.049 A 
ATOM     60  C   UNL A   1      44.900  26.006  32.519  1.00  0.00     0.074 A 
ATOM     61  C   UNL A   1      50.143  25.706  34.591  1.00  0.00     0.029 A 
ATOM     62  N   UNL A   1      49.244  23.793  33.901  1.00  0.00    -0.354 N 
ATOM     63  N   UNL A   1      46.056  25.601  32.989  1.00  0.00    -0.248 NA
ATOM     64  C   UNL A   1      43.796  25.209  33.050  1.00  0.00     0.031 C 
ATOM     65  C   UNL A   1      48.756  25.747  34.850  1.00  0.00     0.029 A 
ATOM     66  C   UNL A   1      48.209  24.553  34.423  1.00  0.00     0.049 A 
ATOM     67  H   UNL A   1      49.157  22.871  33.568  1.00  0.00     0.167 HD
ATOM     68  C   UNL A   1      45.871  24.569  33.879  1.00  0.00     0.074 A 
ATOM     69  C   UNL A   1      44.434  24.370  33.888  1.00  0.00     0.031 C 
ATOM     70  C   UNL A   1      46.891  23.971  34.569  1.00  0.00     0.037 A 
BRANCH  57  71
ATOM     71  C   UNL A   1      52.974  24.134  33.380  1.00  0.00     0.058 A 
ATOM     72  C   UNL A   1      53.694  25.157  34.028  1.00  0.00     0.135 A 
ATOM     73  C   UNL A   1      53.741  23.008  32.995  1.00  0.00     0.135 A 
ATOM     74  F   UNL A   1      53.083  26.258  34.480  1.00  0.00    -0.206 F 
ATOM     75  C   UNL A   1      55.088  25.119  34.184  1.00  0.00     0.059 A 
ATOM     76  C   UNL A   1      55.137  22.945  33.148  1.00  0.00     0.059 A 
ATOM     77  F   UNL A   1      53.140  21.952  32.421  1.00  0.00    -0.206 F 
ATOM     78  C   UNL A   1      55.807  24.023  33.718  1.00  0.00     0.060 A 
BRANCH  78  79
ATOM     79  S   UNL A   1      57.619  24.083  33.772  1.00  0.00     0.124 S 
ATOM     80  O   UNL A   1      57.928  25.002  32.681  1.00  0.00    -0.237 OA
ATOM     81  O   UNL A   1      57.873  24.588  35.116  1.00  0.00    -0.237 OA
ATOM     82  O   UNL A   1      58.011  22.696  33.537  1.00  0.00    -0.744 OA
ENDBRANCH  78  79
ENDBRANCH  57  71
BRANCH  58  83
ATOM     83  C   UNL A   1      43.767  27.322  30.398  1.00  0.00     0.058 A 
ATOM     84  C   UNL A   1      43.806  26.311  29.412  1.00  0.00     0.135 A 
ATOM     85  C   UNL A   1      42.653  28.170  30.352  1.00  0.00     0.135 A 
ATOM     86  F   UNL A   1      44.876  25.505  29.327  1.00  0.00    -0.206 F 
ATOM     87  C   UNL A   1      42.717  26.011  28.594  1.00  0.00     0.059 A 
ATOM     88  C   UNL A   1      41.552  27.916  29.504  1.00  0.00     0.059 A 
ATOM     89  F   UNL A   1      42.528  29.134  31.270  1.00  0.00    -0.206 F 
ATOM     90  C   UNL A   1      41.563  26.780  28.689  1.00  0.00     0.060 A 
BRANCH  90  91
ATOM     91  S   UNL A   1      40.031  26.067  27.988  1.00  0.00     0.124 S 
ATOM     92  O   UNL A   1      38.994  26.772  28.726  1.00  0.00    -0.237 OA
ATOM     93  O   UNL A   1      40.169  26.415  26.574  1.00  0.00    -0.237 OA
ATOM     94  O   UNL A   1      40.156  24.641  28.265  1.00  0.00    -0.744 OA
ENDBRANCH  90  91
ENDBRANCH  58  83
BRANCH  70  95
ATOM     95  C   UNL A   1      46.791  22.812  35.538  1.00  0.00     0.058 A 
ATOM     96  C   UNL A   1      47.340  21.545  35.304  1.00  0.00     0.135 A 
ATOM     97  C   UNL A   1      46.276  23.031  36.846  1.00  0.00     0.135 A 
ATOM     98  F   UNL A   1      47.919  21.252  34.132  1.00  0.00    -0.206 F 
ATOM     99  C   UNL A   1      47.355  20.552  36.289  1.00  0.00     0.059 A 
ATOM    100  C   UNL A   1      46.337  22.079  37.856  1.00  0.00     0.059 A 
ATOM    101  F   UNL A   1      45.707  24.198  37.189  1.00  0.00    -0.206 F 
ATOM    102  C   UNL A   1      46.858  20.830  37.562  1.00  0.00     0.060 A 
BRANCH 102 103
ATOM    103  S   UNL A   1      46.919  19.584  38.864  1.00  0.00     0.124 S 
ATOM    104  O   UNL A   1      46.753  20.407  40.058  1.00  0.00    -0.237 OA
ATOM    105  O   UNL A   1      45.795  18.712  38.538  1.00  0.00    -0.237 OA
ATOM    106  O   UNL A   1      48.239  18.986  38.686  1.00  0.00    -0.744 OA
ENDBRANCH 102 103
ENDBRANCH  70  95
ENDBRANCH  44  45
ENDBRANCH  37  39
ENDBRANCH  36  37
ENDBRANCH  35  36
ENDBRANCH  34  35
ENDBRANCH  33  34
ENDBRANCH   1  33
TORSDOF 23
ENDMDL
MODEL 3
REMARK VINA RESULT:     -11.1      2.531      5.529
REMARK SMILES CC(=O)Nc1cnc(N2CC=C(c3ccccc3C)CC2)c(C(=O)OCCOCCOCCOC(=O)c2ccc(-c3c4nc(c(-c5c(F)cc(S(=O)(=O)[O-])cc5F)c5ccc([nH]5)c(-c5c(F)cc(S(=O)(=O)[O-])cc5F)c5nc(c(-c6c(F)cc(S(=O)(=O)[O-])cc6F)c6ccc3[nH]6)C=C5)C=C4)cc2)c1
REMARK SMILES IDX 30 1 29 2 28 3 27 4 26 5 25 6 23 7 24 8 22 9 5 10 6 11
REMARK SMILES IDX 103 12 7 13 8 14 4 15 1 16 2 17 3 18 9 20 10 21 21 22 11 23
REMARK SMILES IDX 20 24 12 25 13 26 14 27 18 28 15 29 17 30 19 31 16 32 31 33
REMARK SMILES IDX 32 34 33 35 34 36 35 37 36 38 37 39 38 40 102 41 39 42
REMARK SMILES IDX 101 43 40 44 41 45 42 46 95 47 43 48 100 49 94 50 96 51
REMARK SMILES IDX 44 52 99 53 93 54 92 55 45 57 79 58 58 59 78 60 59 61 62 62
REMARK SMILES IDX 77 63 97 64 60 65 61 66 76 68 98 69 63 70 46 71 47 72 56 73
REMARK SMILES IDX 48 74 49 75 55 76 57 77 50 78 51 79 52 80 53 81 54 82 80 83
REMARK SMILES IDX 81 84 90 85 82 86 83 87 89 88 91 89 84 90 85 91 86 92 87 93
REMARK SMILES IDX 88 94 64 95 65 96 74 97 66 98 67 99 73 100 75 101 68 102
REMARK SMILES IDX 69 103 70 104 71 105 72 106
REMARK H PARENT 4 19 96 56 62 67
REMARK Flexibility Score: inf
ROOT
ATOM      1  C   UNL A   1      37.151  30.436  30.495  1.00  0.00     0.188 C 
ENDROOT
BRANCH   1   2
ATOM      2  C   UNL A   1      36.428  29.476  29.544  1.00  0.00     0.188 C 
BRANCH   2   3
ATOM      3  O   UNL A   1      36.271  29.856  28.167  1.00  0.00    -0.376 OA
BRANCH   3   4
ATOM      4  C   UNL A   1      34.887  29.764  27.706  1.00  0.00     0.202 C 
BRANCH   4   5
ATOM      5  C   UNL A   1      34.537  29.029  26.282  1.00  0.00     0.261 C 
BRANCH   5   6
ATOM      6  O   UNL A   1      33.080  28.511  25.695  1.00  0.00    -0.460 OA
BRANCH   6   7
ATOM      7  C   UNL A   1      31.726  28.138  25.772  1.00  0.00     0.342 C 
ATOM      8  O   UNL A   1      31.012  27.815  26.707  1.00  0.00    -0.246 OA
BRANCH   7   9
ATOM      9  C   UNL A   1      31.033  28.261  24.477  1.00  0.00     0.104 A 
ATOM     10  C   UNL A   1      30.025  29.955  23.082  1.00  0.00     0.060 A 
ATOM     11  C   UNL A   1      29.698  28.927  22.217  1.00  0.00     0.139 A 
ATOM     12  C   UNL A   1      30.688  29.585  24.218  1.00  0.00     0.047 A 
ATOM     13  N   UNL A   1      30.034  27.619  22.404  1.00  0.00    -0.236 NA
ATOM     14  C   UNL A   1      30.717  27.249  23.527  1.00  0.00     0.143 A 
BRANCH  10  15
ATOM     15  N   UNL A   1      29.612  31.283  22.899  1.00  0.00    -0.325 N 
ATOM     16  C   UNL A   1      27.217  31.113  23.664  1.00  0.00     0.114 C 
ATOM     17  C   UNL A   1      28.345  31.816  22.933  1.00  0.00     0.221 C 
ATOM     18  O   UNL A   1      28.154  32.909  22.393  1.00  0.00    -0.275 OA
ATOM     19  H   UNL A   1      30.335  31.927  22.719  1.00  0.00     0.169 HD
ENDBRANCH  10  15
BRANCH  14  20
ATOM     20  N   UNL A   1      30.865  25.877  23.643  1.00  0.00    -0.352 N 
ATOM     21  C   UNL A   1      30.313  25.097  24.753  1.00  0.00     0.146 C 
ATOM     22  C   UNL A   1      31.596  25.167  22.608  1.00  0.00     0.123 C 
ATOM     23  C   UNL A   1      31.032  23.751  24.962  1.00  0.00    -0.002 C 
ATOM     24  C   UNL A   1      32.633  24.185  23.180  1.00  0.00     0.057 C 
ATOM     25  C   UNL A   1      32.087  23.276  24.257  1.00  0.00    -0.041 C 
BRANCH  25  26
ATOM     26  C   UNL A   1      32.681  21.887  24.409  1.00  0.00    -0.020 A 
ATOM     27  C   UNL A   1      32.132  20.825  23.653  1.00  0.00     0.008 A 
ATOM     28  C   UNL A   1      33.833  21.570  25.180  1.00  0.00    -0.044 A 
ATOM     29  C   UNL A   1      32.706  19.542  23.614  1.00  0.00     0.001 A 
ATOM     30  C   UNL A   1      34.414  20.277  25.113  1.00  0.00     0.004 A 
ATOM     31  C   UNL A   1      34.532  22.547  26.087  1.00  0.00     0.045 C 
ATOM     32  C   UNL A   1      33.859  19.271  24.335  1.00  0.00     0.000 A 
ENDBRANCH  25  26
ENDBRANCH  14  20
ENDBRANCH   7   9
ENDBRANCH   6   7
ENDBRANCH   5   6
ENDBRANCH   4   5
ENDBRANCH   3   4
ENDBRANCH   2   3
ENDBRANCH   1   2
BRANCH   1  33
ATOM     33  O   UNL A   1      37.327  31.804  30.125  1.00  0.00    -0.376 OA
BRANCH  33  34
ATOM     34  C   UNL A   1      36.808  32.866  30.919  1.00  0.00     0.202 C 
BRANCH  34  35
ATOM     35  C   UNL A   1      37.630  33.586  32.017  1.00  0.00     0.261 C 
BRANCH  35  36
ATOM     36  O   UNL A   1      38.008  32.795  33.157  1.00  0.00    -0.460 OA
BRANCH  36  37
ATOM     37  C   UNL A   1      39.336  32.719  33.506  1.00  0.00     0.338 C 
ATOM     38  O   UNL A   1      39.714  32.704  34.675  1.00  0.00    -0.246 OA
BRANCH  37  39
ATOM     39  C   UNL A   1      40.124  32.070  32.440  1.00  0.00     0.060 A 
ATOM     40  C   UNL A   1      40.138  30.742  32.091  1.00  0.00     0.016 A 
ATOM     41  C   UNL A   1      41.046  32.843  31.826  1.00  0.00     0.016 A 
ATOM     42  C   UNL A   1      41.246  30.167  31.404  1.00  0.00     0.010 A 
ATOM     43  C   UNL A   1      42.191  32.194  31.325  1.00  0.00     0.010 A 
ATOM     44  C   UNL A   1      42.460  30.809  31.227  1.00  0.00    -0.014 A 
BRANCH  44  45
ATOM     45  C   UNL A   1      43.839  29.961  30.924  1.00  0.00     0.031 A 
ATOM     46  C   UNL A   1      44.074  28.524  30.230  1.00  0.00     0.074 A 
ATOM     47  C   UNL A   1      45.024  30.447  31.377  1.00  0.00     0.049 A 
ATOM     48  N   UNL A   1      43.813  27.301  30.631  1.00  0.00    -0.248 NA
ATOM     49  C   UNL A   1      44.759  28.462  28.908  1.00  0.00     0.031 C 
ATOM     50  C   UNL A   1      46.300  29.726  31.407  1.00  0.00     0.029 A 
ATOM     51  N   UNL A   1      45.285  31.553  32.181  1.00  0.00    -0.354 N 
ATOM     52  C   UNL A   1      44.184  26.390  29.636  1.00  0.00     0.074 A 
ATOM     53  C   UNL A   1      44.588  27.198  28.505  1.00  0.00     0.031 C 
ATOM     54  C   UNL A   1      46.977  30.150  32.488  1.00  0.00     0.029 A 
ATOM     55  C   UNL A   1      46.137  31.106  33.191  1.00  0.00     0.049 A 
ATOM     56  H   UNL A   1      44.938  32.466  32.062  1.00  0.00     0.167 HD
ATOM     57  C   UNL A   1      44.822  25.189  29.832  1.00  0.00     0.037 A 
ATOM     58  C   UNL A   1      45.753  31.039  34.501  1.00  0.00     0.037 A 
ATOM     59  C   UNL A   1      45.743  25.346  30.935  1.00  0.00     0.049 A 
ATOM     60  C   UNL A   1      45.731  29.591  35.002  1.00  0.00     0.074 A 
ATOM     61  C   UNL A   1      47.021  25.883  30.945  1.00  0.00     0.029 A 
ATOM     62  N   UNL A   1      45.287  25.367  32.239  1.00  0.00    -0.354 N 
ATOM     63  N   UNL A   1      45.809  28.534  34.230  1.00  0.00    -0.248 NA
ATOM     64  C   UNL A   1      45.653  29.220  36.414  1.00  0.00     0.031 C 
ATOM     65  C   UNL A   1      47.276  26.369  32.246  1.00  0.00     0.029 A 
ATOM     66  C   UNL A   1      46.196  26.038  33.041  1.00  0.00     0.049 A 
ATOM     67  H   UNL A   1      44.443  24.967  32.550  1.00  0.00     0.167 HD
ATOM     68  C   UNL A   1      45.838  27.390  34.993  1.00  0.00     0.074 A 
ATOM     69  C   UNL A   1      45.748  27.878  36.356  1.00  0.00     0.031 C 
ATOM     70  C   UNL A   1      45.964  26.132  34.468  1.00  0.00     0.037 A 
BRANCH  57  71
ATOM     71  C   UNL A   1      45.025  24.269  28.629  1.00  0.00     0.058 A 
ATOM     72  C   UNL A   1      46.207  24.198  27.866  1.00  0.00     0.135 A 
ATOM     73  C   UNL A   1      43.953  23.474  28.157  1.00  0.00     0.135 A 
ATOM     74  F   UNL A   1      47.308  24.868  28.225  1.00  0.00    -0.206 F 
ATOM     75  C   UNL A   1      46.288  23.480  26.663  1.00  0.00     0.059 A 
ATOM     76  C   UNL A   1      44.015  22.742  26.959  1.00  0.00     0.059 A 
ATOM     77  F   UNL A   1      42.799  23.427  28.845  1.00  0.00    -0.206 F 
ATOM     78  C   UNL A   1      45.181  22.776  26.201  1.00  0.00     0.060 A 
BRANCH  78  79
ATOM     79  S   UNL A   1      45.259  22.009  24.560  1.00  0.00     0.124 S 
ATOM     80  O   UNL A   1      46.556  21.340  24.595  1.00  0.00    -0.237 OA
ATOM     81  O   UNL A   1      44.094  21.132  24.571  1.00  0.00    -0.237 OA
ATOM     82  O   UNL A   1      45.181  23.148  23.649  1.00  0.00    -0.744 OA
ENDBRANCH  78  79
ENDBRANCH  57  71
BRANCH  58  83
ATOM     83  C   UNL A   1      44.965  32.224  34.998  1.00  0.00     0.058 A 
ATOM     84  C   UNL A   1      45.691  33.392  35.323  1.00  0.00     0.135 A 
ATOM     85  C   UNL A   1      43.579  32.384  34.880  1.00  0.00     0.135 A 
ATOM     86  F   UNL A   1      47.013  33.316  35.539  1.00  0.00    -0.206 F 
ATOM     87  C   UNL A   1      45.122  34.664  35.299  1.00  0.00     0.059 A 
ATOM     88  C   UNL A   1      42.968  33.659  34.893  1.00  0.00     0.059 A 
ATOM     89  F   UNL A   1      42.826  31.331  34.545  1.00  0.00    -0.206 F 
ATOM     90  C   UNL A   1      43.767  34.799  35.018  1.00  0.00     0.060 A 
BRANCH  90  91
ATOM     91  S   UNL A   1      43.185  36.458  34.514  1.00  0.00     0.124 S 
ATOM     92  O   UNL A   1      42.990  36.296  33.081  1.00  0.00    -0.237 OA
ATOM     93  O   UNL A   1      41.972  36.599  35.319  1.00  0.00    -0.237 OA
ATOM     94  O   UNL A   1      44.273  37.342  34.915  1.00  0.00    -0.744 OA
ENDBRANCH  90  91
ENDBRANCH  58  83
BRANCH  70  95
ATOM     95  C   UNL A   1      45.971  24.818  35.220  1.00  0.00     0.058 A 
ATOM     96  C   UNL A   1      44.864  23.966  35.319  1.00  0.00     0.135 A 
ATOM     97  C   UNL A   1      47.198  24.297  35.715  1.00  0.00     0.135 A 
ATOM     98  F   UNL A   1      43.673  24.323  34.819  1.00  0.00    -0.206 F 
ATOM     99  C   UNL A   1      44.958  22.694  35.894  1.00  0.00     0.059 A 
ATOM    100  C   UNL A   1      47.326  23.014  36.233  1.00  0.00     0.059 A 
ATOM    101  F   UNL A   1      48.328  25.023  35.694  1.00  0.00    -0.206 F 
ATOM    102  C   UNL A   1      46.193  22.225  36.342  1.00  0.00     0.060 A 
BRANCH 102 103
ATOM    103  S   UNL A   1      46.350  20.567  37.033  1.00  0.00     0.124 S 
ATOM    104  O   UNL A   1      45.406  19.820  36.207  1.00  0.00    -0.237 OA
ATOM    105  O   UNL A   1      47.760  20.254  36.820  1.00  0.00    -0.237 OA
ATOM    106  O   UNL A   1      45.961  20.754  38.427  1.00  0.00    -0.744 OA
ENDBRANCH 102 103
ENDBRANCH  70  95
ENDBRANCH  44  45
ENDBRANCH  37  39
ENDBRANCH  36  37
ENDBRANCH  35  36
ENDBRANCH  34  35
ENDBRANCH  33  34
ENDBRANCH   1  33
TORSDOF 23
ENDMDL
