MODEL 1
REMARK VINA RESULT:     -10.3      0.000      0.000
REMARK SMILES O=C(OCCOCCOCCOC(=O)c1ccc(-c2c3nc(c(-c4c(F)cc(S(=O)(=O)[O-])cc4F)c4ccc([nH]4)c(-c4c(F)cc(S(=O)(=O)[O-])cc4F)c4nc(c(-c5c(F)cc(S(=O)(=O)[O-])cc5F)c5ccc2[nH]5)C=C4)C=C3)cc1)c1ccc(C[C@H]2SC(=O)N(c3ccccc3)C2=O)cc1
REMARK SMILES IDX 7 1 6 2 5 3 4 4 3 5 2 6 1 7 81 8 82 9 100 10 83 11 99 12
REMARK SMILES IDX 84 13 85 14 86 15 87 16 97 17 88 18 90 19 98 20 89 21 91 22
REMARK SMILES IDX 92 23 96 24 93 25 95 26 94 27 8 28 9 29 10 30 11 31 12 32
REMARK SMILES IDX 13 33 14 34 15 35 16 36 80 37 17 38 79 39 18 40 19 41 20 42
REMARK SMILES IDX 73 43 21 44 78 45 72 46 74 47 22 48 77 49 71 50 70 51 23 53
REMARK SMILES IDX 57 54 36 55 56 56 37 57 40 58 55 59 75 60 38 61 39 62 54 64
REMARK SMILES IDX 76 65 41 66 24 67 25 68 34 69 26 70 27 71 33 72 35 73 28 74
REMARK SMILES IDX 29 75 30 76 31 77 32 78 58 79 59 80 68 81 60 82 61 83 67 84
REMARK SMILES IDX 69 85 62 86 63 87 64 88 65 89 66 90 42 91 43 92 52 93 44 94
REMARK SMILES IDX 45 95 51 96 53 97 46 98 47 99 48 100 49 101 50 102
REMARK H PARENT 74 52 40 63
REMARK Flexibility Score: inf
ROOT
ATOM      1  C   UNL A   1      37.031  22.106  25.754  1.00  0.00     0.188 C 
ENDROOT
BRANCH   1   2
ATOM      2  O   UNL A   1      35.756  21.476  25.787  1.00  0.00    -0.376 OA
BRANCH   2   3
ATOM      3  C   UNL A   1      35.015  21.484  27.002  1.00  0.00     0.202 C 
BRANCH   3   4
ATOM      4  C   UNL A   1      33.539  21.895  27.002  1.00  0.00     0.261 C 
BRANCH   4   5
ATOM      5  O   UNL A   1      32.718  21.397  25.927  1.00  0.00    -0.460 OA
BRANCH   5   6
ATOM      6  C   UNL A   1      32.948  21.350  24.595  1.00  0.00     0.338 C 
ATOM      7  O   UNL A   1      32.965  20.268  24.016  1.00  0.00    -0.246 OA
BRANCH   6   8
ATOM      8  C   UNL A   1      33.127  22.582  23.808  1.00  0.00     0.060 A 
ATOM      9  C   UNL A   1      33.913  23.650  24.234  1.00  0.00     0.016 A 
ATOM     10  C   UNL A   1      32.588  22.607  22.520  1.00  0.00     0.016 A 
ATOM     11  C   UNL A   1      33.986  24.815  23.480  1.00  0.00     0.004 A 
ATOM     12  C   UNL A   1      32.678  23.766  21.748  1.00  0.00     0.004 A 
ATOM     13  C   UNL A   1      33.305  24.904  22.264  1.00  0.00    -0.046 A 
BRANCH  13  14
ATOM     14  C   UNL A   1      33.130  26.247  21.598  1.00  0.00     0.060 C 
BRANCH  14  15
ATOM     15  C   UNL A   1      31.893  26.973  22.163  1.00  0.00     0.151 C 
ATOM     16  S   UNL A   1      30.862  25.927  23.240  1.00  0.00    -0.050 SA
ATOM     17  C   UNL A   1      32.325  28.119  23.045  1.00  0.00     0.248 C 
ATOM     18  C   UNL A   1      31.478  26.671  24.694  1.00  0.00     0.293 C 
ATOM     19  N   UNL A   1      32.141  27.833  24.389  1.00  0.00    -0.240 N 
ATOM     20  O   UNL A   1      32.834  29.130  22.569  1.00  0.00    -0.273 OA
ATOM     21  O   UNL A   1      31.230  26.184  25.791  1.00  0.00    -0.261 OA
BRANCH  19  22
ATOM     22  C   UNL A   1      32.584  28.720  25.405  1.00  0.00     0.053 A 
ATOM     23  C   UNL A   1      33.852  28.562  25.982  1.00  0.00     0.027 A 
ATOM     24  C   UNL A   1      31.767  29.768  25.851  1.00  0.00     0.027 A 
ATOM     25  C   UNL A   1      34.294  29.430  26.980  1.00  0.00     0.002 A 
ATOM     26  C   UNL A   1      32.196  30.614  26.875  1.00  0.00     0.002 A 
ATOM     27  C   UNL A   1      33.461  30.448  27.435  1.00  0.00     0.000 A 
ENDBRANCH  19  22
ENDBRANCH  14  15
ENDBRANCH  13  14
ENDBRANCH   6   8
ENDBRANCH   5   6
ENDBRANCH   4   5
ENDBRANCH   3   4
ENDBRANCH   2   3
ENDBRANCH   1   2
BRANCH   1  28
ATOM     28  C   UNL A   1      38.160  21.132  25.409  1.00  0.00     0.188 C 
BRANCH  28  29
ATOM     29  O   UNL A   1      39.444  21.433  25.943  1.00  0.00    -0.376 OA
BRANCH  29  30
ATOM     30  C   UNL A   1      39.558  22.646  26.678  1.00  0.00     0.202 C 
BRANCH  30  31
ATOM     31  C   UNL A   1      40.686  23.631  26.310  1.00  0.00     0.261 C 
BRANCH  31  32
ATOM     32  O   UNL A   1      41.900  23.559  27.086  1.00  0.00    -0.460 OA
BRANCH  32  33
ATOM     33  C   UNL A   1      42.685  24.664  27.015  1.00  0.00     0.338 C 
ATOM     34  O   UNL A   1      43.761  24.760  26.445  1.00  0.00    -0.246 OA
BRANCH  33  35
ATOM     35  C   UNL A   1      42.097  25.816  27.726  1.00  0.00     0.060 A 
ATOM     36  C   UNL A   1      42.818  27.010  27.817  1.00  0.00     0.016 A 
ATOM     37  C   UNL A   1      40.973  25.614  28.533  1.00  0.00     0.016 A 
ATOM     38  C   UNL A   1      42.458  27.970  28.770  1.00  0.00     0.010 A 
ATOM     39  C   UNL A   1      40.604  26.589  29.471  1.00  0.00     0.010 A 
ATOM     40  C   UNL A   1      41.375  27.752  29.638  1.00  0.00    -0.014 A 
BRANCH  40  41
ATOM     41  C   UNL A   1      41.122  28.690  30.770  1.00  0.00     0.031 A 
ATOM     42  C   UNL A   1      41.960  28.617  32.027  1.00  0.00     0.074 A 
ATOM     43  C   UNL A   1      40.168  29.637  30.668  1.00  0.00     0.049 A 
ATOM     44  N   UNL A   1      41.892  29.345  33.115  1.00  0.00    -0.248 NA
ATOM     45  C   UNL A   1      43.007  27.584  32.067  1.00  0.00     0.031 C 
ATOM     46  C   UNL A   1      39.291  29.826  29.513  1.00  0.00     0.029 A 
ATOM     47  N   UNL A   1      39.776  30.614  31.552  1.00  0.00    -0.354 N 
ATOM     48  C   UNL A   1      42.888  28.868  33.963  1.00  0.00     0.074 A 
ATOM     49  C   UNL A   1      43.512  27.753  33.282  1.00  0.00     0.031 C 
ATOM     50  C   UNL A   1      38.464  30.856  29.758  1.00  0.00     0.029 A 
ATOM     51  C   UNL A   1      38.727  31.379  31.098  1.00  0.00     0.049 A 
ATOM     52  H   UNL A   1      40.205  30.754  32.426  1.00  0.00     0.167 HD
ATOM     53  C   UNL A   1      43.266  29.326  35.184  1.00  0.00     0.037 A 
ATOM     54  C   UNL A   1      38.041  32.374  31.695  1.00  0.00     0.037 A 
ATOM     55  C   UNL A   1      42.643  30.435  35.866  1.00  0.00     0.049 A 
ATOM     56  C   UNL A   1      38.447  32.835  33.073  1.00  0.00     0.074 A 
ATOM     57  C   UNL A   1      42.963  30.977  37.101  1.00  0.00     0.029 A 
ATOM     58  N   UNL A   1      41.574  31.174  35.378  1.00  0.00    -0.354 N 
ATOM     59  N   UNL A   1      39.409  32.388  33.845  1.00  0.00    -0.248 NA
ATOM     60  C   UNL A   1      37.680  33.946  33.653  1.00  0.00     0.031 C 
ATOM     61  C   UNL A   1      42.056  32.005  37.382  1.00  0.00     0.029 A 
ATOM     62  C   UNL A   1      41.210  32.149  36.296  1.00  0.00     0.049 A 
ATOM     63  H   UNL A   1      41.138  31.027  34.507  1.00  0.00     0.167 HD
ATOM     64  C   UNL A   1      39.376  33.180  34.990  1.00  0.00     0.074 A 
ATOM     65  C   UNL A   1      38.318  34.149  34.796  1.00  0.00     0.031 C 
ATOM     66  C   UNL A   1      40.150  33.109  36.102  1.00  0.00     0.037 A 
BRANCH  53  67
ATOM     67  C   UNL A   1      44.410  28.627  35.877  1.00  0.00     0.058 A 
ATOM     68  C   UNL A   1      45.742  29.030  35.688  1.00  0.00     0.135 A 
ATOM     69  C   UNL A   1      44.170  27.585  36.788  1.00  0.00     0.135 A 
ATOM     70  F   UNL A   1      46.035  30.013  34.823  1.00  0.00    -0.206 F 
ATOM     71  C   UNL A   1      46.795  28.411  36.358  1.00  0.00     0.059 A 
ATOM     72  C   UNL A   1      45.204  26.972  37.492  1.00  0.00     0.059 A 
ATOM     73  F   UNL A   1      42.917  27.159  37.014  1.00  0.00    -0.206 F 
ATOM     74  C   UNL A   1      46.515  27.384  37.262  1.00  0.00     0.060 A 
BRANCH  74  75
ATOM     75  S   UNL A   1      47.891  26.605  38.133  1.00  0.00     0.124 S 
ATOM     76  O   UNL A   1      48.060  25.371  37.372  1.00  0.00    -0.237 OA
ATOM     77  O   UNL A   1      48.955  27.593  37.983  1.00  0.00    -0.237 OA
ATOM     78  O   UNL A   1      47.384  26.437  39.491  1.00  0.00    -0.744 OA
ENDBRANCH  74  75
ENDBRANCH  53  67
BRANCH  54  79
ATOM     79  C   UNL A   1      36.882  32.997  30.998  1.00  0.00     0.058 A 
ATOM     80  C   UNL A   1      35.562  32.616  31.282  1.00  0.00     0.135 A 
ATOM     81  C   UNL A   1      37.079  33.985  30.020  1.00  0.00     0.135 A 
ATOM     82  F   UNL A   1      35.321  31.666  32.199  1.00  0.00    -0.206 F 
ATOM     83  C   UNL A   1      34.481  33.174  30.607  1.00  0.00     0.059 A 
ATOM     84  C   UNL A   1      36.012  34.582  29.357  1.00  0.00     0.059 A 
ATOM     85  F   UNL A   1      38.320  34.398  29.719  1.00  0.00    -0.206 F 
ATOM     86  C   UNL A   1      34.717  34.160  29.647  1.00  0.00     0.060 A 
BRANCH  86  87
ATOM     87  S   UNL A   1      33.306  34.913  28.810  1.00  0.00     0.124 S 
ATOM     88  O   UNL A   1      32.408  35.179  29.927  1.00  0.00    -0.237 OA
ATOM     89  O   UNL A   1      33.912  36.083  28.182  1.00  0.00    -0.237 OA
ATOM     90  O   UNL A   1      32.872  33.871  27.884  1.00  0.00    -0.744 OA
ENDBRANCH  86  87
ENDBRANCH  54  79
BRANCH  66  91
ATOM     91  C   UNL A   1      39.900  34.129  37.185  1.00  0.00     0.058 A 
ATOM     92  C   UNL A   1      40.493  35.402  37.159  1.00  0.00     0.135 A 
ATOM     93  C   UNL A   1      39.051  33.831  38.265  1.00  0.00     0.135 A 
ATOM     94  F   UNL A   1      41.314  35.744  36.153  1.00  0.00    -0.206 F 
ATOM     95  C   UNL A   1      40.299  36.320  38.188  1.00  0.00     0.059 A 
ATOM     96  C   UNL A   1      38.813  34.747  39.286  1.00  0.00     0.059 A 
ATOM     97  F   UNL A   1      38.441  32.637  38.337  1.00  0.00    -0.206 F 
ATOM     98  C   UNL A   1      39.460  35.980  39.251  1.00  0.00     0.060 A 
BRANCH  98  99
ATOM     99  S   UNL A   1      39.229  37.174  40.586  1.00  0.00     0.124 S 
ATOM    100  O   UNL A   1      38.240  38.076  40.007  1.00  0.00    -0.237 OA
ATOM    101  O   UNL A   1      38.756  36.332  41.681  1.00  0.00    -0.237 OA
ATOM    102  O   UNL A   1      40.563  37.740  40.770  1.00  0.00    -0.744 OA
ENDBRANCH  98  99
ENDBRANCH  66  91
ENDBRANCH  40  41
ENDBRANCH  33  35
ENDBRANCH  32  33
ENDBRANCH  31  32
ENDBRANCH  30  31
ENDBRANCH  29  30
ENDBRANCH  28  29
ENDBRANCH   1  28
TORSDOF 23
ENDMDL
MODEL 2
REMARK VINA RESULT:      -9.9      1.373      8.285
REMARK SMILES O=C(OCCOCCOCCOC(=O)c1ccc(-c2c3nc(c(-c4c(F)cc(S(=O)(=O)[O-])cc4F)c4ccc([nH]4)c(-c4c(F)cc(S(=O)(=O)[O-])cc4F)c4nc(c(-c5c(F)cc(S(=O)(=O)[O-])cc5F)c5ccc2[nH]5)C=C4)C=C3)cc1)c1ccc(C[C@H]2SC(=O)N(c3ccccc3)C2=O)cc1
REMARK SMILES IDX 7 1 6 2 5 3 4 4 3 5 2 6 1 7 81 8 82 9 100 10 83 11 99 12
REMARK SMILES IDX 84 13 85 14 86 15 87 16 97 17 88 18 90 19 98 20 89 21 91 22
REMARK SMILES IDX 92 23 96 24 93 25 95 26 94 27 8 28 9 29 10 30 11 31 12 32
REMARK SMILES IDX 13 33 14 34 15 35 16 36 80 37 17 38 79 39 18 40 19 41 20 42
REMARK SMILES IDX 73 43 21 44 78 45 72 46 74 47 22 48 77 49 71 50 70 51 23 53
REMARK SMILES IDX 57 54 36 55 56 56 37 57 40 58 55 59 75 60 38 61 39 62 54 64
REMARK SMILES IDX 76 65 41 66 24 67 25 68 34 69 26 70 27 71 33 72 35 73 28 74
REMARK SMILES IDX 29 75 30 76 31 77 32 78 58 79 59 80 68 81 60 82 61 83 67 84
REMARK SMILES IDX 69 85 62 86 63 87 64 88 65 89 66 90 42 91 43 92 52 93 44 94
REMARK SMILES IDX 45 95 51 96 53 97 46 98 47 99 48 100 49 101 50 102
REMARK H PARENT 74 52 40 63
REMARK Flexibility Score: inf
ROOT
ATOM      1  C   UNL A   1      36.811  22.353  25.270  1.00  0.00     0.188 C 
ENDROOT
BRANCH   1   2
ATOM      2  O   UNL A   1      35.964  21.815  24.261  1.00  0.00    -0.376 OA
BRANCH   2   3
ATOM      3  C   UNL A   1      34.826  21.055  24.652  1.00  0.00     0.202 C 
BRANCH   3   4
ATOM      4  C   UNL A   1      33.425  21.671  24.577  1.00  0.00     0.261 C 
BRANCH   4   5
ATOM      5  O   UNL A   1      33.081  22.379  23.370  1.00  0.00    -0.460 OA
BRANCH   5   6
ATOM      6  C   UNL A   1      33.680  23.430  22.766  1.00  0.00     0.338 C 
ATOM      7  O   UNL A   1      34.166  23.296  21.648  1.00  0.00    -0.246 OA
BRANCH   6   8
ATOM      8  C   UNL A   1      33.716  24.757  23.404  1.00  0.00     0.060 A 
ATOM      9  C   UNL A   1      34.154  24.961  24.710  1.00  0.00     0.016 A 
ATOM     10  C   UNL A   1      33.425  25.864  22.603  1.00  0.00     0.016 A 
ATOM     11  C   UNL A   1      34.098  26.228  25.281  1.00  0.00     0.004 A 
ATOM     12  C   UNL A   1      33.389  27.141  23.164  1.00  0.00     0.004 A 
ATOM     13  C   UNL A   1      33.642  27.313  24.529  1.00  0.00    -0.046 A 
BRANCH  13  14
ATOM     14  C   UNL A   1      33.293  28.609  25.218  1.00  0.00     0.060 C 
BRANCH  14  15
ATOM     15  C   UNL A   1      31.782  28.672  25.517  1.00  0.00     0.151 C 
ATOM     16  S   UNL A   1      30.739  28.594  24.025  1.00  0.00    -0.050 SA
ATOM     17  C   UNL A   1      31.368  27.473  26.335  1.00  0.00     0.248 C 
ATOM     18  C   UNL A   1      30.328  26.920  24.299  1.00  0.00     0.293 C 
ATOM     19  N   UNL A   1      30.664  26.549  25.576  1.00  0.00    -0.240 N 
ATOM     20  O   UNL A   1      31.704  27.358  27.510  1.00  0.00    -0.273 OA
ATOM     21  O   UNL A   1      29.750  26.275  23.431  1.00  0.00    -0.261 OA
BRANCH  19  22
ATOM     22  C   UNL A   1      30.274  25.293  26.109  1.00  0.00     0.053 A 
ATOM     23  C   UNL A   1      29.001  25.123  26.671  1.00  0.00     0.027 A 
ATOM     24  C   UNL A   1      31.151  24.199  26.086  1.00  0.00     0.027 A 
ATOM     25  C   UNL A   1      28.611  23.891  27.196  1.00  0.00     0.002 A 
ATOM     26  C   UNL A   1      30.773  22.977  26.644  1.00  0.00     0.002 A 
ATOM     27  C   UNL A   1      29.502  22.822  27.194  1.00  0.00     0.000 A 
ENDBRANCH  19  22
ENDBRANCH  14  15
ENDBRANCH  13  14
ENDBRANCH   6   8
ENDBRANCH   5   6
ENDBRANCH   4   5
ENDBRANCH   3   4
ENDBRANCH   2   3
ENDBRANCH   1   2
BRANCH   1  28
ATOM     28  C   UNL A   1      38.111  21.561  25.430  1.00  0.00     0.188 C 
BRANCH  28  29
ATOM     29  O   UNL A   1      39.171  22.215  26.119  1.00  0.00    -0.376 OA
BRANCH  29  30
ATOM     30  C   UNL A   1      38.880  23.496  26.664  1.00  0.00     0.202 C 
BRANCH  30  31
ATOM     31  C   UNL A   1      39.682  24.714  26.161  1.00  0.00     0.261 C 
BRANCH  31  32
ATOM     32  O   UNL A   1      41.113  24.562  26.060  1.00  0.00    -0.460 OA
BRANCH  32  33
ATOM     33  C   UNL A   1      41.804  25.728  25.991  1.00  0.00     0.338 C 
ATOM     34  O   UNL A   1      42.222  26.271  24.981  1.00  0.00    -0.246 OA
BRANCH  33  35
ATOM     35  C   UNL A   1      42.022  26.330  27.321  1.00  0.00     0.060 A 
ATOM     36  C   UNL A   1      41.302  25.851  28.420  1.00  0.00     0.016 A 
ATOM     37  C   UNL A   1      42.717  27.540  27.413  1.00  0.00     0.016 A 
ATOM     38  C   UNL A   1      41.216  26.621  29.585  1.00  0.00     0.010 A 
ATOM     39  C   UNL A   1      42.645  28.297  28.592  1.00  0.00     0.010 A 
ATOM     40  C   UNL A   1      41.849  27.873  29.670  1.00  0.00    -0.014 A 
BRANCH  40  41
ATOM     41  C   UNL A   1      41.592  28.765  30.838  1.00  0.00     0.031 A 
ATOM     42  C   UNL A   1      40.454  29.761  30.805  1.00  0.00     0.074 A 
ATOM     43  C   UNL A   1      42.349  28.664  31.948  1.00  0.00     0.049 A 
ATOM     44  N   UNL A   1      40.074  30.618  31.721  1.00  0.00    -0.248 NA
ATOM     45  C   UNL A   1      39.643  29.801  29.578  1.00  0.00     0.031 C 
ATOM     46  C   UNL A   1      43.473  27.745  32.121  1.00  0.00     0.029 A 
ATOM     47  N   UNL A   1      42.288  29.347  33.140  1.00  0.00    -0.354 N 
ATOM     48  C   UNL A   1      38.978  31.292  31.188  1.00  0.00     0.074 A 
ATOM     49  C   UNL A   1      38.788  30.779  29.848  1.00  0.00     0.031 C 
ATOM     50  C   UNL A   1      43.995  27.920  33.346  1.00  0.00     0.029 A 
ATOM     51  C   UNL A   1      43.268  28.984  34.034  1.00  0.00     0.049 A 
ATOM     52  H   UNL A   1      41.607  30.030  33.336  1.00  0.00     0.167 HD
ATOM     53  C   UNL A   1      38.188  32.235  31.765  1.00  0.00     0.037 A 
ATOM     54  C   UNL A   1      43.562  29.465  35.259  1.00  0.00     0.037 A 
ATOM     55  C   UNL A   1      38.378  32.751  33.099  1.00  0.00     0.049 A 
ATOM     56  C   UNL A   1      42.701  30.546  35.861  1.00  0.00     0.074 A 
ATOM     57  C   UNL A   1      37.625  33.699  33.772  1.00  0.00     0.029 A 
ATOM     58  N   UNL A   1      39.392  32.367  33.967  1.00  0.00    -0.354 N 
ATOM     59  N   UNL A   1      41.653  31.149  35.352  1.00  0.00    -0.248 NA
ATOM     60  C   UNL A   1      43.056  31.001  37.213  1.00  0.00     0.031 C 
ATOM     61  C   UNL A   1      38.212  33.927  35.021  1.00  0.00     0.029 A 
ATOM     62  C   UNL A   1      39.295  33.076  35.155  1.00  0.00     0.049 A 
ATOM     63  H   UNL A   1      40.080  31.691  33.766  1.00  0.00     0.167 HD
ATOM     64  C   UNL A   1      41.212  32.037  36.330  1.00  0.00     0.074 A 
ATOM     65  C   UNL A   1      42.089  31.870  37.470  1.00  0.00     0.031 C 
ATOM     66  C   UNL A   1      40.176  32.912  36.287  1.00  0.00     0.037 A 
BRANCH  53  67
ATOM     67  C   UNL A   1      37.038  32.782  30.956  1.00  0.00     0.058 A 
ATOM     68  C   UNL A   1      35.721  32.332  31.150  1.00  0.00     0.135 A 
ATOM     69  C   UNL A   1      37.241  33.812  30.022  1.00  0.00     0.135 A 
ATOM     70  F   UNL A   1      35.466  31.344  32.022  1.00  0.00    -0.206 F 
ATOM     71  C   UNL A   1      34.653  32.866  30.432  1.00  0.00     0.059 A 
ATOM     72  C   UNL A   1      36.185  34.381  29.314  1.00  0.00     0.059 A 
ATOM     73  F   UNL A   1      38.476  34.285  29.796  1.00  0.00    -0.206 F 
ATOM     74  C   UNL A   1      34.895  33.893  29.518  1.00  0.00     0.060 A 
BRANCH  74  75
ATOM     75  S   UNL A   1      33.496  34.584  28.609  1.00  0.00     0.124 S 
ATOM     76  O   UNL A   1      34.117  35.719  27.933  1.00  0.00    -0.237 OA
ATOM     77  O   UNL A   1      33.103  33.472  27.750  1.00  0.00    -0.237 OA
ATOM     78  O   UNL A   1      32.542  34.927  29.659  1.00  0.00    -0.744 OA
ENDBRANCH  74  75
ENDBRANCH  53  67
BRANCH  54  79
ATOM     79  C   UNL A   1      44.742  28.936  35.998  1.00  0.00     0.058 A 
ATOM     80  C   UNL A   1      46.009  29.524  35.877  1.00  0.00     0.135 A 
ATOM     81  C   UNL A   1      44.621  27.816  36.837  1.00  0.00     0.135 A 
ATOM     82  F   UNL A   1      46.182  30.588  35.078  1.00  0.00    -0.206 F 
ATOM     83  C   UNL A   1      47.119  29.009  36.542  1.00  0.00     0.059 A 
ATOM     84  C   UNL A   1      45.707  27.304  37.538  1.00  0.00     0.059 A 
ATOM     85  F   UNL A   1      43.428  27.222  37.000  1.00  0.00    -0.206 F 
ATOM     86  C   UNL A   1      46.956  27.900  37.373  1.00  0.00     0.060 A 
BRANCH  86  87
ATOM     87  S   UNL A   1      48.390  27.268  38.268  1.00  0.00     0.124 S 
ATOM     88  O   UNL A   1      48.809  28.443  39.022  1.00  0.00    -0.237 OA
ATOM     89  O   UNL A   1      47.808  26.180  39.049  1.00  0.00    -0.237 OA
ATOM     90  O   UNL A   1      49.292  26.847  37.201  1.00  0.00    -0.744 OA
ENDBRANCH  86  87
ENDBRANCH  54  79
BRANCH  66  91
ATOM     91  C   UNL A   1      39.916  33.737  37.523  1.00  0.00     0.058 A 
ATOM     92  C   UNL A   1      38.968  33.354  38.487  1.00  0.00     0.135 A 
ATOM     93  C   UNL A   1      40.628  34.927  37.751  1.00  0.00     0.135 A 
ATOM     94  F   UNL A   1      38.256  32.227  38.324  1.00  0.00    -0.206 F 
ATOM     95  C   UNL A   1      38.696  34.146  39.599  1.00  0.00     0.059 A 
ATOM     96  C   UNL A   1      40.399  35.716  38.875  1.00  0.00     0.059 A 
ATOM     97  F   UNL A   1      41.560  35.336  36.874  1.00  0.00    -0.206 F 
ATOM     98  C   UNL A   1      39.414  35.330  39.781  1.00  0.00     0.060 A 
BRANCH  98  99
ATOM     99  S   UNL A   1      39.041  36.355  41.221  1.00  0.00     0.124 S 
ATOM    100  O   UNL A   1      37.928  35.626  41.821  1.00  0.00    -0.237 OA
ATOM    101  O   UNL A   1      40.297  36.320  41.964  1.00  0.00    -0.237 OA
ATOM    102  O   UNL A   1      38.701  37.649  40.637  1.00  0.00    -0.744 OA
ENDBRANCH  98  99
ENDBRANCH  66  91
ENDBRANCH  40  41
ENDBRANCH  33  35
ENDBRANCH  32  33
ENDBRANCH  31  32
ENDBRANCH  30  31
ENDBRANCH  29  30
ENDBRANCH  28  29
ENDBRANCH   1  28
TORSDOF 23
ENDMDL
MODEL 3
REMARK VINA RESULT:      -9.7      1.361      2.101
REMARK SMILES O=C(OCCOCCOCCOC(=O)c1ccc(-c2c3nc(c(-c4c(F)cc(S(=O)(=O)[O-])cc4F)c4ccc([nH]4)c(-c4c(F)cc(S(=O)(=O)[O-])cc4F)c4nc(c(-c5c(F)cc(S(=O)(=O)[O-])cc5F)c5ccc2[nH]5)C=C4)C=C3)cc1)c1ccc(C[C@H]2SC(=O)N(c3ccccc3)C2=O)cc1
REMARK SMILES IDX 7 1 6 2 5 3 4 4 3 5 2 6 1 7 81 8 82 9 100 10 83 11 99 12
REMARK SMILES IDX 84 13 85 14 86 15 87 16 97 17 88 18 90 19 98 20 89 21 91 22
REMARK SMILES IDX 92 23 96 24 93 25 95 26 94 27 8 28 9 29 10 30 11 31 12 32
REMARK SMILES IDX 13 33 14 34 15 35 16 36 80 37 17 38 79 39 18 40 19 41 20 42
REMARK SMILES IDX 73 43 21 44 78 45 72 46 74 47 22 48 77 49 71 50 70 51 23 53
REMARK SMILES IDX 57 54 36 55 56 56 37 57 40 58 55 59 75 60 38 61 39 62 54 64
REMARK SMILES IDX 76 65 41 66 24 67 25 68 34 69 26 70 27 71 33 72 35 73 28 74
REMARK SMILES IDX 29 75 30 76 31 77 32 78 58 79 59 80 68 81 60 82 61 83 67 84
REMARK SMILES IDX 69 85 62 86 63 87 64 88 65 89 66 90 42 91 43 92 52 93 44 94
REMARK SMILES IDX 45 95 51 96 53 97 46 98 47 99 48 100 49 101 50 102
REMARK H PARENT 74 52 40 63
REMARK Flexibility Score: inf
ROOT
ATOM      1  C   UNL A   1      36.415  22.737  25.781  1.00  0.00     0.188 C 
ENDROOT
BRANCH   1   2
ATOM      2  O   UNL A   1      35.727  22.102  26.852  1.00  0.00    -0.376 OA
BRANCH   2   3
ATOM      3  C   UNL A   1      34.420  22.551  27.193  1.00  0.00     0.202 C 
BRANCH   3   4
ATOM      4  C   UNL A   1      33.238  21.575  27.162  1.00  0.00     0.261 C 
BRANCH   4   5
ATOM      5  O   UNL A   1      33.274  20.531  26.171  1.00  0.00    -0.460 OA
BRANCH   5   6
ATOM      6  C   UNL A   1      33.238  20.598  24.820  1.00  0.00     0.338 C 
ATOM      7  O   UNL A   1      33.537  19.614  24.151  1.00  0.00    -0.246 OA
BRANCH   6   8
ATOM      8  C   UNL A   1      32.794  21.821  24.129  1.00  0.00     0.060 A 
ATOM      9  C   UNL A   1      33.650  22.626  23.382  1.00  0.00     0.016 A 
ATOM     10  C   UNL A   1      31.424  22.095  24.123  1.00  0.00     0.016 A 
ATOM     11  C   UNL A   1      33.186  23.806  22.811  1.00  0.00     0.004 A 
ATOM     12  C   UNL A   1      30.949  23.266  23.532  1.00  0.00     0.004 A 
ATOM     13  C   UNL A   1      31.845  24.169  22.949  1.00  0.00    -0.046 A 
BRANCH  13  14
ATOM     14  C   UNL A   1      31.407  25.571  22.605  1.00  0.00     0.060 C 
BRANCH  14  15
ATOM     15  C   UNL A   1      31.011  26.342  23.880  1.00  0.00     0.151 C 
ATOM     16  S   UNL A   1      32.402  27.221  24.662  1.00  0.00    -0.050 SA
ATOM     17  C   UNL A   1      30.018  27.427  23.539  1.00  0.00     0.248 C 
ATOM     18  C   UNL A   1      31.886  28.767  24.036  1.00  0.00     0.293 C 
ATOM     19  N   UNL A   1      30.599  28.686  23.569  1.00  0.00    -0.240 N 
ATOM     20  O   UNL A   1      28.865  27.155  23.217  1.00  0.00    -0.273 OA
ATOM     21  O   UNL A   1      32.620  29.745  24.122  1.00  0.00    -0.261 OA
BRANCH  19  22
ATOM     22  C   UNL A   1      29.881  29.845  23.170  1.00  0.00     0.053 A 
ATOM     23  C   UNL A   1      29.504  30.021  21.831  1.00  0.00     0.027 A 
ATOM     24  C   UNL A   1      29.537  30.833  24.103  1.00  0.00     0.027 A 
ATOM     25  C   UNL A   1      28.799  31.156  21.433  1.00  0.00     0.002 A 
ATOM     26  C   UNL A   1      28.864  31.986  23.695  1.00  0.00     0.002 A 
ATOM     27  C   UNL A   1      28.490  32.144  22.362  1.00  0.00     0.000 A 
ENDBRANCH  19  22
ENDBRANCH  14  15
ENDBRANCH  13  14
ENDBRANCH   6   8
ENDBRANCH   5   6
ENDBRANCH   4   5
ENDBRANCH   3   4
ENDBRANCH   2   3
ENDBRANCH   1   2
BRANCH   1  28
ATOM     28  C   UNL A   1      37.685  21.988  25.371  1.00  0.00     0.188 C 
BRANCH  28  29
ATOM     29  O   UNL A   1      38.912  22.695  25.512  1.00  0.00    -0.376 OA
BRANCH  29  30
ATOM     30  C   UNL A   1      38.951  23.706  26.513  1.00  0.00     0.202 C 
BRANCH  30  31
ATOM     31  C   UNL A   1      40.021  23.611  27.619  1.00  0.00     0.261 C 
BRANCH  31  32
ATOM     32  O   UNL A   1      41.396  23.494  27.196  1.00  0.00    -0.460 OA
BRANCH  32  33
ATOM     33  C   UNL A   1      41.903  24.604  26.604  1.00  0.00     0.338 C 
ATOM     34  O   UNL A   1      42.164  24.746  25.419  1.00  0.00    -0.246 OA
BRANCH  33  35
ATOM     35  C   UNL A   1      42.128  25.700  27.567  1.00  0.00     0.060 A 
ATOM     36  C   UNL A   1      42.542  25.400  28.868  1.00  0.00     0.016 A 
ATOM     37  C   UNL A   1      41.654  26.980  27.261  1.00  0.00     0.016 A 
ATOM     38  C   UNL A   1      42.411  26.358  29.879  1.00  0.00     0.010 A 
ATOM     39  C   UNL A   1      41.546  27.944  28.275  1.00  0.00     0.010 A 
ATOM     40  C   UNL A   1      41.870  27.625  29.604  1.00  0.00    -0.014 A 
BRANCH  40  41
ATOM     41  C   UNL A   1      41.558  28.564  30.722  1.00  0.00     0.031 A 
ATOM     42  C   UNL A   1      42.379  28.543  31.992  1.00  0.00     0.074 A 
ATOM     43  C   UNL A   1      40.565  29.466  30.593  1.00  0.00     0.049 A 
ATOM     44  N   UNL A   1      42.262  29.280  33.069  1.00  0.00    -0.248 NA
ATOM     45  C   UNL A   1      43.471  27.559  32.060  1.00  0.00     0.031 C 
ATOM     46  C   UNL A   1      39.698  29.603  29.424  1.00  0.00     0.029 A 
ATOM     47  N   UNL A   1      40.116  30.435  31.460  1.00  0.00    -0.354 N 
ATOM     48  C   UNL A   1      43.265  28.857  33.938  1.00  0.00     0.074 A 
ATOM     49  C   UNL A   1      43.948  27.763  33.280  1.00  0.00     0.031 C 
ATOM     50  C   UNL A   1      38.823  30.598  29.644  1.00  0.00     0.029 A 
ATOM     51  C   UNL A   1      39.041  31.147  30.981  1.00  0.00     0.049 A 
ATOM     52  H   UNL A   1      40.525  30.604  32.338  1.00  0.00     0.167 HD
ATOM     53  C   UNL A   1      43.603  29.346  35.159  1.00  0.00     0.037 A 
ATOM     54  C   UNL A   1      38.303  32.117  31.556  1.00  0.00     0.037 A 
ATOM     55  C   UNL A   1      42.921  30.434  35.818  1.00  0.00     0.049 A 
ATOM     56  C   UNL A   1      38.666  32.611  32.933  1.00  0.00     0.074 A 
ATOM     57  C   UNL A   1      43.197  31.003  37.051  1.00  0.00     0.029 A 
ATOM     58  N   UNL A   1      41.828  31.118  35.305  1.00  0.00    -0.354 N 
ATOM     59  N   UNL A   1      39.635  32.217  33.725  1.00  0.00    -0.248 NA
ATOM     60  C   UNL A   1      37.841  33.693  33.488  1.00  0.00     0.031 C 
ATOM     61  C   UNL A   1      42.241  31.992  37.306  1.00  0.00     0.029 A 
ATOM     62  C   UNL A   1      41.407  32.086  36.206  1.00  0.00     0.049 A 
ATOM     63  H   UNL A   1      41.412  30.942  34.430  1.00  0.00     0.167 HD
ATOM     64  C   UNL A   1      39.549  33.020  34.860  1.00  0.00     0.074 A 
ATOM     65  C   UNL A   1      38.452  33.938  34.639  1.00  0.00     0.031 C 
ATOM     66  C   UNL A   1      40.308  32.996  35.985  1.00  0.00     0.037 A 
BRANCH  53  67
ATOM     67  C   UNL A   1      44.766  28.706  35.877  1.00  0.00     0.058 A 
ATOM     68  C   UNL A   1      44.588  27.616  36.745  1.00  0.00     0.135 A 
ATOM     69  C   UNL A   1      46.081  29.146  35.648  1.00  0.00     0.135 A 
ATOM     70  F   UNL A   1      43.354  27.158  37.009  1.00  0.00    -0.206 F 
ATOM     71  C   UNL A   1      45.666  27.000  37.376  1.00  0.00     0.059 A 
ATOM     72  C   UNL A   1      47.177  28.526  36.245  1.00  0.00     0.059 A 
ATOM     73  F   UNL A   1      46.315  30.180  34.827  1.00  0.00    -0.206 F 
ATOM     74  C   UNL A   1      46.958  27.461  37.117  1.00  0.00     0.060 A 
BRANCH  74  75
ATOM     75  S   UNL A   1      48.344  26.640  37.932  1.00  0.00     0.124 S 
ATOM     76  O   UNL A   1      49.118  27.780  38.414  1.00  0.00    -0.237 OA
ATOM     77  O   UNL A   1      47.677  25.847  38.960  1.00  0.00    -0.237 OA
ATOM     78  O   UNL A   1      48.966  25.871  36.858  1.00  0.00    -0.744 OA
ENDBRANCH  74  75
ENDBRANCH  53  67
BRANCH  54  79
ATOM     79  C   UNL A   1      37.128  32.679  30.834  1.00  0.00     0.058 A 
ATOM     80  C   UNL A   1      35.844  32.135  30.983  1.00  0.00     0.135 A 
ATOM     81  C   UNL A   1      37.274  33.774  29.967  1.00  0.00     0.135 A 
ATOM     82  F   UNL A   1      35.652  31.080  31.790  1.00  0.00    -0.206 F 
ATOM     83  C   UNL A   1      34.752  32.640  30.283  1.00  0.00     0.059 A 
ATOM     84  C   UNL A   1      36.192  34.317  29.283  1.00  0.00     0.059 A 
ATOM     85  F   UNL A   1      38.479  34.343  29.797  1.00  0.00    -0.206 F 
ATOM     86  C   UNL A   1      34.936  33.735  29.437  1.00  0.00     0.060 A 
BRANCH  86  87
ATOM     87  S   UNL A   1      33.506  34.412  28.569  1.00  0.00     0.124 S 
ATOM     88  O   UNL A   1      32.650  34.813  29.679  1.00  0.00    -0.237 OA
ATOM     89  O   UNL A   1      34.104  35.498  27.797  1.00  0.00    -0.237 OA
ATOM     90  O   UNL A   1      33.028  33.283  27.778  1.00  0.00    -0.744 OA
ENDBRANCH  86  87
ENDBRANCH  54  79
BRANCH  66  91
ATOM     91  C   UNL A   1      39.996  34.016  37.051  1.00  0.00     0.058 A 
ATOM     92  C   UNL A   1      40.580  35.293  37.052  1.00  0.00     0.135 A 
ATOM     93  C   UNL A   1      39.096  33.713  38.087  1.00  0.00     0.135 A 
ATOM     94  F   UNL A   1      41.448  35.640  36.088  1.00  0.00    -0.206 F 
ATOM     95  C   UNL A   1      40.327  36.211  38.068  1.00  0.00     0.059 A 
ATOM     96  C   UNL A   1      38.800  34.629  39.094  1.00  0.00     0.059 A 
ATOM     97  F   UNL A   1      38.492  32.514  38.131  1.00  0.00    -0.206 F 
ATOM     98  C   UNL A   1      39.439  35.867  39.088  1.00  0.00     0.060 A 
BRANCH  98  99
ATOM     99  S   UNL A   1      39.132  37.062  40.407  1.00  0.00     0.124 S 
ATOM    100  O   UNL A   1      40.486  37.499  40.730  1.00  0.00    -0.237 OA
ATOM    101  O   UNL A   1      38.287  38.051  39.743  1.00  0.00    -0.237 OA
ATOM    102  O   UNL A   1      38.466  36.268  41.437  1.00  0.00    -0.744 OA
ENDBRANCH  98  99
ENDBRANCH  66  91
ENDBRANCH  40  41
ENDBRANCH  33  35
ENDBRANCH  32  33
ENDBRANCH  31  32
ENDBRANCH  30  31
ENDBRANCH  29  30
ENDBRANCH  28  29
ENDBRANCH   1  28
TORSDOF 23
ENDMDL
