MODEL 1
REMARK VINA RESULT:     -11.4      0.000      0.000
REMARK SMILES O=C(OCCOCCOCCOC(=O)c1cccn1CC(=O)N1CC[C@H]2CCCC[C@H]2C1)c1ccc(-c2c3nc(c(-c4c(F)cc(S(=O)(=O)[O-])cc4F)c4ccc([nH]4)c(-c4c(F)cc(S(=O)(=O)[O-])cc4F)c4nc(c(-c5c(F)cc(S(=O)(=O)[O-])cc5F)c5ccc2[nH]5)C=C4)C=C3)cc1
REMARK SMILES IDX 7 1 6 2 5 3 4 4 3 5 2 6 1 7 33 8 34 9 98 10 35 11 97 12
REMARK SMILES IDX 36 13 37 14 38 15 91 16 39 17 96 18 90 19 92 20 40 21 95 22
REMARK SMILES IDX 89 23 88 24 41 26 75 27 54 28 74 29 55 30 58 31 73 32 93 33
REMARK SMILES IDX 56 34 57 35 72 37 94 38 59 39 42 40 43 41 52 42 44 43 45 44
REMARK SMILES IDX 51 45 53 46 46 47 47 48 48 49 49 50 50 51 76 52 77 53 86 54
REMARK SMILES IDX 78 55 79 56 85 57 87 58 80 59 81 60 82 61 83 62 84 63 60 64
REMARK SMILES IDX 61 65 70 66 62 67 63 68 69 69 71 70 64 71 65 72 66 73 67 74
REMARK SMILES IDX 68 75 8 76 9 77 10 78 11 79 12 80 13 81 14 82 15 83 16 84
REMARK SMILES IDX 19 85 17 86 18 87 20 88 21 89 22 90 23 91 24 92 32 93 25 94
REMARK SMILES IDX 31 95 26 96 30 97 27 98 29 99 28 100
REMARK H PARENT 92 25 58 36
REMARK Flexibility Score: inf
ROOT
ATOM      1  C   UNL A   1      32.990  27.463  26.338  1.00  0.00     0.188 C 
ENDROOT
BRANCH   1   2
ATOM      2  O   UNL A   1      34.123  28.108  26.906  1.00  0.00    -0.376 OA
BRANCH   2   3
ATOM      3  C   UNL A   1      34.318  29.515  26.716  1.00  0.00     0.202 C 
BRANCH   3   4
ATOM      4  C   UNL A   1      33.163  30.516  26.489  1.00  0.00     0.261 C 
BRANCH   4   5
ATOM      5  O   UNL A   1      32.843  31.405  27.549  1.00  0.00    -0.460 OA
BRANCH   5   6
ATOM      6  C   UNL A   1      32.275  32.617  27.320  1.00  0.00     0.338 C 
ATOM      7  O   UNL A   1      31.255  32.674  26.643  1.00  0.00    -0.246 OA
BRANCH   6   8
ATOM      8  C   UNL A   1      33.114  33.838  27.752  1.00  0.00     0.060 A 
ATOM      9  C   UNL A   1      34.211  34.285  28.278  1.00  0.00     0.016 A 
ATOM     10  C   UNL A   1      33.558  33.626  28.941  1.00  0.00     0.016 A 
ATOM     11  C   UNL A   1      35.835  33.856  29.318  1.00  0.00     0.010 A 
ATOM     12  C   UNL A   1      35.094  33.274  30.151  1.00  0.00     0.010 A 
ATOM     13  C   UNL A   1      36.281  32.825  29.976  1.00  0.00    -0.014 A 
BRANCH  13  14
ATOM     14  C   UNL A   1      37.469  32.287  30.688  1.00  0.00     0.031 A 
ATOM     15  C   UNL A   1      37.743  30.941  30.051  1.00  0.00     0.074 A 
ATOM     16  C   UNL A   1      38.019  32.880  31.858  1.00  0.00     0.049 A 
ATOM     17  N   UNL A   1      37.460  29.748  30.479  1.00  0.00    -0.248 NA
ATOM     18  C   UNL A   1      38.019  30.929  28.575  1.00  0.00     0.031 C 
ATOM     19  C   UNL A   1      37.992  34.326  32.228  1.00  0.00     0.029 A 
ATOM     20  N   UNL A   1      38.743  32.446  33.000  1.00  0.00    -0.354 N 
ATOM     21  C   UNL A   1      37.918  28.916  29.445  1.00  0.00     0.074 A 
ATOM     22  C   UNL A   1      37.730  29.665  28.248  1.00  0.00     0.031 C 
ATOM     23  C   UNL A   1      38.359  34.579  33.524  1.00  0.00     0.029 A 
ATOM     24  C   UNL A   1      38.859  33.367  34.155  1.00  0.00     0.049 A 
ATOM     25  H   UNL A   1      39.158  31.553  33.024  1.00  0.00     0.167 HD
ATOM     26  C   UNL A   1      38.961  28.045  29.618  1.00  0.00     0.037 A 
ATOM     27  C   UNL A   1      39.342  33.146  35.464  1.00  0.00     0.037 A 
ATOM     28  C   UNL A   1      39.404  28.105  30.977  1.00  0.00     0.049 A 
ATOM     29  C   UNL A   1      40.139  31.935  35.253  1.00  0.00     0.074 A 
ATOM     30  C   UNL A   1      38.723  27.924  32.154  1.00  0.00     0.029 A 
ATOM     31  N   UNL A   1      40.550  28.839  31.212  1.00  0.00    -0.354 N 
ATOM     32  N   UNL A   1      41.276  31.930  34.624  1.00  0.00    -0.248 NA
ATOM     33  C   UNL A   1      39.624  30.642  35.711  1.00  0.00     0.031 C 
ATOM     34  C   UNL A   1      39.206  28.975  32.940  1.00  0.00     0.029 A 
ATOM     35  C   UNL A   1      40.437  29.417  32.442  1.00  0.00     0.049 A 
ATOM     36  H   UNL A   1      41.316  28.930  30.598  1.00  0.00     0.167 HD
ATOM     37  C   UNL A   1      41.363  30.619  34.237  1.00  0.00     0.074 A 
ATOM     38  C   UNL A   1      40.571  29.860  35.195  1.00  0.00     0.031 C 
ATOM     39  C   UNL A   1      41.415  30.379  32.894  1.00  0.00     0.037 A 
BRANCH  26  40
ATOM     40  C   UNL A   1      39.927  27.466  28.621  1.00  0.00     0.058 A 
ATOM     41  C   UNL A   1      39.987  26.055  28.564  1.00  0.00     0.135 A 
ATOM     42  C   UNL A   1      40.973  28.158  27.985  1.00  0.00     0.135 A 
ATOM     43  F   UNL A   1      39.028  25.305  29.132  1.00  0.00    -0.206 F 
ATOM     44  C   UNL A   1      41.062  25.380  28.005  1.00  0.00     0.059 A 
ATOM     45  C   UNL A   1      42.030  27.500  27.369  1.00  0.00     0.059 A 
ATOM     46  F   UNL A   1      41.070  29.492  27.994  1.00  0.00    -0.206 F 
ATOM     47  C   UNL A   1      42.083  26.114  27.415  1.00  0.00     0.060 A 
BRANCH  47  48
ATOM     48  S   UNL A   1      43.469  25.227  26.695  1.00  0.00     0.124 S 
ATOM     49  O   UNL A   1      43.939  26.175  25.692  1.00  0.00    -0.237 OA
ATOM     50  O   UNL A   1      44.337  25.044  27.855  1.00  0.00    -0.237 OA
ATOM     51  O   UNL A   1      42.856  24.005  26.184  1.00  0.00    -0.744 OA
ENDBRANCH  47  48
ENDBRANCH  26  40
BRANCH  27  52
ATOM     52  C   UNL A   1      39.503  33.624  36.993  1.00  0.00     0.058 A 
ATOM     53  C   UNL A   1      40.322  34.626  37.544  1.00  0.00     0.135 A 
ATOM     54  C   UNL A   1      38.612  33.091  38.006  1.00  0.00     0.135 A 
ATOM     55  F   UNL A   1      41.338  35.130  36.828  1.00  0.00    -0.206 F 
ATOM     56  C   UNL A   1      40.142  35.152  38.878  1.00  0.00     0.059 A 
ATOM     57  C   UNL A   1      38.366  33.631  39.280  1.00  0.00     0.059 A 
ATOM     58  F   UNL A   1      37.910  31.967  37.816  1.00  0.00    -0.206 F 
ATOM     59  C   UNL A   1      39.109  34.701  39.708  1.00  0.00     0.060 A 
BRANCH  59  60
ATOM     60  S   UNL A   1      38.616  35.552  41.247  1.00  0.00     0.124 S 
ATOM     61  O   UNL A   1      39.674  35.177  42.178  1.00  0.00    -0.237 OA
ATOM     62  O   UNL A   1      38.595  36.953  40.838  1.00  0.00    -0.237 OA
ATOM     63  O   UNL A   1      37.300  34.987  41.542  1.00  0.00    -0.744 OA
ENDBRANCH  59  60
ENDBRANCH  27  52
BRANCH  39  64
ATOM     64  C   UNL A   1      42.161  31.420  32.069  1.00  0.00     0.058 A 
ATOM     65  C   UNL A   1      43.464  31.802  32.447  1.00  0.00     0.135 A 
ATOM     66  C   UNL A   1      41.621  32.115  30.970  1.00  0.00     0.135 A 
ATOM     67  F   UNL A   1      44.070  31.182  33.473  1.00  0.00    -0.206 F 
ATOM     68  C   UNL A   1      44.182  32.804  31.787  1.00  0.00     0.059 A 
ATOM     69  C   UNL A   1      42.311  33.140  30.302  1.00  0.00     0.059 A 
ATOM     70  F   UNL A   1      40.409  31.800  30.501  1.00  0.00    -0.206 F 
ATOM     71  C   UNL A   1      43.601  33.469  30.711  1.00  0.00     0.060 A 
BRANCH  71  72
ATOM     72  S   UNL A   1      44.573  34.720  29.834  1.00  0.00     0.124 S 
ATOM     73  O   UNL A   1      44.387  34.347  28.435  1.00  0.00    -0.237 OA
ATOM     74  O   UNL A   1      43.916  35.956  30.247  1.00  0.00    -0.237 OA
ATOM     75  O   UNL A   1      45.926  34.530  30.349  1.00  0.00    -0.744 OA
ENDBRANCH  71  72
ENDBRANCH  39  64
ENDBRANCH  13  14
ENDBRANCH   6   8
ENDBRANCH   5   6
ENDBRANCH   4   5
ENDBRANCH   3   4
ENDBRANCH   2   3
ENDBRANCH   1   2
BRANCH   1  76
ATOM     76  C   UNL A   1      31.589  27.362  26.915  1.00  0.00     0.188 C 
BRANCH  76  77
ATOM     77  O   UNL A   1      30.956  26.114  26.934  1.00  0.00    -0.376 OA
BRANCH  77  78
ATOM     78  C   UNL A   1      31.740  25.038  26.459  1.00  0.00     0.202 C 
BRANCH  78  79
ATOM     79  C   UNL A   1      31.238  23.600  26.737  1.00  0.00     0.261 C 
BRANCH  79  80
ATOM     80  O   UNL A   1      31.985  22.747  27.669  1.00  0.00    -0.459 OA
BRANCH  80  81
ATOM     81  C   UNL A   1      33.260  22.348  27.331  1.00  0.00     0.355 C 
ATOM     82  O   UNL A   1      34.260  22.718  27.932  1.00  0.00    -0.244 OA
BRANCH  81  83
ATOM     83  C   UNL A   1      33.302  21.658  26.035  1.00  0.00     0.128 A 
ATOM     84  C   UNL A   1      32.938  20.311  25.996  1.00  0.00     0.035 A 
ATOM     85  N   UNL A   1      33.367  22.094  24.673  1.00  0.00    -0.333 N 
ATOM     86  C   UNL A   1      32.536  19.993  24.690  1.00  0.00     0.020 A 
ATOM     87  C   UNL A   1      32.758  21.106  23.914  1.00  0.00     0.087 A 
BRANCH  85  88
ATOM     88  C   UNL A   1      33.752  23.423  24.070  1.00  0.00     0.222 C 
BRANCH  88  89
ATOM     89  C   UNL A   1      33.386  23.948  22.530  1.00  0.00     0.242 C 
ATOM     90  O   UNL A   1      33.948  23.401  21.575  1.00  0.00    -0.273 OA
BRANCH  89  91
ATOM     91  N   UNL A   1      32.253  24.858  22.290  1.00  0.00    -0.341 N 
ATOM     92  C   UNL A   1      32.999  26.670  22.031  1.00  0.00     0.120 C 
ATOM     93  C   UNL A   1      30.308  24.731  23.058  1.00  0.00     0.123 C 
ATOM     94  C   UNL A   1      32.314  28.510  22.658  1.00  0.00     0.025 C 
ATOM     95  C   UNL A   1      29.532  26.611  23.775  1.00  0.00     0.012 C 
ATOM     96  C   UNL A   1      30.479  28.506  23.711  1.00  0.00    -0.005 C 
ATOM     97  C   UNL A   1      28.037  27.108  23.778  1.00  0.00     0.006 C 
ATOM     98  C   UNL A   1      29.723  29.775  23.358  1.00  0.00     0.004 C 
ATOM     99  C   UNL A   1      27.580  28.483  23.155  1.00  0.00     0.000 C 
ATOM    100  C   UNL A   1      28.516  29.511  22.521  1.00  0.00     0.000 C 
ENDBRANCH  89  91
ENDBRANCH  88  89
ENDBRANCH  85  88
ENDBRANCH  81  83
ENDBRANCH  80  81
ENDBRANCH  79  80
ENDBRANCH  78  79
ENDBRANCH  77  78
ENDBRANCH  76  77
ENDBRANCH   1  76
TORSDOF 23
ENDMDL
MODEL 2
REMARK VINA RESULT:     -10.2      1.276      2.613
REMARK SMILES O=C(OCCOCCOCCOC(=O)c1cccn1CC(=O)N1CC[C@H]2CCCC[C@H]2C1)c1ccc(-c2c3nc(c(-c4c(F)cc(S(=O)(=O)[O-])cc4F)c4ccc([nH]4)c(-c4c(F)cc(S(=O)(=O)[O-])cc4F)c4nc(c(-c5c(F)cc(S(=O)(=O)[O-])cc5F)c5ccc2[nH]5)C=C4)C=C3)cc1
REMARK SMILES IDX 7 1 6 2 5 3 4 4 3 5 2 6 1 7 33 8 34 9 98 10 35 11 97 12
REMARK SMILES IDX 36 13 37 14 38 15 91 16 39 17 96 18 90 19 92 20 40 21 95 22
REMARK SMILES IDX 89 23 88 24 41 26 75 27 54 28 74 29 55 30 58 31 73 32 93 33
REMARK SMILES IDX 56 34 57 35 72 37 94 38 59 39 42 40 43 41 52 42 44 43 45 44
REMARK SMILES IDX 51 45 53 46 46 47 47 48 48 49 49 50 50 51 76 52 77 53 86 54
REMARK SMILES IDX 78 55 79 56 85 57 87 58 80 59 81 60 82 61 83 62 84 63 60 64
REMARK SMILES IDX 61 65 70 66 62 67 63 68 69 69 71 70 64 71 65 72 66 73 67 74
REMARK SMILES IDX 68 75 8 76 9 77 10 78 11 79 12 80 13 81 14 82 15 83 16 84
REMARK SMILES IDX 19 85 17 86 18 87 20 88 21 89 22 90 23 91 24 92 32 93 25 94
REMARK SMILES IDX 31 95 26 96 30 97 27 98 29 99 28 100
REMARK H PARENT 92 25 58 36
REMARK Flexibility Score: inf
ROOT
ATOM      1  C   UNL A   1      34.328  28.718  24.038  1.00  0.00     0.188 C 
ENDROOT
BRANCH   1   2
ATOM      2  O   UNL A   1      34.102  28.175  25.333  1.00  0.00    -0.376 OA
BRANCH   2   3
ATOM      3  C   UNL A   1      33.707  29.031  26.412  1.00  0.00     0.202 C 
BRANCH   3   4
ATOM      4  C   UNL A   1      33.375  30.529  26.237  1.00  0.00     0.261 C 
BRANCH   4   5
ATOM      5  O   UNL A   1      32.668  31.176  27.287  1.00  0.00    -0.460 OA
BRANCH   5   6
ATOM      6  C   UNL A   1      32.042  32.366  27.101  1.00  0.00     0.338 C 
ATOM      7  O   UNL A   1      30.999  32.392  26.459  1.00  0.00    -0.246 OA
BRANCH   6   8
ATOM      8  C   UNL A   1      32.843  33.614  27.529  1.00  0.00     0.060 A 
ATOM      9  C   UNL A   1      33.925  34.097  28.054  1.00  0.00     0.016 A 
ATOM     10  C   UNL A   1      33.293  33.419  28.719  1.00  0.00     0.016 A 
ATOM     11  C   UNL A   1      35.562  33.722  29.095  1.00  0.00     0.010 A 
ATOM     12  C   UNL A   1      34.839  33.119  29.929  1.00  0.00     0.010 A 
ATOM     13  C   UNL A   1      36.039  32.707  29.756  1.00  0.00    -0.014 A 
BRANCH  13  14
ATOM     14  C   UNL A   1      37.244  32.209  30.469  1.00  0.00     0.031 A 
ATOM     15  C   UNL A   1      37.537  30.853  29.862  1.00  0.00     0.074 A 
ATOM     16  C   UNL A   1      37.793  32.840  31.619  1.00  0.00     0.049 A 
ATOM     17  N   UNL A   1      37.280  29.665  30.322  1.00  0.00    -0.248 NA
ATOM     18  C   UNL A   1      37.800  30.809  28.384  1.00  0.00     0.031 C 
ATOM     19  C   UNL A   1      37.743  34.293  31.955  1.00  0.00     0.029 A 
ATOM     20  N   UNL A   1      38.536  32.447  32.765  1.00  0.00    -0.354 N 
ATOM     21  C   UNL A   1      37.744  28.817  29.303  1.00  0.00     0.074 A 
ATOM     22  C   UNL A   1      37.531  29.533  28.091  1.00  0.00     0.031 C 
ATOM     23  C   UNL A   1      38.117  34.585  33.240  1.00  0.00     0.029 A 
ATOM     24  C   UNL A   1      38.645  33.398  33.895  1.00  0.00     0.049 A 
ATOM     25  H   UNL A   1      38.968  31.563  32.806  1.00  0.00     0.167 HD
ATOM     26  C   UNL A   1      38.804  27.970  29.488  1.00  0.00     0.037 A 
ATOM     27  C   UNL A   1      39.144  33.218  35.205  1.00  0.00     0.037 A 
ATOM     28  C   UNL A   1      39.258  28.071  30.840  1.00  0.00     0.049 A 
ATOM     29  C   UNL A   1      39.961  32.017  35.015  1.00  0.00     0.074 A 
ATOM     30  C   UNL A   1      38.592  27.906  32.028  1.00  0.00     0.029 A 
ATOM     31  N   UNL A   1      40.393  28.832  31.047  1.00  0.00    -0.354 N 
ATOM     32  N   UNL A   1      41.092  32.018  34.376  1.00  0.00    -0.248 NA
ATOM     33  C   UNL A   1      39.474  30.727  35.509  1.00  0.00     0.031 C 
ATOM     34  C   UNL A   1      39.063  28.985  32.784  1.00  0.00     0.029 A 
ATOM     35  C   UNL A   1      40.281  29.437  32.264  1.00  0.00     0.049 A 
ATOM     36  H   UNL A   1      41.152  28.921  30.424  1.00  0.00     0.167 HD
ATOM     37  C   UNL A   1      41.201  30.700  34.020  1.00  0.00     0.074 A 
ATOM     38  C   UNL A   1      40.431  29.949  35.003  1.00  0.00     0.031 C 
ATOM     39  C   UNL A   1      41.245  30.427  32.683  1.00  0.00     0.037 A 
BRANCH  26  40
ATOM     40  C   UNL A   1      39.772  27.384  28.496  1.00  0.00     0.058 A 
ATOM     41  C   UNL A   1      39.872  25.974  28.485  1.00  0.00     0.135 A 
ATOM     42  C   UNL A   1      40.789  28.083  27.821  1.00  0.00     0.135 A 
ATOM     43  F   UNL A   1      38.943  25.217  29.093  1.00  0.00    -0.206 F 
ATOM     44  C   UNL A   1      40.957  25.312  27.933  1.00  0.00     0.059 A 
ATOM     45  C   UNL A   1      41.855  27.434  27.211  1.00  0.00     0.059 A 
ATOM     46  F   UNL A   1      40.847  29.419  27.784  1.00  0.00    -0.206 F 
ATOM     47  C   UNL A   1      41.948  26.053  27.303  1.00  0.00     0.060 A 
BRANCH  47  48
ATOM     48  S   UNL A   1      43.349  25.181  26.591  1.00  0.00     0.124 S 
ATOM     49  O   UNL A   1      44.432  25.590  27.476  1.00  0.00    -0.237 OA
ATOM     50  O   UNL A   1      42.920  23.790  26.708  1.00  0.00    -0.237 OA
ATOM     51  O   UNL A   1      43.406  25.697  25.227  1.00  0.00    -0.744 OA
ENDBRANCH  47  48
ENDBRANCH  26  40
BRANCH  27  52
ATOM     52  C   UNL A   1      39.310  33.736  36.720  1.00  0.00     0.058 A 
ATOM     53  C   UNL A   1      38.402  33.691  37.794  1.00  0.00     0.135 A 
ATOM     54  C   UNL A   1      40.602  34.214  37.174  1.00  0.00     0.135 A 
ATOM     55  F   UNL A   1      37.104  33.446  37.564  1.00  0.00    -0.206 F 
ATOM     56  C   UNL A   1      38.790  33.914  39.168  1.00  0.00     0.059 A 
ATOM     57  C   UNL A   1      41.023  34.365  38.507  1.00  0.00     0.059 A 
ATOM     58  F   UNL A   1      41.563  34.588  36.320  1.00  0.00    -0.206 F 
ATOM     59  C   UNL A   1      40.120  34.172  39.520  1.00  0.00     0.060 A 
BRANCH  59  60
ATOM     60  S   UNL A   1      40.730  34.119  41.240  1.00  0.00     0.124 S 
ATOM     61  O   UNL A   1      41.304  35.447  41.422  1.00  0.00    -0.237 OA
ATOM     62  O   UNL A   1      39.512  33.844  41.997  1.00  0.00    -0.237 OA
ATOM     63  O   UNL A   1      41.696  33.022  41.225  1.00  0.00    -0.744 OA
ENDBRANCH  59  60
ENDBRANCH  27  52
BRANCH  39  64
ATOM     64  C   UNL A   1      41.963  31.461  31.825  1.00  0.00     0.058 A 
ATOM     65  C   UNL A   1      43.260  31.881  32.186  1.00  0.00     0.135 A 
ATOM     66  C   UNL A   1      41.403  32.116  30.712  1.00  0.00     0.135 A 
ATOM     67  F   UNL A   1      43.885  31.302  33.224  1.00  0.00    -0.206 F 
ATOM     68  C   UNL A   1      43.953  32.880  31.494  1.00  0.00     0.059 A 
ATOM     69  C   UNL A   1      42.067  33.136  30.013  1.00  0.00     0.059 A 
ATOM     70  F   UNL A   1      40.195  31.762  30.259  1.00  0.00    -0.206 F 
ATOM     71  C   UNL A   1      43.352  33.503  30.404  1.00  0.00     0.060 A 
BRANCH  71  72
ATOM     72  S   UNL A   1      44.292  34.751  29.489  1.00  0.00     0.124 S 
ATOM     73  O   UNL A   1      45.653  34.547  29.976  1.00  0.00    -0.237 OA
ATOM     74  O   UNL A   1      44.054  34.353  28.105  1.00  0.00    -0.237 OA
ATOM     75  O   UNL A   1      43.676  36.012  29.890  1.00  0.00    -0.744 OA
ENDBRANCH  71  72
ENDBRANCH  39  64
ENDBRANCH  13  14
ENDBRANCH   6   8
ENDBRANCH   5   6
ENDBRANCH   4   5
ENDBRANCH   3   4
ENDBRANCH   2   3
ENDBRANCH   1   2
BRANCH   1  76
ATOM     76  C   UNL A   1      33.838  28.182  22.704  1.00  0.00     0.188 C 
BRANCH  76  77
ATOM     77  O   UNL A   1      33.531  26.821  22.597  1.00  0.00    -0.376 OA
BRANCH  77  78
ATOM     78  C   UNL A   1      32.663  26.485  21.533  1.00  0.00     0.202 C 
BRANCH  78  79
ATOM     79  C   UNL A   1      32.407  24.983  21.256  1.00  0.00     0.261 C 
BRANCH  79  80
ATOM     80  O   UNL A   1      33.477  24.013  21.515  1.00  0.00    -0.459 OA
BRANCH  80  81
ATOM     81  C   UNL A   1      33.241  22.979  22.393  1.00  0.00     0.355 C 
ATOM     82  O   UNL A   1      32.657  21.950  22.076  1.00  0.00    -0.244 OA
BRANCH  81  83
ATOM     83  C   UNL A   1      33.524  23.354  23.785  1.00  0.00     0.128 A 
ATOM     84  C   UNL A   1      34.815  23.782  24.099  1.00  0.00     0.035 A 
ATOM     85  N   UNL A   1      32.712  23.669  24.920  1.00  0.00    -0.333 N 
ATOM     86  C   UNL A   1      34.758  24.565  25.262  1.00  0.00     0.020 A 
ATOM     87  C   UNL A   1      33.460  24.523  25.716  1.00  0.00     0.087 A 
BRANCH  85  88
ATOM     88  C   UNL A   1      31.252  23.409  25.202  1.00  0.00     0.222 C 
BRANCH  88  89
ATOM     89  C   UNL A   1      30.301  24.228  26.300  1.00  0.00     0.242 C 
ATOM     90  O   UNL A   1      30.101  23.710  27.404  1.00  0.00    -0.273 OA
BRANCH  89  91
ATOM     91  N   UNL A   1      29.914  25.630  26.068  1.00  0.00    -0.341 N 
ATOM     92  C   UNL A   1      28.057  25.623  25.391  1.00  0.00     0.120 C 
ATOM     93  C   UNL A   1      31.135  27.228  25.480  1.00  0.00     0.123 C 
ATOM     94  C   UNL A   1      27.149  26.774  23.941  1.00  0.00     0.025 C 
ATOM     95  C   UNL A   1      30.272  28.459  23.934  1.00  0.00     0.012 C 
ATOM     96  C   UNL A   1      28.359  28.260  23.045  1.00  0.00    -0.005 C 
ATOM     97  C   UNL A   1      30.468  30.004  23.700  1.00  0.00     0.006 C 
ATOM     98  C   UNL A   1      27.486  29.461  22.730  1.00  0.00     0.004 C 
ATOM     99  C   UNL A   1      29.269  31.019  23.564  1.00  0.00     0.000 C 
ATOM    100  C   UNL A   1      27.790  30.635  23.598  1.00  0.00     0.000 C 
ENDBRANCH  89  91
ENDBRANCH  88  89
ENDBRANCH  85  88
ENDBRANCH  81  83
ENDBRANCH  80  81
ENDBRANCH  79  80
ENDBRANCH  78  79
ENDBRANCH  77  78
ENDBRANCH  76  77
ENDBRANCH   1  76
TORSDOF 23
ENDMDL
MODEL 3
REMARK VINA RESULT:     -10.0      5.408     10.588
REMARK SMILES O=C(OCCOCCOCCOC(=O)c1cccn1CC(=O)N1CC[C@H]2CCCC[C@H]2C1)c1ccc(-c2c3nc(c(-c4c(F)cc(S(=O)(=O)[O-])cc4F)c4ccc([nH]4)c(-c4c(F)cc(S(=O)(=O)[O-])cc4F)c4nc(c(-c5c(F)cc(S(=O)(=O)[O-])cc5F)c5ccc2[nH]5)C=C4)C=C3)cc1
REMARK SMILES IDX 7 1 6 2 5 3 4 4 3 5 2 6 1 7 33 8 34 9 98 10 35 11 97 12
REMARK SMILES IDX 36 13 37 14 38 15 91 16 39 17 96 18 90 19 92 20 40 21 95 22
REMARK SMILES IDX 89 23 88 24 41 26 75 27 54 28 74 29 55 30 58 31 73 32 93 33
REMARK SMILES IDX 56 34 57 35 72 37 94 38 59 39 42 40 43 41 52 42 44 43 45 44
REMARK SMILES IDX 51 45 53 46 46 47 47 48 48 49 49 50 50 51 76 52 77 53 86 54
REMARK SMILES IDX 78 55 79 56 85 57 87 58 80 59 81 60 82 61 83 62 84 63 60 64
REMARK SMILES IDX 61 65 70 66 62 67 63 68 69 69 71 70 64 71 65 72 66 73 67 74
REMARK SMILES IDX 68 75 8 76 9 77 10 78 11 79 12 80 13 81 14 82 15 83 16 84
REMARK SMILES IDX 19 85 17 86 18 87 20 88 21 89 22 90 23 91 24 92 32 93 25 94
REMARK SMILES IDX 31 95 26 96 30 97 27 98 29 99 28 100
REMARK H PARENT 92 25 58 36
REMARK Flexibility Score: inf
ROOT
ATOM      1  C   UNL A   1      39.534  22.252  26.339  1.00  0.00     0.188 C 
ENDROOT
BRANCH   1   2
ATOM      2  O   UNL A   1      40.043  21.043  26.889  1.00  0.00    -0.376 OA
BRANCH   2   3
ATOM      3  C   UNL A   1      40.423  19.965  26.026  1.00  0.00     0.202 C 
BRANCH   3   4
ATOM      4  C   UNL A   1      41.699  19.117  26.227  1.00  0.00     0.261 C 
BRANCH   4   5
ATOM      5  O   UNL A   1      42.954  19.774  26.110  1.00  0.00    -0.460 OA
BRANCH   5   6
ATOM      6  C   UNL A   1      43.961  19.263  25.358  1.00  0.00     0.338 C 
ATOM      7  O   UNL A   1      44.322  18.109  25.556  1.00  0.00    -0.246 OA
BRANCH   6   8
ATOM      8  C   UNL A   1      44.714  20.281  24.475  1.00  0.00     0.060 A 
ATOM      9  C   UNL A   1      45.275  21.445  24.376  1.00  0.00     0.016 A 
ATOM     10  C   UNL A   1      44.162  21.434  24.623  1.00  0.00     0.016 A 
ATOM     11  C   UNL A   1      45.515  23.233  25.182  1.00  0.00     0.010 A 
ATOM     12  C   UNL A   1      44.265  23.300  25.296  1.00  0.00     0.010 A 
ATOM     13  C   UNL A   1      44.987  23.893  26.172  1.00  0.00    -0.014 A 
BRANCH  13  14
ATOM     14  C   UNL A   1      45.107  25.137  26.975  1.00  0.00     0.031 A 
ATOM     15  C   UNL A   1      43.724  25.754  26.970  1.00  0.00     0.074 A 
ATOM     16  C   UNL A   1      46.350  25.670  27.416  1.00  0.00     0.049 A 
ATOM     17  N   UNL A   1      43.259  26.742  26.267  1.00  0.00    -0.248 NA
ATOM     18  C   UNL A   1      42.606  24.924  27.533  1.00  0.00     0.031 C 
ATOM     19  C   UNL A   1      47.591  24.905  27.736  1.00  0.00     0.029 A 
ATOM     20  N   UNL A   1      46.880  26.951  27.725  1.00  0.00    -0.354 N 
ATOM     21  C   UNL A   1      41.915  26.819  26.667  1.00  0.00     0.074 A 
ATOM     22  C   UNL A   1      41.533  25.479  26.961  1.00  0.00     0.031 C 
ATOM     23  C   UNL A   1      48.708  25.684  27.881  1.00  0.00     0.029 A 
ATOM     24  C   UNL A   1      48.348  27.094  27.862  1.00  0.00     0.049 A 
ATOM     25  H   UNL A   1      46.285  27.727  27.847  1.00  0.00     0.167 HD
ATOM     26  C   UNL A   1      41.420  27.899  27.350  1.00  0.00     0.037 A 
ATOM     27  C   UNL A   1      49.155  28.249  27.973  1.00  0.00     0.037 A 
ATOM     28  C   UNL A   1      42.452  28.878  27.496  1.00  0.00     0.049 A 
ATOM     29  C   UNL A   1      48.156  29.229  28.407  1.00  0.00     0.074 A 
ATOM     30  C   UNL A   1      43.235  29.506  26.561  1.00  0.00     0.029 A 
ATOM     31  N   UNL A   1      43.068  28.934  28.732  1.00  0.00    -0.354 N 
ATOM     32  N   UNL A   1      47.637  29.240  29.598  1.00  0.00    -0.248 NA
ATOM     33  C   UNL A   1      47.656  30.222  27.452  1.00  0.00     0.031 C 
ATOM     34  C   UNL A   1      44.501  29.457  27.156  1.00  0.00     0.029 A 
ATOM     35  C   UNL A   1      44.373  29.278  28.537  1.00  0.00     0.049 A 
ATOM     36  H   UNL A   1      42.639  28.756  29.601  1.00  0.00     0.167 HD
ATOM     37  C   UNL A   1      46.471  29.923  29.378  1.00  0.00     0.074 A 
ATOM     38  C   UNL A   1      46.711  30.769  28.215  1.00  0.00     0.031 C 
ATOM     39  C   UNL A   1      45.310  29.255  29.637  1.00  0.00     0.037 A 
BRANCH  26  40
ATOM     40  C   UNL A   1      40.251  28.008  28.290  1.00  0.00     0.058 A 
ATOM     41  C   UNL A   1      39.265  28.962  27.947  1.00  0.00     0.135 A 
ATOM     42  C   UNL A   1      40.195  27.502  29.602  1.00  0.00     0.135 A 
ATOM     43  F   UNL A   1      39.229  29.495  26.714  1.00  0.00    -0.206 F 
ATOM     44  C   UNL A   1      38.355  29.453  28.870  1.00  0.00     0.059 A 
ATOM     45  C   UNL A   1      39.253  27.940  30.525  1.00  0.00     0.059 A 
ATOM     46  F   UNL A   1      41.086  26.627  30.079  1.00  0.00    -0.206 F 
ATOM     47  C   UNL A   1      38.362  28.939  30.160  1.00  0.00     0.060 A 
BRANCH  47  48
ATOM     48  S   UNL A   1      37.176  29.585  31.346  1.00  0.00     0.124 S 
ATOM     49  O   UNL A   1      37.308  28.635  32.444  1.00  0.00    -0.237 OA
ATOM     50  O   UNL A   1      37.706  30.923  31.594  1.00  0.00    -0.237 OA
ATOM     51  O   UNL A   1      35.915  29.546  30.613  1.00  0.00    -0.744 OA
ENDBRANCH  47  48
ENDBRANCH  26  40
BRANCH  27  52
ATOM     52  C   UNL A   1      50.604  28.948  27.943  1.00  0.00     0.058 A 
ATOM     53  C   UNL A   1      51.403  29.415  29.003  1.00  0.00     0.135 A 
ATOM     54  C   UNL A   1      51.332  29.031  26.691  1.00  0.00     0.135 A 
ATOM     55  F   UNL A   1      50.868  29.591  30.219  1.00  0.00    -0.206 F 
ATOM     56  C   UNL A   1      52.804  29.740  28.855  1.00  0.00     0.059 A 
ATOM     57  C   UNL A   1      52.708  29.271  26.531  1.00  0.00     0.059 A 
ATOM     58  F   UNL A   1      50.726  28.889  25.505  1.00  0.00    -0.206 F 
ATOM     59  C   UNL A   1      53.464  29.588  27.630  1.00  0.00     0.060 A 
BRANCH  59  60
ATOM     60  S   UNL A   1      55.280  29.647  27.456  1.00  0.00     0.124 S 
ATOM     61  O   UNL A   1      55.745  29.387  28.814  1.00  0.00    -0.237 OA
ATOM     62  O   UNL A   1      55.538  28.590  26.482  1.00  0.00    -0.237 OA
ATOM     63  O   UNL A   1      55.532  31.000  26.962  1.00  0.00    -0.744 OA
ENDBRANCH  59  60
ENDBRANCH  27  52
BRANCH  39  64
ATOM     64  C   UNL A   1      45.358  28.284  30.810  1.00  0.00     0.058 A 
ATOM     65  C   UNL A   1      45.860  28.721  32.052  1.00  0.00     0.135 A 
ATOM     66  C   UNL A   1      45.008  26.922  30.744  1.00  0.00     0.135 A 
ATOM     67  F   UNL A   1      46.204  30.009  32.217  1.00  0.00    -0.206 F 
ATOM     68  C   UNL A   1      46.007  27.871  33.152  1.00  0.00     0.059 A 
ATOM     69  C   UNL A   1      45.166  26.041  31.826  1.00  0.00     0.059 A 
ATOM     70  F   UNL A   1      44.480  26.414  29.625  1.00  0.00    -0.206 F 
ATOM     71  C   UNL A   1      45.655  26.529  33.035  1.00  0.00     0.060 A 
BRANCH  71  72
ATOM     72  S   UNL A   1      45.798  25.462  34.490  1.00  0.00     0.124 S 
ATOM     73  O   UNL A   1      44.643  24.580  34.354  1.00  0.00    -0.237 OA
ATOM     74  O   UNL A   1      47.098  24.832  34.275  1.00  0.00    -0.237 OA
ATOM     75  O   UNL A   1      45.734  26.394  35.611  1.00  0.00    -0.744 OA
ENDBRANCH  71  72
ENDBRANCH  39  64
ENDBRANCH  13  14
ENDBRANCH   6   8
ENDBRANCH   5   6
ENDBRANCH   4   5
ENDBRANCH   3   4
ENDBRANCH   2   3
ENDBRANCH   1   2
BRANCH   1  76
ATOM     76  C   UNL A   1      38.170  22.489  25.713  1.00  0.00     0.188 C 
BRANCH  76  77
ATOM     77  O   UNL A   1      37.441  21.388  25.250  1.00  0.00    -0.376 OA
BRANCH  77  78
ATOM     78  C   UNL A   1      36.112  21.307  25.725  1.00  0.00     0.202 C 
BRANCH  78  79
ATOM     79  C   UNL A   1      35.144  20.341  25.001  1.00  0.00     0.261 C 
BRANCH  79  80
ATOM     80  O   UNL A   1      33.903  20.869  24.421  1.00  0.00    -0.459 OA
BRANCH  80  81
ATOM     81  C   UNL A   1      32.728  20.732  25.125  1.00  0.00     0.355 C 
ATOM     82  O   UNL A   1      32.151  19.661  25.266  1.00  0.00    -0.244 OA
BRANCH  81  83
ATOM     83  C   UNL A   1      32.120  22.029  25.452  1.00  0.00     0.128 A 
ATOM     84  C   UNL A   1      30.886  22.029  26.104  1.00  0.00     0.035 A 
ATOM     85  N   UNL A   1      32.610  23.372  25.523  1.00  0.00    -0.333 N 
ATOM     86  C   UNL A   1      30.735  23.251  26.779  1.00  0.00     0.020 A 
ATOM     87  C   UNL A   1      31.819  24.032  26.451  1.00  0.00     0.087 A 
BRANCH  85  88
ATOM     88  C   UNL A   1      33.859  24.006  24.962  1.00  0.00     0.222 C 
BRANCH  88  89
ATOM     89  C   UNL A   1      34.004  24.749  23.476  1.00  0.00     0.242 C 
ATOM     90  O   UNL A   1      34.865  24.332  22.693  1.00  0.00    -0.273 OA
BRANCH  89  91
ATOM     91  N   UNL A   1      32.985  25.702  23.004  1.00  0.00    -0.341 N 
ATOM     92  C   UNL A   1      33.700  27.521  23.303  1.00  0.00     0.120 C 
ATOM     93  C   UNL A   1      30.902  25.483  23.024  1.00  0.00     0.123 C 
ATOM     94  C   UNL A   1      32.765  29.247  23.933  1.00  0.00     0.025 C 
ATOM     95  C   UNL A   1      29.850  27.235  23.712  1.00  0.00     0.012 C 
ATOM     96  C   UNL A   1      30.682  29.102  24.273  1.00  0.00    -0.005 C 
ATOM     97  C   UNL A   1      28.426  27.747  23.275  1.00  0.00     0.006 C 
ATOM     98  C   UNL A   1      30.041  30.422  23.883  1.00  0.00     0.004 C 
ATOM     99  C   UNL A   1      28.154  29.211  22.754  1.00  0.00     0.000 C 
ATOM    100  C   UNL A   1      29.207  30.313  22.651  1.00  0.00     0.000 C 
ENDBRANCH  89  91
ENDBRANCH  88  89
ENDBRANCH  85  88
ENDBRANCH  81  83
ENDBRANCH  80  81
ENDBRANCH  79  80
ENDBRANCH  78  79
ENDBRANCH  77  78
ENDBRANCH  76  77
ENDBRANCH   1  76
TORSDOF 23
ENDMDL
