MODEL 1
REMARK VINA RESULT:     -11.6      0.000      0.000
REMARK SMILES CCOc1ccc(-n2nnc(-c3nc(C)c(C(=O)OCCOCCOCCOC(=O)c4ccc(-c5c6nc(c(-c7c(F)cc(S(=O)(=O)[O-])cc7F)c7ccc([nH]7)c(-c7c(F)cc(S(=O)(=O)[O-])cc7F)c7nc(c(-c8c(F)cc(S(=O)(=O)[O-])cc8F)c8ccc5[nH]8)C=C7)C=C6)cc4)s3)c2C)cc1
REMARK SMILES IDX 23 1 22 2 21 3 20 4 19 5 17 6 18 7 16 8 12 9 13 10 97 11
REMARK SMILES IDX 14 12 15 13 11 14 8 15 9 16 98 17 10 18 99 19 7 20 4 21 5 22
REMARK SMILES IDX 101 23 6 24 100 25 3 26 2 27 1 28 24 29 25 30 26 31 27 32
REMARK SMILES IDX 28 33 29 34 30 35 31 36 32 37 96 38 33 39 95 40 34 41 35 42
REMARK SMILES IDX 36 43 89 44 37 45 94 46 88 47 90 48 38 49 93 50 87 51 86 52
REMARK SMILES IDX 39 54 73 55 52 56 72 57 53 58 56 59 71 60 91 61 54 62 55 63
REMARK SMILES IDX 70 65 92 66 57 67 40 68 41 69 50 70 42 71 43 72 49 73 51 74
REMARK SMILES IDX 44 75 45 76 46 77 47 78 48 79 74 80 75 81 84 82 76 83 77 84
REMARK SMILES IDX 83 85 85 86 78 87 79 88 80 89 81 90 82 91 58 92 59 93 68 94
REMARK SMILES IDX 60 95 61 96 67 97 69 98 62 99 63 100 64 101 65 102 66 103
REMARK H PARENT 90 53 56 64
REMARK Flexibility Score: inf
ROOT
ATOM      1  C   UNL A   1      40.058  21.595  26.722  1.00  0.00     0.188 C 
ENDROOT
BRANCH   1   2
ATOM      2  O   UNL A   1      39.610  20.774  25.650  1.00  0.00    -0.376 OA
BRANCH   2   3
ATOM      3  C   UNL A   1      38.244  20.795  25.249  1.00  0.00     0.202 C 
BRANCH   3   4
ATOM      4  C   UNL A   1      37.399  22.044  25.537  1.00  0.00     0.261 C 
BRANCH   4   5
ATOM      5  O   UNL A   1      36.114  21.753  26.096  1.00  0.00    -0.459 OA
BRANCH   5   6
ATOM      6  C   UNL A   1      35.259  20.988  25.351  1.00  0.00     0.350 C 
ATOM      7  O   UNL A   1      35.565  19.968  24.768  1.00  0.00    -0.245 OA
BRANCH   6   8
ATOM      8  C   UNL A   1      33.917  21.516  25.463  1.00  0.00     0.135 A 
ATOM      9  C   UNL A   1      31.977  22.933  25.744  1.00  0.00     0.146 A 
ATOM     10  N   UNL A   1      31.582  21.740  25.355  1.00  0.00    -0.239 NA
ATOM     11  S   UNL A   1      33.646  23.058  26.133  1.00  0.00    -0.105 S 
ATOM     12  C   UNL A   1      32.699  20.926  25.151  1.00  0.00     0.064 A 
ATOM     13  C   UNL A   1      32.472  19.540  24.659  1.00  0.00     0.068 C 
BRANCH   9  14
ATOM     14  C   UNL A   1      31.139  24.166  25.696  1.00  0.00     0.145 A 
ATOM     15  N   UNL A   1      30.074  25.878  24.899  1.00  0.00    -0.217 N 
ATOM     16  N   UNL A   1      30.177  26.040  26.237  1.00  0.00    -0.061 NA
ATOM     17  C   UNL A   1      30.720  24.724  24.504  1.00  0.00     0.072 A 
ATOM     18  N   UNL A   1      30.723  24.933  26.743  1.00  0.00    -0.127 NA
ATOM     19  C   UNL A   1      30.953  24.270  23.105  1.00  0.00     0.069 C 
BRANCH  15  20
ATOM     20  C   UNL A   1      29.464  26.822  24.053  1.00  0.00     0.067 A 
ATOM     21  C   UNL A   1      28.259  29.031  22.886  1.00  0.00     0.119 A 
ATOM     22  C   UNL A   1      27.474  27.959  23.323  1.00  0.00     0.048 A 
ATOM     23  C   UNL A   1      29.645  28.983  23.002  1.00  0.00     0.048 A 
ATOM     24  C   UNL A   1      28.077  26.831  23.894  1.00  0.00     0.032 A 
ATOM     25  C   UNL A   1      30.251  27.863  23.549  1.00  0.00     0.032 A 
BRANCH  21  26
ATOM     26  O   UNL A   1      27.634  30.176  22.476  1.00  0.00    -0.494 OA
BRANCH  26  27
ATOM     27  C   UNL A   1      27.749  31.251  23.417  1.00  0.00     0.226 C 
ATOM     28  C   UNL A   1      28.390  32.496  22.820  1.00  0.00     0.049 C 
ENDBRANCH  26  27
ENDBRANCH  21  26
ENDBRANCH  15  20
ENDBRANCH   9  14
ENDBRANCH   6   8
ENDBRANCH   5   6
ENDBRANCH   4   5
ENDBRANCH   3   4
ENDBRANCH   2   3
ENDBRANCH   1   2
BRANCH   1  29
ATOM     29  C   UNL A   1      41.213  21.142  27.641  1.00  0.00     0.188 C 
BRANCH  29  30
ATOM     30  O   UNL A   1      41.270  19.746  27.872  1.00  0.00    -0.376 OA
BRANCH  30  31
ATOM     31  C   UNL A   1      42.465  19.087  27.465  1.00  0.00     0.202 C 
BRANCH  31  32
ATOM     32  C   UNL A   1      42.579  18.723  25.984  1.00  0.00     0.261 C 
BRANCH  32  33
ATOM     33  O   UNL A   1      42.945  19.793  25.125  1.00  0.00    -0.460 OA
BRANCH  33  34
ATOM     34  C   UNL A   1      44.267  20.041  25.029  1.00  0.00     0.338 C 
ATOM     35  O   UNL A   1      45.159  19.222  24.899  1.00  0.00    -0.246 OA
BRANCH  34  36
ATOM     36  C   UNL A   1      44.469  21.486  25.176  1.00  0.00     0.060 A 
ATOM     37  C   UNL A   1      45.555  21.915  25.940  1.00  0.00     0.016 A 
ATOM     38  C   UNL A   1      43.441  22.358  24.783  1.00  0.00     0.016 A 
ATOM     39  C   UNL A   1      45.505  23.179  26.486  1.00  0.00     0.010 A 
ATOM     40  C   UNL A   1      43.384  23.610  25.344  1.00  0.00     0.010 A 
ATOM     41  C   UNL A   1      44.374  23.967  26.256  1.00  0.00    -0.014 A 
BRANCH  41  42
ATOM     42  C   UNL A   1      44.240  25.192  27.013  1.00  0.00     0.031 A 
ATOM     43  C   UNL A   1      45.328  26.162  26.798  1.00  0.00     0.074 A 
ATOM     44  C   UNL A   1      43.149  25.442  27.761  1.00  0.00     0.049 A 
ATOM     45  N   UNL A   1      46.187  26.590  27.660  1.00  0.00    -0.248 NA
ATOM     46  C   UNL A   1      45.579  26.611  25.419  1.00  0.00     0.031 C 
ATOM     47  C   UNL A   1      41.900  24.677  27.806  1.00  0.00     0.029 A 
ATOM     48  N   UNL A   1      42.883  26.517  28.550  1.00  0.00    -0.354 N 
ATOM     49  C   UNL A   1      46.941  27.542  26.988  1.00  0.00     0.074 A 
ATOM     50  C   UNL A   1      46.656  27.375  25.587  1.00  0.00     0.031 C 
ATOM     51  C   UNL A   1      40.945  25.432  28.390  1.00  0.00     0.029 A 
ATOM     52  C   UNL A   1      41.536  26.681  28.844  1.00  0.00     0.049 A 
ATOM     53  H   UNL A   1      43.583  27.124  28.883  1.00  0.00     0.167 HD
ATOM     54  C   UNL A   1      47.531  28.571  27.654  1.00  0.00     0.037 A 
ATOM     55  C   UNL A   1      40.949  27.808  29.321  1.00  0.00     0.037 A 
ATOM     56  C   UNL A   1      47.660  28.290  29.061  1.00  0.00     0.049 A 
ATOM     57  C   UNL A   1      42.022  28.642  29.932  1.00  0.00     0.074 A 
ATOM     58  C   UNL A   1      48.222  27.256  29.790  1.00  0.00     0.029 A 
ATOM     59  N   UNL A   1      46.843  28.961  29.940  1.00  0.00    -0.354 N 
ATOM     60  N   UNL A   1      42.661  28.332  31.027  1.00  0.00    -0.248 NA
ATOM     61  C   UNL A   1      42.692  29.620  29.083  1.00  0.00     0.031 C 
ATOM     62  C   UNL A   1      47.354  27.069  30.903  1.00  0.00     0.029 A 
ATOM     63  C   UNL A   1      46.348  28.032  30.819  1.00  0.00     0.049 A 
ATOM     64  H   UNL A   1      46.650  29.926  29.939  1.00  0.00     0.167 HD
ATOM     65  C   UNL A   1      43.971  28.729  30.800  1.00  0.00     0.074 A 
ATOM     66  C   UNL A   1      43.907  29.606  29.635  1.00  0.00     0.031 C 
ATOM     67  C   UNL A   1      45.022  28.088  31.394  1.00  0.00     0.037 A 
BRANCH  54  68
ATOM     68  C   UNL A   1      47.628  29.965  27.088  1.00  0.00     0.058 A 
ATOM     69  C   UNL A   1      48.848  30.663  27.185  1.00  0.00     0.135 A 
ATOM     70  C   UNL A   1      46.505  30.742  26.723  1.00  0.00     0.135 A 
ATOM     71  F   UNL A   1      49.974  30.022  27.537  1.00  0.00    -0.206 F 
ATOM     72  C   UNL A   1      48.929  32.044  27.016  1.00  0.00     0.059 A 
ATOM     73  C   UNL A   1      46.575  32.107  26.488  1.00  0.00     0.059 A 
ATOM     74  F   UNL A   1      45.264  30.240  26.681  1.00  0.00    -0.206 F 
ATOM     75  C   UNL A   1      47.779  32.759  26.688  1.00  0.00     0.060 A 
BRANCH  75  76
ATOM     76  S   UNL A   1      47.843  34.555  26.605  1.00  0.00     0.124 S 
ATOM     77  O   UNL A   1      47.362  34.795  25.250  1.00  0.00    -0.237 OA
ATOM     78  O   UNL A   1      46.942  34.942  27.685  1.00  0.00    -0.237 OA
ATOM     79  O   UNL A   1      49.254  34.848  26.839  1.00  0.00    -0.744 OA
ENDBRANCH  75  76
ENDBRANCH  54  68
BRANCH  55  80
ATOM     80  C   UNL A   1      39.594  28.340  29.009  1.00  0.00     0.058 A 
ATOM     81  C   UNL A   1      38.610  28.447  30.008  1.00  0.00     0.135 A 
ATOM     82  C   UNL A   1      39.306  28.997  27.793  1.00  0.00     0.135 A 
ATOM     83  F   UNL A   1      38.800  27.876  31.207  1.00  0.00    -0.206 F 
ATOM     84  C   UNL A   1      37.442  29.199  29.833  1.00  0.00     0.059 A 
ATOM     85  C   UNL A   1      38.140  29.731  27.587  1.00  0.00     0.059 A 
ATOM     86  F   UNL A   1      40.193  29.032  26.788  1.00  0.00    -0.206 F 
ATOM     87  C   UNL A   1      37.225  29.854  28.622  1.00  0.00     0.060 A 
BRANCH  87  88
ATOM     88  S   UNL A   1      35.818  30.973  28.449  1.00  0.00     0.124 S 
ATOM     89  O   UNL A   1      36.441  32.155  27.865  1.00  0.00    -0.237 OA
ATOM     90  O   UNL A   1      34.929  30.220  27.570  1.00  0.00    -0.237 OA
ATOM     91  O   UNL A   1      35.341  31.134  29.820  1.00  0.00    -0.744 OA
ENDBRANCH  87  88
ENDBRANCH  55  80
BRANCH  67  92
ATOM     92  C   UNL A   1      44.752  27.181  32.563  1.00  0.00     0.058 A 
ATOM     93  C   UNL A   1      44.628  27.613  33.895  1.00  0.00     0.135 A 
ATOM     94  C   UNL A   1      44.455  25.834  32.297  1.00  0.00     0.135 A 
ATOM     95  F   UNL A   1      44.780  28.904  34.221  1.00  0.00    -0.206 F 
ATOM     96  C   UNL A   1      44.278  26.733  34.921  1.00  0.00     0.059 A 
ATOM     97  C   UNL A   1      44.069  24.948  33.299  1.00  0.00     0.059 A 
ATOM     98  F   UNL A   1      44.491  25.374  31.034  1.00  0.00    -0.206 F 
ATOM     99  C   UNL A   1      43.998  25.402  34.613  1.00  0.00     0.060 A 
BRANCH  99 100
ATOM    100  S   UNL A   1      43.468  24.285  35.929  1.00  0.00     0.124 S 
ATOM    101  O   UNL A   1      42.031  24.534  35.981  1.00  0.00    -0.237 OA
ATOM    102  O   UNL A   1      43.867  22.977  35.418  1.00  0.00    -0.237 OA
ATOM    103  O   UNL A   1      44.223  24.745  37.092  1.00  0.00    -0.744 OA
ENDBRANCH  99 100
ENDBRANCH  67  92
ENDBRANCH  41  42
ENDBRANCH  34  36
ENDBRANCH  33  34
ENDBRANCH  32  33
ENDBRANCH  31  32
ENDBRANCH  30  31
ENDBRANCH  29  30
ENDBRANCH   1  29
TORSDOF 24
ENDMDL
MODEL 2
REMARK VINA RESULT:      -9.5      3.667      8.210
REMARK SMILES CCOc1ccc(-n2nnc(-c3nc(C)c(C(=O)OCCOCCOCCOC(=O)c4ccc(-c5c6nc(c(-c7c(F)cc(S(=O)(=O)[O-])cc7F)c7ccc([nH]7)c(-c7c(F)cc(S(=O)(=O)[O-])cc7F)c7nc(c(-c8c(F)cc(S(=O)(=O)[O-])cc8F)c8ccc5[nH]8)C=C7)C=C6)cc4)s3)c2C)cc1
REMARK SMILES IDX 23 1 22 2 21 3 20 4 19 5 17 6 18 7 16 8 12 9 13 10 97 11
REMARK SMILES IDX 14 12 15 13 11 14 8 15 9 16 98 17 10 18 99 19 7 20 4 21 5 22
REMARK SMILES IDX 101 23 6 24 100 25 3 26 2 27 1 28 24 29 25 30 26 31 27 32
REMARK SMILES IDX 28 33 29 34 30 35 31 36 32 37 96 38 33 39 95 40 34 41 35 42
REMARK SMILES IDX 36 43 89 44 37 45 94 46 88 47 90 48 38 49 93 50 87 51 86 52
REMARK SMILES IDX 39 54 73 55 52 56 72 57 53 58 56 59 71 60 91 61 54 62 55 63
REMARK SMILES IDX 70 65 92 66 57 67 40 68 41 69 50 70 42 71 43 72 49 73 51 74
REMARK SMILES IDX 44 75 45 76 46 77 47 78 48 79 74 80 75 81 84 82 76 83 77 84
REMARK SMILES IDX 83 85 85 86 78 87 79 88 80 89 81 90 82 91 58 92 59 93 68 94
REMARK SMILES IDX 60 95 61 96 67 97 69 98 62 99 63 100 64 101 65 102 66 103
REMARK H PARENT 90 53 56 64
REMARK Flexibility Score: inf
ROOT
ATOM      1  C   UNL A   1      39.375  23.835  27.074  1.00  0.00     0.188 C 
ENDROOT
BRANCH   1   2
ATOM      2  O   UNL A   1      39.286  22.419  26.967  1.00  0.00    -0.376 OA
BRANCH   2   3
ATOM      3  C   UNL A   1      39.206  21.796  25.690  1.00  0.00     0.202 C 
BRANCH   3   4
ATOM      4  C   UNL A   1      37.990  20.916  25.362  1.00  0.00     0.261 C 
BRANCH   4   5
ATOM      5  O   UNL A   1      36.736  21.524  25.688  1.00  0.00    -0.459 OA
BRANCH   5   6
ATOM      6  C   UNL A   1      35.631  21.100  25.002  1.00  0.00     0.350 C 
ATOM      7  O   UNL A   1      35.238  19.952  24.954  1.00  0.00    -0.245 OA
BRANCH   6   8
ATOM      8  C   UNL A   1      34.942  22.243  24.442  1.00  0.00     0.135 A 
ATOM      9  C   UNL A   1      33.390  24.035  23.968  1.00  0.00     0.146 A 
ATOM     10  N   UNL A   1      34.451  24.176  23.204  1.00  0.00    -0.239 NA
ATOM     11  S   UNL A   1      33.327  22.573  24.867  1.00  0.00    -0.105 S 
ATOM     12  C   UNL A   1      35.372  23.167  23.499  1.00  0.00     0.064 A 
ATOM     13  C   UNL A   1      36.671  23.173  22.772  1.00  0.00     0.068 C 
BRANCH   9  14
ATOM     14  C   UNL A   1      32.378  25.101  24.225  1.00  0.00     0.145 A 
ATOM     15  N   UNL A   1      30.978  26.714  23.856  1.00  0.00    -0.217 N 
ATOM     16  N   UNL A   1      31.224  26.674  25.184  1.00  0.00    -0.061 NA
ATOM     17  C   UNL A   1      31.733  25.765  23.199  1.00  0.00     0.072 A 
ATOM     18  N   UNL A   1      31.988  25.608  25.428  1.00  0.00    -0.127 NA
ATOM     19  C   UNL A   1      31.854  25.588  21.725  1.00  0.00     0.069 C 
BRANCH  15  20
ATOM     20  C   UNL A   1      30.132  27.666  23.257  1.00  0.00     0.067 A 
ATOM     21  C   UNL A   1      28.523  29.831  22.610  1.00  0.00     0.119 A 
ATOM     22  C   UNL A   1      27.941  28.634  23.039  1.00  0.00     0.048 A 
ATOM     23  C   UNL A   1      29.904  29.933  22.473  1.00  0.00     0.048 A 
ATOM     24  C   UNL A   1      28.745  27.530  23.348  1.00  0.00     0.032 A 
ATOM     25  C   UNL A   1      30.707  28.839  22.758  1.00  0.00     0.032 A 
BRANCH  21  26
ATOM     26  O   UNL A   1      27.726  30.933  22.465  1.00  0.00    -0.494 OA
BRANCH  26  27
ATOM     27  C   UNL A   1      28.373  32.013  21.782  1.00  0.00     0.226 C 
ATOM     28  C   UNL A   1      27.953  32.129  20.324  1.00  0.00     0.049 C 
ENDBRANCH  26  27
ENDBRANCH  21  26
ENDBRANCH  15  20
ENDBRANCH   9  14
ENDBRANCH   6   8
ENDBRANCH   5   6
ENDBRANCH   4   5
ENDBRANCH   3   4
ENDBRANCH   2   3
ENDBRANCH   1   2
BRANCH   1  29
ATOM     29  C   UNL A   1      40.698  24.572  26.778  1.00  0.00     0.188 C 
BRANCH  29  30
ATOM     30  O   UNL A   1      41.776  24.216  27.625  1.00  0.00    -0.376 OA
BRANCH  30  31
ATOM     31  C   UNL A   1      43.039  24.030  26.995  1.00  0.00     0.202 C 
BRANCH  31  32
ATOM     32  C   UNL A   1      43.090  24.236  25.481  1.00  0.00     0.261 C 
BRANCH  32  33
ATOM     33  O   UNL A   1      43.187  25.589  25.057  1.00  0.00    -0.460 OA
BRANCH  33  34
ATOM     34  C   UNL A   1      44.383  26.179  25.252  1.00  0.00     0.338 C 
ATOM     35  O   UNL A   1      45.472  25.762  24.902  1.00  0.00    -0.246 OA
BRANCH  34  36
ATOM     36  C   UNL A   1      44.163  27.403  26.030  1.00  0.00     0.060 A 
ATOM     37  C   UNL A   1      45.134  27.759  26.967  1.00  0.00     0.016 A 
ATOM     38  C   UNL A   1      42.897  28.008  25.998  1.00  0.00     0.016 A 
ATOM     39  C   UNL A   1      44.759  28.580  28.008  1.00  0.00     0.010 A 
ATOM     40  C   UNL A   1      42.520  28.810  27.048  1.00  0.00     0.010 A 
ATOM     41  C   UNL A   1      43.431  29.012  28.081  1.00  0.00    -0.014 A 
BRANCH  41  42
ATOM     42  C   UNL A   1      43.005  29.683  29.289  1.00  0.00     0.031 A 
ATOM     43  C   UNL A   1      42.840  28.794  30.452  1.00  0.00     0.074 A 
ATOM     44  C   UNL A   1      42.880  31.022  29.344  1.00  0.00     0.049 A 
ATOM     45  N   UNL A   1      41.754  28.528  31.096  1.00  0.00    -0.248 NA
ATOM     46  C   UNL A   1      44.003  27.995  30.870  1.00  0.00     0.031 C 
ATOM     47  C   UNL A   1      43.298  32.002  28.338  1.00  0.00     0.029 A 
ATOM     48  N   UNL A   1      42.464  31.799  30.379  1.00  0.00    -0.354 N 
ATOM     49  C   UNL A   1      42.141  27.709  32.149  1.00  0.00     0.074 A 
ATOM     50  C   UNL A   1      43.477  27.264  31.851  1.00  0.00     0.031 C 
ATOM     51  C   UNL A   1      43.329  33.227  28.906  1.00  0.00     0.029 A 
ATOM     52  C   UNL A   1      42.843  33.130  30.273  1.00  0.00     0.049 A 
ATOM     53  H   UNL A   1      41.942  31.448  31.137  1.00  0.00     0.167 HD
ATOM     54  C   UNL A   1      41.436  27.679  33.312  1.00  0.00     0.037 A 
ATOM     55  C   UNL A   1      42.854  34.045  31.276  1.00  0.00     0.037 A 
ATOM     56  C   UNL A   1      40.101  28.190  33.139  1.00  0.00     0.049 A 
ATOM     57  C   UNL A   1      41.951  33.540  32.348  1.00  0.00     0.074 A 
ATOM     58  C   UNL A   1      39.055  27.884  32.286  1.00  0.00     0.029 A 
ATOM     59  N   UNL A   1      39.797  29.422  33.670  1.00  0.00    -0.354 N 
ATOM     60  N   UNL A   1      40.653  33.457  32.237  1.00  0.00    -0.248 NA
ATOM     61  C   UNL A   1      42.534  32.713  33.398  1.00  0.00     0.031 C 
ATOM     62  C   UNL A   1      38.443  29.133  31.982  1.00  0.00     0.029 A 
ATOM     63  C   UNL A   1      39.115  30.118  32.706  1.00  0.00     0.049 A 
ATOM     64  H   UNL A   1      40.027  29.743  34.572  1.00  0.00     0.167 HD
ATOM     65  C   UNL A   1      40.314  32.278  32.887  1.00  0.00     0.074 A 
ATOM     66  C   UNL A   1      41.494  31.921  33.668  1.00  0.00     0.031 C 
ATOM     67  C   UNL A   1      39.221  31.548  32.513  1.00  0.00     0.037 A 
BRANCH  54  68
ATOM     68  C   UNL A   1      42.093  27.549  34.663  1.00  0.00     0.058 A 
ATOM     69  C   UNL A   1      43.140  28.426  35.006  1.00  0.00     0.135 A 
ATOM     70  C   UNL A   1      41.935  26.424  35.505  1.00  0.00     0.135 A 
ATOM     71  F   UNL A   1      43.385  29.519  34.265  1.00  0.00    -0.206 F 
ATOM     72  C   UNL A   1      44.018  28.159  36.055  1.00  0.00     0.059 A 
ATOM     73  C   UNL A   1      42.758  26.172  36.593  1.00  0.00     0.059 A 
ATOM     74  F   UNL A   1      41.046  25.455  35.253  1.00  0.00    -0.206 F 
ATOM     75  C   UNL A   1      43.828  27.017  36.829  1.00  0.00     0.060 A 
BRANCH  75  76
ATOM     76  S   UNL A   1      45.034  26.591  38.095  1.00  0.00     0.124 S 
ATOM     77  O   UNL A   1      44.571  27.400  39.215  1.00  0.00    -0.237 OA
ATOM     78  O   UNL A   1      44.846  25.150  38.222  1.00  0.00    -0.237 OA
ATOM     79  O   UNL A   1      46.302  27.001  37.497  1.00  0.00    -0.744 OA
ENDBRANCH  75  76
ENDBRANCH  54  68
BRANCH  55  80
ATOM     80  C   UNL A   1      43.823  35.155  31.494  1.00  0.00     0.058 A 
ATOM     81  C   UNL A   1      43.653  36.398  30.859  1.00  0.00     0.135 A 
ATOM     82  C   UNL A   1      44.787  35.119  32.524  1.00  0.00     0.135 A 
ATOM     83  F   UNL A   1      42.744  36.540  29.882  1.00  0.00    -0.206 F 
ATOM     84  C   UNL A   1      44.356  37.544  31.253  1.00  0.00     0.059 A 
ATOM     85  C   UNL A   1      45.516  36.240  32.917  1.00  0.00     0.059 A 
ATOM     86  F   UNL A   1      44.991  34.014  33.256  1.00  0.00    -0.206 F 
ATOM     87  C   UNL A   1      45.274  37.457  32.298  1.00  0.00     0.060 A 
BRANCH  87  88
ATOM     88  S   UNL A   1      46.049  38.959  32.937  1.00  0.00     0.124 S 
ATOM     89  O   UNL A   1      46.346  38.584  34.314  1.00  0.00    -0.237 OA
ATOM     90  O   UNL A   1      47.201  39.113  32.054  1.00  0.00    -0.237 OA
ATOM     91  O   UNL A   1      45.008  39.972  32.777  1.00  0.00    -0.744 OA
ENDBRANCH  87  88
ENDBRANCH  55  80
BRANCH  67  92
ATOM     92  C   UNL A   1      38.185  32.191  31.634  1.00  0.00     0.058 A 
ATOM     93  C   UNL A   1      38.267  32.273  30.232  1.00  0.00     0.135 A 
ATOM     94  C   UNL A   1      36.982  32.607  32.229  1.00  0.00     0.135 A 
ATOM     95  F   UNL A   1      39.330  31.792  29.572  1.00  0.00    -0.206 F 
ATOM     96  C   UNL A   1      37.222  32.794  29.466  1.00  0.00     0.059 A 
ATOM     97  C   UNL A   1      35.915  33.096  31.481  1.00  0.00     0.059 A 
ATOM     98  F   UNL A   1      36.815  32.494  33.558  1.00  0.00    -0.206 F 
ATOM     99  C   UNL A   1      36.049  33.202  30.099  1.00  0.00     0.060 A 
BRANCH  99 100
ATOM    100  S   UNL A   1      34.670  33.801  29.099  1.00  0.00     0.124 S 
ATOM    101  O   UNL A   1      35.272  34.929  28.394  1.00  0.00    -0.237 OA
ATOM    102  O   UNL A   1      34.344  32.640  28.277  1.00  0.00    -0.237 OA
ATOM    103  O   UNL A   1      33.658  34.155  30.091  1.00  0.00    -0.744 OA
ENDBRANCH  99 100
ENDBRANCH  67  92
ENDBRANCH  41  42
ENDBRANCH  34  36
ENDBRANCH  33  34
ENDBRANCH  32  33
ENDBRANCH  31  32
ENDBRANCH  30  31
ENDBRANCH  29  30
ENDBRANCH   1  29
TORSDOF 24
ENDMDL
MODEL 3
REMARK VINA RESULT:      -9.3      8.841     16.322
REMARK SMILES CCOc1ccc(-n2nnc(-c3nc(C)c(C(=O)OCCOCCOCCOC(=O)c4ccc(-c5c6nc(c(-c7c(F)cc(S(=O)(=O)[O-])cc7F)c7ccc([nH]7)c(-c7c(F)cc(S(=O)(=O)[O-])cc7F)c7nc(c(-c8c(F)cc(S(=O)(=O)[O-])cc8F)c8ccc5[nH]8)C=C7)C=C6)cc4)s3)c2C)cc1
REMARK SMILES IDX 23 1 22 2 21 3 20 4 19 5 17 6 18 7 16 8 12 9 13 10 97 11
REMARK SMILES IDX 14 12 15 13 11 14 8 15 9 16 98 17 10 18 99 19 7 20 4 21 5 22
REMARK SMILES IDX 101 23 6 24 100 25 3 26 2 27 1 28 24 29 25 30 26 31 27 32
REMARK SMILES IDX 28 33 29 34 30 35 31 36 32 37 96 38 33 39 95 40 34 41 35 42
REMARK SMILES IDX 36 43 89 44 37 45 94 46 88 47 90 48 38 49 93 50 87 51 86 52
REMARK SMILES IDX 39 54 73 55 52 56 72 57 53 58 56 59 71 60 91 61 54 62 55 63
REMARK SMILES IDX 70 65 92 66 57 67 40 68 41 69 50 70 42 71 43 72 49 73 51 74
REMARK SMILES IDX 44 75 45 76 46 77 47 78 48 79 74 80 75 81 84 82 76 83 77 84
REMARK SMILES IDX 83 85 85 86 78 87 79 88 80 89 81 90 82 91 58 92 59 93 68 94
REMARK SMILES IDX 60 95 61 96 67 97 69 98 62 99 63 100 64 101 65 102 66 103
REMARK H PARENT 90 53 56 64
REMARK Flexibility Score: inf
ROOT
ATOM      1  C   UNL A   1      42.164  38.671  27.947  1.00  0.00     0.188 C 
ENDROOT
BRANCH   1   2
ATOM      2  O   UNL A   1      42.956  38.004  28.923  1.00  0.00    -0.376 OA
BRANCH   2   3
ATOM      3  C   UNL A   1      43.921  37.036  28.528  1.00  0.00     0.202 C 
BRANCH   3   4
ATOM      4  C   UNL A   1      45.413  37.335  28.745  1.00  0.00     0.261 C 
BRANCH   4   5
ATOM      5  O   UNL A   1      45.926  38.354  27.881  1.00  0.00    -0.459 OA
BRANCH   5   6
ATOM      6  C   UNL A   1      45.935  39.637  28.354  1.00  0.00     0.350 C 
ATOM      7  O   UNL A   1      45.932  39.948  29.529  1.00  0.00    -0.245 OA
BRANCH   6   8
ATOM      8  C   UNL A   1      46.067  40.559  27.247  1.00  0.00     0.135 A 
ATOM      9  C   UNL A   1      45.706  41.916  25.279  1.00  0.00     0.146 A 
ATOM     10  N   UNL A   1      46.849  42.261  25.830  1.00  0.00    -0.239 NA
ATOM     11  S   UNL A   1      44.957  40.527  25.957  1.00  0.00    -0.105 S 
ATOM     12  C   UNL A   1      47.048  41.509  26.992  1.00  0.00     0.064 A 
ATOM     13  C   UNL A   1      48.270  41.779  27.797  1.00  0.00     0.068 C 
BRANCH   9  14
ATOM     14  C   UNL A   1      44.969  42.729  24.269  1.00  0.00     0.145 A 
ATOM     15  N   UNL A   1      44.524  43.769  22.418  1.00  0.00    -0.217 N 
ATOM     16  N   UNL A   1      43.639  44.185  23.351  1.00  0.00    -0.061 NA
ATOM     17  C   UNL A   1      45.424  42.882  22.973  1.00  0.00     0.072 A 
ATOM     18  N   UNL A   1      43.832  43.459  24.453  1.00  0.00    -0.127 NA
ATOM     19  C   UNL A   1      46.632  42.312  22.314  1.00  0.00     0.069 C 
BRANCH  15  20
ATOM     20  C   UNL A   1      44.548  44.264  21.102  1.00  0.00     0.067 A 
ATOM     21  C   UNL A   1      44.196  45.649  18.724  1.00  0.00     0.119 A 
ATOM     22  C   UNL A   1      43.485  44.466  18.953  1.00  0.00     0.048 A 
ATOM     23  C   UNL A   1      45.103  46.119  19.668  1.00  0.00     0.048 A 
ATOM     24  C   UNL A   1      43.673  43.750  20.141  1.00  0.00     0.032 A 
ATOM     25  C   UNL A   1      45.310  45.407  20.839  1.00  0.00     0.032 A 
BRANCH  21  26
ATOM     26  O   UNL A   1      43.878  46.402  17.628  1.00  0.00    -0.494 OA
BRANCH  26  27
ATOM     27  C   UNL A   1      42.614  47.065  17.743  1.00  0.00     0.226 C 
ATOM     28  C   UNL A   1      41.837  47.091  16.435  1.00  0.00     0.049 C 
ENDBRANCH  26  27
ENDBRANCH  21  26
ENDBRANCH  15  20
ENDBRANCH   9  14
ENDBRANCH   6   8
ENDBRANCH   5   6
ENDBRANCH   4   5
ENDBRANCH   3   4
ENDBRANCH   2   3
ENDBRANCH   1   2
BRANCH   1  29
ATOM     29  C   UNL A   1      41.777  40.155  28.118  1.00  0.00     0.188 C 
BRANCH  29  30
ATOM     30  O   UNL A   1      41.492  40.542  29.450  1.00  0.00    -0.376 OA
BRANCH  30  31
ATOM     31  C   UNL A   1      42.544  41.190  30.158  1.00  0.00     0.202 C 
BRANCH  31  32
ATOM     32  C   UNL A   1      42.723  40.806  31.627  1.00  0.00     0.261 C 
BRANCH  32  33
ATOM     33  O   UNL A   1      43.784  39.897  31.889  1.00  0.00    -0.460 OA
BRANCH  33  34
ATOM     34  C   UNL A   1      44.135  39.764  33.183  1.00  0.00     0.338 C 
ATOM     35  O   UNL A   1      44.614  40.621  33.905  1.00  0.00    -0.246 OA
BRANCH  34  36
ATOM     36  C   UNL A   1      43.904  38.370  33.575  1.00  0.00     0.060 A 
ATOM     37  C   UNL A   1      43.809  37.418  32.559  1.00  0.00     0.016 A 
ATOM     38  C   UNL A   1      43.529  38.091  34.898  1.00  0.00     0.016 A 
ATOM     39  C   UNL A   1      43.140  36.244  32.831  1.00  0.00     0.010 A 
ATOM     40  C   UNL A   1      42.846  36.929  35.162  1.00  0.00     0.010 A 
ATOM     41  C   UNL A   1      42.587  36.064  34.102  1.00  0.00    -0.014 A 
BRANCH  41  42
ATOM     42  C   UNL A   1      41.705  34.936  34.300  1.00  0.00     0.031 A 
ATOM     43  C   UNL A   1      42.101  33.719  33.569  1.00  0.00     0.074 A 
ATOM     44  C   UNL A   1      40.676  34.988  35.166  1.00  0.00     0.049 A 
ATOM     45  N   UNL A   1      41.456  33.117  32.627  1.00  0.00    -0.248 NA
ATOM     46  C   UNL A   1      43.446  33.179  33.823  1.00  0.00     0.031 C 
ATOM     47  C   UNL A   1      40.381  36.042  36.142  1.00  0.00     0.029 A 
ATOM     48  N   UNL A   1      39.743  34.039  35.444  1.00  0.00    -0.354 N 
ATOM     49  C   UNL A   1      42.205  31.986  32.332  1.00  0.00     0.074 A 
ATOM     50  C   UNL A   1      43.492  32.175  32.948  1.00  0.00     0.031 C 
ATOM     51  C   UNL A   1      39.495  35.567  37.044  1.00  0.00     0.029 A 
ATOM     52  C   UNL A   1      39.092  34.225  36.655  1.00  0.00     0.049 A 
ATOM     53  H   UNL A   1      39.547  33.287  34.839  1.00  0.00     0.167 HD
ATOM     54  C   UNL A   1      41.619  30.864  31.834  1.00  0.00     0.037 A 
ATOM     55  C   UNL A   1      38.369  33.295  37.330  1.00  0.00     0.037 A 
ATOM     56  C   UNL A   1      40.330  31.148  31.258  1.00  0.00     0.049 A 
ATOM     57  C   UNL A   1      37.982  32.239  36.354  1.00  0.00     0.074 A 
ATOM     58  C   UNL A   1      39.879  32.031  30.292  1.00  0.00     0.029 A 
ATOM     59  N   UNL A   1      39.205  30.729  31.930  1.00  0.00    -0.354 N 
ATOM     60  N   UNL A   1      37.128  32.414  35.382  1.00  0.00    -0.248 NA
ATOM     61  C   UNL A   1      38.876  31.099  36.191  1.00  0.00     0.031 C 
ATOM     62  C   UNL A   1      38.601  32.462  30.748  1.00  0.00     0.029 A 
ATOM     63  C   UNL A   1      38.323  31.779  31.932  1.00  0.00     0.049 A 
ATOM     64  H   UNL A   1      39.062  29.843  32.334  1.00  0.00     0.167 HD
ATOM     65  C   UNL A   1      37.651  31.696  34.315  1.00  0.00     0.074 A 
ATOM     66  C   UNL A   1      38.666  30.827  34.901  1.00  0.00     0.031 C 
ATOM     67  C   UNL A   1      37.419  32.073  33.022  1.00  0.00     0.037 A 
BRANCH  54  68
ATOM     68  C   UNL A   1      42.052  29.473  32.223  1.00  0.00     0.058 A 
ATOM     69  C   UNL A   1      42.097  29.123  33.587  1.00  0.00     0.135 A 
ATOM     70  C   UNL A   1      42.697  28.578  31.340  1.00  0.00     0.135 A 
ATOM     71  F   UNL A   1      41.526  29.911  34.513  1.00  0.00    -0.206 F 
ATOM     72  C   UNL A   1      42.804  28.013  34.046  1.00  0.00     0.059 A 
ATOM     73  C   UNL A   1      43.352  27.433  31.768  1.00  0.00     0.059 A 
ATOM     74  F   UNL A   1      42.819  28.823  30.028  1.00  0.00    -0.206 F 
ATOM     75  C   UNL A   1      43.445  27.186  33.126  1.00  0.00     0.060 A 
BRANCH  75  76
ATOM     76  S   UNL A   1      44.474  25.833  33.715  1.00  0.00     0.124 S 
ATOM     77  O   UNL A   1      45.733  26.522  33.972  1.00  0.00    -0.237 OA
ATOM     78  O   UNL A   1      43.739  25.381  34.891  1.00  0.00    -0.237 OA
ATOM     79  O   UNL A   1      44.477  24.903  32.590  1.00  0.00    -0.744 OA
ENDBRANCH  75  76
ENDBRANCH  54  68
BRANCH  55  80
ATOM     80  C   UNL A   1      38.262  33.109  38.804  1.00  0.00     0.058 A 
ATOM     81  C   UNL A   1      37.034  32.775  39.404  1.00  0.00     0.135 A 
ATOM     82  C   UNL A   1      39.400  32.995  39.632  1.00  0.00     0.135 A 
ATOM     83  F   UNL A   1      35.898  32.830  38.693  1.00  0.00    -0.206 F 
ATOM     84  C   UNL A   1      36.946  32.310  40.722  1.00  0.00     0.059 A 
ATOM     85  C   UNL A   1      39.333  32.557  40.953  1.00  0.00     0.059 A 
ATOM     86  F   UNL A   1      40.635  33.214  39.159  1.00  0.00    -0.206 F 
ATOM     87  C   UNL A   1      38.107  32.187  41.484  1.00  0.00     0.060 A 
BRANCH  87  88
ATOM     88  S   UNL A   1      38.030  31.416  43.115  1.00  0.00     0.124 S 
ATOM     89  O   UNL A   1      37.892  30.004  42.777  1.00  0.00    -0.237 OA
ATOM     90  O   UNL A   1      39.306  31.810  43.705  1.00  0.00    -0.237 OA
ATOM     91  O   UNL A   1      36.852  32.029  43.725  1.00  0.00    -0.744 OA
ENDBRANCH  87  88
ENDBRANCH  55  80
BRANCH  67  92
ATOM     92  C   UNL A   1      36.315  33.054  32.738  1.00  0.00     0.058 A 
ATOM     93  C   UNL A   1      36.401  34.439  32.963  1.00  0.00     0.135 A 
ATOM     94  C   UNL A   1      35.174  32.585  32.066  1.00  0.00     0.135 A 
ATOM     95  F   UNL A   1      37.504  34.987  33.494  1.00  0.00    -0.206 F 
ATOM     96  C   UNL A   1      35.376  35.309  32.585  1.00  0.00     0.059 A 
ATOM     97  C   UNL A   1      34.157  33.438  31.648  1.00  0.00     0.059 A 
ATOM     98  F   UNL A   1      35.060  31.280  31.762  1.00  0.00    -0.206 F 
ATOM     99  C   UNL A   1      34.257  34.799  31.926  1.00  0.00     0.060 A 
BRANCH  99 100
ATOM    100  S   UNL A   1      32.970  35.935  31.367  1.00  0.00     0.124 S 
ATOM    101  O   UNL A   1      32.019  35.887  32.473  1.00  0.00    -0.237 OA
ATOM    102  O   UNL A   1      33.699  37.191  31.212  1.00  0.00    -0.237 OA
ATOM    103  O   UNL A   1      32.506  35.337  30.118  1.00  0.00    -0.744 OA
ENDBRANCH  99 100
ENDBRANCH  67  92
ENDBRANCH  41  42
ENDBRANCH  34  36
ENDBRANCH  33  34
ENDBRANCH  32  33
ENDBRANCH  31  32
ENDBRANCH  30  31
ENDBRANCH  29  30
ENDBRANCH   1  29
TORSDOF 24
ENDMDL
