MODEL 1
REMARK VINA RESULT:     -10.3      0.000      0.000
REMARK SMILES COc1c(C)cccc1C(=O)NCc1ccc(C(=O)OCCOCCOCCOC(=O)c2ccc(-c3c4nc(c(-c5c(F)cc(S(=O)(=O)[O-])cc5F)c5ccc([nH]5)c(-c5c(F)cc(S(=O)(=O)[O-])cc5F)c5nc(c(-c6c(F)cc(S(=O)(=O)[O-])cc6F)c6ccc3[nH]6)C=C5)C=C4)cc2)cc1
REMARK SMILES IDX 24 1 23 2 22 3 21 4 20 5 18 6 19 7 17 8 14 9 15 10 99 11
REMARK SMILES IDX 16 12 98 13 13 14 12 15 10 16 11 17 9 19 3 20 4 21 5 22 6 23
REMARK SMILES IDX 8 24 7 25 2 26 1 27 25 28 26 29 27 30 28 31 29 32 30 33
REMARK SMILES IDX 31 34 32 35 33 36 97 37 34 38 96 39 35 40 36 41 37 42 90 43
REMARK SMILES IDX 38 44 95 45 89 46 91 47 39 48 94 49 88 50 87 51 40 53 74 54
REMARK SMILES IDX 53 55 73 56 54 57 57 58 72 59 92 60 55 61 56 62 71 64 93 65
REMARK SMILES IDX 58 66 41 67 42 68 51 69 43 70 44 71 50 72 52 73 45 74 46 75
REMARK SMILES IDX 47 76 48 77 49 78 75 79 76 80 85 81 77 82 78 83 84 84 86 85
REMARK SMILES IDX 79 86 80 87 81 88 82 89 83 90 59 91 60 92 69 93 61 94 62 95
REMARK SMILES IDX 68 96 70 97 63 98 64 99 65 100 66 101 67 102
REMARK H PARENT 12 18 91 52 57 63
REMARK Flexibility Score: inf
ROOT
ATOM      1  C   UNL A   1      36.502  33.697  31.104  1.00  0.00     0.188 C 
ENDROOT
BRANCH   1   2
ATOM      2  O   UNL A   1      37.663  34.351  31.671  1.00  0.00    -0.376 OA
BRANCH   2   3
ATOM      3  C   UNL A   1      39.037  33.959  31.483  1.00  0.00     0.202 C 
BRANCH   3   4
ATOM      4  C   UNL A   1      39.915  33.945  30.019  1.00  0.00     0.261 C 
BRANCH   4   5
ATOM      5  O   UNL A   1      40.682  35.207  29.113  1.00  0.00    -0.460 OA
BRANCH   5   6
ATOM      6  C   UNL A   1      41.985  35.461  28.576  1.00  0.00     0.338 C 
ATOM      7  O   UNL A   1      42.422  36.508  28.092  1.00  0.00    -0.246 OA
BRANCH   6   8
ATOM      8  C   UNL A   1      43.167  34.601  28.472  1.00  0.00     0.060 A 
ATOM      9  C   UNL A   1      44.696  32.551  27.278  1.00  0.00    -0.029 A 
ATOM     10  C   UNL A   1      44.684  33.805  26.688  1.00  0.00     0.006 A 
ATOM     11  C   UNL A   1      43.851  32.297  28.379  1.00  0.00     0.006 A 
ATOM     12  C   UNL A   1      43.961  34.817  27.298  1.00  0.00     0.016 A 
ATOM     13  C   UNL A   1      43.077  33.308  28.964  1.00  0.00     0.016 A 
BRANCH   9  14
ATOM     14  C   UNL A   1      45.651  31.523  26.758  1.00  0.00     0.152 C 
BRANCH  14  15
ATOM     15  N   UNL A   1      46.189  30.704  27.822  1.00  0.00    -0.348 N 
ATOM     16  C   UNL A   1      46.622  29.403  27.856  1.00  0.00     0.255 C 
ATOM     17  O   UNL A   1      47.162  29.049  28.911  1.00  0.00    -0.269 OA
ATOM     18  H   UNL A   1      46.258  31.169  28.687  1.00  0.00     0.164 HD
BRANCH  16  19
ATOM     19  C   UNL A   1      46.578  28.412  26.731  1.00  0.00     0.082 A 
ATOM     20  C   UNL A   1      45.530  27.529  26.402  1.00  0.00     0.134 A 
ATOM     21  C   UNL A   1      45.696  26.584  25.357  1.00  0.00    -0.008 A 
ATOM     22  C   UNL A   1      44.597  25.661  24.900  1.00  0.00     0.048 C 
ATOM     23  C   UNL A   1      46.938  26.474  24.713  1.00  0.00     0.007 A 
ATOM     24  C   UNL A   1      47.795  28.296  26.024  1.00  0.00     0.018 A 
ATOM     25  C   UNL A   1      47.981  27.331  25.036  1.00  0.00     0.001 A 
BRANCH  20  26
ATOM     26  O   UNL A   1      44.311  27.673  27.000  1.00  0.00    -0.496 OA
ATOM     27  C   UNL A   1      43.340  28.357  26.227  1.00  0.00     0.278 C 
ENDBRANCH  20  26
ENDBRANCH  16  19
ENDBRANCH  14  15
ENDBRANCH   9  14
ENDBRANCH   6   8
ENDBRANCH   5   6
ENDBRANCH   4   5
ENDBRANCH   3   4
ENDBRANCH   2   3
ENDBRANCH   1   2
BRANCH   1  28
ATOM     28  C   UNL A   1      35.079  34.242  31.229  1.00  0.00     0.188 C 
BRANCH  28  29
ATOM     29  O   UNL A   1      34.203  33.496  30.408  1.00  0.00    -0.376 OA
BRANCH  29  30
ATOM     30  C   UNL A   1      34.769  32.425  29.685  1.00  0.00     0.202 C 
BRANCH  30  31
ATOM     31  C   UNL A   1      35.732  32.873  28.571  1.00  0.00     0.261 C 
BRANCH  31  32
ATOM     32  O   UNL A   1      35.903  31.862  27.544  1.00  0.00    -0.460 OA
BRANCH  32  33
ATOM     33  C   UNL A   1      35.806  30.534  27.919  1.00  0.00     0.338 C 
ATOM     34  O   UNL A   1      34.864  29.835  27.576  1.00  0.00    -0.246 OA
BRANCH  33  35
ATOM     35  C   UNL A   1      37.051  30.084  28.638  1.00  0.00     0.060 A 
ATOM     36  C   UNL A   1      38.092  30.818  29.227  1.00  0.00     0.016 A 
ATOM     37  C   UNL A   1      37.292  28.764  28.549  1.00  0.00     0.016 A 
ATOM     38  C   UNL A   1      39.420  30.230  29.530  1.00  0.00     0.010 A 
ATOM     39  C   UNL A   1      38.626  28.371  28.594  1.00  0.00     0.010 A 
ATOM     40  C   UNL A   1      39.785  28.928  29.168  1.00  0.00    -0.014 A 
BRANCH  40  41
ATOM     41  C   UNL A   1      41.294  28.188  29.202  1.00  0.00     0.031 A 
ATOM     42  C   UNL A   1      41.883  26.611  28.767  1.00  0.00     0.074 A 
ATOM     43  C   UNL A   1      42.270  28.889  29.820  1.00  0.00     0.049 A 
ATOM     44  N   UNL A   1      42.741  25.900  29.489  1.00  0.00    -0.248 NA
ATOM     45  C   UNL A   1      41.428  25.656  27.656  1.00  0.00     0.031 C 
ATOM     46  C   UNL A   1      43.701  28.597  29.823  1.00  0.00     0.029 A 
ATOM     47  N   UNL A   1      42.139  29.978  30.687  1.00  0.00    -0.354 N 
ATOM     48  C   UNL A   1      42.853  24.643  28.863  1.00  0.00     0.074 A 
ATOM     49  C   UNL A   1      41.669  24.461  28.158  1.00  0.00     0.031 C 
ATOM     50  C   UNL A   1      44.273  29.274  30.829  1.00  0.00     0.029 A 
ATOM     51  C   UNL A   1      43.211  29.906  31.587  1.00  0.00     0.049 A 
ATOM     52  H   UNL A   1      41.432  30.663  30.669  1.00  0.00     0.167 HD
ATOM     53  C   UNL A   1      44.002  23.942  28.646  1.00  0.00     0.037 A 
ATOM     54  C   UNL A   1      42.989  29.780  32.924  1.00  0.00     0.037 A 
ATOM     55  C   UNL A   1      44.971  24.422  29.593  1.00  0.00     0.049 A 
ATOM     56  C   UNL A   1      43.604  28.523  33.498  1.00  0.00     0.074 A 
ATOM     57  C   UNL A   1      45.995  25.342  29.512  1.00  0.00     0.029 A 
ATOM     58  N   UNL A   1      44.649  24.285  30.935  1.00  0.00    -0.354 N 
ATOM     59  N   UNL A   1      44.099  27.551  32.774  1.00  0.00    -0.248 NA
ATOM     60  C   UNL A   1      43.734  28.260  34.928  1.00  0.00     0.031 C 
ATOM     61  C   UNL A   1      46.141  25.909  30.814  1.00  0.00     0.029 A 
ATOM     62  C   UNL A   1      45.275  25.261  31.682  1.00  0.00     0.049 A 
ATOM     63  H   UNL A   1      44.057  23.590  31.303  1.00  0.00     0.167 HD
ATOM     64  C   UNL A   1      44.522  26.534  33.585  1.00  0.00     0.074 A 
ATOM     65  C   UNL A   1      44.314  27.046  34.927  1.00  0.00     0.031 C 
ATOM     66  C   UNL A   1      44.981  25.342  33.105  1.00  0.00     0.037 A 
BRANCH  53  67
ATOM     67  C   UNL A   1      44.264  22.979  27.439  1.00  0.00     0.058 A 
ATOM     68  C   UNL A   1      43.327  21.964  27.138  1.00  0.00     0.135 A 
ATOM     69  C   UNL A   1      45.430  22.893  26.614  1.00  0.00     0.135 A 
ATOM     70  F   UNL A   1      42.172  21.883  27.815  1.00  0.00    -0.206 F 
ATOM     71  C   UNL A   1      43.538  20.963  26.160  1.00  0.00     0.059 A 
ATOM     72  C   UNL A   1      45.641  21.936  25.612  1.00  0.00     0.059 A 
ATOM     73  F   UNL A   1      46.504  23.675  26.740  1.00  0.00    -0.206 F 
ATOM     74  C   UNL A   1      44.705  20.950  25.406  1.00  0.00     0.060 A 
BRANCH  74  75
ATOM     75  S   UNL A   1      45.040  19.634  24.215  1.00  0.00     0.124 S 
ATOM     76  O   UNL A   1      44.478  20.186  22.986  1.00  0.00    -0.237 OA
ATOM     77  O   UNL A   1      46.494  19.530  24.264  1.00  0.00    -0.237 OA
ATOM     78  O   UNL A   1      44.319  18.484  24.758  1.00  0.00    -0.744 OA
ENDBRANCH  74  75
ENDBRANCH  53  67
BRANCH  54  79
ATOM     79  C   UNL A   1      41.787  30.540  33.392  1.00  0.00     0.058 A 
ATOM     80  C   UNL A   1      40.577  29.817  33.488  1.00  0.00     0.135 A 
ATOM     81  C   UNL A   1      41.856  31.743  34.109  1.00  0.00     0.135 A 
ATOM     82  F   UNL A   1      40.434  28.663  32.816  1.00  0.00    -0.206 F 
ATOM     83  C   UNL A   1      39.559  30.171  34.369  1.00  0.00     0.059 A 
ATOM     84  C   UNL A   1      40.828  32.137  34.987  1.00  0.00     0.059 A 
ATOM     85  F   UNL A   1      42.976  32.480  34.085  1.00  0.00    -0.206 F 
ATOM     86  C   UNL A   1      39.718  31.305  35.159  1.00  0.00     0.060 A 
BRANCH  86  87
ATOM     87  S   UNL A   1      38.537  31.541  36.515  1.00  0.00     0.124 S 
ATOM     88  O   UNL A   1      39.331  32.271  37.496  1.00  0.00    -0.237 OA
ATOM     89  O   UNL A   1      37.487  32.314  35.854  1.00  0.00    -0.237 OA
ATOM     90  O   UNL A   1      38.177  30.176  36.888  1.00  0.00    -0.744 OA
ENDBRANCH  86  87
ENDBRANCH  54  79
BRANCH  66  91
ATOM     91  C   UNL A   1      45.194  24.102  33.940  1.00  0.00     0.058 A 
ATOM     92  C   UNL A   1      44.151  23.270  34.381  1.00  0.00     0.135 A 
ATOM     93  C   UNL A   1      46.506  23.618  34.162  1.00  0.00     0.135 A 
ATOM     94  F   UNL A   1      42.869  23.563  34.126  1.00  0.00    -0.206 F 
ATOM     95  C   UNL A   1      44.391  22.080  35.068  1.00  0.00     0.059 A 
ATOM     96  C   UNL A   1      46.766  22.401  34.782  1.00  0.00     0.059 A 
ATOM     97  F   UNL A   1      47.583  24.312  33.762  1.00  0.00    -0.206 F 
ATOM     98  C   UNL A   1      45.702  21.656  35.266  1.00  0.00     0.060 A 
BRANCH  98  99
ATOM     99  S   UNL A   1      46.034  20.116  36.137  1.00  0.00     0.124 S 
ATOM    100  O   UNL A   1      45.572  20.443  37.483  1.00  0.00    -0.237 OA
ATOM    101  O   UNL A   1      45.222  19.143  35.414  1.00  0.00    -0.237 OA
ATOM    102  O   UNL A   1      47.477  19.957  35.983  1.00  0.00    -0.744 OA
ENDBRANCH  98  99
ENDBRANCH  66  91
ENDBRANCH  40  41
ENDBRANCH  33  35
ENDBRANCH  32  33
ENDBRANCH  31  32
ENDBRANCH  30  31
ENDBRANCH  29  30
ENDBRANCH  28  29
ENDBRANCH   1  28
TORSDOF 24
ENDMDL
MODEL 2
REMARK VINA RESULT:     -10.3      5.023     13.740
REMARK SMILES COc1c(C)cccc1C(=O)NCc1ccc(C(=O)OCCOCCOCCOC(=O)c2ccc(-c3c4nc(c(-c5c(F)cc(S(=O)(=O)[O-])cc5F)c5ccc([nH]5)c(-c5c(F)cc(S(=O)(=O)[O-])cc5F)c5nc(c(-c6c(F)cc(S(=O)(=O)[O-])cc6F)c6ccc3[nH]6)C=C5)C=C4)cc2)cc1
REMARK SMILES IDX 24 1 23 2 22 3 21 4 20 5 18 6 19 7 17 8 14 9 15 10 99 11
REMARK SMILES IDX 16 12 98 13 13 14 12 15 10 16 11 17 9 19 3 20 4 21 5 22 6 23
REMARK SMILES IDX 8 24 7 25 2 26 1 27 25 28 26 29 27 30 28 31 29 32 30 33
REMARK SMILES IDX 31 34 32 35 33 36 97 37 34 38 96 39 35 40 36 41 37 42 90 43
REMARK SMILES IDX 38 44 95 45 89 46 91 47 39 48 94 49 88 50 87 51 40 53 74 54
REMARK SMILES IDX 53 55 73 56 54 57 57 58 72 59 92 60 55 61 56 62 71 64 93 65
REMARK SMILES IDX 58 66 41 67 42 68 51 69 43 70 44 71 50 72 52 73 45 74 46 75
REMARK SMILES IDX 47 76 48 77 49 78 75 79 76 80 85 81 77 82 78 83 84 84 86 85
REMARK SMILES IDX 79 86 80 87 81 88 82 89 83 90 59 91 60 92 69 93 61 94 62 95
REMARK SMILES IDX 68 96 70 97 63 98 64 99 65 100 66 101 67 102
REMARK H PARENT 12 18 91 52 57 63
REMARK Flexibility Score: inf
ROOT
ATOM      1  C   UNL A   1      41.647  19.811  26.735  1.00  0.00     0.188 C 
ENDROOT
BRANCH   1   2
ATOM      2  O   UNL A   1      40.411  20.400  26.264  1.00  0.00    -0.376 OA
BRANCH   2   3
ATOM      3  C   UNL A   1      39.281  19.688  25.722  1.00  0.00     0.202 C 
BRANCH   3   4
ATOM      4  C   UNL A   1      37.922  20.357  24.933  1.00  0.00     0.261 C 
BRANCH   4   5
ATOM      5  O   UNL A   1      37.443  21.994  24.636  1.00  0.00    -0.460 OA
BRANCH   5   6
ATOM      6  C   UNL A   1      36.519  22.670  23.775  1.00  0.00     0.338 C 
ATOM      7  O   UNL A   1      36.638  22.922  22.573  1.00  0.00    -0.246 OA
BRANCH   6   8
ATOM      8  C   UNL A   1      35.185  23.217  24.035  1.00  0.00     0.060 A 
ATOM      9  C   UNL A   1      32.374  23.236  23.777  1.00  0.00    -0.029 A 
ATOM     10  C   UNL A   1      32.957  22.349  24.668  1.00  0.00     0.006 A 
ATOM     11  C   UNL A   1      33.199  24.013  22.936  1.00  0.00     0.006 A 
ATOM     12  C   UNL A   1      34.334  22.368  24.817  1.00  0.00     0.016 A 
ATOM     13  C   UNL A   1      34.595  23.993  23.049  1.00  0.00     0.016 A 
BRANCH   9  14
ATOM     14  C   UNL A   1      30.885  23.379  23.779  1.00  0.00     0.152 C 
BRANCH  14  15
ATOM     15  N   UNL A   1      30.415  24.071  24.960  1.00  0.00    -0.348 N 
ATOM     16  C   UNL A   1      30.217  25.401  25.233  1.00  0.00     0.255 C 
ATOM     17  O   UNL A   1      29.664  25.646  26.312  1.00  0.00    -0.269 OA
ATOM     18  H   UNL A   1      30.196  23.474  25.712  1.00  0.00     0.164 HD
BRANCH  16  19
ATOM     19  C   UNL A   1      30.525  26.559  24.330  1.00  0.00     0.082 A 
ATOM     20  C   UNL A   1      31.760  27.218  24.167  1.00  0.00     0.134 A 
ATOM     21  C   UNL A   1      31.852  28.365  23.338  1.00  0.00    -0.008 A 
ATOM     22  C   UNL A   1      33.150  29.076  23.057  1.00  0.00     0.048 C 
ATOM     23  C   UNL A   1      30.689  28.891  22.753  1.00  0.00     0.007 A 
ATOM     24  C   UNL A   1      29.391  27.097  23.684  1.00  0.00     0.018 A 
ATOM     25  C   UNL A   1      29.466  28.256  22.915  1.00  0.00     0.001 A 
BRANCH  20  26
ATOM     26  O   UNL A   1      32.893  26.674  24.702  1.00  0.00    -0.496 OA
ATOM     27  C   UNL A   1      32.915  26.604  26.117  1.00  0.00     0.278 C 
ENDBRANCH  20  26
ENDBRANCH  16  19
ENDBRANCH  14  15
ENDBRANCH   9  14
ENDBRANCH   6   8
ENDBRANCH   5   6
ENDBRANCH   4   5
ENDBRANCH   3   4
ENDBRANCH   2   3
ENDBRANCH   1   2
BRANCH   1  28
ATOM     28  C   UNL A   1      42.755  19.316  25.805  1.00  0.00     0.188 C 
BRANCH  28  29
ATOM     29  O   UNL A   1      43.291  20.400  25.074  1.00  0.00    -0.376 OA
BRANCH  29  30
ATOM     30  C   UNL A   1      43.437  21.621  25.765  1.00  0.00     0.202 C 
BRANCH  30  31
ATOM     31  C   UNL A   1      43.603  22.839  24.839  1.00  0.00     0.261 C 
BRANCH  31  32
ATOM     32  O   UNL A   1      43.992  24.037  25.559  1.00  0.00    -0.460 OA
BRANCH  32  33
ATOM     33  C   UNL A   1      42.994  24.917  25.939  1.00  0.00     0.338 C 
ATOM     34  O   UNL A   1      41.871  24.863  25.459  1.00  0.00    -0.246 OA
BRANCH  33  35
ATOM     35  C   UNL A   1      43.447  25.787  27.082  1.00  0.00     0.060 A 
ATOM     36  C   UNL A   1      43.266  25.657  28.468  1.00  0.00     0.016 A 
ATOM     37  C   UNL A   1      43.960  26.971  26.704  1.00  0.00     0.016 A 
ATOM     38  C   UNL A   1      43.424  26.792  29.410  1.00  0.00     0.010 A 
ATOM     39  C   UNL A   1      43.807  28.029  27.596  1.00  0.00     0.010 A 
ATOM     40  C   UNL A   1      43.667  28.107  28.995  1.00  0.00    -0.014 A 
BRANCH  40  41
ATOM     41  C   UNL A   1      43.628  29.536  29.880  1.00  0.00     0.031 A 
ATOM     42  C   UNL A   1      42.392  30.702  30.247  1.00  0.00     0.074 A 
ATOM     43  C   UNL A   1      44.828  29.986  30.309  1.00  0.00     0.049 A 
ATOM     44  N   UNL A   1      42.565  32.019  30.216  1.00  0.00    -0.248 NA
ATOM     45  C   UNL A   1      40.886  30.514  30.464  1.00  0.00     0.031 C 
ATOM     46  C   UNL A   1      45.078  31.068  31.257  1.00  0.00     0.029 A 
ATOM     47  N   UNL A   1      46.101  29.611  29.870  1.00  0.00    -0.354 N 
ATOM     48  C   UNL A   1      41.300  32.598  30.442  1.00  0.00     0.074 A 
ATOM     49  C   UNL A   1      40.368  31.650  30.038  1.00  0.00     0.031 C 
ATOM     50  C   UNL A   1      46.355  31.458  31.134  1.00  0.00     0.029 A 
ATOM     51  C   UNL A   1      46.922  30.739  30.009  1.00  0.00     0.049 A 
ATOM     52  H   UNL A   1      46.370  28.727  29.530  1.00  0.00     0.167 HD
ATOM     53  C   UNL A   1      41.026  33.662  31.250  1.00  0.00     0.037 A 
ATOM     54  C   UNL A   1      47.536  31.289  28.927  1.00  0.00     0.037 A 
ATOM     55  C   UNL A   1      42.251  34.398  31.404  1.00  0.00     0.049 A 
ATOM     56  C   UNL A   1      47.137  32.731  28.704  1.00  0.00     0.074 A 
ATOM     57  C   UNL A   1      43.222  34.420  32.384  1.00  0.00     0.029 A 
ATOM     58  N   UNL A   1      42.828  34.894  30.245  1.00  0.00    -0.354 N 
ATOM     59  N   UNL A   1      46.152  33.325  29.329  1.00  0.00    -0.248 NA
ATOM     60  C   UNL A   1      47.818  33.630  27.778  1.00  0.00     0.031 C 
ATOM     61  C   UNL A   1      44.450  34.748  31.736  1.00  0.00     0.029 A 
ATOM     62  C   UNL A   1      44.194  35.011  30.399  1.00  0.00     0.049 A 
ATOM     63  H   UNL A   1      42.333  35.131  29.428  1.00  0.00     0.167 HD
ATOM     64  C   UNL A   1      46.007  34.603  28.864  1.00  0.00     0.074 A 
ATOM     65  C   UNL A   1      47.104  34.761  27.926  1.00  0.00     0.031 C 
ATOM     66  C   UNL A   1      44.989  35.424  29.252  1.00  0.00     0.037 A 
BRANCH  53  67
ATOM     67  C   UNL A   1      39.690  33.884  32.037  1.00  0.00     0.058 A 
ATOM     68  C   UNL A   1      39.525  33.299  33.314  1.00  0.00     0.135 A 
ATOM     69  C   UNL A   1      38.497  34.534  31.587  1.00  0.00     0.135 A 
ATOM     70  F   UNL A   1      40.538  32.640  33.895  1.00  0.00    -0.206 F 
ATOM     71  C   UNL A   1      38.311  33.326  34.040  1.00  0.00     0.059 A 
ATOM     72  C   UNL A   1      37.298  34.609  32.308  1.00  0.00     0.059 A 
ATOM     73  F   UNL A   1      38.351  35.097  30.386  1.00  0.00    -0.206 F 
ATOM     74  C   UNL A   1      37.196  33.976  33.525  1.00  0.00     0.060 A 
BRANCH  74  75
ATOM     75  S   UNL A   1      35.610  33.950  34.389  1.00  0.00     0.124 S 
ATOM     76  O   UNL A   1      34.844  33.000  33.589  1.00  0.00    -0.237 OA
ATOM     77  O   UNL A   1      35.989  33.503  35.724  1.00  0.00    -0.237 OA
ATOM     78  O   UNL A   1      35.148  35.334  34.308  1.00  0.00    -0.744 OA
ENDBRANCH  74  75
ENDBRANCH  53  67
BRANCH  54  79
ATOM     79  C   UNL A   1      47.984  30.269  27.926  1.00  0.00     0.058 A 
ATOM     80  C   UNL A   1      49.130  29.513  28.263  1.00  0.00     0.135 A 
ATOM     81  C   UNL A   1      47.155  29.739  26.928  1.00  0.00     0.135 A 
ATOM     82  F   UNL A   1      49.978  29.966  29.200  1.00  0.00    -0.206 F 
ATOM     83  C   UNL A   1      49.355  28.232  27.765  1.00  0.00     0.059 A 
ATOM     84  C   UNL A   1      47.377  28.457  26.390  1.00  0.00     0.059 A 
ATOM     85  F   UNL A   1      46.038  30.386  26.564  1.00  0.00    -0.206 F 
ATOM     86  C   UNL A   1      48.441  27.688  26.869  1.00  0.00     0.060 A 
BRANCH  86  87
ATOM     87  S   UNL A   1      48.589  25.916  26.510  1.00  0.00     0.124 S 
ATOM     88  O   UNL A   1      47.258  25.587  26.015  1.00  0.00    -0.237 OA
ATOM     89  O   UNL A   1      49.653  25.912  25.507  1.00  0.00    -0.237 OA
ATOM     90  O   UNL A   1      48.939  25.339  27.805  1.00  0.00    -0.744 OA
ENDBRANCH  86  87
ENDBRANCH  54  79
BRANCH  66  91
ATOM     91  C   UNL A   1      44.623  36.722  28.573  1.00  0.00     0.058 A 
ATOM     92  C   UNL A   1      43.884  36.798  27.380  1.00  0.00     0.135 A 
ATOM     93  C   UNL A   1      44.863  37.954  29.229  1.00  0.00     0.135 A 
ATOM     94  F   UNL A   1      43.495  35.692  26.730  1.00  0.00    -0.206 F 
ATOM     95  C   UNL A   1      43.481  38.015  26.833  1.00  0.00     0.059 A 
ATOM     96  C   UNL A   1      44.409  39.172  28.736  1.00  0.00     0.059 A 
ATOM     97  F   UNL A   1      45.536  38.008  30.389  1.00  0.00    -0.206 F 
ATOM     98  C   UNL A   1      43.750  39.197  27.517  1.00  0.00     0.060 A 
BRANCH  98  99
ATOM     99  S   UNL A   1      43.227  40.778  26.835  1.00  0.00     0.124 S 
ATOM    100  O   UNL A   1      43.984  41.713  27.662  1.00  0.00    -0.237 OA
ATOM    101  O   UNL A   1      43.645  40.693  25.439  1.00  0.00    -0.237 OA
ATOM    102  O   UNL A   1      41.783  40.766  27.051  1.00  0.00    -0.744 OA
ENDBRANCH  98  99
ENDBRANCH  66  91
ENDBRANCH  40  41
ENDBRANCH  33  35
ENDBRANCH  32  33
ENDBRANCH  31  32
ENDBRANCH  30  31
ENDBRANCH  29  30
ENDBRANCH  28  29
ENDBRANCH   1  28
TORSDOF 24
ENDMDL
MODEL 3
REMARK VINA RESULT:      -9.9      6.709     14.549
REMARK SMILES COc1c(C)cccc1C(=O)NCc1ccc(C(=O)OCCOCCOCCOC(=O)c2ccc(-c3c4nc(c(-c5c(F)cc(S(=O)(=O)[O-])cc5F)c5ccc([nH]5)c(-c5c(F)cc(S(=O)(=O)[O-])cc5F)c5nc(c(-c6c(F)cc(S(=O)(=O)[O-])cc6F)c6ccc3[nH]6)C=C5)C=C4)cc2)cc1
REMARK SMILES IDX 24 1 23 2 22 3 21 4 20 5 18 6 19 7 17 8 14 9 15 10 99 11
REMARK SMILES IDX 16 12 98 13 13 14 12 15 10 16 11 17 9 19 3 20 4 21 5 22 6 23
REMARK SMILES IDX 8 24 7 25 2 26 1 27 25 28 26 29 27 30 28 31 29 32 30 33
REMARK SMILES IDX 31 34 32 35 33 36 97 37 34 38 96 39 35 40 36 41 37 42 90 43
REMARK SMILES IDX 38 44 95 45 89 46 91 47 39 48 94 49 88 50 87 51 40 53 74 54
REMARK SMILES IDX 53 55 73 56 54 57 57 58 72 59 92 60 55 61 56 62 71 64 93 65
REMARK SMILES IDX 58 66 41 67 42 68 51 69 43 70 44 71 50 72 52 73 45 74 46 75
REMARK SMILES IDX 47 76 48 77 49 78 75 79 76 80 85 81 77 82 78 83 84 84 86 85
REMARK SMILES IDX 79 86 80 87 81 88 82 89 83 90 59 91 60 92 69 93 61 94 62 95
REMARK SMILES IDX 68 96 70 97 63 98 64 99 65 100 66 101 67 102
REMARK H PARENT 12 18 91 52 57 63
REMARK Flexibility Score: inf
ROOT
ATOM      1  C   UNL A   1      32.990  36.380  31.332  1.00  0.00     0.188 C 
ENDROOT
BRANCH   1   2
ATOM      2  O   UNL A   1      32.707  35.808  30.032  1.00  0.00    -0.376 OA
BRANCH   2   3
ATOM      3  C   UNL A   1      33.613  35.751  28.912  1.00  0.00     0.202 C 
BRANCH   3   4
ATOM      4  C   UNL A   1      34.036  34.372  27.997  1.00  0.00     0.261 C 
BRANCH   4   5
ATOM      5  O   UNL A   1      33.520  32.721  28.082  1.00  0.00    -0.460 OA
BRANCH   5   6
ATOM      6  C   UNL A   1      34.030  31.447  27.671  1.00  0.00     0.338 C 
ATOM      7  O   UNL A   1      35.207  31.098  27.550  1.00  0.00    -0.246 OA
BRANCH   6   8
ATOM      8  C   UNL A   1      33.342  30.204  27.317  1.00  0.00     0.060 A 
ATOM      9  C   UNL A   1      32.614  28.146  25.528  1.00  0.00    -0.029 A 
ATOM     10  C   UNL A   1      33.873  28.113  26.107  1.00  0.00     0.006 A 
ATOM     11  C   UNL A   1      31.781  29.264  25.746  1.00  0.00     0.006 A 
ATOM     12  C   UNL A   1      34.211  29.105  27.012  1.00  0.00     0.016 A 
ATOM     13  C   UNL A   1      32.147  30.296  26.621  1.00  0.00     0.016 A 
BRANCH   9  14
ATOM     14  C   UNL A   1      32.160  26.962  24.733  1.00  0.00     0.152 C 
BRANCH  14  15
ATOM     15  N   UNL A   1      32.906  26.825  23.501  1.00  0.00    -0.348 N 
ATOM     16  C   UNL A   1      33.395  25.730  22.836  1.00  0.00     0.255 C 
ATOM     17  O   UNL A   1      33.873  25.956  21.718  1.00  0.00    -0.269 OA
ATOM     18  H   UNL A   1      33.099  27.681  23.054  1.00  0.00     0.164 HD
BRANCH  16  19
ATOM     19  C   UNL A   1      33.333  24.302  23.290  1.00  0.00     0.082 A 
ATOM     20  C   UNL A   1      34.380  23.520  23.817  1.00  0.00     0.134 A 
ATOM     21  C   UNL A   1      34.168  22.147  24.106  1.00  0.00    -0.008 A 
ATOM     22  C   UNL A   1      35.215  21.268  24.740  1.00  0.00     0.048 C 
ATOM     23  C   UNL A   1      32.939  21.552  23.780  1.00  0.00     0.007 A 
ATOM     24  C   UNL A   1      32.098  23.671  23.022  1.00  0.00     0.018 A 
ATOM     25  C   UNL A   1      31.905  22.310  23.251  1.00  0.00     0.001 A 
BRANCH  20  26
ATOM     26  O   UNL A   1      35.555  24.116  24.173  1.00  0.00    -0.496 OA
ATOM     27  C   UNL A   1      35.924  23.950  25.532  1.00  0.00     0.278 C 
ENDBRANCH  20  26
ENDBRANCH  16  19
ENDBRANCH  14  15
ENDBRANCH   9  14
ENDBRANCH   6   8
ENDBRANCH   5   6
ENDBRANCH   4   5
ENDBRANCH   3   4
ENDBRANCH   2   3
ENDBRANCH   1   2
BRANCH   1  28
ATOM     28  C   UNL A   1      33.294  35.544  32.575  1.00  0.00     0.188 C 
BRANCH  28  29
ATOM     29  O   UNL A   1      34.284  34.580  32.278  1.00  0.00    -0.376 OA
BRANCH  29  30
ATOM     30  C   UNL A   1      35.620  34.935  32.557  1.00  0.00     0.202 C 
BRANCH  30  31
ATOM     31  C   UNL A   1      36.407  33.841  33.301  1.00  0.00     0.261 C 
BRANCH  31  32
ATOM     32  O   UNL A   1      36.831  34.262  34.623  1.00  0.00    -0.460 OA
BRANCH  32  33
ATOM     33  C   UNL A   1      37.747  33.470  35.292  1.00  0.00     0.338 C 
ATOM     34  O   UNL A   1      37.456  32.358  35.706  1.00  0.00    -0.246 OA
BRANCH  33  35
ATOM     35  C   UNL A   1      39.115  34.100  35.282  1.00  0.00     0.060 A 
ATOM     36  C   UNL A   1      39.598  35.267  35.896  1.00  0.00     0.016 A 
ATOM     37  C   UNL A   1      39.969  33.551  34.402  1.00  0.00     0.016 A 
ATOM     38  C   UNL A   1      40.841  35.949  35.463  1.00  0.00     0.010 A 
ATOM     39  C   UNL A   1      40.946  34.391  33.874  1.00  0.00     0.010 A 
ATOM     40  C   UNL A   1      41.587  35.552  34.346  1.00  0.00    -0.014 A 
BRANCH  40  41
ATOM     41  C   UNL A   1      42.855  36.335  33.569  1.00  0.00     0.031 A 
ATOM     42  C   UNL A   1      43.347  37.996  33.419  1.00  0.00     0.074 A 
ATOM     43  C   UNL A   1      43.609  35.558  32.760  1.00  0.00     0.049 A 
ATOM     44  N   UNL A   1      43.763  38.561  32.292  1.00  0.00    -0.248 NA
ATOM     45  C   UNL A   1      43.224  39.159  34.412  1.00  0.00     0.031 C 
ATOM     46  C   UNL A   1      44.878  35.909  32.130  1.00  0.00     0.029 A 
ATOM     47  N   UNL A   1      43.307  34.293  32.246  1.00  0.00    -0.354 N 
ATOM     48  C   UNL A   1      43.933  39.933  32.565  1.00  0.00     0.074 A 
ATOM     49  C   UNL A   1      43.093  40.216  33.635  1.00  0.00     0.031 C 
ATOM     50  C   UNL A   1      45.112  35.046  31.130  1.00  0.00     0.029 A 
ATOM     51  C   UNL A   1      43.937  34.207  30.997  1.00  0.00     0.049 A 
ATOM     52  H   UNL A   1      42.759  33.598  32.677  1.00  0.00     0.167 HD
ATOM     53  C   UNL A   1      44.973  40.719  32.165  1.00  0.00     0.037 A 
ATOM     54  C   UNL A   1      43.209  34.010  29.864  1.00  0.00     0.037 A 
ATOM     55  C   UNL A   1      45.565  40.080  31.022  1.00  0.00     0.049 A 
ATOM     56  C   UNL A   1      43.386  35.129  28.861  1.00  0.00     0.074 A 
ATOM     57  C   UNL A   1      46.657  39.253  30.863  1.00  0.00     0.029 A 
ATOM     58  N   UNL A   1      44.743  39.888  29.922  1.00  0.00    -0.354 N 
ATOM     59  N   UNL A   1      43.981  36.264  29.124  1.00  0.00    -0.248 NA
ATOM     60  C   UNL A   1      42.926  35.061  27.477  1.00  0.00     0.031 C 
ATOM     61  C   UNL A   1      46.374  38.409  29.747  1.00  0.00     0.029 A 
ATOM     62  C   UNL A   1      45.164  38.797  29.190  1.00  0.00     0.049 A 
ATOM     63  H   UNL A   1      43.968  40.451  29.694  1.00  0.00     0.167 HD
ATOM     64  C   UNL A   1      43.925  37.085  28.032  1.00  0.00     0.074 A 
ATOM     65  C   UNL A   1      43.294  36.268  27.011  1.00  0.00     0.031 C 
ATOM     66  C   UNL A   1      44.366  38.376  28.049  1.00  0.00     0.037 A 
BRANCH  53  67
ATOM     67  C   UNL A   1      45.541  41.946  32.956  1.00  0.00     0.058 A 
ATOM     68  C   UNL A   1      46.248  41.734  34.162  1.00  0.00     0.135 A 
ATOM     69  C   UNL A   1      45.345  43.338  32.687  1.00  0.00     0.135 A 
ATOM     70  F   UNL A   1      46.520  40.490  34.580  1.00  0.00    -0.206 F 
ATOM     71  C   UNL A   1      46.678  42.778  35.015  1.00  0.00     0.059 A 
ATOM     72  C   UNL A   1      45.799  44.387  33.497  1.00  0.00     0.059 A 
ATOM     73  F   UNL A   1      44.641  43.817  31.659  1.00  0.00    -0.206 F 
ATOM     74  C   UNL A   1      46.440  44.105  34.680  1.00  0.00     0.060 A 
BRANCH  74  75
ATOM     75  S   UNL A   1      46.898  45.452  35.793  1.00  0.00     0.124 S 
ATOM     76  O   UNL A   1      46.590  44.883  37.101  1.00  0.00    -0.237 OA
ATOM     77  O   UNL A   1      48.313  45.639  35.492  1.00  0.00    -0.237 OA
ATOM     78  O   UNL A   1      46.028  46.553  35.381  1.00  0.00    -0.744 OA
ENDBRANCH  74  75
ENDBRANCH  53  67
BRANCH  54  79
ATOM     79  C   UNL A   1      42.034  33.106  30.072  1.00  0.00     0.058 A 
ATOM     80  C   UNL A   1      42.292  31.717  30.047  1.00  0.00     0.135 A 
ATOM     81  C   UNL A   1      40.837  33.510  30.680  1.00  0.00     0.135 A 
ATOM     82  F   UNL A   1      43.413  31.256  29.467  1.00  0.00    -0.206 F 
ATOM     83  C   UNL A   1      41.500  30.795  30.727  1.00  0.00     0.059 A 
ATOM     84  C   UNL A   1      40.006  32.593  31.351  1.00  0.00     0.059 A 
ATOM     85  F   UNL A   1      40.527  34.812  30.761  1.00  0.00    -0.206 F 
ATOM     86  C   UNL A   1      40.388  31.250  31.425  1.00  0.00     0.060 A 
BRANCH  86  87
ATOM     87  S   UNL A   1      39.587  30.082  32.558  1.00  0.00     0.124 S 
ATOM     88  O   UNL A   1      38.865  30.969  33.461  1.00  0.00    -0.237 OA
ATOM     89  O   UNL A   1      38.757  29.308  31.637  1.00  0.00    -0.237 OA
ATOM     90  O   UNL A   1      40.712  29.363  33.150  1.00  0.00    -0.744 OA
ENDBRANCH  86  87
ENDBRANCH  54  79
BRANCH  66  91
ATOM     91  C   UNL A   1      44.077  39.399  26.976  1.00  0.00     0.058 A 
ATOM     92  C   UNL A   1      42.804  39.945  26.741  1.00  0.00     0.135 A 
ATOM     93  C   UNL A   1      45.146  39.998  26.266  1.00  0.00     0.135 A 
ATOM     94  F   UNL A   1      41.732  39.541  27.437  1.00  0.00    -0.206 F 
ATOM     95  C   UNL A   1      42.592  40.958  25.807  1.00  0.00     0.059 A 
ATOM     96  C   UNL A   1      44.965  41.056  25.383  1.00  0.00     0.059 A 
ATOM     97  F   UNL A   1      46.411  39.580  26.426  1.00  0.00    -0.206 F 
ATOM     98  C   UNL A   1      43.678  41.506  25.131  1.00  0.00     0.060 A 
BRANCH  98  99
ATOM     99  S   UNL A   1      43.429  42.824  23.932  1.00  0.00     0.124 S 
ATOM    100  O   UNL A   1      43.834  43.995  24.703  1.00  0.00    -0.237 OA
ATOM    101  O   UNL A   1      44.321  42.453  22.838  1.00  0.00    -0.237 OA
ATOM    102  O   UNL A   1      42.004  42.727  23.629  1.00  0.00    -0.744 OA
ENDBRANCH  98  99
ENDBRANCH  66  91
ENDBRANCH  40  41
ENDBRANCH  33  35
ENDBRANCH  32  33
ENDBRANCH  31  32
ENDBRANCH  30  31
ENDBRANCH  29  30
ENDBRANCH  28  29
ENDBRANCH   1  28
TORSDOF 24
ENDMDL
