MODEL 1
REMARK VINA RESULT:     -11.8      0.000      0.000
REMARK SMILES O=C(OCCOCCOCCOC(=O)[C@H]1[C@H]2CC[C@H](CC2)[C@@H]1C(=O)Nc1ccc(Cc2ccncc2)cc1)c1ccc(-c2c3nc(c(-c4c(F)cc(S(=O)(=O)[O-])cc4F)c4ccc([nH]4)c(-c4c(F)cc(S(=O)(=O)[O-])cc4F)c4nc(c(-c5c(F)cc(S(=O)(=O)[O-])cc5F)c5ccc2[nH]5)C=C4)C=C3)cc1
REMARK SMILES IDX 8 1 7 2 6 3 5 4 4 5 3 6 2 7 1 8 39 9 40 10 104 11 41 12
REMARK SMILES IDX 103 13 42 14 43 15 44 16 97 17 45 18 102 19 96 20 98 21
REMARK SMILES IDX 46 22 101 23 95 24 94 25 47 27 81 28 60 29 80 30 61 31 64 32
REMARK SMILES IDX 79 33 99 34 62 35 63 36 78 38 100 39 65 40 48 41 49 42 58 43
REMARK SMILES IDX 50 44 51 45 57 46 59 47 52 48 53 49 54 50 55 51 56 52 82 53
REMARK SMILES IDX 83 54 92 55 84 56 85 57 91 58 93 59 86 60 87 61 88 62 89 63
REMARK SMILES IDX 90 64 66 65 67 66 76 67 68 68 69 69 75 70 77 71 70 72 71 73
REMARK SMILES IDX 72 74 73 75 74 76 9 77 10 78 11 79 12 80 13 81 14 82 15 83
REMARK SMILES IDX 16 84 22 85 21 86 17 87 19 88 20 89 18 90 23 91 24 92 25 93
REMARK SMILES IDX 26 95 27 96 38 97 28 98 37 99 29 100 30 101 31 102 32 103
REMARK SMILES IDX 36 104 33 105 35 106 34 107
REMARK H PARENT 98 26 64 37 25 94
REMARK Flexibility Score: inf
ROOT
ATOM      1  C   UNL A   1      31.676  29.131  25.997  1.00  0.00     0.188 C 
ENDROOT
BRANCH   1   2
ATOM      2  C   UNL A   1      33.061  29.065  25.352  1.00  0.00     0.188 C 
BRANCH   2   3
ATOM      3  O   UNL A   1      34.083  29.395  26.294  1.00  0.00    -0.376 OA
BRANCH   3   4
ATOM      4  C   UNL A   1      33.833  30.527  27.126  1.00  0.00     0.202 C 
BRANCH   4   5
ATOM      5  C   UNL A   1      34.878  30.849  28.203  1.00  0.00     0.261 C 
BRANCH   5   6
ATOM      6  O   UNL A   1      35.388  29.691  28.878  1.00  0.00    -0.460 OA
BRANCH   6   7
ATOM      7  C   UNL A   1      36.285  29.729  29.892  1.00  0.00     0.338 C 
ATOM      8  O   UNL A   1      35.912  29.770  31.062  1.00  0.00    -0.246 OA
BRANCH   7   9
ATOM      9  C   UNL A   1      37.731  29.650  29.607  1.00  0.00     0.060 A 
ATOM     10  C   UNL A   1      38.675  29.161  30.511  1.00  0.00     0.016 A 
ATOM     11  C   UNL A   1      38.131  29.935  28.311  1.00  0.00     0.016 A 
ATOM     12  C   UNL A   1      40.023  29.068  30.169  1.00  0.00     0.010 A 
ATOM     13  C   UNL A   1      39.440  29.643  27.926  1.00  0.00     0.010 A 
ATOM     14  C   UNL A   1      40.427  29.232  28.848  1.00  0.00    -0.014 A 
BRANCH  14  15
ATOM     15  C   UNL A   1      41.844  29.007  28.404  1.00  0.00     0.031 A 
ATOM     16  C   UNL A   1      42.216  27.645  27.879  1.00  0.00     0.074 A 
ATOM     17  C   UNL A   1      42.820  29.938  28.510  1.00  0.00     0.049 A 
ATOM     18  N   UNL A   1      43.387  27.070  27.831  1.00  0.00    -0.248 NA
ATOM     19  C   UNL A   1      41.102  26.767  27.486  1.00  0.00     0.031 C 
ATOM     20  C   UNL A   1      42.667  31.304  29.012  1.00  0.00     0.029 A 
ATOM     21  N   UNL A   1      44.156  29.876  28.178  1.00  0.00    -0.354 N 
ATOM     22  C   UNL A   1      43.117  25.741  27.534  1.00  0.00     0.074 A 
ATOM     23  C   UNL A   1      41.682  25.581  27.575  1.00  0.00     0.031 C 
ATOM     24  C   UNL A   1      43.823  31.966  28.863  1.00  0.00     0.029 A 
ATOM     25  C   UNL A   1      44.839  31.053  28.390  1.00  0.00     0.049 A 
ATOM     26  H   UNL A   1      44.583  29.064  27.822  1.00  0.00     0.167 HD
ATOM     27  C   UNL A   1      43.969  24.761  27.153  1.00  0.00     0.037 A 
ATOM     28  C   UNL A   1      46.139  31.376  28.246  1.00  0.00     0.037 A 
ATOM     29  C   UNL A   1      45.351  25.007  26.857  1.00  0.00     0.049 A 
ATOM     30  C   UNL A   1      47.063  30.317  27.726  1.00  0.00     0.074 A 
ATOM     31  C   UNL A   1      46.281  24.149  26.302  1.00  0.00     0.029 A 
ATOM     32  N   UNL A   1      45.977  26.237  27.011  1.00  0.00    -0.354 N 
ATOM     33  N   UNL A   1      46.796  29.059  27.470  1.00  0.00    -0.248 NA
ATOM     34  C   UNL A   1      48.444  30.719  27.439  1.00  0.00     0.031 C 
ATOM     35  C   UNL A   1      47.465  24.868  26.100  1.00  0.00     0.029 A 
ATOM     36  C   UNL A   1      47.267  26.175  26.520  1.00  0.00     0.049 A 
ATOM     37  H   UNL A   1      45.562  27.036  27.410  1.00  0.00     0.167 HD
ATOM     38  C   UNL A   1      47.958  28.532  26.927  1.00  0.00     0.074 A 
ATOM     39  C   UNL A   1      48.933  29.606  26.909  1.00  0.00     0.031 C 
ATOM     40  C   UNL A   1      48.191  27.279  26.468  1.00  0.00     0.037 A 
BRANCH  27  41
ATOM     41  C   UNL A   1      43.385  23.390  26.945  1.00  0.00     0.058 A 
ATOM     42  C   UNL A   1      43.176  22.504  28.017  1.00  0.00     0.135 A 
ATOM     43  C   UNL A   1      43.106  22.923  25.652  1.00  0.00     0.135 A 
ATOM     44  F   UNL A   1      43.439  22.891  29.277  1.00  0.00    -0.206 F 
ATOM     45  C   UNL A   1      42.807  21.182  27.809  1.00  0.00     0.059 A 
ATOM     46  C   UNL A   1      42.687  21.614  25.424  1.00  0.00     0.059 A 
ATOM     47  F   UNL A   1      43.272  23.728  24.591  1.00  0.00    -0.206 F 
ATOM     48  C   UNL A   1      42.577  20.742  26.506  1.00  0.00     0.060 A 
BRANCH  48  49
ATOM     49  S   UNL A   1      42.139  19.010  26.254  1.00  0.00     0.124 S 
ATOM     50  O   UNL A   1      43.158  18.592  25.294  1.00  0.00    -0.237 OA
ATOM     51  O   UNL A   1      42.265  18.454  27.591  1.00  0.00    -0.237 OA
ATOM     52  O   UNL A   1      40.775  19.082  25.730  1.00  0.00    -0.744 OA
ENDBRANCH  48  49
ENDBRANCH  27  41
BRANCH  28  53
ATOM     53  C   UNL A   1      46.629  32.754  28.542  1.00  0.00     0.058 A 
ATOM     54  C   UNL A   1      47.063  33.100  29.832  1.00  0.00     0.135 A 
ATOM     55  C   UNL A   1      46.685  33.750  27.553  1.00  0.00     0.135 A 
ATOM     56  F   UNL A   1      47.041  32.183  30.812  1.00  0.00    -0.206 F 
ATOM     57  C   UNL A   1      47.498  34.385  30.141  1.00  0.00     0.059 A 
ATOM     58  C   UNL A   1      47.139  35.039  27.832  1.00  0.00     0.059 A 
ATOM     59  F   UNL A   1      46.316  33.469  26.295  1.00  0.00    -0.206 F 
ATOM     60  C   UNL A   1      47.529  35.351  29.135  1.00  0.00     0.060 A 
BRANCH  60  61
ATOM     61  S   UNL A   1      48.106  37.012  29.554  1.00  0.00     0.124 S 
ATOM     62  O   UNL A   1      49.310  37.118  28.739  1.00  0.00    -0.237 OA
ATOM     63  O   UNL A   1      46.977  37.839  29.138  1.00  0.00    -0.237 OA
ATOM     64  O   UNL A   1      48.324  36.938  30.996  1.00  0.00    -0.744 OA
ENDBRANCH  60  61
ENDBRANCH  28  53
BRANCH  40  65
ATOM     65  C   UNL A   1      49.512  27.039  25.810  1.00  0.00     0.058 A 
ATOM     66  C   UNL A   1      49.708  27.264  24.442  1.00  0.00     0.135 A 
ATOM     67  C   UNL A   1      50.609  26.621  26.581  1.00  0.00     0.135 A 
ATOM     68  F   UNL A   1      48.681  27.648  23.666  1.00  0.00    -0.206 F 
ATOM     69  C   UNL A   1      50.948  27.066  23.851  1.00  0.00     0.059 A 
ATOM     70  C   UNL A   1      51.863  26.444  26.018  1.00  0.00     0.059 A 
ATOM     71  F   UNL A   1      50.464  26.398  27.898  1.00  0.00    -0.206 F 
ATOM     72  C   UNL A   1      52.021  26.661  24.649  1.00  0.00     0.060 A 
BRANCH  72  73
ATOM     73  S   UNL A   1      53.640  26.459  23.883  1.00  0.00     0.124 S 
ATOM     74  O   UNL A   1      54.389  27.554  24.490  1.00  0.00    -0.237 OA
ATOM     75  O   UNL A   1      54.022  25.116  24.309  1.00  0.00    -0.237 OA
ATOM     76  O   UNL A   1      53.359  26.601  22.458  1.00  0.00    -0.744 OA
ENDBRANCH  72  73
ENDBRANCH  40  65
ENDBRANCH  14  15
ENDBRANCH   7   9
ENDBRANCH   6   7
ENDBRANCH   5   6
ENDBRANCH   4   5
ENDBRANCH   3   4
ENDBRANCH   2   3
ENDBRANCH   1   2
BRANCH   1  77
ATOM     77  O   UNL A   1      31.355  28.086  26.915  1.00  0.00    -0.376 OA
BRANCH  77  78
ATOM     78  C   UNL A   1      31.789  26.774  26.583  1.00  0.00     0.202 C 
BRANCH  78  79
ATOM     79  C   UNL A   1      30.849  25.590  26.871  1.00  0.00     0.261 C 
BRANCH  79  80
ATOM     80  O   UNL A   1      31.468  24.345  27.238  1.00  0.00    -0.463 OA
BRANCH  80  81
ATOM     81  C   UNL A   1      31.784  23.550  26.174  1.00  0.00     0.310 C 
ATOM     82  O   UNL A   1      31.141  22.551  25.868  1.00  0.00    -0.252 OA
BRANCH  81  83
ATOM     83  C   UNL A   1      33.020  24.062  25.413  1.00  0.00     0.115 C 
ATOM     84  C   UNL A   1      34.326  23.707  26.182  1.00  0.00     0.004 C 
ATOM     85  C   UNL A   1      33.064  23.400  24.004  1.00  0.00     0.096 C 
ATOM     86  C   UNL A   1      34.349  22.205  26.503  1.00  0.00     0.005 C 
ATOM     87  C   UNL A   1      35.568  23.958  25.302  1.00  0.00     0.005 C 
ATOM     88  C   UNL A   1      34.214  22.356  23.964  1.00  0.00     0.002 C 
ATOM     89  C   UNL A   1      34.128  21.420  25.201  1.00  0.00     0.005 C 
ATOM     90  C   UNL A   1      35.550  23.091  24.042  1.00  0.00     0.005 C 
BRANCH  85  91
ATOM     91  C   UNL A   1      32.998  24.284  22.729  1.00  0.00     0.228 C 
ATOM     92  O   UNL A   1      33.989  24.388  21.998  1.00  0.00    -0.274 OA
ATOM     93  N   UNL A   1      31.780  24.685  22.242  1.00  0.00    -0.326 N 
ATOM     94  H   UNL A   1      31.408  24.164  21.494  1.00  0.00     0.169 HD
BRANCH  93  95
ATOM     95  C   UNL A   1      31.005  25.769  22.705  1.00  0.00     0.041 A 
ATOM     96  C   UNL A   1      31.379  27.061  22.336  1.00  0.00     0.026 A 
ATOM     97  C   UNL A   1      29.883  25.600  23.511  1.00  0.00     0.026 A 
ATOM     98  C   UNL A   1      30.523  28.138  22.595  1.00  0.00     0.006 A 
ATOM     99  C   UNL A   1      29.024  26.669  23.776  1.00  0.00     0.006 A 
ATOM    100  C   UNL A   1      29.299  27.932  23.249  1.00  0.00    -0.043 A 
BRANCH 100 101
ATOM    101  C   UNL A   1      28.184  28.932  23.110  1.00  0.00     0.071 C 
BRANCH 101 102
ATOM    102  C   UNL A   1      28.368  30.316  22.560  1.00  0.00    -0.041 A 
ATOM    103  C   UNL A   1      28.073  30.616  21.230  1.00  0.00     0.024 A 
ATOM    104  C   UNL A   1      28.587  31.383  23.445  1.00  0.00     0.024 A 
ATOM    105  C   UNL A   1      28.001  31.949  20.850  1.00  0.00     0.111 A 
ATOM    106  C   UNL A   1      28.492  32.682  22.971  1.00  0.00     0.111 A 
ATOM    107  N   UNL A   1      28.206  32.987  21.688  1.00  0.00    -0.265 NA
ENDBRANCH 101 102
ENDBRANCH 100 101
ENDBRANCH  93  95
ENDBRANCH  85  91
ENDBRANCH  81  83
ENDBRANCH  80  81
ENDBRANCH  79  80
ENDBRANCH  78  79
ENDBRANCH  77  78
ENDBRANCH   1  77
TORSDOF 24
ENDMDL
MODEL 2
REMARK VINA RESULT:     -11.8      6.657     11.572
REMARK SMILES O=C(OCCOCCOCCOC(=O)[C@H]1[C@H]2CC[C@H](CC2)[C@@H]1C(=O)Nc1ccc(Cc2ccncc2)cc1)c1ccc(-c2c3nc(c(-c4c(F)cc(S(=O)(=O)[O-])cc4F)c4ccc([nH]4)c(-c4c(F)cc(S(=O)(=O)[O-])cc4F)c4nc(c(-c5c(F)cc(S(=O)(=O)[O-])cc5F)c5ccc2[nH]5)C=C4)C=C3)cc1
REMARK SMILES IDX 8 1 7 2 6 3 5 4 4 5 3 6 2 7 1 8 39 9 40 10 104 11 41 12
REMARK SMILES IDX 103 13 42 14 43 15 44 16 97 17 45 18 102 19 96 20 98 21
REMARK SMILES IDX 46 22 101 23 95 24 94 25 47 27 81 28 60 29 80 30 61 31 64 32
REMARK SMILES IDX 79 33 99 34 62 35 63 36 78 38 100 39 65 40 48 41 49 42 58 43
REMARK SMILES IDX 50 44 51 45 57 46 59 47 52 48 53 49 54 50 55 51 56 52 82 53
REMARK SMILES IDX 83 54 92 55 84 56 85 57 91 58 93 59 86 60 87 61 88 62 89 63
REMARK SMILES IDX 90 64 66 65 67 66 76 67 68 68 69 69 75 70 77 71 70 72 71 73
REMARK SMILES IDX 72 74 73 75 74 76 9 77 10 78 11 79 12 80 13 81 14 82 15 83
REMARK SMILES IDX 16 84 22 85 21 86 17 87 19 88 20 89 18 90 23 91 24 92 25 93
REMARK SMILES IDX 26 95 27 96 38 97 28 98 37 99 29 100 30 101 31 102 32 103
REMARK SMILES IDX 36 104 33 105 35 106 34 107
REMARK H PARENT 98 26 64 37 25 94
REMARK Flexibility Score: inf
ROOT
ATOM      1  C   UNL A   1      33.500  32.242  27.668  1.00  0.00     0.188 C 
ENDROOT
BRANCH   1   2
ATOM      2  C   UNL A   1      34.789  32.953  28.082  1.00  0.00     0.188 C 
BRANCH   2   3
ATOM      3  O   UNL A   1      34.514  34.046  28.960  1.00  0.00    -0.376 OA
BRANCH   3   4
ATOM      4  C   UNL A   1      34.155  35.280  28.340  1.00  0.00     0.202 C 
BRANCH   4   5
ATOM      5  C   UNL A   1      33.254  36.230  29.140  1.00  0.00     0.261 C 
BRANCH   5   6
ATOM      6  O   UNL A   1      32.550  35.593  30.213  1.00  0.00    -0.460 OA
BRANCH   6   7
ATOM      7  C   UNL A   1      32.891  35.694  31.521  1.00  0.00     0.338 C 
ATOM      8  O   UNL A   1      32.276  36.442  32.276  1.00  0.00    -0.246 OA
BRANCH   7   9
ATOM      9  C   UNL A   1      33.970  34.851  32.073  1.00  0.00     0.060 A 
ATOM     10  C   UNL A   1      33.873  33.467  32.223  1.00  0.00     0.016 A 
ATOM     11  C   UNL A   1      35.191  35.466  32.304  1.00  0.00     0.016 A 
ATOM     12  C   UNL A   1      34.942  32.717  32.709  1.00  0.00     0.010 A 
ATOM     13  C   UNL A   1      36.303  34.675  32.592  1.00  0.00     0.010 A 
ATOM     14  C   UNL A   1      36.204  33.287  32.832  1.00  0.00    -0.014 A 
BRANCH  14  15
ATOM     15  C   UNL A   1      37.416  32.488  33.219  1.00  0.00     0.031 A 
ATOM     16  C   UNL A   1      38.084  32.803  34.533  1.00  0.00     0.074 A 
ATOM     17  C   UNL A   1      37.979  31.548  32.427  1.00  0.00     0.049 A 
ATOM     18  N   UNL A   1      39.316  32.588  34.905  1.00  0.00    -0.248 NA
ATOM     19  C   UNL A   1      37.297  33.587  35.498  1.00  0.00     0.031 C 
ATOM     20  C   UNL A   1      37.499  31.116  31.114  1.00  0.00     0.029 A 
ATOM     21  N   UNL A   1      39.093  30.761  32.624  1.00  0.00    -0.354 N 
ATOM     22  C   UNL A   1      39.468  33.324  36.072  1.00  0.00     0.074 A 
ATOM     23  C   UNL A   1      38.262  34.101  36.242  1.00  0.00     0.031 C 
ATOM     24  C   UNL A   1      38.245  30.090  30.680  1.00  0.00     0.029 A 
ATOM     25  C   UNL A   1      39.339  29.873  31.600  1.00  0.00     0.049 A 
ATOM     26  H   UNL A   1      39.662  30.827  33.425  1.00  0.00     0.167 HD
ATOM     27  C   UNL A   1      40.466  33.282  36.984  1.00  0.00     0.037 A 
ATOM     28  C   UNL A   1      40.337  28.992  31.395  1.00  0.00     0.037 A 
ATOM     29  C   UNL A   1      41.521  32.310  36.936  1.00  0.00     0.049 A 
ATOM     30  C   UNL A   1      41.387  28.874  32.457  1.00  0.00     0.074 A 
ATOM     31  C   UNL A   1      42.495  32.046  37.879  1.00  0.00     0.029 A 
ATOM     32  N   UNL A   1      41.681  31.379  35.918  1.00  0.00    -0.354 N 
ATOM     33  N   UNL A   1      41.528  29.594  33.545  1.00  0.00    -0.248 NA
ATOM     34  C   UNL A   1      42.388  27.815  32.292  1.00  0.00     0.031 C 
ATOM     35  C   UNL A   1      43.231  30.939  37.441  1.00  0.00     0.029 A 
ATOM     36  C   UNL A   1      42.707  30.510  36.230  1.00  0.00     0.049 A 
ATOM     37  H   UNL A   1      41.140  31.344  35.095  1.00  0.00     0.167 HD
ATOM     38  C   UNL A   1      42.593  29.030  34.231  1.00  0.00     0.074 A 
ATOM     39  C   UNL A   1      43.069  27.922  33.425  1.00  0.00     0.031 C 
ATOM     40  C   UNL A   1      43.117  29.385  35.428  1.00  0.00     0.037 A 
BRANCH  27  41
ATOM     41  C   UNL A   1      40.380  34.244  38.137  1.00  0.00     0.058 A 
ATOM     42  C   UNL A   1      39.564  33.990  39.254  1.00  0.00     0.135 A 
ATOM     43  C   UNL A   1      41.057  35.473  38.093  1.00  0.00     0.135 A 
ATOM     44  F   UNL A   1      38.881  32.837  39.345  1.00  0.00    -0.206 F 
ATOM     45  C   UNL A   1      39.346  34.952  40.232  1.00  0.00     0.059 A 
ATOM     46  C   UNL A   1      40.892  36.433  39.088  1.00  0.00     0.059 A 
ATOM     47  F   UNL A   1      41.863  35.765  37.059  1.00  0.00    -0.206 F 
ATOM     48  C   UNL A   1      40.006  36.177  40.133  1.00  0.00     0.060 A 
BRANCH  48  49
ATOM     49  S   UNL A   1      39.676  37.427  41.391  1.00  0.00     0.124 S 
ATOM     50  O   UNL A   1      41.031  37.855  41.735  1.00  0.00    -0.237 OA
ATOM     51  O   UNL A   1      38.872  38.399  40.669  1.00  0.00    -0.237 OA
ATOM     52  O   UNL A   1      38.971  36.678  42.432  1.00  0.00    -0.744 OA
ENDBRANCH  48  49
ENDBRANCH  27  41
BRANCH  28  53
ATOM     53  C   UNL A   1      40.363  28.126  30.181  1.00  0.00     0.058 A 
ATOM     54  C   UNL A   1      39.499  27.024  30.066  1.00  0.00     0.135 A 
ATOM     55  C   UNL A   1      41.235  28.376  29.108  1.00  0.00     0.135 A 
ATOM     56  F   UNL A   1      38.638  26.746  31.057  1.00  0.00    -0.206 F 
ATOM     57  C   UNL A   1      39.523  26.184  28.957  1.00  0.00     0.059 A 
ATOM     58  C   UNL A   1      41.262  27.563  27.976  1.00  0.00     0.059 A 
ATOM     59  F   UNL A   1      42.059  29.434  29.146  1.00  0.00    -0.206 F 
ATOM     60  C   UNL A   1      40.412  26.458  27.917  1.00  0.00     0.060 A 
BRANCH  60  61
ATOM     61  S   UNL A   1      40.420  25.361  26.480  1.00  0.00     0.124 S 
ATOM     62  O   UNL A   1      39.025  24.943  26.422  1.00  0.00    -0.237 OA
ATOM     63  O   UNL A   1      40.863  26.259  25.417  1.00  0.00    -0.237 OA
ATOM     64  O   UNL A   1      41.376  24.324  26.856  1.00  0.00    -0.744 OA
ENDBRANCH  60  61
ENDBRANCH  28  53
BRANCH  40  65
ATOM     65  C   UNL A   1      44.188  28.500  35.983  1.00  0.00     0.058 A 
ATOM     66  C   UNL A   1      45.547  28.759  35.765  1.00  0.00     0.135 A 
ATOM     67  C   UNL A   1      43.837  27.400  36.783  1.00  0.00     0.135 A 
ATOM     68  F   UNL A   1      45.923  29.791  34.993  1.00  0.00    -0.206 F 
ATOM     69  C   UNL A   1      46.530  27.946  36.313  1.00  0.00     0.059 A 
ATOM     70  C   UNL A   1      44.803  26.591  37.362  1.00  0.00     0.059 A 
ATOM     71  F   UNL A   1      42.545  27.119  37.017  1.00  0.00    -0.206 F 
ATOM     72  C   UNL A   1      46.147  26.867  37.114  1.00  0.00     0.060 A 
BRANCH  72  73
ATOM     73  S   UNL A   1      47.432  25.849  37.863  1.00  0.00     0.124 S 
ATOM     74  O   UNL A   1      46.696  24.627  38.168  1.00  0.00    -0.237 OA
ATOM     75  O   UNL A   1      48.416  25.747  36.790  1.00  0.00    -0.237 OA
ATOM     76  O   UNL A   1      47.854  26.635  39.019  1.00  0.00    -0.744 OA
ENDBRANCH  72  73
ENDBRANCH  40  65
ENDBRANCH  14  15
ENDBRANCH   7   9
ENDBRANCH   6   7
ENDBRANCH   5   6
ENDBRANCH   4   5
ENDBRANCH   3   4
ENDBRANCH   2   3
ENDBRANCH   1   2
BRANCH   1  77
ATOM     77  O   UNL A   1      33.637  30.894  27.220  1.00  0.00    -0.376 OA
BRANCH  77  78
ATOM     78  C   UNL A   1      32.462  30.241  26.754  1.00  0.00     0.202 C 
BRANCH  78  79
ATOM     79  C   UNL A   1      32.443  29.691  25.318  1.00  0.00     0.261 C 
BRANCH  79  80
ATOM     80  O   UNL A   1      33.229  28.514  25.062  1.00  0.00    -0.463 OA
BRANCH  80  81
ATOM     81  C   UNL A   1      33.023  27.507  25.960  1.00  0.00     0.310 C 
ATOM     82  O   UNL A   1      33.067  27.670  27.175  1.00  0.00    -0.252 OA
BRANCH  81  83
ATOM     83  C   UNL A   1      32.721  26.164  25.268  1.00  0.00     0.115 C 
ATOM     84  C   UNL A   1      31.422  25.529  25.843  1.00  0.00     0.004 C 
ATOM     85  C   UNL A   1      32.537  26.406  23.741  1.00  0.00     0.096 C 
ATOM     86  C   UNL A   1      30.275  26.549  25.787  1.00  0.00     0.005 C 
ATOM     87  C   UNL A   1      30.959  24.342  24.973  1.00  0.00     0.005 C 
ATOM     88  C   UNL A   1      31.035  26.249  23.375  1.00  0.00     0.002 C 
ATOM     89  C   UNL A   1      30.158  27.081  24.350  1.00  0.00     0.005 C 
ATOM     90  C   UNL A   1      30.639  24.784  23.543  1.00  0.00     0.005 C 
BRANCH  85  91
ATOM     91  C   UNL A   1      33.488  25.716  22.726  1.00  0.00     0.228 C 
ATOM     92  O   UNL A   1      33.648  26.202  21.602  1.00  0.00    -0.274 OA
ATOM     93  N   UNL A   1      34.382  24.772  23.166  1.00  0.00    -0.326 N 
ATOM     94  H   UNL A   1      35.307  25.075  23.316  1.00  0.00     0.169 HD
BRANCH  93  95
ATOM     95  C   UNL A   1      34.110  23.412  23.423  1.00  0.00     0.041 A 
ATOM     96  C   UNL A   1      34.753  22.796  24.497  1.00  0.00     0.026 A 
ATOM     97  C   UNL A   1      33.225  22.665  22.652  1.00  0.00     0.026 A 
ATOM     98  C   UNL A   1      34.353  21.521  24.912  1.00  0.00     0.006 A 
ATOM     99  C   UNL A   1      32.822  21.390  23.057  1.00  0.00     0.006 A 
ATOM    100  C   UNL A   1      33.325  20.842  24.238  1.00  0.00    -0.043 A 
BRANCH 100 101
ATOM    101  C   UNL A   1      32.566  19.739  24.922  1.00  0.00     0.071 C 
BRANCH 101 102
ATOM    102  C   UNL A   1      32.806  18.279  24.668  1.00  0.00    -0.041 A 
ATOM    103  C   UNL A   1      33.524  17.843  23.554  1.00  0.00     0.024 A 
ATOM    104  C   UNL A   1      32.540  17.352  25.687  1.00  0.00     0.024 A 
ATOM    105  C   UNL A   1      33.946  16.522  23.512  1.00  0.00     0.111 A 
ATOM    106  C   UNL A   1      33.004  16.053  25.553  1.00  0.00     0.111 A 
ATOM    107  N   UNL A   1      33.702  15.618  24.484  1.00  0.00    -0.265 NA
ENDBRANCH 101 102
ENDBRANCH 100 101
ENDBRANCH  93  95
ENDBRANCH  85  91
ENDBRANCH  81  83
ENDBRANCH  80  81
ENDBRANCH  79  80
ENDBRANCH  78  79
ENDBRANCH  77  78
ENDBRANCH   1  77
TORSDOF 24
ENDMDL
MODEL 3
REMARK VINA RESULT:     -11.5      1.332      7.979
REMARK SMILES O=C(OCCOCCOCCOC(=O)[C@H]1[C@H]2CC[C@H](CC2)[C@@H]1C(=O)Nc1ccc(Cc2ccncc2)cc1)c1ccc(-c2c3nc(c(-c4c(F)cc(S(=O)(=O)[O-])cc4F)c4ccc([nH]4)c(-c4c(F)cc(S(=O)(=O)[O-])cc4F)c4nc(c(-c5c(F)cc(S(=O)(=O)[O-])cc5F)c5ccc2[nH]5)C=C4)C=C3)cc1
REMARK SMILES IDX 8 1 7 2 6 3 5 4 4 5 3 6 2 7 1 8 39 9 40 10 104 11 41 12
REMARK SMILES IDX 103 13 42 14 43 15 44 16 97 17 45 18 102 19 96 20 98 21
REMARK SMILES IDX 46 22 101 23 95 24 94 25 47 27 81 28 60 29 80 30 61 31 64 32
REMARK SMILES IDX 79 33 99 34 62 35 63 36 78 38 100 39 65 40 48 41 49 42 58 43
REMARK SMILES IDX 50 44 51 45 57 46 59 47 52 48 53 49 54 50 55 51 56 52 82 53
REMARK SMILES IDX 83 54 92 55 84 56 85 57 91 58 93 59 86 60 87 61 88 62 89 63
REMARK SMILES IDX 90 64 66 65 67 66 76 67 68 68 69 69 75 70 77 71 70 72 71 73
REMARK SMILES IDX 72 74 73 75 74 76 9 77 10 78 11 79 12 80 13 81 14 82 15 83
REMARK SMILES IDX 16 84 22 85 21 86 17 87 19 88 20 89 18 90 23 91 24 92 25 93
REMARK SMILES IDX 26 95 27 96 38 97 28 98 37 99 29 100 30 101 31 102 32 103
REMARK SMILES IDX 36 104 33 105 35 106 34 107
REMARK H PARENT 98 26 64 37 25 94
REMARK Flexibility Score: inf
ROOT
ATOM      1  C   UNL A   1      32.509  28.713  27.193  1.00  0.00     0.188 C 
ENDROOT
BRANCH   1   2
ATOM      2  C   UNL A   1      33.128  29.973  26.587  1.00  0.00     0.188 C 
BRANCH   2   3
ATOM      3  O   UNL A   1      33.180  31.032  27.545  1.00  0.00    -0.376 OA
BRANCH   3   4
ATOM      4  C   UNL A   1      34.428  31.223  28.209  1.00  0.00     0.202 C 
BRANCH   4   5
ATOM      5  C   UNL A   1      34.503  32.347  29.251  1.00  0.00     0.261 C 
BRANCH   5   6
ATOM      6  O   UNL A   1      35.781  32.457  29.891  1.00  0.00    -0.460 OA
BRANCH   6   7
ATOM      7  C   UNL A   1      36.360  31.474  30.621  1.00  0.00     0.338 C 
ATOM      8  O   UNL A   1      35.847  31.079  31.665  1.00  0.00    -0.246 OA
BRANCH   7   9
ATOM      9  C   UNL A   1      37.587  30.813  30.133  1.00  0.00     0.060 A 
ATOM     10  C   UNL A   1      37.912  30.679  28.783  1.00  0.00     0.016 A 
ATOM     11  C   UNL A   1      38.526  30.451  31.087  1.00  0.00     0.016 A 
ATOM     12  C   UNL A   1      39.107  30.085  28.383  1.00  0.00     0.010 A 
ATOM     13  C   UNL A   1      39.795  30.050  30.669  1.00  0.00     0.010 A 
ATOM     14  C   UNL A   1      40.111  29.827  29.311  1.00  0.00    -0.014 A 
BRANCH  14  15
ATOM     15  C   UNL A   1      41.466  29.316  28.913  1.00  0.00     0.031 A 
ATOM     16  C   UNL A   1      42.613  30.293  28.884  1.00  0.00     0.074 A 
ATOM     17  C   UNL A   1      41.701  28.045  28.516  1.00  0.00     0.049 A 
ATOM     18  N   UNL A   1      43.728  30.237  28.209  1.00  0.00    -0.248 NA
ATOM     19  C   UNL A   1      42.411  31.562  29.601  1.00  0.00     0.031 C 
ATOM     20  C   UNL A   1      40.723  26.958  28.453  1.00  0.00     0.029 A 
ATOM     21  N   UNL A   1      42.866  27.438  28.099  1.00  0.00    -0.354 N 
ATOM     22  C   UNL A   1      44.277  31.507  28.324  1.00  0.00     0.074 A 
ATOM     23  C   UNL A   1      43.295  32.332  28.990  1.00  0.00     0.031 C 
ATOM     24  C   UNL A   1      41.344  25.817  28.123  1.00  0.00     0.029 A 
ATOM     25  C   UNL A   1      42.728  26.098  27.814  1.00  0.00     0.049 A 
ATOM     26  H   UNL A   1      43.720  27.919  28.013  1.00  0.00     0.167 HD
ATOM     27  C   UNL A   1      45.521  31.931  28.008  1.00  0.00     0.037 A 
ATOM     28  C   UNL A   1      43.596  25.186  27.336  1.00  0.00     0.037 A 
ATOM     29  C   UNL A   1      46.566  31.036  27.601  1.00  0.00     0.049 A 
ATOM     30  C   UNL A   1      45.003  25.635  27.084  1.00  0.00     0.074 A 
ATOM     31  C   UNL A   1      47.908  31.304  27.414  1.00  0.00     0.029 A 
ATOM     32  N   UNL A   1      46.394  29.672  27.403  1.00  0.00    -0.354 N 
ATOM     33  N   UNL A   1      45.500  26.845  27.177  1.00  0.00    -0.248 NA
ATOM     34  C   UNL A   1      45.974  24.604  26.700  1.00  0.00     0.031 C 
ATOM     35  C   UNL A   1      48.553  30.095  27.126  1.00  0.00     0.029 A 
ATOM     36  C   UNL A   1      47.613  29.076  27.142  1.00  0.00     0.049 A 
ATOM     37  H   UNL A   1      45.531  29.200  27.444  1.00  0.00     0.167 HD
ATOM     38  C   UNL A   1      46.858  26.713  26.930  1.00  0.00     0.074 A 
ATOM     39  C   UNL A   1      47.098  25.307  26.667  1.00  0.00     0.031 C 
ATOM     40  C   UNL A   1      47.821  27.665  26.939  1.00  0.00     0.037 A 
BRANCH  27  41
ATOM     41  C   UNL A   1      45.815  33.395  28.199  1.00  0.00     0.058 A 
ATOM     42  C   UNL A   1      46.269  33.904  29.429  1.00  0.00     0.135 A 
ATOM     43  C   UNL A   1      45.563  34.313  27.168  1.00  0.00     0.135 A 
ATOM     44  F   UNL A   1      46.514  33.074  30.457  1.00  0.00    -0.206 F 
ATOM     45  C   UNL A   1      46.371  35.270  29.660  1.00  0.00     0.059 A 
ATOM     46  C   UNL A   1      45.704  35.685  27.363  1.00  0.00     0.059 A 
ATOM     47  F   UNL A   1      45.142  33.884  25.968  1.00  0.00    -0.206 F 
ATOM     48  C   UNL A   1      46.073  36.154  28.624  1.00  0.00     0.060 A 
BRANCH  48  49
ATOM     49  S   UNL A   1      46.170  37.924  28.957  1.00  0.00     0.124 S 
ATOM     50  O   UNL A   1      46.803  37.935  30.275  1.00  0.00    -0.237 OA
ATOM     51  O   UNL A   1      46.988  38.409  27.860  1.00  0.00    -0.237 OA
ATOM     52  O   UNL A   1      44.769  38.346  28.931  1.00  0.00    -0.744 OA
ENDBRANCH  48  49
ENDBRANCH  27  41
BRANCH  28  53
ATOM     53  C   UNL A   1      43.185  23.768  27.120  1.00  0.00     0.058 A 
ATOM     54  C   UNL A   1      43.056  23.248  25.822  1.00  0.00     0.135 A 
ATOM     55  C   UNL A   1      42.922  22.900  28.192  1.00  0.00     0.135 A 
ATOM     56  F   UNL A   1      43.306  24.031  24.761  1.00  0.00    -0.206 F 
ATOM     57  C   UNL A   1      42.647  21.938  25.592  1.00  0.00     0.059 A 
ATOM     58  C   UNL A   1      42.533  21.576  27.989  1.00  0.00     0.059 A 
ATOM     59  F   UNL A   1      43.062  23.330  29.455  1.00  0.00    -0.206 F 
ATOM     60  C   UNL A   1      42.383  21.109  26.683  1.00  0.00     0.060 A 
BRANCH  60  61
ATOM     61  S   UNL A   1      41.863  19.407  26.364  1.00  0.00     0.124 S 
ATOM     62  O   UNL A   1      40.423  19.496  26.577  1.00  0.00    -0.237 OA
ATOM     63  O   UNL A   1      42.294  19.213  24.983  1.00  0.00    -0.237 OA
ATOM     64  O   UNL A   1      42.602  18.638  27.360  1.00  0.00    -0.744 OA
ENDBRANCH  60  61
ENDBRANCH  28  53
BRANCH  40  65
ATOM     65  C   UNL A   1      49.231  27.196  26.766  1.00  0.00     0.058 A 
ATOM     66  C   UNL A   1      50.061  26.929  27.862  1.00  0.00     0.135 A 
ATOM     67  C   UNL A   1      49.736  26.971  25.475  1.00  0.00     0.135 A 
ATOM     68  F   UNL A   1      49.621  27.148  29.111  1.00  0.00    -0.206 F 
ATOM     69  C   UNL A   1      51.357  26.465  27.685  1.00  0.00     0.059 A 
ATOM     70  C   UNL A   1      51.019  26.481  25.276  1.00  0.00     0.059 A 
ATOM     71  F   UNL A   1      48.971  27.212  24.398  1.00  0.00    -0.206 F 
ATOM     72  C   UNL A   1      51.825  26.240  26.388  1.00  0.00     0.060 A 
BRANCH  72  73
ATOM     73  S   UNL A   1      53.491  25.586  26.171  1.00  0.00     0.124 S 
ATOM     74  O   UNL A   1      54.018  26.469  25.137  1.00  0.00    -0.237 OA
ATOM     75  O   UNL A   1      54.067  25.752  27.502  1.00  0.00    -0.237 OA
ATOM     76  O   UNL A   1      53.261  24.204  25.763  1.00  0.00    -0.744 OA
ENDBRANCH  72  73
ENDBRANCH  40  65
ENDBRANCH  14  15
ENDBRANCH   7   9
ENDBRANCH   6   7
ENDBRANCH   5   6
ENDBRANCH   4   5
ENDBRANCH   3   4
ENDBRANCH   2   3
ENDBRANCH   1   2
BRANCH   1  77
ATOM     77  O   UNL A   1      32.229  27.647  26.285  1.00  0.00    -0.376 OA
BRANCH  77  78
ATOM     78  C   UNL A   1      33.288  27.220  25.438  1.00  0.00     0.202 C 
BRANCH  78  79
ATOM     79  C   UNL A   1      34.003  25.896  25.760  1.00  0.00     0.261 C 
BRANCH  79  80
ATOM     80  O   UNL A   1      34.608  25.200  24.656  1.00  0.00    -0.463 OA
BRANCH  80  81
ATOM     81  C   UNL A   1      35.264  24.058  25.015  1.00  0.00     0.310 C 
ATOM     82  O   UNL A   1      36.288  24.056  25.690  1.00  0.00    -0.252 OA
BRANCH  81  83
ATOM     83  C   UNL A   1      34.563  22.794  24.485  1.00  0.00     0.115 C 
ATOM     84  C   UNL A   1      34.955  21.550  25.335  1.00  0.00     0.004 C 
ATOM     85  C   UNL A   1      33.021  22.995  24.559  1.00  0.00     0.096 C 
ATOM     86  C   UNL A   1      34.713  21.840  26.824  1.00  0.00     0.005 C 
ATOM     87  C   UNL A   1      34.051  20.347  24.998  1.00  0.00     0.005 C 
ATOM     88  C   UNL A   1      32.443  22.112  25.701  1.00  0.00     0.002 C 
ATOM     89  C   UNL A   1      33.263  22.319  27.003  1.00  0.00     0.005 C 
ATOM     90  C   UNL A   1      32.582  20.644  25.304  1.00  0.00     0.005 C 
BRANCH  85  91
ATOM     91  C   UNL A   1      32.169  22.950  23.262  1.00  0.00     0.228 C 
ATOM     92  O   UNL A   1      32.453  22.149  22.365  1.00  0.00    -0.274 OA
ATOM     93  N   UNL A   1      30.936  23.552  23.237  1.00  0.00    -0.326 N 
ATOM     94  H   UNL A   1      30.155  22.968  23.371  1.00  0.00     0.169 HD
BRANCH  93  95
ATOM     95  C   UNL A   1      30.675  24.923  23.037  1.00  0.00     0.041 A 
ATOM     96  C   UNL A   1      29.597  25.501  23.708  1.00  0.00     0.026 A 
ATOM     97  C   UNL A   1      31.451  25.721  22.202  1.00  0.00     0.026 A 
ATOM     98  C   UNL A   1      29.435  26.891  23.704  1.00  0.00     0.006 A 
ATOM     99  C   UNL A   1      31.295  27.110  22.190  1.00  0.00     0.006 A 
ATOM    100  C   UNL A   1      30.335  27.711  23.006  1.00  0.00    -0.043 A 
BRANCH 100 101
ATOM    101  C   UNL A   1      30.479  29.164  23.367  1.00  0.00     0.071 C 
BRANCH 101 102
ATOM    102  C   UNL A   1      29.486  30.221  22.982  1.00  0.00    -0.041 A 
ATOM    103  C   UNL A   1      29.139  31.248  23.861  1.00  0.00     0.024 A 
ATOM    104  C   UNL A   1      29.096  30.341  21.639  1.00  0.00     0.024 A 
ATOM    105  C   UNL A   1      28.436  32.336  23.365  1.00  0.00     0.111 A 
ATOM    106  C   UNL A   1      28.396  31.468  21.239  1.00  0.00     0.111 A 
ATOM    107  N   UNL A   1      28.055  32.469  22.077  1.00  0.00    -0.265 NA
ENDBRANCH 101 102
ENDBRANCH 100 101
ENDBRANCH  93  95
ENDBRANCH  85  91
ENDBRANCH  81  83
ENDBRANCH  80  81
ENDBRANCH  79  80
ENDBRANCH  78  79
ENDBRANCH  77  78
ENDBRANCH   1  77
TORSDOF 24
ENDMDL
