MODEL 1
REMARK VINA RESULT:     -12.4      0.000      0.000
REMARK SMILES Cc1ccccc1Nc1nc2c(c(=O)[nH]c(=O)n2C)n1CC(=O)OCCOCCOCCOC(=O)c1ccc(-c2c3nc(c(-c4c(F)cc(S(=O)(=O)[O-])cc4F)c4ccc([nH]4)c(-c4c(F)cc(S(=O)(=O)[O-])cc4F)c4nc(c(-c5c(F)cc(S(=O)(=O)[O-])cc5F)c5ccc2[nH]5)C=C4)C=C3)cc1
REMARK SMILES IDX 28 1 27 2 26 3 25 4 24 5 22 6 23 7 21 8 20 9 9 10 10 11
REMARK SMILES IDX 11 12 12 13 18 14 13 15 16 16 19 17 14 18 15 19 17 20 8 22
REMARK SMILES IDX 7 24 1 25 2 26 3 27 4 28 6 29 5 30 29 31 30 32 31 33 32 34
REMARK SMILES IDX 33 35 34 36 35 37 36 38 37 39 101 40 38 41 100 42 39 43
REMARK SMILES IDX 40 44 41 45 94 46 42 47 99 48 93 49 95 50 43 51 98 52 92 53
REMARK SMILES IDX 91 54 44 56 78 57 57 58 77 59 58 60 61 61 76 62 96 63 59 64
REMARK SMILES IDX 60 65 75 67 97 68 62 69 45 70 46 71 55 72 47 73 48 74 54 75
REMARK SMILES IDX 56 76 49 77 50 78 51 79 52 80 53 81 79 82 80 83 89 84 81 85
REMARK SMILES IDX 82 86 88 87 90 88 83 89 84 90 85 91 86 92 87 93 63 94 64 95
REMARK SMILES IDX 73 96 65 97 66 98 72 99 74 100 67 101 68 102 69 103 70 104
REMARK SMILES IDX 71 105
REMARK H PARENT 15 21 8 23 95 55 61 66
REMARK Flexibility Score: inf
ROOT
ATOM      1  C   UNL A   1      41.498  21.332  26.210  1.00  0.00     0.188 C 
ENDROOT
BRANCH   1   2
ATOM      2  O   UNL A   1      40.316  22.150  26.134  1.00  0.00    -0.376 OA
BRANCH   2   3
ATOM      3  C   UNL A   1      39.127  21.452  25.797  1.00  0.00     0.202 C 
BRANCH   3   4
ATOM      4  C   UNL A   1      37.962  22.387  25.384  1.00  0.00     0.261 C 
BRANCH   4   5
ATOM      5  O   UNL A   1      37.158  21.996  24.199  1.00  0.00    -0.462 OA
BRANCH   5   6
ATOM      6  C   UNL A   1      36.149  22.888  23.907  1.00  0.00     0.326 C 
ATOM      7  O   UNL A   1      35.922  23.138  22.736  1.00  0.00    -0.250 OA
BRANCH   6   8
ATOM      8  C   UNL A   1      35.333  23.545  25.053  1.00  0.00     0.248 C 
BRANCH   8   9
ATOM      9  N   UNL A   1      33.775  23.524  25.214  1.00  0.00    -0.293 N 
ATOM     10  C   UNL A   1      32.677  24.046  24.162  1.00  0.00     0.210 A 
ATOM     11  N   UNL A   1      32.396  22.766  23.640  1.00  0.00    -0.194 NA
ATOM     12  C   UNL A   1      32.708  21.804  24.543  1.00  0.00     0.170 A 
ATOM     13  C   UNL A   1      33.182  22.338  25.696  1.00  0.00     0.154 A 
ATOM     14  N   UNL A   1      32.694  20.433  24.353  1.00  0.00    -0.279 N 
ATOM     15  C   UNL A   1      33.387  21.506  26.836  1.00  0.00     0.279 A 
ATOM     16  C   UNL A   1      33.253  19.613  25.331  1.00  0.00     0.329 A 
ATOM     17  C   UNL A   1      32.243  19.854  23.112  1.00  0.00     0.157 C 
ATOM     18  O   UNL A   1      33.283  21.810  28.019  1.00  0.00    -0.267 OA
ATOM     19  N   UNL A   1      33.621  20.207  26.510  1.00  0.00    -0.272 N 
ATOM     20  O   UNL A   1      33.431  18.401  25.209  1.00  0.00    -0.248 OA
ATOM     21  H   UNL A   1      34.091  19.649  27.171  1.00  0.00     0.175 HD
BRANCH  10  22
ATOM     22  N   UNL A   1      32.161  25.810  23.631  1.00  0.00    -0.325 N 
ATOM     23  H   UNL A   1      32.554  25.963  22.743  1.00  0.00     0.170 HD
BRANCH  22  24
ATOM     24  C   UNL A   1      31.308  27.237  24.045  1.00  0.00     0.044 A 
ATOM     25  C   UNL A   1      31.923  29.506  24.893  1.00  0.00     0.046 C 
ATOM     26  C   UNL A   1      31.837  28.499  23.676  1.00  0.00    -0.027 A 
ATOM     27  C   UNL A   1      31.205  29.244  22.627  1.00  0.00     0.005 A 
ATOM     28  C   UNL A   1      29.838  29.109  22.424  1.00  0.00     0.000 A 
ATOM     29  C   UNL A   1      29.917  27.203  23.866  1.00  0.00     0.026 A 
ATOM     30  C   UNL A   1      29.170  28.156  23.157  1.00  0.00     0.002 A 
ENDBRANCH  22  24
ENDBRANCH  10  22
ENDBRANCH   8   9
ENDBRANCH   6   8
ENDBRANCH   5   6
ENDBRANCH   4   5
ENDBRANCH   3   4
ENDBRANCH   2   3
ENDBRANCH   1   2
BRANCH   1  31
ATOM     31  C   UNL A   1      42.769  22.158  25.932  1.00  0.00     0.188 C 
BRANCH  31  32
ATOM     32  O   UNL A   1      42.965  22.924  24.735  1.00  0.00    -0.376 OA
BRANCH  32  33
ATOM     33  C   UNL A   1      44.284  22.696  24.130  1.00  0.00     0.202 C 
BRANCH  33  34
ATOM     34  C   UNL A   1      45.564  22.787  25.074  1.00  0.00     0.261 C 
BRANCH  34  35
ATOM     35  O   UNL A   1      45.692  24.109  25.705  1.00  0.00    -0.460 OA
BRANCH  35  36
ATOM     36  C   UNL A   1      46.739  24.450  26.545  1.00  0.00     0.338 C 
ATOM     37  O   UNL A   1      47.883  24.654  26.192  1.00  0.00    -0.246 OA
BRANCH  36  38
ATOM     38  C   UNL A   1      46.210  24.251  27.943  1.00  0.00     0.060 A 
ATOM     39  C   UNL A   1      44.666  23.449  28.585  1.00  0.00     0.016 A 
ATOM     40  C   UNL A   1      47.149  25.315  29.098  1.00  0.00     0.016 A 
ATOM     41  C   UNL A   1      44.145  23.704  30.353  1.00  0.00     0.010 A 
ATOM     42  C   UNL A   1      46.512  25.704  30.763  1.00  0.00     0.010 A 
ATOM     43  C   UNL A   1      45.085  24.804  31.486  1.00  0.00    -0.014 A 
BRANCH  43  44
ATOM     44  C   UNL A   1      44.893  25.312  32.913  1.00  0.00     0.031 A 
ATOM     45  C   UNL A   1      44.390  26.722  33.454  1.00  0.00     0.074 A 
ATOM     46  C   UNL A   1      44.436  24.211  33.553  1.00  0.00     0.049 A 
ATOM     47  N   UNL A   1      43.851  26.953  34.629  1.00  0.00    -0.248 NA
ATOM     48  C   UNL A   1      44.396  28.011  32.744  1.00  0.00     0.031 C 
ATOM     49  C   UNL A   1      43.404  24.077  34.569  1.00  0.00     0.029 A 
ATOM     50  N   UNL A   1      44.922  22.892  33.401  1.00  0.00    -0.354 N 
ATOM     51  C   UNL A   1      43.160  28.187  34.579  1.00  0.00     0.074 A 
ATOM     52  C   UNL A   1      43.723  28.892  33.492  1.00  0.00     0.031 C 
ATOM     53  C   UNL A   1      43.571  22.888  35.181  1.00  0.00     0.029 A 
ATOM     54  C   UNL A   1      44.842  22.352  34.696  1.00  0.00     0.049 A 
ATOM     55  H   UNL A   1      45.240  22.453  32.579  1.00  0.00     0.167 HD
ATOM     56  C   UNL A   1      42.031  28.433  35.319  1.00  0.00     0.037 A 
ATOM     57  C   UNL A   1      45.986  22.262  35.440  1.00  0.00     0.037 A 
ATOM     58  C   UNL A   1      41.986  27.473  36.395  1.00  0.00     0.049 A 
ATOM     59  C   UNL A   1      45.900  23.139  36.680  1.00  0.00     0.074 A 
ATOM     60  C   UNL A   1      41.220  26.376  36.718  1.00  0.00     0.029 A 
ATOM     61  N   UNL A   1      43.121  27.414  37.180  1.00  0.00    -0.354 N 
ATOM     62  N   UNL A   1      45.086  24.159  36.791  1.00  0.00    -0.248 NA
ATOM     63  C   UNL A   1      46.632  22.895  37.918  1.00  0.00     0.031 C 
ATOM     64  C   UNL A   1      42.057  25.525  37.516  1.00  0.00     0.029 A 
ATOM     65  C   UNL A   1      43.276  26.161  37.726  1.00  0.00     0.049 A 
ATOM     66  H   UNL A   1      43.737  28.168  37.329  1.00  0.00     0.167 HD
ATOM     67  C   UNL A   1      45.200  24.721  38.022  1.00  0.00     0.074 A 
ATOM     68  C   UNL A   1      46.178  23.893  38.699  1.00  0.00     0.031 C 
ATOM     69  C   UNL A   1      44.548  25.864  38.376  1.00  0.00     0.037 A 
BRANCH  56  70
ATOM     70  C   UNL A   1      40.918  29.463  35.047  1.00  0.00     0.058 A 
ATOM     71  C   UNL A   1      40.065  29.328  33.923  1.00  0.00     0.135 A 
ATOM     72  C   UNL A   1      40.721  30.670  35.764  1.00  0.00     0.135 A 
ATOM     73  F   UNL A   1      40.158  28.258  33.119  1.00  0.00    -0.206 F 
ATOM     74  C   UNL A   1      39.098  30.286  33.555  1.00  0.00     0.059 A 
ATOM     75  C   UNL A   1      39.733  31.623  35.438  1.00  0.00     0.059 A 
ATOM     76  F   UNL A   1      41.521  31.019  36.783  1.00  0.00    -0.206 F 
ATOM     77  C   UNL A   1      38.930  31.430  34.323  1.00  0.00     0.060 A 
BRANCH  77  78
ATOM     78  S   UNL A   1      37.677  32.651  33.842  1.00  0.00     0.124 S 
ATOM     79  O   UNL A   1      38.494  33.811  33.501  1.00  0.00    -0.237 OA
ATOM     80  O   UNL A   1      37.009  31.995  32.723  1.00  0.00    -0.237 OA
ATOM     81  O   UNL A   1      36.864  32.801  35.047  1.00  0.00    -0.744 OA
ENDBRANCH  77  78
ENDBRANCH  56  70
BRANCH  57  82
ATOM     82  C   UNL A   1      47.205  21.958  34.605  1.00  0.00     0.058 A 
ATOM     83  C   UNL A   1      48.178  22.968  34.439  1.00  0.00     0.135 A 
ATOM     84  C   UNL A   1      47.626  20.651  34.314  1.00  0.00     0.135 A 
ATOM     85  F   UNL A   1      47.859  24.247  34.705  1.00  0.00    -0.206 F 
ATOM     86  C   UNL A   1      49.513  22.691  34.101  1.00  0.00     0.059 A 
ATOM     87  C   UNL A   1      48.962  20.350  33.988  1.00  0.00     0.059 A 
ATOM     88  F   UNL A   1      46.769  19.628  34.429  1.00  0.00    -0.206 F 
ATOM     89  C   UNL A   1      49.913  21.368  33.940  1.00  0.00     0.060 A 
BRANCH  89  90
ATOM     90  S   UNL A   1      51.667  20.979  33.645  1.00  0.00     0.124 S 
ATOM     91  O   UNL A   1      51.806  21.216  32.210  1.00  0.00    -0.237 OA
ATOM     92  O   UNL A   1      52.363  21.928  34.504  1.00  0.00    -0.237 OA
ATOM     93  O   UNL A   1      51.778  19.585  34.060  1.00  0.00    -0.744 OA
ENDBRANCH  89  90
ENDBRANCH  57  82
BRANCH  69  94
ATOM     94  C   UNL A   1      45.193  26.882  39.292  1.00  0.00     0.058 A 
ATOM     95  C   UNL A   1      45.902  27.997  38.805  1.00  0.00     0.135 A 
ATOM     96  C   UNL A   1      44.925  26.888  40.680  1.00  0.00     0.135 A 
ATOM     97  F   UNL A   1      46.091  28.195  37.491  1.00  0.00    -0.206 F 
ATOM     98  C   UNL A   1      46.424  28.974  39.644  1.00  0.00     0.059 A 
ATOM     99  C   UNL A   1      45.361  27.903  41.525  1.00  0.00     0.059 A 
ATOM    100  F   UNL A   1      44.205  25.915  41.260  1.00  0.00    -0.206 F 
ATOM    101  C   UNL A   1      46.166  28.905  41.007  1.00  0.00     0.060 A 
BRANCH 101 102
ATOM    102  S   UNL A   1      46.937  30.092  42.114  1.00  0.00     0.124 S 
ATOM    103  O   UNL A   1      48.349  29.780  41.915  1.00  0.00    -0.237 OA
ATOM    104  O   UNL A   1      46.494  31.376  41.580  1.00  0.00    -0.237 OA
ATOM    105  O   UNL A   1      46.387  29.737  43.418  1.00  0.00    -0.744 OA
ENDBRANCH 101 102
ENDBRANCH  69  94
ENDBRANCH  43  44
ENDBRANCH  36  38
ENDBRANCH  35  36
ENDBRANCH  34  35
ENDBRANCH  33  34
ENDBRANCH  32  33
ENDBRANCH  31  32
ENDBRANCH   1  31
TORSDOF 23
ENDMDL
MODEL 2
REMARK VINA RESULT:     -12.4      1.371      3.961
REMARK SMILES Cc1ccccc1Nc1nc2c(c(=O)[nH]c(=O)n2C)n1CC(=O)OCCOCCOCCOC(=O)c1ccc(-c2c3nc(c(-c4c(F)cc(S(=O)(=O)[O-])cc4F)c4ccc([nH]4)c(-c4c(F)cc(S(=O)(=O)[O-])cc4F)c4nc(c(-c5c(F)cc(S(=O)(=O)[O-])cc5F)c5ccc2[nH]5)C=C4)C=C3)cc1
REMARK SMILES IDX 28 1 27 2 26 3 25 4 24 5 22 6 23 7 21 8 20 9 9 10 10 11
REMARK SMILES IDX 11 12 12 13 18 14 13 15 16 16 19 17 14 18 15 19 17 20 8 22
REMARK SMILES IDX 7 24 1 25 2 26 3 27 4 28 6 29 5 30 29 31 30 32 31 33 32 34
REMARK SMILES IDX 33 35 34 36 35 37 36 38 37 39 101 40 38 41 100 42 39 43
REMARK SMILES IDX 40 44 41 45 94 46 42 47 99 48 93 49 95 50 43 51 98 52 92 53
REMARK SMILES IDX 91 54 44 56 78 57 57 58 77 59 58 60 61 61 76 62 96 63 59 64
REMARK SMILES IDX 60 65 75 67 97 68 62 69 45 70 46 71 55 72 47 73 48 74 54 75
REMARK SMILES IDX 56 76 49 77 50 78 51 79 52 80 53 81 79 82 80 83 89 84 81 85
REMARK SMILES IDX 82 86 88 87 90 88 83 89 84 90 85 91 86 92 87 93 63 94 64 95
REMARK SMILES IDX 73 96 65 97 66 98 72 99 74 100 67 101 68 102 69 103 70 104
REMARK SMILES IDX 71 105
REMARK H PARENT 15 21 8 23 95 55 61 66
REMARK Flexibility Score: inf
ROOT
ATOM      1  C   UNL A   1      39.654  22.425  26.514  1.00  0.00     0.188 C 
ENDROOT
BRANCH   1   2
ATOM      2  O   UNL A   1      38.805  21.469  25.853  1.00  0.00    -0.376 OA
BRANCH   2   3
ATOM      3  C   UNL A   1      37.799  22.034  25.026  1.00  0.00     0.202 C 
BRANCH   3   4
ATOM      4  C   UNL A   1      36.507  22.406  25.797  1.00  0.00     0.261 C 
BRANCH   4   5
ATOM      5  O   UNL A   1      36.103  23.834  25.806  1.00  0.00    -0.462 OA
BRANCH   5   6
ATOM      6  C   UNL A   1      34.865  24.054  25.243  1.00  0.00     0.326 C 
ATOM      7  O   UNL A   1      33.937  24.334  25.982  1.00  0.00    -0.250 OA
BRANCH   6   8
ATOM      8  C   UNL A   1      34.676  23.943  23.706  1.00  0.00     0.248 C 
BRANCH   8   9
ATOM      9  N   UNL A   1      33.388  23.453  22.961  1.00  0.00    -0.293 N 
ATOM     10  C   UNL A   1      32.287  22.410  23.496  1.00  0.00     0.210 A 
ATOM     11  N   UNL A   1      31.375  23.404  23.909  1.00  0.00    -0.194 NA
ATOM     12  C   UNL A   1      31.582  24.556  23.225  1.00  0.00     0.170 A 
ATOM     13  C   UNL A   1      32.588  24.426  22.325  1.00  0.00     0.154 A 
ATOM     14  N   UNL A   1      30.978  25.782  23.436  1.00  0.00    -0.279 N 
ATOM     15  C   UNL A   1      32.835  25.462  21.377  1.00  0.00     0.279 A 
ATOM     16  C   UNL A   1      31.476  26.901  22.772  1.00  0.00     0.329 A 
ATOM     17  C   UNL A   1      29.942  25.945  24.427  1.00  0.00     0.157 C 
ATOM     18  O   UNL A   1      33.268  25.351  20.235  1.00  0.00    -0.267 OA
ATOM     19  N   UNL A   1      32.423  26.685  21.807  1.00  0.00    -0.272 N 
ATOM     20  O   UNL A   1      31.120  28.060  22.990  1.00  0.00    -0.248 OA
ATOM     21  H   UNL A   1      32.838  27.476  21.393  1.00  0.00     0.175 HD
BRANCH  10  22
ATOM     22  N   UNL A   1      32.342  20.513  23.735  1.00  0.00    -0.325 N 
ATOM     23  H   UNL A   1      31.686  20.132  23.110  1.00  0.00     0.170 HD
BRANCH  22  24
ATOM     24  C   UNL A   1      33.047  19.196  24.573  1.00  0.00     0.044 A 
ATOM     25  C   UNL A   1      32.193  17.169  25.760  1.00  0.00     0.046 C 
ATOM     26  C   UNL A   1      32.522  17.892  24.391  1.00  0.00    -0.027 A 
ATOM     27  C   UNL A   1      33.277  16.931  23.642  1.00  0.00     0.005 A 
ATOM     28  C   UNL A   1      34.665  17.001  23.647  1.00  0.00     0.000 A 
ATOM     29  C   UNL A   1      34.449  19.172  24.626  1.00  0.00     0.026 A 
ATOM     30  C   UNL A   1      35.252  18.079  24.267  1.00  0.00     0.002 A 
ENDBRANCH  22  24
ENDBRANCH  10  22
ENDBRANCH   8   9
ENDBRANCH   6   8
ENDBRANCH   5   6
ENDBRANCH   4   5
ENDBRANCH   3   4
ENDBRANCH   2   3
ENDBRANCH   1   2
BRANCH   1  31
ATOM     31  C   UNL A   1      41.136  22.198  26.159  1.00  0.00     0.188 C 
BRANCH  31  32
ATOM     32  O   UNL A   1      42.096  23.261  26.068  1.00  0.00    -0.376 OA
BRANCH  32  33
ATOM     33  C   UNL A   1      43.192  22.951  25.140  1.00  0.00     0.202 C 
BRANCH  33  34
ATOM     34  C   UNL A   1      44.406  23.978  25.051  1.00  0.00     0.261 C 
BRANCH  34  35
ATOM     35  O   UNL A   1      45.626  23.448  25.679  1.00  0.00    -0.460 OA
BRANCH  35  36
ATOM     36  C   UNL A   1      46.493  24.227  26.427  1.00  0.00     0.338 C 
ATOM     37  O   UNL A   1      47.504  24.753  26.006  1.00  0.00    -0.246 OA
BRANCH  36  38
ATOM     38  C   UNL A   1      46.055  24.050  27.859  1.00  0.00     0.060 A 
ATOM     39  C   UNL A   1      44.650  23.110  28.621  1.00  0.00     0.016 A 
ATOM     40  C   UNL A   1      46.911  25.283  28.906  1.00  0.00     0.016 A 
ATOM     41  C   UNL A   1      44.182  23.405  30.398  1.00  0.00     0.010 A 
ATOM     42  C   UNL A   1      46.307  25.690  30.578  1.00  0.00     0.010 A 
ATOM     43  C   UNL A   1      45.033  24.672  31.421  1.00  0.00    -0.014 A 
BRANCH  43  44
ATOM     44  C   UNL A   1      44.844  25.237  32.826  1.00  0.00     0.031 A 
ATOM     45  C   UNL A   1      44.393  26.684  33.313  1.00  0.00     0.074 A 
ATOM     46  C   UNL A   1      44.336  24.179  33.498  1.00  0.00     0.049 A 
ATOM     47  N   UNL A   1      43.850  26.978  34.472  1.00  0.00    -0.248 NA
ATOM     48  C   UNL A   1      44.460  27.946  32.559  1.00  0.00     0.031 C 
ATOM     49  C   UNL A   1      43.287  24.121  34.505  1.00  0.00     0.029 A 
ATOM     50  N   UNL A   1      44.769  22.836  33.397  1.00  0.00    -0.354 N 
ATOM     51  C   UNL A   1      43.211  28.236  34.371  1.00  0.00     0.074 A 
ATOM     52  C   UNL A   1      43.815  28.879  33.267  1.00  0.00     0.031 C 
ATOM     53  C   UNL A   1      43.399  22.948  35.159  1.00  0.00     0.029 A 
ATOM     54  C   UNL A   1      44.652  22.345  34.709  1.00  0.00     0.049 A 
ATOM     55  H   UNL A   1      45.079  22.357  32.595  1.00  0.00     0.167 HD
ATOM     56  C   UNL A   1      42.084  28.552  35.087  1.00  0.00     0.037 A 
ATOM     57  C   UNL A   1      45.783  22.235  35.471  1.00  0.00     0.037 A 
ATOM     58  C   UNL A   1      41.988  27.633  36.195  1.00  0.00     0.049 A 
ATOM     59  C   UNL A   1      45.718  23.157  36.679  1.00  0.00     0.074 A 
ATOM     60  C   UNL A   1      41.174  26.579  36.545  1.00  0.00     0.029 A 
ATOM     61  N   UNL A   1      43.110  27.556  36.996  1.00  0.00    -0.354 N 
ATOM     62  N   UNL A   1      44.946  24.212  36.744  1.00  0.00    -0.248 NA
ATOM     63  C   UNL A   1      46.426  22.927  37.934  1.00  0.00     0.031 C 
ATOM     64  C   UNL A   1      41.967  25.723  37.382  1.00  0.00     0.029 A 
ATOM     65  C   UNL A   1      43.208  26.317  37.586  1.00  0.00     0.049 A 
ATOM     66  H   UNL A   1      43.755  28.288  37.127  1.00  0.00     0.167 HD
ATOM     67  C   UNL A   1      45.068  24.812  37.957  1.00  0.00     0.074 A 
ATOM     68  C   UNL A   1      46.004  23.969  38.674  1.00  0.00     0.031 C 
ATOM     69  C   UNL A   1      44.459  25.991  38.263  1.00  0.00     0.037 A 
BRANCH  56  70
ATOM     70  C   UNL A   1      41.018  29.616  34.766  1.00  0.00     0.058 A 
ATOM     71  C   UNL A   1      40.906  30.791  35.551  1.00  0.00     0.135 A 
ATOM     72  C   UNL A   1      39.991  29.485  33.796  1.00  0.00     0.135 A 
ATOM     73  F   UNL A   1      41.779  31.037  36.540  1.00  0.00    -0.206 F 
ATOM     74  C   UNL A   1      39.890  31.753  35.380  1.00  0.00     0.059 A 
ATOM     75  C   UNL A   1      38.989  30.454  33.580  1.00  0.00     0.059 A 
ATOM     76  F   UNL A   1      39.871  28.379  33.048  1.00  0.00    -0.206 F 
ATOM     77  C   UNL A   1      38.936  31.584  34.386  1.00  0.00     0.060 A 
BRANCH  77  78
ATOM     78  S   UNL A   1      37.638  32.833  34.172  1.00  0.00     0.124 S 
ATOM     79  O   UNL A   1      38.083  33.535  32.972  1.00  0.00    -0.237 OA
ATOM     80  O   UNL A   1      36.437  32.019  34.021  1.00  0.00    -0.237 OA
ATOM     81  O   UNL A   1      37.706  33.613  35.405  1.00  0.00    -0.744 OA
ENDBRANCH  77  78
ENDBRANCH  56  70
BRANCH  57  82
ATOM     82  C   UNL A   1      46.999  21.854  34.662  1.00  0.00     0.058 A 
ATOM     83  C   UNL A   1      48.044  22.794  34.531  1.00  0.00     0.135 A 
ATOM     84  C   UNL A   1      47.334  20.522  34.367  1.00  0.00     0.135 A 
ATOM     85  F   UNL A   1      47.810  24.089  34.804  1.00  0.00    -0.206 F 
ATOM     86  C   UNL A   1      49.364  22.426  34.224  1.00  0.00     0.059 A 
ATOM     87  C   UNL A   1      48.652  20.131  34.071  1.00  0.00     0.059 A 
ATOM     88  F   UNL A   1      46.404  19.561  34.450  1.00  0.00    -0.206 F 
ATOM     89  C   UNL A   1      49.674  21.080  34.058  1.00  0.00     0.060 A 
BRANCH  89  90
ATOM     90  S   UNL A   1      51.403  20.570  33.801  1.00  0.00     0.124 S 
ATOM     91  O   UNL A   1      51.550  20.671  32.352  1.00  0.00    -0.237 OA
ATOM     92  O   UNL A   1      52.152  21.551  34.575  1.00  0.00    -0.237 OA
ATOM     93  O   UNL A   1      51.438  19.214  34.339  1.00  0.00    -0.744 OA
ENDBRANCH  89  90
ENDBRANCH  57  82
BRANCH  69  94
ATOM     94  C   UNL A   1      45.134  27.013  39.151  1.00  0.00     0.058 A 
ATOM     95  C   UNL A   1      44.976  27.024  40.551  1.00  0.00     0.135 A 
ATOM     96  C   UNL A   1      46.136  27.873  38.645  1.00  0.00     0.135 A 
ATOM     97  F   UNL A   1      44.172  26.151  41.177  1.00  0.00    -0.206 F 
ATOM     98  C   UNL A   1      45.660  27.911  41.373  1.00  0.00     0.059 A 
ATOM     99  C   UNL A   1      46.896  28.705  39.461  1.00  0.00     0.059 A 
ATOM    100  F   UNL A   1      46.429  27.913  37.335  1.00  0.00    -0.206 F 
ATOM    101  C   UNL A   1      46.602  28.764  40.814  1.00  0.00     0.060 A 
BRANCH 101 102
ATOM    102  S   UNL A   1      47.402  29.998  41.847  1.00  0.00     0.124 S 
ATOM    103  O   UNL A   1      48.384  29.178  42.548  1.00  0.00    -0.237 OA
ATOM    104  O   UNL A   1      47.946  30.940  40.874  1.00  0.00    -0.237 OA
ATOM    105  O   UNL A   1      46.306  30.510  42.663  1.00  0.00    -0.744 OA
ENDBRANCH 101 102
ENDBRANCH  69  94
ENDBRANCH  43  44
ENDBRANCH  36  38
ENDBRANCH  35  36
ENDBRANCH  34  35
ENDBRANCH  33  34
ENDBRANCH  32  33
ENDBRANCH  31  32
ENDBRANCH   1  31
TORSDOF 23
ENDMDL
MODEL 3
REMARK VINA RESULT:     -12.3      4.213      6.187
REMARK SMILES Cc1ccccc1Nc1nc2c(c(=O)[nH]c(=O)n2C)n1CC(=O)OCCOCCOCCOC(=O)c1ccc(-c2c3nc(c(-c4c(F)cc(S(=O)(=O)[O-])cc4F)c4ccc([nH]4)c(-c4c(F)cc(S(=O)(=O)[O-])cc4F)c4nc(c(-c5c(F)cc(S(=O)(=O)[O-])cc5F)c5ccc2[nH]5)C=C4)C=C3)cc1
REMARK SMILES IDX 28 1 27 2 26 3 25 4 24 5 22 6 23 7 21 8 20 9 9 10 10 11
REMARK SMILES IDX 11 12 12 13 18 14 13 15 16 16 19 17 14 18 15 19 17 20 8 22
REMARK SMILES IDX 7 24 1 25 2 26 3 27 4 28 6 29 5 30 29 31 30 32 31 33 32 34
REMARK SMILES IDX 33 35 34 36 35 37 36 38 37 39 101 40 38 41 100 42 39 43
REMARK SMILES IDX 40 44 41 45 94 46 42 47 99 48 93 49 95 50 43 51 98 52 92 53
REMARK SMILES IDX 91 54 44 56 78 57 57 58 77 59 58 60 61 61 76 62 96 63 59 64
REMARK SMILES IDX 60 65 75 67 97 68 62 69 45 70 46 71 55 72 47 73 48 74 54 75
REMARK SMILES IDX 56 76 49 77 50 78 51 79 52 80 53 81 79 82 80 83 89 84 81 85
REMARK SMILES IDX 82 86 88 87 90 88 83 89 84 90 85 91 86 92 87 93 63 94 64 95
REMARK SMILES IDX 73 96 65 97 66 98 72 99 74 100 67 101 68 102 69 103 70 104
REMARK SMILES IDX 71 105
REMARK H PARENT 15 21 8 23 95 55 61 66
REMARK Flexibility Score: inf
ROOT
ATOM      1  C   UNL A   1      42.035  20.902  26.275  1.00  0.00     0.188 C 
ENDROOT
BRANCH   1   2
ATOM      2  O   UNL A   1      40.655  21.059  26.654  1.00  0.00    -0.376 OA
BRANCH   2   3
ATOM      3  C   UNL A   1      39.994  22.164  26.058  1.00  0.00     0.202 C 
BRANCH   3   4
ATOM      4  C   UNL A   1      38.479  21.925  25.833  1.00  0.00     0.261 C 
BRANCH   4   5
ATOM      5  O   UNL A   1      37.753  22.896  24.975  1.00  0.00    -0.462 OA
BRANCH   5   6
ATOM      6  C   UNL A   1      36.404  22.959  25.246  1.00  0.00     0.326 C 
ATOM      7  O   UNL A   1      36.049  23.450  26.303  1.00  0.00    -0.250 OA
BRANCH   6   8
ATOM      8  C   UNL A   1      35.376  22.414  24.217  1.00  0.00     0.248 C 
BRANCH   8   9
ATOM      9  N   UNL A   1      33.816  22.516  24.319  1.00  0.00    -0.293 N 
ATOM     10  C   UNL A   1      32.782  22.886  23.144  1.00  0.00     0.210 A 
ATOM     11  N   UNL A   1      32.432  21.547  22.870  1.00  0.00    -0.194 NA
ATOM     12  C   UNL A   1      32.657  20.764  23.953  1.00  0.00     0.170 A 
ATOM     13  C   UNL A   1      33.134  21.484  24.999  1.00  0.00     0.154 A 
ATOM     14  N   UNL A   1      32.559  19.385  24.031  1.00  0.00    -0.279 N 
ATOM     15  C   UNL A   1      33.255  20.880  26.284  1.00  0.00     0.279 A 
ATOM     16  C   UNL A   1      33.037  18.741  25.170  1.00  0.00     0.329 A 
ATOM     17  C   UNL A   1      32.104  18.603  22.909  1.00  0.00     0.157 C 
ATOM     18  O   UNL A   1      33.140  21.415  27.381  1.00  0.00    -0.267 OA
ATOM     19  N   UNL A   1      33.412  19.531  26.225  1.00  0.00    -0.272 N 
ATOM     20  O   UNL A   1      33.140  17.520  25.291  1.00  0.00    -0.248 OA
ATOM     21  H   UNL A   1      33.827  19.087  26.999  1.00  0.00     0.175 HD
BRANCH  10  22
ATOM     22  N   UNL A   1      32.396  24.540  22.264  1.00  0.00    -0.325 N 
ATOM     23  H   UNL A   1      32.308  24.335  21.306  1.00  0.00     0.170 HD
BRANCH  22  24
ATOM     24  C   UNL A   1      32.141  26.225  22.432  1.00  0.00     0.044 A 
ATOM     25  C   UNL A   1      30.575  27.675  23.733  1.00  0.00     0.046 C 
ATOM     26  C   UNL A   1      31.870  26.766  23.714  1.00  0.00    -0.027 A 
ATOM     27  C   UNL A   1      32.875  27.547  24.372  1.00  0.00     0.005 A 
ATOM     28  C   UNL A   1      33.771  28.287  23.610  1.00  0.00     0.000 A 
ATOM     29  C   UNL A   1      33.004  27.060  21.706  1.00  0.00     0.026 A 
ATOM     30  C   UNL A   1      33.736  28.129  22.244  1.00  0.00     0.002 A 
ENDBRANCH  22  24
ENDBRANCH  10  22
ENDBRANCH   8   9
ENDBRANCH   6   8
ENDBRANCH   5   6
ENDBRANCH   4   5
ENDBRANCH   3   4
ENDBRANCH   2   3
ENDBRANCH   1   2
BRANCH   1  31
ATOM     31  C   UNL A   1      42.689  22.263  25.966  1.00  0.00     0.188 C 
BRANCH  31  32
ATOM     32  O   UNL A   1      43.082  22.666  24.646  1.00  0.00    -0.376 OA
BRANCH  32  33
ATOM     33  C   UNL A   1      44.143  23.683  24.661  1.00  0.00     0.202 C 
BRANCH  33  34
ATOM     34  C   UNL A   1      43.857  25.047  25.432  1.00  0.00     0.261 C 
BRANCH  34  35
ATOM     35  O   UNL A   1      42.584  25.657  25.023  1.00  0.00    -0.460 OA
BRANCH  35  36
ATOM     36  C   UNL A   1      42.348  27.021  25.065  1.00  0.00     0.338 C 
ATOM     37  O   UNL A   1      42.682  27.817  24.210  1.00  0.00    -0.246 OA
BRANCH  36  38
ATOM     38  C   UNL A   1      41.852  27.298  26.462  1.00  0.00     0.060 A 
ATOM     39  C   UNL A   1      40.243  26.929  27.305  1.00  0.00     0.016 A 
ATOM     40  C   UNL A   1      42.968  28.504  27.267  1.00  0.00     0.016 A 
ATOM     41  C   UNL A   1      39.830  27.739  28.929  1.00  0.00     0.010 A 
ATOM     42  C   UNL A   1      42.454  29.428  28.754  1.00  0.00     0.010 A 
ATOM     43  C   UNL A   1      40.950  28.973  29.703  1.00  0.00    -0.014 A 
BRANCH  43  44
ATOM     44  C   UNL A   1      40.882  29.883  30.926  1.00  0.00     0.031 A 
ATOM     45  C   UNL A   1      40.215  31.315  31.120  1.00  0.00     0.074 A 
ATOM     46  C   UNL A   1      40.737  28.997  31.939  1.00  0.00     0.049 A 
ATOM     47  N   UNL A   1      39.824  31.840  32.259  1.00  0.00    -0.248 NA
ATOM     48  C   UNL A   1      39.877  32.297  30.078  1.00  0.00     0.031 C 
ATOM     49  C   UNL A   1      39.911  29.064  33.134  1.00  0.00     0.029 A 
ATOM     50  N   UNL A   1      41.429  27.773  32.086  1.00  0.00    -0.354 N 
ATOM     51  C   UNL A   1      38.918  32.893  31.988  1.00  0.00     0.074 A 
ATOM     52  C   UNL A   1      39.173  33.277  30.653  1.00  0.00     0.031 C 
ATOM     53  C   UNL A   1      40.384  28.167  34.021  1.00  0.00     0.029 A 
ATOM     54  C   UNL A   1      41.644  27.672  33.471  1.00  0.00     0.049 A 
ATOM     55  H   UNL A   1      41.697  27.138  31.382  1.00  0.00     0.167 HD
ATOM     56  C   UNL A   1      37.886  33.216  32.834  1.00  0.00     0.037 A 
ATOM     57  C   UNL A   1      42.884  27.974  33.965  1.00  0.00     0.037 A 
ATOM     58  C   UNL A   1      38.180  32.655  34.129  1.00  0.00     0.049 A 
ATOM     59  C   UNL A   1      42.823  29.183  34.885  1.00  0.00     0.074 A 
ATOM     60  C   UNL A   1      37.686  31.630  34.905  1.00  0.00     0.029 A 
ATOM     61  N   UNL A   1      39.411  32.998  34.655  1.00  0.00    -0.354 N 
ATOM     62  N   UNL A   1      41.862  30.071  34.852  1.00  0.00    -0.248 NA
ATOM     63  C   UNL A   1      43.765  29.446  35.969  1.00  0.00     0.031 C 
ATOM     64  C   UNL A   1      38.776  31.196  35.734  1.00  0.00     0.029 A 
ATOM     65  C   UNL A   1      39.874  32.017  35.501  1.00  0.00     0.049 A 
ATOM     66  H   UNL A   1      39.893  33.832  34.451  1.00  0.00     0.167 HD
ATOM     67  C   UNL A   1      42.052  31.009  35.817  1.00  0.00     0.074 A 
ATOM     68  C   UNL A   1      43.256  30.575  36.497  1.00  0.00     0.031 C 
ATOM     69  C   UNL A   1      41.261  32.111  35.943  1.00  0.00     0.037 A 
BRANCH  56  70
ATOM     70  C   UNL A   1      36.575  33.951  32.500  1.00  0.00     0.058 A 
ATOM     71  C   UNL A   1      36.003  34.867  33.419  1.00  0.00     0.135 A 
ATOM     72  C   UNL A   1      35.759  33.706  31.366  1.00  0.00     0.135 A 
ATOM     73  F   UNL A   1      36.635  35.171  34.563  1.00  0.00    -0.206 F 
ATOM     74  C   UNL A   1      34.755  35.494  33.225  1.00  0.00     0.059 A 
ATOM     75  C   UNL A   1      34.527  34.352  31.131  1.00  0.00     0.059 A 
ATOM     76  F   UNL A   1      36.087  32.778  30.455  1.00  0.00    -0.206 F 
ATOM     77  C   UNL A   1      34.023  35.239  32.073  1.00  0.00     0.060 A 
BRANCH  77  78
ATOM     78  S   UNL A   1      32.423  36.058  31.833  1.00  0.00     0.124 S 
ATOM     79  O   UNL A   1      31.511  35.163  32.539  1.00  0.00    -0.237 OA
ATOM     80  O   UNL A   1      32.638  37.361  32.453  1.00  0.00    -0.237 OA
ATOM     81  O   UNL A   1      32.264  36.082  30.380  1.00  0.00    -0.744 OA
ENDBRANCH  77  78
ENDBRANCH  56  70
BRANCH  57  82
ATOM     82  C   UNL A   1      44.000  27.577  33.030  1.00  0.00     0.058 A 
ATOM     83  C   UNL A   1      44.363  26.215  32.952  1.00  0.00     0.135 A 
ATOM     84  C   UNL A   1      44.426  28.385  31.964  1.00  0.00     0.135 A 
ATOM     85  F   UNL A   1      43.986  25.371  33.928  1.00  0.00    -0.206 F 
ATOM     86  C   UNL A   1      45.023  25.665  31.841  1.00  0.00     0.059 A 
ATOM     87  C   UNL A   1      45.076  27.853  30.835  1.00  0.00     0.059 A 
ATOM     88  F   UNL A   1      44.141  29.694  31.956  1.00  0.00    -0.206 F 
ATOM     89  C   UNL A   1      45.319  26.482  30.753  1.00  0.00     0.060 A 
BRANCH  89  90
ATOM     90  S   UNL A   1      46.043  25.761  29.247  1.00  0.00     0.124 S 
ATOM     91  O   UNL A   1      47.473  25.774  29.546  1.00  0.00    -0.237 OA
ATOM     92  O   UNL A   1      45.429  24.441  29.187  1.00  0.00    -0.237 OA
ATOM     93  O   UNL A   1      45.619  26.679  28.196  1.00  0.00    -0.744 OA
ENDBRANCH  89  90
ENDBRANCH  57  82
BRANCH  69  94
ATOM     94  C   UNL A   1      41.837  33.442  36.373  1.00  0.00     0.058 A 
ATOM     95  C   UNL A   1      41.602  33.994  37.647  1.00  0.00     0.135 A 
ATOM     96  C   UNL A   1      42.824  34.096  35.598  1.00  0.00     0.135 A 
ATOM     97  F   UNL A   1      40.807  33.389  38.543  1.00  0.00    -0.206 F 
ATOM     98  C   UNL A   1      42.196  35.177  38.070  1.00  0.00     0.059 A 
ATOM     99  C   UNL A   1      43.496  35.230  36.039  1.00  0.00     0.059 A 
ATOM    100  F   UNL A   1      43.186  33.634  34.391  1.00  0.00    -0.206 F 
ATOM    101  C   UNL A   1      43.126  35.800  37.248  1.00  0.00     0.060 A 
BRANCH 101 102
ATOM    102  S   UNL A   1      43.808  37.391  37.729  1.00  0.00     0.124 S 
ATOM    103  O   UNL A   1      42.802  37.845  38.685  1.00  0.00    -0.237 OA
ATOM    104  O   UNL A   1      45.103  37.036  38.299  1.00  0.00    -0.237 OA
ATOM    105  O   UNL A   1      43.862  38.125  36.470  1.00  0.00    -0.744 OA
ENDBRANCH 101 102
ENDBRANCH  69  94
ENDBRANCH  43  44
ENDBRANCH  36  38
ENDBRANCH  35  36
ENDBRANCH  34  35
ENDBRANCH  33  34
ENDBRANCH  32  33
ENDBRANCH  31  32
ENDBRANCH   1  31
TORSDOF 23
ENDMDL
