MODEL 1
REMARK VINA RESULT:     -11.7      0.000      0.000
REMARK SMILES O=C(OCCOCCOCCOC(=O)c1ccc(-c2c3nc(c(-c4c(F)cc(S(=O)(=O)[O-])cc4F)c4ccc([nH]4)c(-c4c(F)cc(S(=O)(=O)[O-])cc4F)c4nc(c(-c5c(F)cc(S(=O)(=O)[O-])cc5F)c5ccc2[nH]5)C=C4)C=C3)cc1)C1=Cc2c(Cl)cc(Cl)cc2O[C@@H]1C(F)(F)F
REMARK SMILES IDX 8 1 7 2 6 3 5 4 4 5 3 6 2 7 1 8 81 9 82 10 92 11 83 12 91 13
REMARK SMILES IDX 84 14 90 15 85 16 86 17 89 18 87 19 88 20 93 21 94 22 95 23
REMARK SMILES IDX 96 24 9 25 10 26 11 27 12 28 13 29 14 30 15 31 16 32 80 33
REMARK SMILES IDX 17 34 79 35 18 36 19 37 20 38 73 39 21 40 78 41 72 42 74 43
REMARK SMILES IDX 22 44 77 45 71 46 70 47 23 49 57 50 36 51 56 52 37 53 40 54
REMARK SMILES IDX 55 55 75 56 38 57 39 58 54 60 76 61 41 62 24 63 25 64 34 65
REMARK SMILES IDX 26 66 27 67 33 68 35 69 28 70 29 71 30 72 31 73 32 74 58 75
REMARK SMILES IDX 59 76 68 77 60 78 61 79 67 80 69 81 62 82 63 83 64 84 65 85
REMARK SMILES IDX 66 86 42 87 43 88 52 89 44 90 45 91 51 92 53 93 46 94 47 95
REMARK SMILES IDX 48 96 49 97 50 98
REMARK H PARENT 74 48 40 59
REMARK Flexibility Score: inf
ROOT
ATOM      1  C   UNL A   1      34.388  32.218  28.136  1.00  0.00     0.188 C 
ENDROOT
BRANCH   1   2
ATOM      2  C   UNL A   1      33.135  31.658  27.444  1.00  0.00     0.188 C 
BRANCH   2   3
ATOM      3  O   UNL A   1      33.013  30.241  26.982  1.00  0.00    -0.376 OA
BRANCH   3   4
ATOM      4  C   UNL A   1      32.406  29.657  25.472  1.00  0.00     0.202 C 
BRANCH   4   5
ATOM      5  C   UNL A   1      33.244  27.987  24.368  1.00  0.00     0.261 C 
BRANCH   5   6
ATOM      6  O   UNL A   1      33.817  26.715  24.952  1.00  0.00    -0.460 OA
BRANCH   6   7
ATOM      7  C   UNL A   1      32.965  25.687  24.826  1.00  0.00     0.338 C 
ATOM      8  O   UNL A   1      32.136  25.320  25.622  1.00  0.00    -0.246 OA
BRANCH   7   9
ATOM      9  C   UNL A   1      33.714  24.948  23.816  1.00  0.00     0.087 C 
ATOM     10  C   UNL A   1      34.666  23.958  24.313  1.00  0.00     0.029 C 
ATOM     11  C   UNL A   1      32.124  24.526  22.837  1.00  0.00     0.316 C 
ATOM     12  C   UNL A   1      34.367  22.178  24.368  1.00  0.00     0.036 A 
ATOM     13  O   UNL A   1      31.674  22.635  23.022  1.00  0.00    -0.475 OA
ATOM     14  C   UNL A   1      35.249  21.316  24.971  1.00  0.00     0.053 A 
ATOM     15  C   UNL A   1      32.883  21.493  23.793  1.00  0.00     0.130 A 
ATOM     16  Cl  UNL A   1      36.715  21.821  25.698  1.00  0.00    -0.083 Cl
ATOM     17  C   UNL A   1      34.860  19.964  25.012  1.00  0.00     0.042 A 
ATOM     18  C   UNL A   1      32.579  20.161  23.851  1.00  0.00     0.067 A 
ATOM     19  C   UNL A   1      33.614  19.426  24.475  1.00  0.00     0.046 A 
ATOM     20  Cl  UNL A   1      33.404  17.710  24.645  1.00  0.00    -0.084 Cl
BRANCH  11  21
ATOM     21  C   UNL A   1      32.607  25.453  21.515  1.00  0.00     0.430 C 
ATOM     22  F   UNL A   1      33.568  26.369  21.618  1.00  0.00    -0.167 F 
ATOM     23  F   UNL A   1      33.009  24.603  20.533  1.00  0.00    -0.167 F 
ATOM     24  F   UNL A   1      31.560  26.144  20.968  1.00  0.00    -0.167 F 
ENDBRANCH  11  21
ENDBRANCH   7   9
ENDBRANCH   6   7
ENDBRANCH   5   6
ENDBRANCH   4   5
ENDBRANCH   3   4
ENDBRANCH   2   3
ENDBRANCH   1   2
BRANCH   1  25
ATOM     25  O   UNL A   1      34.970  33.392  27.631  1.00  0.00    -0.376 OA
BRANCH  25  26
ATOM     26  C   UNL A   1      35.342  34.346  28.617  1.00  0.00     0.202 C 
BRANCH  26  27
ATOM     27  C   UNL A   1      35.291  33.923  30.099  1.00  0.00     0.261 C 
BRANCH  27  28
ATOM     28  O   UNL A   1      36.528  33.371  30.609  1.00  0.00    -0.460 OA
BRANCH  28  29
ATOM     29  C   UNL A   1      36.491  32.110  31.116  1.00  0.00     0.338 C 
ATOM     30  O   UNL A   1      35.586  31.609  31.762  1.00  0.00    -0.246 OA
BRANCH  29  31
ATOM     31  C   UNL A   1      37.667  31.339  30.648  1.00  0.00     0.060 A 
ATOM     32  C   UNL A   1      38.602  30.860  31.579  1.00  0.00     0.016 A 
ATOM     33  C   UNL A   1      37.874  31.139  29.283  1.00  0.00     0.016 A 
ATOM     34  C   UNL A   1      39.723  30.141  31.149  1.00  0.00     0.010 A 
ATOM     35  C   UNL A   1      39.023  30.467  28.852  1.00  0.00     0.010 A 
ATOM     36  C   UNL A   1      39.959  29.972  29.779  1.00  0.00    -0.014 A 
BRANCH  36  37
ATOM     37  C   UNL A   1      41.282  29.492  29.303  1.00  0.00     0.031 A 
ATOM     38  C   UNL A   1      42.391  30.502  29.187  1.00  0.00     0.074 A 
ATOM     39  C   UNL A   1      41.498  28.206  28.964  1.00  0.00     0.049 A 
ATOM     40  N   UNL A   1      43.607  30.357  28.732  1.00  0.00    -0.248 NA
ATOM     41  C   UNL A   1      42.079  31.868  29.644  1.00  0.00     0.031 C 
ATOM     42  C   UNL A   1      40.516  27.129  29.065  1.00  0.00     0.029 A 
ATOM     43  N   UNL A   1      42.617  27.593  28.451  1.00  0.00    -0.354 N 
ATOM     44  C   UNL A   1      44.201  31.608  28.839  1.00  0.00     0.074 A 
ATOM     45  C   UNL A   1      43.207  32.508  29.378  1.00  0.00     0.031 C 
ATOM     46  C   UNL A   1      41.070  25.989  28.611  1.00  0.00     0.029 A 
ATOM     47  C   UNL A   1      42.433  26.261  28.153  1.00  0.00     0.049 A 
ATOM     48  H   UNL A   1      43.470  28.062  28.309  1.00  0.00     0.167 HD
ATOM     49  C   UNL A   1      45.465  31.972  28.519  1.00  0.00     0.037 A 
ATOM     50  C   UNL A   1      43.260  25.376  27.555  1.00  0.00     0.037 A 
ATOM     51  C   UNL A   1      46.442  31.074  27.965  1.00  0.00     0.049 A 
ATOM     52  C   UNL A   1      44.641  25.829  27.135  1.00  0.00     0.074 A 
ATOM     53  C   UNL A   1      47.755  31.342  27.620  1.00  0.00     0.029 A 
ATOM     54  N   UNL A   1      46.212  29.741  27.655  1.00  0.00    -0.354 N 
ATOM     55  N   UNL A   1      45.205  27.007  27.277  1.00  0.00    -0.248 NA
ATOM     56  C   UNL A   1      45.499  24.835  26.474  1.00  0.00     0.031 C 
ATOM     57  C   UNL A   1      48.295  30.195  27.034  1.00  0.00     0.029 A 
ATOM     58  C   UNL A   1      47.348  29.184  27.092  1.00  0.00     0.049 A 
ATOM     59  H   UNL A   1      45.367  29.262  27.814  1.00  0.00     0.167 HD
ATOM     60  C   UNL A   1      46.492  26.881  26.760  1.00  0.00     0.074 A 
ATOM     61  C   UNL A   1      46.628  25.510  26.313  1.00  0.00     0.031 C 
ATOM     62  C   UNL A   1      47.474  27.813  26.664  1.00  0.00     0.037 A 
BRANCH  49  63
ATOM     63  C   UNL A   1      45.854  33.411  28.726  1.00  0.00     0.058 A 
ATOM     64  C   UNL A   1      46.454  33.856  29.914  1.00  0.00     0.135 A 
ATOM     65  C   UNL A   1      45.672  34.348  27.695  1.00  0.00     0.135 A 
ATOM     66  F   UNL A   1      46.630  33.010  30.942  1.00  0.00    -0.206 F 
ATOM     67  C   UNL A   1      46.850  35.179  30.079  1.00  0.00     0.059 A 
ATOM     68  C   UNL A   1      46.090  35.669  27.825  1.00  0.00     0.059 A 
ATOM     69  F   UNL A   1      45.094  33.981  26.541  1.00  0.00    -0.206 F 
ATOM     70  C   UNL A   1      46.673  36.076  29.023  1.00  0.00     0.060 A 
BRANCH  70  71
ATOM     71  S   UNL A   1      47.232  37.778  29.239  1.00  0.00     0.124 S 
ATOM     72  O   UNL A   1      47.950  38.012  27.989  1.00  0.00    -0.237 OA
ATOM     73  O   UNL A   1      45.973  38.500  29.391  1.00  0.00    -0.237 OA
ATOM     74  O   UNL A   1      48.065  37.715  30.436  1.00  0.00    -0.744 OA
ENDBRANCH  70  71
ENDBRANCH  49  63
BRANCH  50  75
ATOM     75  C   UNL A   1      42.813  23.977  27.286  1.00  0.00     0.058 A 
ATOM     76  C   UNL A   1      42.883  22.983  28.274  1.00  0.00     0.135 A 
ATOM     77  C   UNL A   1      42.344  23.595  26.018  1.00  0.00     0.135 A 
ATOM     78  F   UNL A   1      43.341  23.285  29.499  1.00  0.00    -0.206 F 
ATOM     79  C   UNL A   1      42.533  21.661  28.012  1.00  0.00     0.059 A 
ATOM     80  C   UNL A   1      41.953  22.289  25.742  1.00  0.00     0.059 A 
ATOM     81  F   UNL A   1      42.254  24.501  25.032  1.00  0.00    -0.206 F 
ATOM     82  C   UNL A   1      42.065  21.323  26.741  1.00  0.00     0.060 A 
BRANCH  82  83
ATOM     83  S   UNL A   1      41.585  19.612  26.418  1.00  0.00     0.124 S 
ATOM     84  O   UNL A   1      42.421  19.281  25.271  1.00  0.00    -0.237 OA
ATOM     85  O   UNL A   1      41.933  18.955  27.674  1.00  0.00    -0.237 OA
ATOM     86  O   UNL A   1      40.153  19.709  26.146  1.00  0.00    -0.744 OA
ENDBRANCH  82  83
ENDBRANCH  50  75
BRANCH  62  87
ATOM     87  C   UNL A   1      48.805  27.379  26.103  1.00  0.00     0.058 A 
ATOM     88  C   UNL A   1      49.052  27.317  24.723  1.00  0.00     0.135 A 
ATOM     89  C   UNL A   1      49.871  27.082  26.970  1.00  0.00     0.135 A 
ATOM     90  F   UNL A   1      48.071  27.588  23.847  1.00  0.00    -0.206 F 
ATOM     91  C   UNL A   1      50.296  26.945  24.222  1.00  0.00     0.059 A 
ATOM     92  C   UNL A   1      51.134  26.746  26.491  1.00  0.00     0.059 A 
ATOM     93  F   UNL A   1      49.699  27.139  28.301  1.00  0.00    -0.206 F 
ATOM     94  C   UNL A   1      51.333  26.668  25.116  1.00  0.00     0.060 A 
BRANCH  94  95
ATOM     95  S   UNL A   1      52.950  26.222  24.449  1.00  0.00     0.124 S 
ATOM     96  O   UNL A   1      53.824  27.171  25.131  1.00  0.00    -0.237 OA
ATOM     97  O   UNL A   1      53.082  24.828  24.863  1.00  0.00    -0.237 OA
ATOM     98  O   UNL A   1      52.798  26.431  23.012  1.00  0.00    -0.744 OA
ENDBRANCH  94  95
ENDBRANCH  62  87
ENDBRANCH  36  37
ENDBRANCH  29  31
ENDBRANCH  28  29
ENDBRANCH  27  28
ENDBRANCH  26  27
ENDBRANCH  25  26
ENDBRANCH   1  25
TORSDOF 21
ENDMDL
MODEL 2
REMARK VINA RESULT:     -11.0      7.319     13.765
REMARK SMILES O=C(OCCOCCOCCOC(=O)c1ccc(-c2c3nc(c(-c4c(F)cc(S(=O)(=O)[O-])cc4F)c4ccc([nH]4)c(-c4c(F)cc(S(=O)(=O)[O-])cc4F)c4nc(c(-c5c(F)cc(S(=O)(=O)[O-])cc5F)c5ccc2[nH]5)C=C4)C=C3)cc1)C1=Cc2c(Cl)cc(Cl)cc2O[C@@H]1C(F)(F)F
REMARK SMILES IDX 8 1 7 2 6 3 5 4 4 5 3 6 2 7 1 8 81 9 82 10 92 11 83 12 91 13
REMARK SMILES IDX 84 14 90 15 85 16 86 17 89 18 87 19 88 20 93 21 94 22 95 23
REMARK SMILES IDX 96 24 9 25 10 26 11 27 12 28 13 29 14 30 15 31 16 32 80 33
REMARK SMILES IDX 17 34 79 35 18 36 19 37 20 38 73 39 21 40 78 41 72 42 74 43
REMARK SMILES IDX 22 44 77 45 71 46 70 47 23 49 57 50 36 51 56 52 37 53 40 54
REMARK SMILES IDX 55 55 75 56 38 57 39 58 54 60 76 61 41 62 24 63 25 64 34 65
REMARK SMILES IDX 26 66 27 67 33 68 35 69 28 70 29 71 30 72 31 73 32 74 58 75
REMARK SMILES IDX 59 76 68 77 60 78 61 79 67 80 69 81 62 82 63 83 64 84 65 85
REMARK SMILES IDX 66 86 42 87 43 88 52 89 44 90 45 91 51 92 53 93 46 94 47 95
REMARK SMILES IDX 48 96 49 97 50 98
REMARK H PARENT 74 48 40 59
REMARK Flexibility Score: inf
ROOT
ATOM      1  C   UNL A   1      45.454  21.893  25.920  1.00  0.00     0.188 C 
ENDROOT
BRANCH   1   2
ATOM      2  C   UNL A   1      45.402  23.052  26.928  1.00  0.00     0.188 C 
BRANCH   2   3
ATOM      3  O   UNL A   1      44.515  23.059  28.132  1.00  0.00    -0.376 OA
BRANCH   3   4
ATOM      4  C   UNL A   1      44.634  24.050  29.544  1.00  0.00     0.202 C 
BRANCH   4   5
ATOM      5  C   UNL A   1      44.200  23.381  31.562  1.00  0.00     0.261 C 
BRANCH   5   6
ATOM      6  O   UNL A   1      44.004  24.254  32.781  1.00  0.00    -0.460 OA
BRANCH   6   7
ATOM      7  C   UNL A   1      44.921  23.996  33.725  1.00  0.00     0.338 C 
ATOM      8  O   UNL A   1      46.118  24.122  33.639  1.00  0.00    -0.246 OA
BRANCH   7   9
ATOM      9  C   UNL A   1      44.110  23.090  34.529  1.00  0.00     0.087 C 
ATOM     10  C   UNL A   1      44.630  21.735  34.697  1.00  0.00     0.029 C 
ATOM     11  C   UNL A   1      43.943  24.370  35.943  1.00  0.00     0.316 C 
ATOM     12  C   UNL A   1      45.485  21.135  36.171  1.00  0.00     0.036 A 
ATOM     13  O   UNL A   1      45.002  23.835  37.494  1.00  0.00    -0.475 OA
ATOM     14  C   UNL A   1      46.067  19.893  36.212  1.00  0.00     0.053 A 
ATOM     15  C   UNL A   1      45.736  22.156  37.548  1.00  0.00     0.130 A 
ATOM     16  Cl  UNL A   1      46.022  18.786  34.906  1.00  0.00    -0.083 Cl
ATOM     17  C   UNL A   1      46.767  19.578  37.392  1.00  0.00     0.042 A 
ATOM     18  C   UNL A   1      46.416  21.776  38.671  1.00  0.00     0.067 A 
ATOM     19  C   UNL A   1      46.917  20.459  38.546  1.00  0.00     0.046 A 
ATOM     20  Cl  UNL A   1      47.816  19.800  39.878  1.00  0.00    -0.084 Cl
BRANCH  11  21
ATOM     21  C   UNL A   1      42.283  24.525  35.702  1.00  0.00     0.430 C 
ATOM     22  F   UNL A   1      41.566  23.558  35.133  1.00  0.00    -0.167 F 
ATOM     23  F   UNL A   1      41.704  24.752  36.911  1.00  0.00    -0.167 F 
ATOM     24  F   UNL A   1      41.977  25.633  34.959  1.00  0.00    -0.167 F 
ENDBRANCH  11  21
ENDBRANCH   7   9
ENDBRANCH   6   7
ENDBRANCH   5   6
ENDBRANCH   4   5
ENDBRANCH   3   4
ENDBRANCH   2   3
ENDBRANCH   1   2
BRANCH   1  25
ATOM     25  O   UNL A   1      44.265  21.499  25.283  1.00  0.00    -0.376 OA
BRANCH  25  26
ATOM     26  C   UNL A   1      43.077  21.782  26.010  1.00  0.00     0.202 C 
BRANCH  26  27
ATOM     27  C   UNL A   1      42.140  22.885  25.478  1.00  0.00     0.261 C 
BRANCH  27  28
ATOM     28  O   UNL A   1      41.846  23.935  26.431  1.00  0.00    -0.460 OA
BRANCH  28  29
ATOM     29  C   UNL A   1      42.495  25.120  26.278  1.00  0.00     0.338 C 
ATOM     30  O   UNL A   1      43.222  25.440  25.353  1.00  0.00    -0.246 OA
BRANCH  29  31
ATOM     31  C   UNL A   1      42.084  26.066  27.341  1.00  0.00     0.060 A 
ATOM     32  C   UNL A   1      42.782  27.272  27.511  1.00  0.00     0.016 A 
ATOM     33  C   UNL A   1      41.042  25.734  28.207  1.00  0.00     0.016 A 
ATOM     34  C   UNL A   1      42.410  28.169  28.520  1.00  0.00     0.010 A 
ATOM     35  C   UNL A   1      40.706  26.607  29.248  1.00  0.00     0.010 A 
ATOM     36  C   UNL A   1      41.393  27.824  29.418  1.00  0.00    -0.014 A 
BRANCH  36  37
ATOM     37  C   UNL A   1      41.198  28.610  30.663  1.00  0.00     0.031 A 
ATOM     38  C   UNL A   1      40.094  29.633  30.677  1.00  0.00     0.074 A 
ATOM     39  C   UNL A   1      41.981  28.442  31.746  1.00  0.00     0.049 A 
ATOM     40  N   UNL A   1      39.766  30.492  31.605  1.00  0.00    -0.248 NA
ATOM     41  C   UNL A   1      39.249  29.697  29.472  1.00  0.00     0.031 C 
ATOM     42  C   UNL A   1      43.057  27.463  31.868  1.00  0.00     0.029 A 
ATOM     43  N   UNL A   1      41.996  29.108  32.950  1.00  0.00    -0.354 N 
ATOM     44  C   UNL A   1      38.686  31.202  31.096  1.00  0.00     0.074 A 
ATOM     45  C   UNL A   1      38.428  30.693  29.767  1.00  0.00     0.031 C 
ATOM     46  C   UNL A   1      43.642  27.602  33.073  1.00  0.00     0.029 A 
ATOM     47  C   UNL A   1      43.006  28.704  33.795  1.00  0.00     0.049 A 
ATOM     48  H   UNL A   1      41.347  29.809  33.185  1.00  0.00     0.167 HD
ATOM     49  C   UNL A   1      37.971  32.189  31.685  1.00  0.00     0.037 A 
ATOM     50  C   UNL A   1      43.386  29.189  34.997  1.00  0.00     0.037 A 
ATOM     51  C   UNL A   1      38.246  32.703  33.000  1.00  0.00     0.049 A 
ATOM     52  C   UNL A   1      42.619  30.345  35.600  1.00  0.00     0.074 A 
ATOM     53  C   UNL A   1      37.571  33.692  33.692  1.00  0.00     0.029 A 
ATOM     54  N   UNL A   1      39.289  32.287  33.814  1.00  0.00    -0.354 N 
ATOM     55  N   UNL A   1      41.574  30.983  35.124  1.00  0.00    -0.248 NA
ATOM     56  C   UNL A   1      43.081  30.848  36.902  1.00  0.00     0.031 C 
ATOM     57  C   UNL A   1      38.248  33.925  34.891  1.00  0.00     0.029 A 
ATOM     58  C   UNL A   1      39.297  33.023  34.987  1.00  0.00     0.049 A 
ATOM     59  H   UNL A   1      39.930  31.572  33.591  1.00  0.00     0.167 HD
ATOM     60  C   UNL A   1      41.234  31.932  36.085  1.00  0.00     0.074 A 
ATOM     61  C   UNL A   1      42.175  31.777  37.174  1.00  0.00     0.031 C 
ATOM     62  C   UNL A   1      40.232  32.848  36.070  1.00  0.00     0.037 A 
BRANCH  49  63
ATOM     63  C   UNL A   1      36.844  32.803  30.900  1.00  0.00     0.058 A 
ATOM     64  C   UNL A   1      35.506  32.428  31.100  1.00  0.00     0.135 A 
ATOM     65  C   UNL A   1      37.104  33.825  29.970  1.00  0.00     0.135 A 
ATOM     66  F   UNL A   1      35.201  31.441  31.958  1.00  0.00    -0.206 F 
ATOM     67  C   UNL A   1      34.468  33.033  30.400  1.00  0.00     0.059 A 
ATOM     68  C   UNL A   1      36.078  34.467  29.284  1.00  0.00     0.059 A 
ATOM     69  F   UNL A   1      38.364  34.217  29.731  1.00  0.00    -0.206 F 
ATOM     70  C   UNL A   1      34.764  34.059  29.501  1.00  0.00     0.060 A 
BRANCH  70  71
ATOM     71  S   UNL A   1      33.399  34.862  28.634  1.00  0.00     0.124 S 
ATOM     72  O   UNL A   1      32.929  33.785  27.767  1.00  0.00    -0.237 OA
ATOM     73  O   UNL A   1      32.509  35.226  29.731  1.00  0.00    -0.237 OA
ATOM     74  O   UNL A   1      34.040  35.981  27.950  1.00  0.00    -0.744 OA
ENDBRANCH  70  71
ENDBRANCH  49  63
BRANCH  50  75
ATOM     75  C   UNL A   1      44.563  28.612  35.712  1.00  0.00     0.058 A 
ATOM     76  C   UNL A   1      44.405  27.736  36.798  1.00  0.00     0.135 A 
ATOM     77  C   UNL A   1      45.875  28.961  35.350  1.00  0.00     0.135 A 
ATOM     78  F   UNL A   1      43.174  27.384  37.200  1.00  0.00    -0.206 F 
ATOM     79  C   UNL A   1      45.495  27.249  37.514  1.00  0.00     0.059 A 
ATOM     80  C   UNL A   1      46.983  28.457  36.027  1.00  0.00     0.059 A 
ATOM     81  F   UNL A   1      46.092  29.794  34.321  1.00  0.00    -0.206 F 
ATOM     82  C   UNL A   1      46.783  27.613  37.118  1.00  0.00     0.060 A 
BRANCH  82  83
ATOM     83  S   UNL A   1      48.193  26.952  38.034  1.00  0.00     0.124 S 
ATOM     84  O   UNL A   1      47.727  25.611  38.366  1.00  0.00    -0.237 OA
ATOM     85  O   UNL A   1      49.263  27.030  37.044  1.00  0.00    -0.237 OA
ATOM     86  O   UNL A   1      48.322  27.871  39.162  1.00  0.00    -0.744 OA
ENDBRANCH  82  83
ENDBRANCH  50  75
BRANCH  62  87
ATOM     87  C   UNL A   1      40.060  33.723  37.286  1.00  0.00     0.058 A 
ATOM     88  C   UNL A   1      40.817  34.889  37.483  1.00  0.00     0.135 A 
ATOM     89  C   UNL A   1      39.072  33.419  38.239  1.00  0.00     0.135 A 
ATOM     90  F   UNL A   1      41.775  35.229  36.606  1.00  0.00    -0.206 F 
ATOM     91  C   UNL A   1      40.623  35.703  38.595  1.00  0.00     0.059 A 
ATOM     92  C   UNL A   1      38.835  34.240  39.337  1.00  0.00     0.059 A 
ATOM     93  F   UNL A   1      38.307  32.324  38.096  1.00  0.00    -0.206 F 
ATOM     94  C   UNL A   1      39.624  35.373  39.513  1.00  0.00     0.060 A 
BRANCH  94  95
ATOM     95  S   UNL A   1      39.362  36.459  40.931  1.00  0.00     0.124 S 
ATOM     96  O   UNL A   1      40.728  36.859  41.255  1.00  0.00    -0.237 OA
ATOM     97  O   UNL A   1      38.512  37.504  40.368  1.00  0.00    -0.237 OA
ATOM     98  O   UNL A   1      38.714  35.592  41.910  1.00  0.00    -0.744 OA
ENDBRANCH  94  95
ENDBRANCH  62  87
ENDBRANCH  36  37
ENDBRANCH  29  31
ENDBRANCH  28  29
ENDBRANCH  27  28
ENDBRANCH  26  27
ENDBRANCH  25  26
ENDBRANCH   1  25
TORSDOF 21
ENDMDL
MODEL 3
REMARK VINA RESULT:     -11.0      3.384      9.084
REMARK SMILES O=C(OCCOCCOCCOC(=O)c1ccc(-c2c3nc(c(-c4c(F)cc(S(=O)(=O)[O-])cc4F)c4ccc([nH]4)c(-c4c(F)cc(S(=O)(=O)[O-])cc4F)c4nc(c(-c5c(F)cc(S(=O)(=O)[O-])cc5F)c5ccc2[nH]5)C=C4)C=C3)cc1)C1=Cc2c(Cl)cc(Cl)cc2O[C@@H]1C(F)(F)F
REMARK SMILES IDX 8 1 7 2 6 3 5 4 4 5 3 6 2 7 1 8 81 9 82 10 92 11 83 12 91 13
REMARK SMILES IDX 84 14 90 15 85 16 86 17 89 18 87 19 88 20 93 21 94 22 95 23
REMARK SMILES IDX 96 24 9 25 10 26 11 27 12 28 13 29 14 30 15 31 16 32 80 33
REMARK SMILES IDX 17 34 79 35 18 36 19 37 20 38 73 39 21 40 78 41 72 42 74 43
REMARK SMILES IDX 22 44 77 45 71 46 70 47 23 49 57 50 36 51 56 52 37 53 40 54
REMARK SMILES IDX 55 55 75 56 38 57 39 58 54 60 76 61 41 62 24 63 25 64 34 65
REMARK SMILES IDX 26 66 27 67 33 68 35 69 28 70 29 71 30 72 31 73 32 74 58 75
REMARK SMILES IDX 59 76 68 77 60 78 61 79 67 80 69 81 62 82 63 83 64 84 65 85
REMARK SMILES IDX 66 86 42 87 43 88 52 89 44 90 45 91 51 92 53 93 46 94 47 95
REMARK SMILES IDX 48 96 49 97 50 98
REMARK H PARENT 74 48 40 59
REMARK Flexibility Score: inf
ROOT
ATOM      1  C   UNL A   1      34.111  19.851  24.608  1.00  0.00     0.188 C 
ENDROOT
BRANCH   1   2
ATOM      2  C   UNL A   1      33.279  20.040  25.887  1.00  0.00     0.188 C 
BRANCH   2   3
ATOM      3  O   UNL A   1      32.409  21.231  26.136  1.00  0.00    -0.376 OA
BRANCH   3   4
ATOM      4  C   UNL A   1      32.686  22.551  27.217  1.00  0.00     0.202 C 
BRANCH   4   5
ATOM      5  C   UNL A   1      32.107  24.607  26.828  1.00  0.00     0.261 C 
BRANCH   5   6
ATOM      6  O   UNL A   1      30.899  25.072  26.046  1.00  0.00    -0.460 OA
BRANCH   6   7
ATOM      7  C   UNL A   1      31.085  26.297  25.533  1.00  0.00     0.338 C 
ATOM      8  O   UNL A   1      31.267  27.325  26.138  1.00  0.00    -0.246 OA
BRANCH   7   9
ATOM      9  C   UNL A   1      30.479  26.048  24.231  1.00  0.00     0.087 C 
ATOM     10  C   UNL A   1      29.153  26.624  24.016  1.00  0.00     0.029 C 
ATOM     11  C   UNL A   1      32.062  26.594  23.303  1.00  0.00     0.316 C 
ATOM     12  C   UNL A   1      28.827  28.136  23.084  1.00  0.00     0.036 A 
ATOM     13  O   UNL A   1      31.794  28.319  22.427  1.00  0.00    -0.475 OA
ATOM     14  C   UNL A   1      27.574  28.696  23.032  1.00  0.00     0.053 A 
ATOM     15  C   UNL A   1      30.107  29.030  22.333  1.00  0.00     0.130 A 
ATOM     16  Cl  UNL A   1      26.205  28.019  23.808  1.00  0.00    -0.083 Cl
ATOM     17  C   UNL A   1      27.471  29.914  22.336  1.00  0.00     0.042 A 
ATOM     18  C   UNL A   1      29.929  30.204  21.657  1.00  0.00     0.067 A 
ATOM     19  C   UNL A   1      28.575  30.611  21.683  1.00  0.00     0.046 A 
ATOM     20  Cl  UNL A   1      28.154  32.090  20.875  1.00  0.00    -0.084 Cl
BRANCH  11  21
ATOM     21  C   UNL A   1      32.327  25.044  22.698  1.00  0.00     0.430 C 
ATOM     22  F   UNL A   1      32.724  24.842  21.444  1.00  0.00    -0.167 F 
ATOM     23  F   UNL A   1      33.261  24.444  23.484  1.00  0.00    -0.167 F 
ATOM     24  F   UNL A   1      31.216  24.254  22.817  1.00  0.00    -0.167 F 
ENDBRANCH  11  21
ENDBRANCH   7   9
ENDBRANCH   6   7
ENDBRANCH   5   6
ENDBRANCH   4   5
ENDBRANCH   3   4
ENDBRANCH   2   3
ENDBRANCH   1   2
BRANCH   1  25
ATOM     25  O   UNL A   1      35.117  20.786  24.314  1.00  0.00    -0.376 OA
BRANCH  25  26
ATOM     26  C   UNL A   1      36.061  20.995  25.355  1.00  0.00     0.202 C 
BRANCH  26  27
ATOM     27  C   UNL A   1      37.511  21.348  24.968  1.00  0.00     0.261 C 
BRANCH  27  28
ATOM     28  O   UNL A   1      38.106  22.400  25.766  1.00  0.00    -0.460 OA
BRANCH  28  29
ATOM     29  C   UNL A   1      39.306  22.141  26.351  1.00  0.00     0.338 C 
ATOM     30  O   UNL A   1      39.926  21.092  26.312  1.00  0.00    -0.246 OA
BRANCH  29  31
ATOM     31  C   UNL A   1      39.859  23.379  26.948  1.00  0.00     0.060 A 
ATOM     32  C   UNL A   1      39.455  24.631  26.458  1.00  0.00     0.016 A 
ATOM     33  C   UNL A   1      40.820  23.300  27.956  1.00  0.00     0.016 A 
ATOM     34  C   UNL A   1      39.979  25.808  27.006  1.00  0.00     0.010 A 
ATOM     35  C   UNL A   1      41.382  24.476  28.465  1.00  0.00     0.010 A 
ATOM     36  C   UNL A   1      40.974  25.736  27.988  1.00  0.00    -0.014 A 
BRANCH  36  37
ATOM     37  C   UNL A   1      41.752  26.948  28.352  1.00  0.00     0.031 A 
ATOM     38  C   UNL A   1      41.011  28.082  29.006  1.00  0.00     0.074 A 
ATOM     39  C   UNL A   1      43.070  27.055  28.099  1.00  0.00     0.049 A 
ATOM     40  N   UNL A   1      41.439  29.268  29.352  1.00  0.00    -0.248 NA
ATOM     41  C   UNL A   1      39.588  27.847  29.303  1.00  0.00     0.031 C 
ATOM     42  C   UNL A   1      43.905  26.015  27.504  1.00  0.00     0.029 A 
ATOM     43  N   UNL A   1      43.937  28.104  28.301  1.00  0.00    -0.354 N 
ATOM     44  C   UNL A   1      40.341  29.919  29.899  1.00  0.00     0.074 A 
ATOM     45  C   UNL A   1      39.220  29.010  29.816  1.00  0.00     0.031 C 
ATOM     46  C   UNL A   1      45.161  26.483  27.372  1.00  0.00     0.029 A 
ATOM     47  C   UNL A   1      45.212  27.868  27.839  1.00  0.00     0.049 A 
ATOM     48  H   UNL A   1      43.670  28.946  28.735  1.00  0.00     0.167 HD
ATOM     49  C   UNL A   1      40.274  31.164  30.425  1.00  0.00     0.037 A 
ATOM     50  C   UNL A   1      46.286  28.686  27.777  1.00  0.00     0.037 A 
ATOM     51  C   UNL A   1      41.389  32.071  30.486  1.00  0.00     0.049 A 
ATOM     52  C   UNL A   1      46.163  30.101  28.300  1.00  0.00     0.074 A 
ATOM     53  C   UNL A   1      41.429  33.349  31.013  1.00  0.00     0.029 A 
ATOM     54  N   UNL A   1      42.657  31.805  29.987  1.00  0.00    -0.354 N 
ATOM     55  N   UNL A   1      45.128  30.692  28.851  1.00  0.00    -0.248 NA
ATOM     56  C   UNL A   1      47.353  30.958  28.196  1.00  0.00     0.031 C 
ATOM     57  C   UNL A   1      42.696  33.883  30.768  1.00  0.00     0.029 A 
ATOM     58  C   UNL A   1      43.475  32.908  30.164  1.00  0.00     0.049 A 
ATOM     59  H   UNL A   1      42.934  30.957  29.570  1.00  0.00     0.167 HD
ATOM     60  C   UNL A   1      45.555  31.974  29.191  1.00  0.00     0.074 A 
ATOM     61  C   UNL A   1      46.945  32.067  28.798  1.00  0.00     0.031 C 
ATOM     62  C   UNL A   1      44.863  32.983  29.779  1.00  0.00     0.037 A 
BRANCH  49  63
ATOM     63  C   UNL A   1      38.943  31.636  30.946  1.00  0.00     0.058 A 
ATOM     64  C   UNL A   1      38.506  31.341  32.246  1.00  0.00     0.135 A 
ATOM     65  C   UNL A   1      38.116  32.444  30.146  1.00  0.00     0.135 A 
ATOM     66  F   UNL A   1      39.243  30.554  33.046  1.00  0.00    -0.206 F 
ATOM     67  C   UNL A   1      37.293  31.818  32.732  1.00  0.00     0.059 A 
ATOM     68  C   UNL A   1      36.916  32.959  30.623  1.00  0.00     0.059 A 
ATOM     69  F   UNL A   1      38.479  32.749  28.891  1.00  0.00    -0.206 F 
ATOM     70  C   UNL A   1      36.510  32.636  31.915  1.00  0.00     0.060 A 
BRANCH  70  71
ATOM     71  S   UNL A   1      34.960  33.281  32.579  1.00  0.00     0.124 S 
ATOM     72  O   UNL A   1      35.039  34.687  32.192  1.00  0.00    -0.237 OA
ATOM     73  O   UNL A   1      33.966  32.484  31.870  1.00  0.00    -0.237 OA
ATOM     74  O   UNL A   1      35.067  33.020  34.011  1.00  0.00    -0.744 OA
ENDBRANCH  70  71
ENDBRANCH  49  63
BRANCH  50  75
ATOM     75  C   UNL A   1      47.569  28.215  27.176  1.00  0.00     0.058 A 
ATOM     76  C   UNL A   1      47.773  28.222  25.787  1.00  0.00     0.135 A 
ATOM     77  C   UNL A   1      48.603  27.706  27.978  1.00  0.00     0.135 A 
ATOM     78  F   UNL A   1      46.812  28.678  24.970  1.00  0.00    -0.206 F 
ATOM     79  C   UNL A   1      48.939  27.719  25.214  1.00  0.00     0.059 A 
ATOM     80  C   UNL A   1      49.793  27.232  27.432  1.00  0.00     0.059 A 
ATOM     81  F   UNL A   1      48.467  27.673  29.313  1.00  0.00    -0.206 F 
ATOM     82  C   UNL A   1      49.946  27.229  26.046  1.00  0.00     0.060 A 
BRANCH  82  83
ATOM     83  S   UNL A   1      51.467  26.607  25.296  1.00  0.00     0.124 S 
ATOM     84  O   UNL A   1      52.421  27.650  25.653  1.00  0.00    -0.237 OA
ATOM     85  O   UNL A   1      51.639  25.325  25.972  1.00  0.00    -0.237 OA
ATOM     86  O   UNL A   1      51.132  26.521  23.876  1.00  0.00    -0.744 OA
ENDBRANCH  82  83
ENDBRANCH  50  75
BRANCH  62  87
ATOM     87  C   UNL A   1      45.602  34.260  30.084  1.00  0.00     0.058 A 
ATOM     88  C   UNL A   1      45.643  35.336  29.183  1.00  0.00     0.135 A 
ATOM     89  C   UNL A   1      46.227  34.432  31.332  1.00  0.00     0.135 A 
ATOM     90  F   UNL A   1      45.065  35.229  27.976  1.00  0.00    -0.206 F 
ATOM     91  C   UNL A   1      46.303  36.521  29.494  1.00  0.00     0.059 A 
ATOM     92  C   UNL A   1      46.859  35.622  31.679  1.00  0.00     0.059 A 
ATOM     93  F   UNL A   1      46.208  33.443  32.241  1.00  0.00    -0.206 F 
ATOM     94  C   UNL A   1      46.902  36.657  30.748  1.00  0.00     0.060 A 
BRANCH  94  95
ATOM     95  S   UNL A   1      47.724  38.213  31.148  1.00  0.00     0.124 S 
ATOM     96  O   UNL A   1      48.526  38.442  29.951  1.00  0.00    -0.237 OA
ATOM     97  O   UNL A   1      46.595  39.120  31.338  1.00  0.00    -0.237 OA
ATOM     98  O   UNL A   1      48.479  37.900  32.358  1.00  0.00    -0.744 OA
ENDBRANCH  94  95
ENDBRANCH  62  87
ENDBRANCH  36  37
ENDBRANCH  29  31
ENDBRANCH  28  29
ENDBRANCH  27  28
ENDBRANCH  26  27
ENDBRANCH  25  26
ENDBRANCH   1  25
TORSDOF 21
ENDMDL
