MODEL 1
REMARK VINA RESULT:     -11.1      0.000      0.000
REMARK SMILES Cc1cc2cc(-c3ccc([C@@H](C)C(=O)OCCOCCOCCOC(=O)c4ccc(-c5c6nc(c(-c7c(F)cc(S(=O)(=O)[O-])cc7F)c7ccc([nH]7)c(-c7c(F)cc(S(=O)(=O)[O-])cc7F)c7nc(c(-c8c(F)cc(S(=O)(=O)[O-])cc8F)c8ccc5[nH]8)C=C7)C=C6)cc4)cc3)ccc2[nH]1
REMARK SMILES IDX 20 1 19 2 18 3 17 4 16 5 15 6 13 7 14 8 11 9 12 10 10 11
REMARK SMILES IDX 7 12 8 13 94 14 9 15 93 16 6 17 1 18 2 19 3 20 98 21 4 22
REMARK SMILES IDX 97 23 5 25 96 26 95 27 21 28 22 29 23 30 24 31 25 32 26 33
REMARK SMILES IDX 27 34 28 35 92 36 29 37 91 38 30 39 31 40 32 41 85 42 33 43
REMARK SMILES IDX 90 44 84 45 86 46 34 47 89 48 83 49 82 50 35 52 69 53 48 54
REMARK SMILES IDX 68 55 49 56 52 57 67 58 87 59 50 60 51 61 66 63 88 64 53 65
REMARK SMILES IDX 36 66 37 67 46 68 38 69 39 70 45 71 47 72 40 73 41 74 42 75
REMARK SMILES IDX 43 76 44 77 70 78 71 79 80 80 72 81 73 82 79 83 81 84 74 85
REMARK SMILES IDX 75 86 76 87 77 88 78 89 54 90 55 91 64 92 56 93 57 94 63 95
REMARK SMILES IDX 65 96 58 97 59 98 60 99 61 100 62 101
REMARK H PARENT 98 24 86 51 52 62
REMARK Flexibility Score: inf
ROOT
ATOM      1  C   UNL A   1      41.238  20.490  27.359  1.00  0.00     0.188 C 
ENDROOT
BRANCH   1   2
ATOM      2  C   UNL A   1      41.183  19.522  26.168  1.00  0.00     0.188 C 
BRANCH   2   3
ATOM      3  O   UNL A   1      39.924  19.233  25.569  1.00  0.00    -0.376 OA
BRANCH   3   4
ATOM      4  C   UNL A   1      38.850  20.150  25.735  1.00  0.00     0.202 C 
BRANCH   4   5
ATOM      5  C   UNL A   1      37.555  19.922  24.937  1.00  0.00     0.261 C 
BRANCH   5   6
ATOM      6  O   UNL A   1      37.031  21.081  24.248  1.00  0.00    -0.463 OA
BRANCH   6   7
ATOM      7  C   UNL A   1      36.162  21.859  24.943  1.00  0.00     0.313 C 
ATOM      8  O   UNL A   1      35.361  21.403  25.758  1.00  0.00    -0.252 OA
BRANCH   7   9
ATOM      9  C   UNL A   1      36.231  23.369  24.680  1.00  0.00     0.126 C 
ATOM     10  C   UNL A   1      37.032  24.017  25.809  1.00  0.00     0.025 C 
BRANCH   9  11
ATOM     11  C   UNL A   1      34.973  24.190  24.399  1.00  0.00    -0.034 A 
ATOM     12  C   UNL A   1      32.609  25.751  23.987  1.00  0.00    -0.018 A 
ATOM     13  C   UNL A   1      33.087  24.860  23.010  1.00  0.00     0.009 A 
ATOM     14  C   UNL A   1      33.342  25.859  25.174  1.00  0.00     0.009 A 
ATOM     15  C   UNL A   1      34.239  24.082  23.213  1.00  0.00     0.005 A 
ATOM     16  C   UNL A   1      34.497  25.086  25.380  1.00  0.00     0.005 A 
BRANCH  12  17
ATOM     17  C   UNL A   1      31.341  26.479  23.785  1.00  0.00    -0.018 A 
ATOM     18  C   UNL A   1      27.697  31.356  23.021  1.00  0.00     0.064 C 
ATOM     19  C   UNL A   1      28.526  30.140  23.192  1.00  0.00     0.013 A 
ATOM     20  C   UNL A   1      29.893  29.996  23.301  1.00  0.00     0.031 A 
ATOM     21  N   UNL A   1      27.979  28.879  23.267  1.00  0.00    -0.359 N 
ATOM     22  C   UNL A   1      30.181  28.615  23.463  1.00  0.00     0.000 A 
ATOM     23  C   UNL A   1      28.968  27.933  23.437  1.00  0.00     0.046 A 
ATOM     24  H   UNL A   1      27.016  28.679  23.208  1.00  0.00     0.166 HD
ATOM     25  C   UNL A   1      31.369  27.879  23.631  1.00  0.00     0.019 A 
ATOM     26  C   UNL A   1      28.892  26.541  23.568  1.00  0.00     0.027 A 
ATOM     27  C   UNL A   1      30.096  25.831  23.742  1.00  0.00     0.011 A 
ENDBRANCH  12  17
ENDBRANCH   9  11
ENDBRANCH   7   9
ENDBRANCH   6   7
ENDBRANCH   5   6
ENDBRANCH   4   5
ENDBRANCH   3   4
ENDBRANCH   2   3
ENDBRANCH   1   2
BRANCH   1  28
ATOM     28  O   UNL A   1      42.394  21.298  27.400  1.00  0.00    -0.376 OA
BRANCH  28  29
ATOM     29  C   UNL A   1      42.810  21.876  26.180  1.00  0.00     0.202 C 
BRANCH  29  30
ATOM     30  C   UNL A   1      42.822  23.410  26.146  1.00  0.00     0.261 C 
BRANCH  30  31
ATOM     31  O   UNL A   1      41.569  24.061  26.426  1.00  0.00    -0.460 OA
BRANCH  31  32
ATOM     32  C   UNL A   1      41.471  25.375  26.121  1.00  0.00     0.338 C 
ATOM     33  O   UNL A   1      41.252  25.853  25.016  1.00  0.00    -0.246 OA
BRANCH  32  34
ATOM     34  C   UNL A   1      41.455  26.143  27.387  1.00  0.00     0.060 A 
ATOM     35  C   UNL A   1      40.413  25.932  28.303  1.00  0.00     0.016 A 
ATOM     36  C   UNL A   1      42.457  27.073  27.669  1.00  0.00     0.016 A 
ATOM     37  C   UNL A   1      40.347  26.685  29.479  1.00  0.00     0.010 A 
ATOM     38  C   UNL A   1      42.380  27.838  28.838  1.00  0.00     0.010 A 
ATOM     39  C   UNL A   1      41.304  27.678  29.729  1.00  0.00    -0.014 A 
BRANCH  39  40
ATOM     40  C   UNL A   1      41.071  28.686  30.798  1.00  0.00     0.031 A 
ATOM     41  C   UNL A   1      41.935  28.628  32.032  1.00  0.00     0.074 A 
ATOM     42  C   UNL A   1      40.127  29.639  30.685  1.00  0.00     0.049 A 
ATOM     43  N   UNL A   1      41.883  29.350  33.122  1.00  0.00    -0.248 NA
ATOM     44  C   UNL A   1      43.000  27.611  32.036  1.00  0.00     0.031 C 
ATOM     45  C   UNL A   1      39.250  29.830  29.532  1.00  0.00     0.029 A 
ATOM     46  N   UNL A   1      39.744  30.621  31.566  1.00  0.00    -0.354 N 
ATOM     47  C   UNL A   1      42.895  28.866  33.944  1.00  0.00     0.074 A 
ATOM     48  C   UNL A   1      43.524  27.769  33.241  1.00  0.00     0.031 C 
ATOM     49  C   UNL A   1      38.418  30.857  29.782  1.00  0.00     0.029 A 
ATOM     50  C   UNL A   1      38.682  31.376  31.126  1.00  0.00     0.049 A 
ATOM     51  H   UNL A   1      40.187  30.772  32.432  1.00  0.00     0.167 HD
ATOM     52  C   UNL A   1      43.274  29.302  35.169  1.00  0.00     0.037 A 
ATOM     53  C   UNL A   1      37.987  32.354  31.743  1.00  0.00     0.037 A 
ATOM     54  C   UNL A   1      42.647  30.393  35.867  1.00  0.00     0.049 A 
ATOM     55  C   UNL A   1      38.386  32.782  33.135  1.00  0.00     0.074 A 
ATOM     56  C   UNL A   1      42.970  30.921  37.105  1.00  0.00     0.029 A 
ATOM     57  N   UNL A   1      41.565  31.121  35.394  1.00  0.00    -0.354 N 
ATOM     58  N   UNL A   1      39.359  32.332  33.893  1.00  0.00    -0.248 NA
ATOM     59  C   UNL A   1      37.599  33.859  33.753  1.00  0.00     0.031 C 
ATOM     60  C   UNL A   1      42.047  31.927  37.407  1.00  0.00     0.029 A 
ATOM     61  C   UNL A   1      41.193  32.077  36.326  1.00  0.00     0.049 A 
ATOM     62  H   UNL A   1      41.126  30.979  34.524  1.00  0.00     0.167 HD
ATOM     63  C   UNL A   1      39.321  33.094  35.058  1.00  0.00     0.074 A 
ATOM     64  C   UNL A   1      38.237  34.040  34.901  1.00  0.00     0.031 C 
ATOM     65  C   UNL A   1      40.117  33.023  36.156  1.00  0.00     0.037 A 
BRANCH  52  66
ATOM     66  C   UNL A   1      44.404  28.574  35.849  1.00  0.00     0.058 A 
ATOM     67  C   UNL A   1      44.182  27.459  36.673  1.00  0.00     0.135 A 
ATOM     68  C   UNL A   1      45.734  28.982  35.648  1.00  0.00     0.135 A 
ATOM     69  F   UNL A   1      42.931  27.038  36.918  1.00  0.00    -0.206 F 
ATOM     70  C   UNL A   1      45.232  26.792  37.294  1.00  0.00     0.059 A 
ATOM     71  C   UNL A   1      46.802  28.311  36.234  1.00  0.00     0.059 A 
ATOM     72  F   UNL A   1      46.005  30.044  34.873  1.00  0.00    -0.206 F 
ATOM     73  C   UNL A   1      46.540  27.224  37.067  1.00  0.00     0.060 A 
BRANCH  73  74
ATOM     74  S   UNL A   1      47.892  26.341  37.874  1.00  0.00     0.124 S 
ATOM     75  O   UNL A   1      48.680  27.446  38.413  1.00  0.00    -0.237 OA
ATOM     76  O   UNL A   1      47.187  25.527  38.858  1.00  0.00    -0.237 OA
ATOM     77  O   UNL A   1      48.517  25.601  36.782  1.00  0.00    -0.744 OA
ENDBRANCH  73  74
ENDBRANCH  52  66
BRANCH  53  78
ATOM     78  C   UNL A   1      36.831  32.998  31.059  1.00  0.00     0.058 A 
ATOM     79  C   UNL A   1      37.019  33.869  29.976  1.00  0.00     0.135 A 
ATOM     80  C   UNL A   1      35.513  32.764  31.484  1.00  0.00     0.135 A 
ATOM     81  F   UNL A   1      38.259  34.140  29.541  1.00  0.00    -0.206 F 
ATOM     82  C   UNL A   1      35.947  34.499  29.349  1.00  0.00     0.059 A 
ATOM     83  C   UNL A   1      34.423  33.357  30.855  1.00  0.00     0.059 A 
ATOM     84  F   UNL A   1      35.275  31.935  32.513  1.00  0.00    -0.206 F 
ATOM     85  C   UNL A   1      34.651  34.232  29.794  1.00  0.00     0.060 A 
BRANCH  85  86
ATOM     86  S   UNL A   1      33.266  35.017  28.942  1.00  0.00     0.124 S 
ATOM     87  O   UNL A   1      32.333  35.241  30.041  1.00  0.00    -0.237 OA
ATOM     88  O   UNL A   1      33.889  36.211  28.382  1.00  0.00    -0.237 OA
ATOM     89  O   UNL A   1      32.860  34.013  27.964  1.00  0.00    -0.744 OA
ENDBRANCH  85  86
ENDBRANCH  53  78
BRANCH  65  90
ATOM     90  C   UNL A   1      39.886  34.028  37.255  1.00  0.00     0.058 A 
ATOM     91  C   UNL A   1      39.023  33.775  38.332  1.00  0.00     0.135 A 
ATOM     92  C   UNL A   1      40.578  35.252  37.248  1.00  0.00     0.135 A 
ATOM     93  F   UNL A   1      38.336  32.623  38.392  1.00  0.00    -0.206 F 
ATOM     94  C   UNL A   1      38.824  34.712  39.343  1.00  0.00     0.059 A 
ATOM     95  C   UNL A   1      40.421  36.189  38.264  1.00  0.00     0.059 A 
ATOM     96  F   UNL A   1      41.429  35.543  36.251  1.00  0.00    -0.206 F 
ATOM     97  C   UNL A   1      39.527  35.917  39.300  1.00  0.00     0.060 A 
BRANCH  97  98
ATOM     98  S   UNL A   1      39.270  37.120  40.622  1.00  0.00     0.124 S 
ATOM     99  O   UNL A   1      38.310  38.030  40.009  1.00  0.00    -0.237 OA
ATOM    100  O   UNL A   1      38.754  36.288  41.704  1.00  0.00    -0.237 OA
ATOM    101  O   UNL A   1      40.604  37.672  40.846  1.00  0.00    -0.744 OA
ENDBRANCH  97  98
ENDBRANCH  65  90
ENDBRANCH  39  40
ENDBRANCH  32  34
ENDBRANCH  31  32
ENDBRANCH  30  31
ENDBRANCH  29  30
ENDBRANCH  28  29
ENDBRANCH   1  28
TORSDOF 22
ENDMDL
MODEL 2
REMARK VINA RESULT:     -11.0      4.974     12.792
REMARK SMILES Cc1cc2cc(-c3ccc([C@@H](C)C(=O)OCCOCCOCCOC(=O)c4ccc(-c5c6nc(c(-c7c(F)cc(S(=O)(=O)[O-])cc7F)c7ccc([nH]7)c(-c7c(F)cc(S(=O)(=O)[O-])cc7F)c7nc(c(-c8c(F)cc(S(=O)(=O)[O-])cc8F)c8ccc5[nH]8)C=C7)C=C6)cc4)cc3)ccc2[nH]1
REMARK SMILES IDX 20 1 19 2 18 3 17 4 16 5 15 6 13 7 14 8 11 9 12 10 10 11
REMARK SMILES IDX 7 12 8 13 94 14 9 15 93 16 6 17 1 18 2 19 3 20 98 21 4 22
REMARK SMILES IDX 97 23 5 25 96 26 95 27 21 28 22 29 23 30 24 31 25 32 26 33
REMARK SMILES IDX 27 34 28 35 92 36 29 37 91 38 30 39 31 40 32 41 85 42 33 43
REMARK SMILES IDX 90 44 84 45 86 46 34 47 89 48 83 49 82 50 35 52 69 53 48 54
REMARK SMILES IDX 68 55 49 56 52 57 67 58 87 59 50 60 51 61 66 63 88 64 53 65
REMARK SMILES IDX 36 66 37 67 46 68 38 69 39 70 45 71 47 72 40 73 41 74 42 75
REMARK SMILES IDX 43 76 44 77 70 78 71 79 80 80 72 81 73 82 79 83 81 84 74 85
REMARK SMILES IDX 75 86 76 87 77 88 78 89 54 90 55 91 64 92 56 93 57 94 63 95
REMARK SMILES IDX 65 96 58 97 59 98 60 99 61 100 62 101
REMARK H PARENT 98 24 86 51 52 62
REMARK Flexibility Score: inf
ROOT
ATOM      1  C   UNL A   1      35.075  33.323  30.029  1.00  0.00     0.188 C 
ENDROOT
BRANCH   1   2
ATOM      2  C   UNL A   1      34.466  34.114  31.196  1.00  0.00     0.188 C 
BRANCH   2   3
ATOM      3  O   UNL A   1      33.954  33.407  32.320  1.00  0.00    -0.376 OA
BRANCH   3   4
ATOM      4  C   UNL A   1      34.430  33.732  33.620  1.00  0.00     0.202 C 
BRANCH   4   5
ATOM      5  C   UNL A   1      35.765  34.484  33.749  1.00  0.00     0.261 C 
BRANCH   5   6
ATOM      6  O   UNL A   1      36.908  33.842  33.139  1.00  0.00    -0.463 OA
BRANCH   6   7
ATOM      7  C   UNL A   1      37.315  32.671  33.693  1.00  0.00     0.313 C 
ATOM      8  O   UNL A   1      37.462  32.522  34.906  1.00  0.00    -0.252 OA
BRANCH   7   9
ATOM      9  C   UNL A   1      37.574  31.507  32.728  1.00  0.00     0.126 C 
ATOM     10  C   UNL A   1      36.248  30.791  32.473  1.00  0.00     0.025 C 
BRANCH   9  11
ATOM     11  C   UNL A   1      38.676  30.481  32.989  1.00  0.00    -0.034 A 
ATOM     12  C   UNL A   1      40.814  28.646  33.492  1.00  0.00    -0.018 A 
ATOM     13  C   UNL A   1      39.607  28.231  32.903  1.00  0.00     0.009 A 
ATOM     14  C   UNL A   1      40.932  29.996  33.839  1.00  0.00     0.009 A 
ATOM     15  C   UNL A   1      38.560  29.130  32.642  1.00  0.00     0.005 A 
ATOM     16  C   UNL A   1      39.885  30.899  33.583  1.00  0.00     0.005 A 
BRANCH  12  17
ATOM     17  C   UNL A   1      41.933  27.698  33.660  1.00  0.00    -0.018 A 
ATOM     18  C   UNL A   1      45.046  23.031  36.147  1.00  0.00     0.064 C 
ATOM     19  C   UNL A   1      44.338  24.160  35.499  1.00  0.00     0.013 A 
ATOM     20  C   UNL A   1      43.086  24.687  35.737  1.00  0.00     0.031 A 
ATOM     21  N   UNL A   1      44.898  24.891  34.475  1.00  0.00    -0.359 N 
ATOM     22  C   UNL A   1      42.889  25.776  34.847  1.00  0.00     0.000 A 
ATOM     23  C   UNL A   1      44.034  25.885  34.064  1.00  0.00     0.046 A 
ATOM     24  H   UNL A   1      45.789  24.727  34.090  1.00  0.00     0.166 HD
ATOM     25  C   UNL A   1      41.834  26.684  34.635  1.00  0.00     0.019 A 
ATOM     26  C   UNL A   1      44.171  26.864  33.072  1.00  0.00     0.027 A 
ATOM     27  C   UNL A   1      43.103  27.764  32.887  1.00  0.00     0.011 A 
ENDBRANCH  12  17
ENDBRANCH   9  11
ENDBRANCH   7   9
ENDBRANCH   6   7
ENDBRANCH   5   6
ENDBRANCH   4   5
ENDBRANCH   3   4
ENDBRANCH   2   3
ENDBRANCH   1   2
BRANCH   1  28
ATOM     28  O   UNL A   1      34.702  33.788  28.750  1.00  0.00    -0.376 OA
BRANCH  28  29
ATOM     29  C   UNL A   1      33.528  33.236  28.191  1.00  0.00     0.202 C 
BRANCH  29  30
ATOM     30  C   UNL A   1      33.728  31.951  27.375  1.00  0.00     0.261 C 
BRANCH  30  31
ATOM     31  O   UNL A   1      33.869  30.734  28.131  1.00  0.00    -0.460 OA
BRANCH  31  32
ATOM     32  C   UNL A   1      34.461  29.687  27.514  1.00  0.00     0.338 C 
ATOM     33  O   UNL A   1      33.984  29.004  26.617  1.00  0.00    -0.246 OA
BRANCH  32  34
ATOM     34  C   UNL A   1      35.875  29.633  27.950  1.00  0.00     0.060 A 
ATOM     35  C   UNL A   1      36.888  29.938  27.027  1.00  0.00     0.016 A 
ATOM     36  C   UNL A   1      36.204  29.278  29.259  1.00  0.00     0.016 A 
ATOM     37  C   UNL A   1      38.231  29.841  27.401  1.00  0.00     0.010 A 
ATOM     38  C   UNL A   1      37.550  29.165  29.626  1.00  0.00     0.010 A 
ATOM     39  C   UNL A   1      38.570  29.406  28.689  1.00  0.00    -0.014 A 
BRANCH  39  40
ATOM     40  C   UNL A   1      39.968  28.997  28.994  1.00  0.00     0.031 A 
ATOM     41  C   UNL A   1      40.880  30.009  29.640  1.00  0.00     0.074 A 
ATOM     42  C   UNL A   1      40.425  27.761  28.721  1.00  0.00     0.049 A 
ATOM     43  N   UNL A   1      42.149  29.915  29.942  1.00  0.00    -0.248 NA
ATOM     44  C   UNL A   1      40.275  31.306  29.985  1.00  0.00     0.031 C 
ATOM     45  C   UNL A   1      39.639  26.678  28.133  1.00  0.00     0.029 A 
ATOM     46  N   UNL A   1      41.674  27.215  28.894  1.00  0.00    -0.354 N 
ATOM     47  C   UNL A   1      42.497  31.141  30.498  1.00  0.00     0.074 A 
ATOM     48  C   UNL A   1      41.314  31.973  30.462  1.00  0.00     0.031 C 
ATOM     49  C   UNL A   1      40.429  25.600  27.979  1.00  0.00     0.029 A 
ATOM     50  C   UNL A   1      41.784  25.926  28.426  1.00  0.00     0.049 A 
ATOM     51  H   UNL A   1      42.421  27.701  29.313  1.00  0.00     0.167 HD
ATOM     52  C   UNL A   1      43.691  31.536  31.003  1.00  0.00     0.037 A 
ATOM     53  C   UNL A   1      42.858  25.113  28.346  1.00  0.00     0.037 A 
ATOM     54  C   UNL A   1      44.867  30.707  31.037  1.00  0.00     0.049 A 
ATOM     55  C   UNL A   1      44.194  25.596  28.857  1.00  0.00     0.074 A 
ATOM     56  C   UNL A   1      46.119  31.010  31.543  1.00  0.00     0.029 A 
ATOM     57  N   UNL A   1      44.942  29.414  30.540  1.00  0.00    -0.354 N 
ATOM     58  N   UNL A   1      44.505  26.750  29.400  1.00  0.00    -0.248 NA
ATOM     59  C   UNL A   1      45.325  24.663  28.752  1.00  0.00     0.031 C 
ATOM     60  C   UNL A   1      46.965  29.925  31.299  1.00  0.00     0.029 A 
ATOM     61  C   UNL A   1      46.224  28.916  30.705  1.00  0.00     0.049 A 
ATOM     62  H   UNL A   1      44.193  28.923  30.130  1.00  0.00     0.167 HD
ATOM     63  C   UNL A   1      45.855  26.665  29.734  1.00  0.00     0.074 A 
ATOM     64  C   UNL A   1      46.298  25.345  29.339  1.00  0.00     0.031 C 
ATOM     65  C   UNL A   1      46.654  27.594  30.319  1.00  0.00     0.037 A 
BRANCH  52  66
ATOM     66  C   UNL A   1      43.793  32.943  31.532  1.00  0.00     0.058 A 
ATOM     67  C   UNL A   1      44.146  34.024  30.708  1.00  0.00     0.135 A 
ATOM     68  C   UNL A   1      43.503  33.217  32.879  1.00  0.00     0.135 A 
ATOM     69  F   UNL A   1      44.454  33.818  29.418  1.00  0.00    -0.206 F 
ATOM     70  C   UNL A   1      44.234  35.320  31.205  1.00  0.00     0.059 A 
ATOM     71  C   UNL A   1      43.554  34.509  33.391  1.00  0.00     0.059 A 
ATOM     72  F   UNL A   1      43.164  32.221  33.714  1.00  0.00    -0.206 F 
ATOM     73  C   UNL A   1      43.935  35.553  32.549  1.00  0.00     0.060 A 
BRANCH  73  74
ATOM     74  S   UNL A   1      44.047  37.242  33.176  1.00  0.00     0.124 S 
ATOM     75  O   UNL A   1      43.873  38.019  31.952  1.00  0.00    -0.237 OA
ATOM     76  O   UNL A   1      42.938  37.296  34.123  1.00  0.00    -0.237 OA
ATOM     77  O   UNL A   1      45.379  37.298  33.769  1.00  0.00    -0.744 OA
ENDBRANCH  73  74
ENDBRANCH  52  66
BRANCH  53  78
ATOM     78  C   UNL A   1      42.726  23.754  27.750  1.00  0.00     0.058 A 
ATOM     79  C   UNL A   1      42.822  23.555  26.364  1.00  0.00     0.135 A 
ATOM     80  C   UNL A   1      42.488  22.628  28.555  1.00  0.00     0.135 A 
ATOM     81  F   UNL A   1      43.032  24.600  25.549  1.00  0.00    -0.206 F 
ATOM     82  C   UNL A   1      42.671  22.293  25.795  1.00  0.00     0.059 A 
ATOM     83  C   UNL A   1      42.363  21.353  28.013  1.00  0.00     0.059 A 
ATOM     84  F   UNL A   1      42.391  22.762  29.887  1.00  0.00    -0.206 F 
ATOM     85  C   UNL A   1      42.446  21.196  26.629  1.00  0.00     0.060 A 
BRANCH  85  86
ATOM     86  S   UNL A   1      42.301  19.558  25.884  1.00  0.00     0.124 S 
ATOM     87  O   UNL A   1      43.270  19.642  24.797  1.00  0.00    -0.237 OA
ATOM     88  O   UNL A   1      42.663  18.685  26.995  1.00  0.00    -0.237 OA
ATOM     89  O   UNL A   1      40.900  19.496  25.478  1.00  0.00    -0.744 OA
ENDBRANCH  85  86
ENDBRANCH  53  78
BRANCH  65  90
ATOM     90  C   UNL A   1      48.077  27.202  30.624  1.00  0.00     0.058 A 
ATOM     91  C   UNL A   1      49.125  27.421  29.716  1.00  0.00     0.135 A 
ATOM     92  C   UNL A   1      48.401  26.633  31.869  1.00  0.00     0.135 A 
ATOM     93  F   UNL A   1      48.875  27.961  28.512  1.00  0.00    -0.206 F 
ATOM     94  C   UNL A   1      50.436  27.058  30.015  1.00  0.00     0.059 A 
ATOM     95  C   UNL A   1      49.709  26.294  32.201  1.00  0.00     0.059 A 
ATOM     96  F   UNL A   1      47.443  26.414  32.783  1.00  0.00    -0.206 F 
ATOM     97  C   UNL A   1      50.718  26.494  31.260  1.00  0.00     0.060 A 
BRANCH  97  98
ATOM     98  S   UNL A   1      52.423  26.038  31.640  1.00  0.00     0.124 S 
ATOM     99  O   UNL A   1      53.080  26.261  30.357  1.00  0.00    -0.237 OA
ATOM    100  O   UNL A   1      52.768  26.978  32.701  1.00  0.00    -0.237 OA
ATOM    101  O   UNL A   1      52.318  24.642  32.058  1.00  0.00    -0.744 OA
ENDBRANCH  97  98
ENDBRANCH  65  90
ENDBRANCH  39  40
ENDBRANCH  32  34
ENDBRANCH  31  32
ENDBRANCH  30  31
ENDBRANCH  29  30
ENDBRANCH  28  29
ENDBRANCH   1  28
TORSDOF 22
ENDMDL
MODEL 3
REMARK VINA RESULT:     -10.6      1.469      2.472
REMARK SMILES Cc1cc2cc(-c3ccc([C@@H](C)C(=O)OCCOCCOCCOC(=O)c4ccc(-c5c6nc(c(-c7c(F)cc(S(=O)(=O)[O-])cc7F)c7ccc([nH]7)c(-c7c(F)cc(S(=O)(=O)[O-])cc7F)c7nc(c(-c8c(F)cc(S(=O)(=O)[O-])cc8F)c8ccc5[nH]8)C=C7)C=C6)cc4)cc3)ccc2[nH]1
REMARK SMILES IDX 20 1 19 2 18 3 17 4 16 5 15 6 13 7 14 8 11 9 12 10 10 11
REMARK SMILES IDX 7 12 8 13 94 14 9 15 93 16 6 17 1 18 2 19 3 20 98 21 4 22
REMARK SMILES IDX 97 23 5 25 96 26 95 27 21 28 22 29 23 30 24 31 25 32 26 33
REMARK SMILES IDX 27 34 28 35 92 36 29 37 91 38 30 39 31 40 32 41 85 42 33 43
REMARK SMILES IDX 90 44 84 45 86 46 34 47 89 48 83 49 82 50 35 52 69 53 48 54
REMARK SMILES IDX 68 55 49 56 52 57 67 58 87 59 50 60 51 61 66 63 88 64 53 65
REMARK SMILES IDX 36 66 37 67 46 68 38 69 39 70 45 71 47 72 40 73 41 74 42 75
REMARK SMILES IDX 43 76 44 77 70 78 71 79 80 80 72 81 73 82 79 83 81 84 74 85
REMARK SMILES IDX 75 86 76 87 77 88 78 89 54 90 55 91 64 92 56 93 57 94 63 95
REMARK SMILES IDX 65 96 58 97 59 98 60 99 61 100 62 101
REMARK H PARENT 98 24 86 51 52 62
REMARK Flexibility Score: inf
ROOT
ATOM      1  C   UNL A   1      40.458  21.987  27.425  1.00  0.00     0.188 C 
ENDROOT
BRANCH   1   2
ATOM      2  C   UNL A   1      39.695  21.554  26.166  1.00  0.00     0.188 C 
BRANCH   2   3
ATOM      3  O   UNL A   1      38.437  22.157  25.876  1.00  0.00    -0.376 OA
BRANCH   3   4
ATOM      4  C   UNL A   1      37.416  21.374  25.270  1.00  0.00     0.202 C 
BRANCH   4   5
ATOM      5  C   UNL A   1      36.013  21.983  25.117  1.00  0.00     0.261 C 
BRANCH   5   6
ATOM      6  O   UNL A   1      34.942  21.263  25.771  1.00  0.00    -0.463 OA
BRANCH   6   7
ATOM      7  C   UNL A   1      34.250  20.380  25.006  1.00  0.00     0.313 C 
ATOM      8  O   UNL A   1      34.738  19.330  24.589  1.00  0.00    -0.252 OA
BRANCH   7   9
ATOM      9  C   UNL A   1      32.793  20.742  24.687  1.00  0.00     0.126 C 
ATOM     10  C   UNL A   1      32.365  19.962  23.446  1.00  0.00     0.025 C 
BRANCH   9  11
ATOM     11  C   UNL A   1      32.338  22.197  24.568  1.00  0.00    -0.034 A 
ATOM     12  C   UNL A   1      31.574  24.939  24.269  1.00  0.00    -0.018 A 
ATOM     13  C   UNL A   1      31.106  24.152  25.337  1.00  0.00     0.009 A 
ATOM     14  C   UNL A   1      32.424  24.327  23.342  1.00  0.00     0.009 A 
ATOM     15  C   UNL A   1      31.489  22.810  25.495  1.00  0.00     0.005 A 
ATOM     16  C   UNL A   1      32.807  22.983  23.494  1.00  0.00     0.005 A 
BRANCH  12  17
ATOM     17  C   UNL A   1      31.234  26.373  24.187  1.00  0.00    -0.018 A 
ATOM     18  C   UNL A   1      27.941  31.309  22.623  1.00  0.00     0.064 C 
ATOM     19  C   UNL A   1      28.773  30.155  23.038  1.00  0.00     0.013 A 
ATOM     20  C   UNL A   1      28.570  28.801  22.877  1.00  0.00     0.031 A 
ATOM     21  N   UNL A   1      29.968  30.310  23.705  1.00  0.00    -0.359 N 
ATOM     22  C   UNL A   1      29.678  28.118  23.445  1.00  0.00     0.000 A 
ATOM     23  C   UNL A   1      30.541  29.081  23.959  1.00  0.00     0.046 A 
ATOM     24  H   UNL A   1      30.360  31.176  23.963  1.00  0.00     0.166 HD
ATOM     25  C   UNL A   1      30.028  26.760  23.569  1.00  0.00     0.019 A 
ATOM     26  C   UNL A   1      31.741  28.744  24.598  1.00  0.00     0.027 A 
ATOM     27  C   UNL A   1      32.069  27.379  24.701  1.00  0.00     0.011 A 
ENDBRANCH  12  17
ENDBRANCH   9  11
ENDBRANCH   7   9
ENDBRANCH   6   7
ENDBRANCH   5   6
ENDBRANCH   4   5
ENDBRANCH   3   4
ENDBRANCH   2   3
ENDBRANCH   1   2
BRANCH   1  28
ATOM     28  O   UNL A   1      41.817  21.607  27.444  1.00  0.00    -0.376 OA
BRANCH  28  29
ATOM     29  C   UNL A   1      42.407  21.297  26.199  1.00  0.00     0.202 C 
BRANCH  29  30
ATOM     30  C   UNL A   1      43.205  22.435  25.546  1.00  0.00     0.261 C 
BRANCH  30  31
ATOM     31  O   UNL A   1      42.564  23.723  25.514  1.00  0.00    -0.460 OA
BRANCH  31  32
ATOM     32  C   UNL A   1      43.359  24.813  25.605  1.00  0.00     0.338 C 
ATOM     33  O   UNL A   1      44.290  25.101  24.864  1.00  0.00    -0.246 OA
BRANCH  32  34
ATOM     34  C   UNL A   1      42.781  25.723  26.621  1.00  0.00     0.060 A 
ATOM     35  C   UNL A   1      42.946  27.109  26.473  1.00  0.00     0.016 A 
ATOM     36  C   UNL A   1      42.085  25.214  27.718  1.00  0.00     0.016 A 
ATOM     37  C   UNL A   1      42.456  27.983  27.447  1.00  0.00     0.010 A 
ATOM     38  C   UNL A   1      41.611  26.090  28.701  1.00  0.00     0.010 A 
ATOM     39  C   UNL A   1      41.829  27.475  28.592  1.00  0.00    -0.014 A 
BRANCH  39  40
ATOM     40  C   UNL A   1      41.593  28.358  29.767  1.00  0.00     0.031 A 
ATOM     41  C   UNL A   1      42.488  28.196  30.969  1.00  0.00     0.074 A 
ATOM     42  C   UNL A   1      40.621  29.289  29.774  1.00  0.00     0.049 A 
ATOM     43  N   UNL A   1      42.442  28.796  32.130  1.00  0.00    -0.248 NA
ATOM     44  C   UNL A   1      43.580  27.216  30.843  1.00  0.00     0.031 C 
ATOM     45  C   UNL A   1      39.712  29.575  28.667  1.00  0.00     0.029 A 
ATOM     46  N   UNL A   1      40.232  30.161  30.762  1.00  0.00    -0.354 N 
ATOM     47  C   UNL A   1      43.486  28.259  32.875  1.00  0.00     0.074 A 
ATOM     48  C   UNL A   1      44.128  27.262  32.047  1.00  0.00     0.031 C 
ATOM     49  C   UNL A   1      38.859  30.544  29.042  1.00  0.00     0.029 A 
ATOM     50  C   UNL A   1      39.140  30.925  30.427  1.00  0.00     0.049 A 
ATOM     51  H   UNL A   1      40.692  30.232  31.631  1.00  0.00     0.167 HD
ATOM     52  C   UNL A   1      43.882  28.574  34.132  1.00  0.00     0.037 A 
ATOM     53  C   UNL A   1      38.433  31.811  31.159  1.00  0.00     0.037 A 
ATOM     54  C   UNL A   1      43.242  29.567  34.955  1.00  0.00     0.049 A 
ATOM     55  C   UNL A   1      38.853  32.102  32.580  1.00  0.00     0.074 A 
ATOM     56  C   UNL A   1      43.578  29.970  36.235  1.00  0.00     0.029 A 
ATOM     57  N   UNL A   1      42.129  30.308  34.584  1.00  0.00    -0.354 N 
ATOM     58  N   UNL A   1      39.856  31.604  33.266  1.00  0.00    -0.248 NA
ATOM     59  C   UNL A   1      38.051  33.084  33.325  1.00  0.00     0.031 C 
ATOM     60  C   UNL A   1      42.636  30.910  36.661  1.00  0.00     0.029 A 
ATOM     61  C   UNL A   1      41.752  31.148  35.619  1.00  0.00     0.049 A 
ATOM     62  H   UNL A   1      41.674  30.245  33.713  1.00  0.00     0.167 HD
ATOM     63  C   UNL A   1      39.824  32.237  34.506  1.00  0.00     0.074 A 
ATOM     64  C   UNL A   1      38.711  33.161  34.472  1.00  0.00     0.031 C 
ATOM     65  C   UNL A   1      40.647  32.074  35.574  1.00  0.00     0.037 A 
BRANCH  52  66
ATOM     66  C   UNL A   1      45.047  27.813  34.707  1.00  0.00     0.058 A 
ATOM     67  C   UNL A   1      46.367  28.277  34.595  1.00  0.00     0.135 A 
ATOM     68  C   UNL A   1      44.835  26.614  35.409  1.00  0.00     0.135 A 
ATOM     69  F   UNL A   1      46.632  29.406  33.917  1.00  0.00    -0.206 F 
ATOM     70  C   UNL A   1      47.437  27.570  35.133  1.00  0.00     0.059 A 
ATOM     71  C   UNL A   1      45.886  25.906  35.983  1.00  0.00     0.059 A 
ATOM     72  F   UNL A   1      43.594  26.121  35.545  1.00  0.00    -0.206 F 
ATOM     73  C   UNL A   1      47.186  26.384  35.827  1.00  0.00     0.060 A 
BRANCH  73  74
ATOM     74  S   UNL A   1      48.585  25.482  36.526  1.00  0.00     0.124 S 
ATOM     75  O   UNL A   1      48.479  24.201  35.835  1.00  0.00    -0.237 OA
ATOM     76  O   UNL A   1      49.717  26.318  36.140  1.00  0.00    -0.237 OA
ATOM     77  O   UNL A   1      48.290  25.449  37.955  1.00  0.00    -0.744 OA
ENDBRANCH  73  74
ENDBRANCH  52  66
BRANCH  53  78
ATOM     78  C   UNL A   1      37.244  32.490  30.571  1.00  0.00     0.058 A 
ATOM     79  C   UNL A   1      35.947  31.999  30.786  1.00  0.00     0.135 A 
ATOM     80  C   UNL A   1      37.382  33.637  29.773  1.00  0.00     0.135 A 
ATOM     81  F   UNL A   1      35.760  30.897  31.527  1.00  0.00    -0.206 F 
ATOM     82  C   UNL A   1      34.832  32.609  30.217  1.00  0.00     0.059 A 
ATOM     83  C   UNL A   1      36.281  34.281  29.218  1.00  0.00     0.059 A 
ATOM     84  F   UNL A   1      38.600  34.151  29.539  1.00  0.00    -0.206 F 
ATOM     85  C   UNL A   1      35.009  33.754  29.438  1.00  0.00     0.060 A 
BRANCH  85  86
ATOM     86  S   UNL A   1      33.552  34.564  28.746  1.00  0.00     0.124 S 
ATOM     87  O   UNL A   1      34.140  35.738  28.110  1.00  0.00    -0.237 OA
ATOM     88  O   UNL A   1      33.035  33.542  27.842  1.00  0.00    -0.237 OA
ATOM     89  O   UNL A   1      32.725  34.829  29.919  1.00  0.00    -0.744 OA
ENDBRANCH  85  86
ENDBRANCH  53  78
BRANCH  65  90
ATOM     90  C   UNL A   1      40.415  32.950  36.778  1.00  0.00     0.058 A 
ATOM     91  C   UNL A   1      41.229  34.056  37.067  1.00  0.00     0.135 A 
ATOM     92  C   UNL A   1      39.329  32.697  37.635  1.00  0.00     0.135 A 
ATOM     93  F   UNL A   1      42.280  34.345  36.283  1.00  0.00    -0.206 F 
ATOM     94  C   UNL A   1      40.999  34.859  38.181  1.00  0.00     0.059 A 
ATOM     95  C   UNL A   1      39.060  33.506  38.735  1.00  0.00     0.059 A 
ATOM     96  F   UNL A   1      38.507  31.662  37.400  1.00  0.00    -0.206 F 
ATOM     97  C   UNL A   1      39.912  34.576  39.010  1.00  0.00     0.060 A 
BRANCH  97  98
ATOM     98  S   UNL A   1      39.616  35.631  40.445  1.00  0.00     0.124 S 
ATOM     99  O   UNL A   1      38.332  36.235  40.107  1.00  0.00    -0.237 OA
ATOM    100  O   UNL A   1      39.595  34.669  41.541  1.00  0.00    -0.237 OA
ATOM    101  O   UNL A   1      40.759  36.541  40.439  1.00  0.00    -0.744 OA
ENDBRANCH  97  98
ENDBRANCH  65  90
ENDBRANCH  39  40
ENDBRANCH  32  34
ENDBRANCH  31  32
ENDBRANCH  30  31
ENDBRANCH  29  30
ENDBRANCH  28  29
ENDBRANCH   1  28
TORSDOF 22
ENDMDL
