MODEL 1
REMARK VINA RESULT:     -10.9      0.000      0.000
REMARK SMILES Cc1cc(F)ccc1OC1(C(=O)OCCOCCOCCOC(=O)c2ccc(-c3c4nc(c(-c5c(F)cc(S(=O)(=O)[O-])cc5F)c5ccc([nH]5)c(-c5c(F)cc(S(=O)(=O)[O-])cc5F)c5nc(c(-c6c(F)cc(S(=O)(=O)[O-])cc6F)c6ccc3[nH]6)C=C5)C=C4)cc2)CCN(C(=O)[C@H]2CCOC2)CC1
REMARK SMILES IDX 18 1 17 2 16 3 15 4 14 5 13 6 11 7 12 8 10 9 91 10 102 11
REMARK SMILES IDX 92 12 101 13 93 14 94 15 95 16 9 17 8 18 1 19 2 20 3 21 4 22
REMARK SMILES IDX 7 23 5 24 6 25 96 26 97 27 100 28 98 29 99 30 19 31 20 32
REMARK SMILES IDX 21 33 22 34 23 35 24 36 25 37 26 38 90 39 27 40 89 41 28 42
REMARK SMILES IDX 29 43 30 44 83 45 31 46 88 47 82 48 84 49 32 50 87 51 81 52
REMARK SMILES IDX 80 53 33 55 67 56 46 57 66 58 47 59 50 60 65 61 85 62 48 63
REMARK SMILES IDX 49 64 64 66 86 67 51 68 34 69 35 70 44 71 36 72 37 73 43 74
REMARK SMILES IDX 45 75 38 76 39 77 40 78 41 79 42 80 68 81 69 82 78 83 70 84
REMARK SMILES IDX 71 85 77 86 79 87 72 88 73 89 74 90 75 91 76 92 52 93 53 94
REMARK SMILES IDX 62 95 54 96 55 97 61 98 63 99 56 100 57 101 58 102 59 103
REMARK SMILES IDX 60 104
REMARK H PARENT 84 54 50 65
REMARK Flexibility Score: inf
ROOT
ATOM      1  C   UNL A   1      40.204  22.178  27.342  1.00  0.00     0.188 C 
ENDROOT
BRANCH   1   2
ATOM      2  C   UNL A   1      39.789  21.348  26.128  1.00  0.00     0.188 C 
BRANCH   2   3
ATOM      3  O   UNL A   1      38.555  21.702  25.518  1.00  0.00    -0.376 OA
BRANCH   3   4
ATOM      4  C   UNL A   1      38.009  22.974  25.865  1.00  0.00     0.202 C 
BRANCH   4   5
ATOM      5  C   UNL A   1      37.059  23.618  24.842  1.00  0.00     0.261 C 
BRANCH   5   6
ATOM      6  O   UNL A   1      36.373  22.661  24.001  1.00  0.00    -0.460 OA
BRANCH   6   7
ATOM      7  C   UNL A   1      35.136  23.021  23.550  1.00  0.00     0.350 C 
ATOM      8  O   UNL A   1      34.967  23.828  22.637  1.00  0.00    -0.247 OA
BRANCH   7   9
ATOM      9  C   UNL A   1      33.936  22.313  24.276  1.00  0.00     0.209 C 
ATOM     10  C   UNL A   1      32.822  21.886  23.324  1.00  0.00     0.082 C 
ATOM     11  C   UNL A   1      34.655  21.205  25.050  1.00  0.00     0.082 C 
ATOM     12  C   UNL A   1      32.548  20.393  23.193  1.00  0.00     0.124 C 
ATOM     13  C   UNL A   1      33.868  19.946  25.306  1.00  0.00     0.124 C 
ATOM     14  N   UNL A   1      33.141  19.454  24.144  1.00  0.00    -0.342 N 
ATOM     15  C   UNL A   1      32.771  18.118  23.960  1.00  0.00     0.228 C 
ATOM     16  O   UNL A   1      32.070  17.783  23.002  1.00  0.00    -0.274 OA
BRANCH   9  17
ATOM     17  O   UNL A   1      33.507  23.434  25.082  1.00  0.00    -0.475 OA
BRANCH  17  18
ATOM     18  C   UNL A   1      32.316  24.008  25.383  1.00  0.00     0.124 A 
ATOM     19  C   UNL A   1      32.290  26.351  24.233  1.00  0.00     0.048 C 
ATOM     20  C   UNL A   1      31.723  25.232  25.041  1.00  0.00    -0.006 A 
ATOM     21  C   UNL A   1      30.446  25.550  25.576  1.00  0.00     0.046 A 
ATOM     22  C   UNL A   1      29.787  24.701  26.450  1.00  0.00     0.123 A 
ATOM     23  C   UNL A   1      31.616  23.175  26.288  1.00  0.00     0.050 A 
ATOM     24  F   UNL A   1      28.597  25.059  26.945  1.00  0.00    -0.207 F 
ATOM     25  C   UNL A   1      30.368  23.510  26.822  1.00  0.00     0.043 A 
ENDBRANCH  17  18
ENDBRANCH   9  17
BRANCH  15  26
ATOM     26  C   UNL A   1      33.224  17.082  24.978  1.00  0.00     0.107 C 
ATOM     27  C   UNL A   1      32.172  16.026  25.248  1.00  0.00     0.044 C 
ATOM     28  C   UNL A   1      34.374  16.241  24.451  1.00  0.00     0.173 C 
ATOM     29  C   UNL A   1      32.982  14.800  25.624  1.00  0.00     0.161 C 
ATOM     30  O   UNL A   1      34.316  14.986  25.140  1.00  0.00    -0.381 OA
ENDBRANCH  15  26
ENDBRANCH   7   9
ENDBRANCH   6   7
ENDBRANCH   5   6
ENDBRANCH   4   5
ENDBRANCH   3   4
ENDBRANCH   2   3
ENDBRANCH   1   2
BRANCH   1  31
ATOM     31  O   UNL A   1      41.564  22.602  27.366  1.00  0.00    -0.376 OA
BRANCH  31  32
ATOM     32  C   UNL A   1      42.358  22.190  26.245  1.00  0.00     0.202 C 
BRANCH  32  33
ATOM     33  C   UNL A   1      43.387  23.218  25.732  1.00  0.00     0.261 C 
BRANCH  33  34
ATOM     34  O   UNL A   1      43.731  24.249  26.680  1.00  0.00    -0.460 OA
BRANCH  34  35
ATOM     35  C   UNL A   1      43.715  25.529  26.240  1.00  0.00     0.338 C 
ATOM     36  O   UNL A   1      43.961  25.905  25.105  1.00  0.00    -0.246 OA
BRANCH  35  37
ATOM     37  C   UNL A   1      43.081  26.378  27.285  1.00  0.00     0.060 A 
ATOM     38  C   UNL A   1      43.306  27.762  27.237  1.00  0.00     0.016 A 
ATOM     39  C   UNL A   1      42.215  25.849  28.249  1.00  0.00     0.016 A 
ATOM     40  C   UNL A   1      42.710  28.607  28.177  1.00  0.00     0.010 A 
ATOM     41  C   UNL A   1      41.624  26.696  29.193  1.00  0.00     0.010 A 
ATOM     42  C   UNL A   1      41.897  28.073  29.185  1.00  0.00    -0.014 A 
BRANCH  42  43
ATOM     43  C   UNL A   1      41.516  28.915  30.349  1.00  0.00     0.031 A 
ATOM     44  C   UNL A   1      42.360  28.827  31.593  1.00  0.00     0.074 A 
ATOM     45  C   UNL A   1      40.468  29.758  30.312  1.00  0.00     0.049 A 
ATOM     46  N   UNL A   1      42.231  29.452  32.735  1.00  0.00    -0.248 NA
ATOM     47  C   UNL A   1      43.503  27.901  31.537  1.00  0.00     0.031 C 
ATOM     48  C   UNL A   1      39.590  29.970  29.165  1.00  0.00     0.029 A 
ATOM     49  N   UNL A   1      39.970  30.598  31.279  1.00  0.00    -0.354 N 
ATOM     50  C   UNL A   1      43.271  28.994  33.534  1.00  0.00     0.074 A 
ATOM     51  C   UNL A   1      44.001  28.013  32.758  1.00  0.00     0.031 C 
ATOM     52  C   UNL A   1      38.663  30.890  29.492  1.00  0.00     0.029 A 
ATOM     53  C   UNL A   1      38.863  31.308  30.881  1.00  0.00     0.049 A 
ATOM     54  H   UNL A   1      40.369  30.682  32.175  1.00  0.00     0.167 HD
ATOM     55  C   UNL A   1      43.598  29.357  34.797  1.00  0.00     0.037 A 
ATOM     56  C   UNL A   1      38.095  32.184  31.561  1.00  0.00     0.037 A 
ATOM     57  C   UNL A   1      42.867  30.318  35.579  1.00  0.00     0.049 A 
ATOM     58  C   UNL A   1      38.424  32.511  32.998  1.00  0.00     0.074 A 
ATOM     59  C   UNL A   1      43.131  30.761  36.863  1.00  0.00     0.029 A 
ATOM     60  N   UNL A   1      41.720  30.974  35.157  1.00  0.00    -0.354 N 
ATOM     61  N   UNL A   1      39.426  32.092  33.734  1.00  0.00    -0.248 NA
ATOM     62  C   UNL A   1      37.513  33.430  33.697  1.00  0.00     0.031 C 
ATOM     63  C   UNL A   1      42.111  31.642  37.239  1.00  0.00     0.029 A 
ATOM     64  C   UNL A   1      41.243  31.791  36.169  1.00  0.00     0.049 A 
ATOM     65  H   UNL A   1      41.304  30.872  34.271  1.00  0.00     0.167 HD
ATOM     66  C   UNL A   1      39.281  32.716  34.971  1.00  0.00     0.074 A 
ATOM     67  C   UNL A   1      38.096  33.544  34.883  1.00  0.00     0.031 C 
ATOM     68  C   UNL A   1      40.062  32.615  36.076  1.00  0.00     0.037 A 
BRANCH  55  69
ATOM     69  C   UNL A   1      44.776  28.662  35.420  1.00  0.00     0.058 A 
ATOM     70  C   UNL A   1      46.057  29.239  35.429  1.00  0.00     0.135 A 
ATOM     71  C   UNL A   1      44.627  27.389  35.990  1.00  0.00     0.135 A 
ATOM     72  F   UNL A   1      46.259  30.447  34.879  1.00  0.00    -0.206 F 
ATOM     73  C   UNL A   1      47.157  28.555  35.934  1.00  0.00     0.059 A 
ATOM     74  C   UNL A   1      45.707  26.698  36.528  1.00  0.00     0.059 A 
ATOM     75  F   UNL A   1      43.424  26.792  36.007  1.00  0.00    -0.206 F 
ATOM     76  C   UNL A   1      46.973  27.279  36.473  1.00  0.00     0.060 A 
BRANCH  76  77
ATOM     77  S   UNL A   1      48.416  26.380  37.078  1.00  0.00     0.124 S 
ATOM     78  O   UNL A   1      48.107  26.260  38.499  1.00  0.00    -0.237 OA
ATOM     79  O   UNL A   1      48.360  25.141  36.310  1.00  0.00    -0.237 OA
ATOM     80  O   UNL A   1      49.530  27.266  36.750  1.00  0.00    -0.744 OA
ENDBRANCH  76  77
ENDBRANCH  55  69
BRANCH  56  81
ATOM     81  C   UNL A   1      36.932  32.826  30.891  1.00  0.00     0.058 A 
ATOM     82  C   UNL A   1      35.627  32.362  31.112  1.00  0.00     0.135 A 
ATOM     83  C   UNL A   1      37.099  33.917  30.025  1.00  0.00     0.135 A 
ATOM     84  F   UNL A   1      35.417  31.308  31.916  1.00  0.00    -0.206 F 
ATOM     85  C   UNL A   1      34.528  32.958  30.502  1.00  0.00     0.059 A 
ATOM     86  C   UNL A   1      36.013  34.545  29.421  1.00  0.00     0.059 A 
ATOM     87  F   UNL A   1      38.327  34.399  29.779  1.00  0.00    -0.206 F 
ATOM     88  C   UNL A   1      34.730  34.056  29.665  1.00  0.00     0.060 A 
BRANCH  88  89
ATOM     89  S   UNL A   1      33.289  34.869  28.941  1.00  0.00     0.124 S 
ATOM     90  O   UNL A   1      32.808  33.850  28.016  1.00  0.00    -0.237 OA
ATOM     91  O   UNL A   1      32.455  35.112  30.115  1.00  0.00    -0.237 OA
ATOM     92  O   UNL A   1      33.853  36.065  28.324  1.00  0.00    -0.744 OA
ENDBRANCH  88  89
ENDBRANCH  56  81
BRANCH  68  93
ATOM     93  C   UNL A   1      39.690  33.442  37.280  1.00  0.00     0.058 A 
ATOM     94  C   UNL A   1      38.816  32.960  38.268  1.00  0.00     0.135 A 
ATOM     95  C   UNL A   1      40.269  34.707  37.480  1.00  0.00     0.135 A 
ATOM     96  F   UNL A   1      38.231  31.761  38.127  1.00  0.00    -0.206 F 
ATOM     97  C   UNL A   1      38.515  33.712  39.401  1.00  0.00     0.059 A 
ATOM     98  C   UNL A   1      40.002  35.462  38.617  1.00  0.00     0.059 A 
ATOM     99  F   UNL A   1      41.121  35.211  36.573  1.00  0.00    -0.206 F 
ATOM    100  C   UNL A   1      39.115  34.961  39.569  1.00  0.00     0.060 A 
BRANCH 100 101
ATOM    101  S   UNL A   1      38.748  35.909  41.062  1.00  0.00     0.124 S 
ATOM    102  O   UNL A   1      39.907  35.609  41.894  1.00  0.00    -0.237 OA
ATOM    103  O   UNL A   1      38.670  37.276  40.554  1.00  0.00    -0.237 OA
ATOM    104  O   UNL A   1      37.482  35.346  41.521  1.00  0.00    -0.744 OA
ENDBRANCH 100 101
ENDBRANCH  68  93
ENDBRANCH  42  43
ENDBRANCH  35  37
ENDBRANCH  34  35
ENDBRANCH  33  34
ENDBRANCH  32  33
ENDBRANCH  31  32
ENDBRANCH   1  31
TORSDOF 23
ENDMDL
MODEL 2
REMARK VINA RESULT:     -10.8      3.200      9.594
REMARK SMILES Cc1cc(F)ccc1OC1(C(=O)OCCOCCOCCOC(=O)c2ccc(-c3c4nc(c(-c5c(F)cc(S(=O)(=O)[O-])cc5F)c5ccc([nH]5)c(-c5c(F)cc(S(=O)(=O)[O-])cc5F)c5nc(c(-c6c(F)cc(S(=O)(=O)[O-])cc6F)c6ccc3[nH]6)C=C5)C=C4)cc2)CCN(C(=O)[C@H]2CCOC2)CC1
REMARK SMILES IDX 18 1 17 2 16 3 15 4 14 5 13 6 11 7 12 8 10 9 91 10 102 11
REMARK SMILES IDX 92 12 101 13 93 14 94 15 95 16 9 17 8 18 1 19 2 20 3 21 4 22
REMARK SMILES IDX 7 23 5 24 6 25 96 26 97 27 100 28 98 29 99 30 19 31 20 32
REMARK SMILES IDX 21 33 22 34 23 35 24 36 25 37 26 38 90 39 27 40 89 41 28 42
REMARK SMILES IDX 29 43 30 44 83 45 31 46 88 47 82 48 84 49 32 50 87 51 81 52
REMARK SMILES IDX 80 53 33 55 67 56 46 57 66 58 47 59 50 60 65 61 85 62 48 63
REMARK SMILES IDX 49 64 64 66 86 67 51 68 34 69 35 70 44 71 36 72 37 73 43 74
REMARK SMILES IDX 45 75 38 76 39 77 40 78 41 79 42 80 68 81 69 82 78 83 70 84
REMARK SMILES IDX 71 85 77 86 79 87 72 88 73 89 74 90 75 91 76 92 52 93 53 94
REMARK SMILES IDX 62 95 54 96 55 97 61 98 63 99 56 100 57 101 58 102 59 103
REMARK SMILES IDX 60 104
REMARK H PARENT 84 54 50 65
REMARK Flexibility Score: inf
ROOT
ATOM      1  C   UNL A   1      30.952  27.912  24.200  1.00  0.00     0.188 C 
ENDROOT
BRANCH   1   2
ATOM      2  C   UNL A   1      30.576  26.471  24.543  1.00  0.00     0.188 C 
BRANCH   2   3
ATOM      3  O   UNL A   1      30.436  26.171  25.925  1.00  0.00    -0.376 OA
BRANCH   3   4
ATOM      4  C   UNL A   1      31.175  25.054  26.418  1.00  0.00     0.202 C 
BRANCH   4   5
ATOM      5  C   UNL A   1      30.372  23.781  26.730  1.00  0.00     0.261 C 
BRANCH   5   6
ATOM      6  O   UNL A   1      31.054  22.558  26.365  1.00  0.00    -0.460 OA
BRANCH   6   7
ATOM      7  C   UNL A   1      31.376  22.407  25.047  1.00  0.00     0.350 C 
ATOM      8  O   UNL A   1      30.719  22.912  24.139  1.00  0.00    -0.247 OA
BRANCH   7   9
ATOM      9  C   UNL A   1      32.664  21.551  24.774  1.00  0.00     0.209 C 
ATOM     10  C   UNL A   1      33.383  21.937  23.485  1.00  0.00     0.082 C 
ATOM     11  C   UNL A   1      33.436  21.731  26.085  1.00  0.00     0.082 C 
ATOM     12  C   UNL A   1      34.791  22.506  23.612  1.00  0.00     0.124 C 
ATOM     13  C   UNL A   1      34.938  21.659  25.993  1.00  0.00     0.124 C 
ATOM     14  N   UNL A   1      35.502  22.420  24.887  1.00  0.00    -0.342 N 
ATOM     15  C   UNL A   1      36.807  22.922  24.868  1.00  0.00     0.228 C 
ATOM     16  O   UNL A   1      37.257  23.472  23.858  1.00  0.00    -0.274 OA
BRANCH   9  17
ATOM     17  O   UNL A   1      32.016  20.267  24.625  1.00  0.00    -0.475 OA
BRANCH  17  18
ATOM     18  C   UNL A   1      32.434  18.989  24.454  1.00  0.00     0.124 A 
ATOM     19  C   UNL A   1      32.436  18.527  21.885  1.00  0.00     0.048 C 
ATOM     20  C   UNL A   1      32.656  18.190  23.323  1.00  0.00    -0.006 A 
ATOM     21  C   UNL A   1      33.063  16.841  23.503  1.00  0.00     0.046 A 
ATOM     22  C   UNL A   1      33.214  16.284  24.761  1.00  0.00     0.123 A 
ATOM     23  C   UNL A   1      32.587  18.377  25.722  1.00  0.00     0.050 A 
ATOM     24  F   UNL A   1      33.574  15.000  24.876  1.00  0.00    -0.207 F 
ATOM     25  C   UNL A   1      32.969  17.043  25.883  1.00  0.00     0.043 A 
ENDBRANCH  17  18
ENDBRANCH   9  17
BRANCH  15  26
ATOM     26  C   UNL A   1      37.679  22.755  26.103  1.00  0.00     0.107 C 
ATOM     27  C   UNL A   1      38.828  21.793  25.885  1.00  0.00     0.044 C 
ATOM     28  C   UNL A   1      38.415  24.039  26.449  1.00  0.00     0.173 C 
ATOM     29  C   UNL A   1      39.903  22.297  26.829  1.00  0.00     0.161 C 
ATOM     30  O   UNL A   1      39.597  23.655  27.162  1.00  0.00    -0.381 OA
ENDBRANCH  15  26
ENDBRANCH   7   9
ENDBRANCH   6   7
ENDBRANCH   5   6
ENDBRANCH   4   5
ENDBRANCH   3   4
ENDBRANCH   2   3
ENDBRANCH   1   2
BRANCH   1  31
ATOM     31  O   UNL A   1      32.210  28.087  23.556  1.00  0.00    -0.376 OA
BRANCH  31  32
ATOM     32  C   UNL A   1      33.332  28.257  24.433  1.00  0.00     0.202 C 
BRANCH  32  33
ATOM     33  C   UNL A   1      33.002  28.686  25.878  1.00  0.00     0.261 C 
BRANCH  33  34
ATOM     34  O   UNL A   1      34.141  28.747  26.761  1.00  0.00    -0.460 OA
BRANCH  34  35
ATOM     35  C   UNL A   1      34.458  29.953  27.285  1.00  0.00     0.338 C 
ATOM     36  O   UNL A   1      33.721  30.923  27.361  1.00  0.00    -0.246 OA
BRANCH  35  37
ATOM     37  C   UNL A   1      35.755  29.828  28.005  1.00  0.00     0.060 A 
ATOM     38  C   UNL A   1      36.932  30.118  27.299  1.00  0.00     0.016 A 
ATOM     39  C   UNL A   1      35.822  29.515  29.368  1.00  0.00     0.016 A 
ATOM     40  C   UNL A   1      38.174  30.045  27.937  1.00  0.00     0.010 A 
ATOM     41  C   UNL A   1      37.066  29.437  30.003  1.00  0.00     0.010 A 
ATOM     42  C   UNL A   1      38.250  29.665  29.283  1.00  0.00    -0.014 A 
BRANCH  42  43
ATOM     43  C   UNL A   1      39.563  29.295  29.871  1.00  0.00     0.031 A 
ATOM     44  C   UNL A   1      40.035  30.053  31.084  1.00  0.00     0.074 A 
ATOM     45  C   UNL A   1      40.317  28.299  29.371  1.00  0.00     0.049 A 
ATOM     46  N   UNL A   1      41.140  29.921  31.772  1.00  0.00    -0.248 NA
ATOM     47  C   UNL A   1      39.136  31.106  31.581  1.00  0.00     0.031 C 
ATOM     48  C   UNL A   1      39.968  27.461  28.228  1.00  0.00     0.029 A 
ATOM     49  N   UNL A   1      41.543  27.826  29.775  1.00  0.00    -0.354 N 
ATOM     50  C   UNL A   1      41.071  30.875  32.780  1.00  0.00     0.074 A 
ATOM     51  C   UNL A   1      39.832  31.600  32.592  1.00  0.00     0.031 C 
ATOM     52  C   UNL A   1      40.954  26.568  28.025  1.00  0.00     0.029 A 
ATOM     53  C   UNL A   1      42.019  26.792  29.005  1.00  0.00     0.049 A 
ATOM     54  H   UNL A   1      42.035  28.194  30.544  1.00  0.00     0.167 HD
ATOM     55  C   UNL A   1      41.952  31.125  33.777  1.00  0.00     0.037 A 
ATOM     56  C   UNL A   1      43.183  26.113  29.076  1.00  0.00     0.037 A 
ATOM     57  C   UNL A   1      43.192  30.419  33.960  1.00  0.00     0.049 A 
ATOM     58  C   UNL A   1      44.192  26.464  30.142  1.00  0.00     0.074 A 
ATOM     59  C   UNL A   1      44.143  30.593  34.950  1.00  0.00     0.029 A 
ATOM     60  N   UNL A   1      43.662  29.416  33.125  1.00  0.00    -0.354 N 
ATOM     61  N   UNL A   1      44.104  27.351  31.106  1.00  0.00    -0.248 NA
ATOM     62  C   UNL A   1      45.463  25.724  30.126  1.00  0.00     0.031 C 
ATOM     63  C   UNL A   1      45.214  29.734  34.682  1.00  0.00     0.029 A 
ATOM     64  C   UNL A   1      44.906  28.985  33.557  1.00  0.00     0.049 A 
ATOM     65  H   UNL A   1      43.183  29.063  32.341  1.00  0.00     0.167 HD
ATOM     66  C   UNL A   1      45.292  27.254  31.826  1.00  0.00     0.074 A 
ATOM     67  C   UNL A   1      46.082  26.222  31.189  1.00  0.00     0.031 C 
ATOM     68  C   UNL A   1      45.689  27.954  32.918  1.00  0.00     0.037 A 
BRANCH  55  69
ATOM     69  C   UNL A   1      41.615  32.250  34.715  1.00  0.00     0.058 A 
ATOM     70  C   UNL A   1      40.883  32.038  35.895  1.00  0.00     0.135 A 
ATOM     71  C   UNL A   1      42.004  33.564  34.413  1.00  0.00     0.135 A 
ATOM     72  F   UNL A   1      40.469  30.803  36.222  1.00  0.00    -0.206 F 
ATOM     73  C   UNL A   1      40.506  33.096  36.716  1.00  0.00     0.059 A 
ATOM     74  C   UNL A   1      41.664  34.634  35.234  1.00  0.00     0.059 A 
ATOM     75  F   UNL A   1      42.704  33.823  33.297  1.00  0.00    -0.206 F 
ATOM     76  C   UNL A   1      40.892  34.392  36.370  1.00  0.00     0.060 A 
BRANCH  76  77
ATOM     77  S   UNL A   1      40.352  35.762  37.413  1.00  0.00     0.124 S 
ATOM     78  O   UNL A   1      39.831  36.695  36.418  1.00  0.00    -0.237 OA
ATOM     79  O   UNL A   1      39.356  35.130  38.271  1.00  0.00    -0.237 OA
ATOM     80  O   UNL A   1      41.578  36.180  38.086  1.00  0.00    -0.744 OA
ENDBRANCH  76  77
ENDBRANCH  55  69
BRANCH  56  81
ATOM     81  C   UNL A   1      43.463  25.019  28.106  1.00  0.00     0.058 A 
ATOM     82  C   UNL A   1      44.021  25.297  26.849  1.00  0.00     0.135 A 
ATOM     83  C   UNL A   1      43.188  23.679  28.418  1.00  0.00     0.135 A 
ATOM     84  F   UNL A   1      44.283  26.564  26.496  1.00  0.00    -0.206 F 
ATOM     85  C   UNL A   1      44.300  24.285  25.936  1.00  0.00     0.059 A 
ATOM     86  C   UNL A   1      43.479  22.648  27.530  1.00  0.00     0.059 A 
ATOM     87  F   UNL A   1      42.654  23.361  29.607  1.00  0.00    -0.206 F 
ATOM     88  C   UNL A   1      44.034  22.961  26.289  1.00  0.00     0.060 A 
BRANCH  88  89
ATOM     89  S   UNL A   1      44.472  21.651  25.126  1.00  0.00     0.124 S 
ATOM     90  O   UNL A   1      43.416  20.675  25.369  1.00  0.00    -0.237 OA
ATOM     91  O   UNL A   1      44.414  22.349  23.845  1.00  0.00    -0.237 OA
ATOM     92  O   UNL A   1      45.809  21.254  25.555  1.00  0.00    -0.744 OA
ENDBRANCH  88  89
ENDBRANCH  56  81
BRANCH  68  93
ATOM     93  C   UNL A   1      47.025  27.615  33.526  1.00  0.00     0.058 A 
ATOM     94  C   UNL A   1      47.163  26.615  34.503  1.00  0.00     0.135 A 
ATOM     95  C   UNL A   1      48.194  28.254  33.077  1.00  0.00     0.135 A 
ATOM     96  F   UNL A   1      46.080  25.975  34.972  1.00  0.00    -0.206 F 
ATOM     97  C   UNL A   1      48.408  26.276  35.026  1.00  0.00     0.059 A 
ATOM     98  C   UNL A   1      49.450  27.911  33.567  1.00  0.00     0.059 A 
ATOM     99  F   UNL A   1      48.123  29.209  32.136  1.00  0.00    -0.206 F 
ATOM    100  C   UNL A   1      49.547  26.927  34.549  1.00  0.00     0.060 A 
BRANCH 100 101
ATOM    101  S   UNL A   1      51.161  26.450  35.206  1.00  0.00     0.124 S 
ATOM    102  O   UNL A   1      50.792  25.847  36.483  1.00  0.00    -0.237 OA
ATOM    103  O   UNL A   1      51.652  25.526  34.189  1.00  0.00    -0.237 OA
ATOM    104  O   UNL A   1      51.881  27.715  35.294  1.00  0.00    -0.744 OA
ENDBRANCH 100 101
ENDBRANCH  68  93
ENDBRANCH  42  43
ENDBRANCH  35  37
ENDBRANCH  34  35
ENDBRANCH  33  34
ENDBRANCH  32  33
ENDBRANCH  31  32
ENDBRANCH   1  31
TORSDOF 23
ENDMDL
MODEL 3
REMARK VINA RESULT:     -10.7      6.186      8.423
REMARK SMILES Cc1cc(F)ccc1OC1(C(=O)OCCOCCOCCOC(=O)c2ccc(-c3c4nc(c(-c5c(F)cc(S(=O)(=O)[O-])cc5F)c5ccc([nH]5)c(-c5c(F)cc(S(=O)(=O)[O-])cc5F)c5nc(c(-c6c(F)cc(S(=O)(=O)[O-])cc6F)c6ccc3[nH]6)C=C5)C=C4)cc2)CCN(C(=O)[C@H]2CCOC2)CC1
REMARK SMILES IDX 18 1 17 2 16 3 15 4 14 5 13 6 11 7 12 8 10 9 91 10 102 11
REMARK SMILES IDX 92 12 101 13 93 14 94 15 95 16 9 17 8 18 1 19 2 20 3 21 4 22
REMARK SMILES IDX 7 23 5 24 6 25 96 26 97 27 100 28 98 29 99 30 19 31 20 32
REMARK SMILES IDX 21 33 22 34 23 35 24 36 25 37 26 38 90 39 27 40 89 41 28 42
REMARK SMILES IDX 29 43 30 44 83 45 31 46 88 47 82 48 84 49 32 50 87 51 81 52
REMARK SMILES IDX 80 53 33 55 67 56 46 57 66 58 47 59 50 60 65 61 85 62 48 63
REMARK SMILES IDX 49 64 64 66 86 67 51 68 34 69 35 70 44 71 36 72 37 73 43 74
REMARK SMILES IDX 45 75 38 76 39 77 40 78 41 79 42 80 68 81 69 82 78 83 70 84
REMARK SMILES IDX 71 85 77 86 79 87 72 88 73 89 74 90 75 91 76 92 52 93 53 94
REMARK SMILES IDX 62 95 54 96 55 97 61 98 63 99 56 100 57 101 58 102 59 103
REMARK SMILES IDX 60 104
REMARK H PARENT 84 54 50 65
REMARK Flexibility Score: inf
ROOT
ATOM      1  C   UNL A   1      41.548  21.945  26.263  1.00  0.00     0.188 C 
ENDROOT
BRANCH   1   2
ATOM      2  C   UNL A   1      40.489  22.741  27.024  1.00  0.00     0.188 C 
BRANCH   2   3
ATOM      3  O   UNL A   1      39.172  22.704  26.490  1.00  0.00    -0.376 OA
BRANCH   3   4
ATOM      4  C   UNL A   1      38.508  23.957  26.333  1.00  0.00     0.202 C 
BRANCH   4   5
ATOM      5  C   UNL A   1      37.041  23.906  25.875  1.00  0.00     0.261 C 
BRANCH   5   6
ATOM      6  O   UNL A   1      36.776  22.893  24.877  1.00  0.00    -0.460 OA
BRANCH   6   7
ATOM      7  C   UNL A   1      35.615  23.020  24.170  1.00  0.00     0.350 C 
ATOM      8  O   UNL A   1      35.554  23.600  23.087  1.00  0.00    -0.247 OA
BRANCH   7   9
ATOM      9  C   UNL A   1      34.359  22.355  24.837  1.00  0.00     0.209 C 
ATOM     10  C   UNL A   1      33.227  22.080  23.851  1.00  0.00     0.082 C 
ATOM     11  C   UNL A   1      34.985  21.145  25.535  1.00  0.00     0.082 C 
ATOM     12  C   UNL A   1      32.844  20.624  23.613  1.00  0.00     0.124 C 
ATOM     13  C   UNL A   1      34.104  19.933  25.697  1.00  0.00     0.124 C 
ATOM     14  N   UNL A   1      33.356  19.579  24.498  1.00  0.00    -0.342 N 
ATOM     15  C   UNL A   1      32.891  18.291  24.219  1.00  0.00     0.228 C 
ATOM     16  O   UNL A   1      32.177  18.077  23.235  1.00  0.00    -0.274 OA
BRANCH   9  17
ATOM     17  O   UNL A   1      34.005  23.446  25.718  1.00  0.00    -0.475 OA
BRANCH  17  18
ATOM     18  C   UNL A   1      33.023  24.379  25.753  1.00  0.00     0.124 A 
ATOM     19  C   UNL A   1      30.845  23.164  26.525  1.00  0.00     0.048 C 
ATOM     20  C   UNL A   1      31.665  24.338  26.104  1.00  0.00    -0.006 A 
ATOM     21  C   UNL A   1      30.888  25.520  25.982  1.00  0.00     0.046 A 
ATOM     22  C   UNL A   1      31.423  26.701  25.496  1.00  0.00     0.123 A 
ATOM     23  C   UNL A   1      33.528  25.602  25.248  1.00  0.00     0.050 A 
ATOM     24  F   UNL A   1      30.641  27.780  25.376  1.00  0.00    -0.207 F 
ATOM     25  C   UNL A   1      32.745  26.752  25.115  1.00  0.00     0.043 A 
ENDBRANCH  17  18
ENDBRANCH   9  17
BRANCH  15  26
ATOM     26  C   UNL A   1      33.254  17.155  25.163  1.00  0.00     0.107 C 
ATOM     27  C   UNL A   1      32.175  16.095  25.249  1.00  0.00     0.044 C 
ATOM     28  C   UNL A   1      34.435  16.350  24.646  1.00  0.00     0.173 C 
ATOM     29  C   UNL A   1      32.943  14.826  25.565  1.00  0.00     0.161 C 
ATOM     30  O   UNL A   1      34.312  15.036  25.205  1.00  0.00    -0.381 OA
ENDBRANCH  15  26
ENDBRANCH   7   9
ENDBRANCH   6   7
ENDBRANCH   5   6
ENDBRANCH   4   5
ENDBRANCH   3   4
ENDBRANCH   2   3
ENDBRANCH   1   2
BRANCH   1  31
ATOM     31  O   UNL A   1      41.194  20.606  25.926  1.00  0.00    -0.376 OA
BRANCH  31  32
ATOM     32  C   UNL A   1      41.875  19.584  26.666  1.00  0.00     0.202 C 
BRANCH  32  33
ATOM     33  C   UNL A   1      42.760  18.628  25.840  1.00  0.00     0.261 C 
BRANCH  33  34
ATOM     34  O   UNL A   1      44.118  19.078  25.651  1.00  0.00    -0.460 OA
BRANCH  34  35
ATOM     35  C   UNL A   1      44.405  19.720  24.495  1.00  0.00     0.338 C 
ATOM     36  O   UNL A   1      44.169  19.314  23.368  1.00  0.00    -0.246 OA
BRANCH  35  37
ATOM     37  C   UNL A   1      44.802  21.117  24.817  1.00  0.00     0.060 A 
ATOM     38  C   UNL A   1      45.294  21.384  26.104  1.00  0.00     0.016 A 
ATOM     39  C   UNL A   1      44.775  22.138  23.859  1.00  0.00     0.016 A 
ATOM     40  C   UNL A   1      45.708  22.673  26.447  1.00  0.00     0.010 A 
ATOM     41  C   UNL A   1      45.185  23.429  24.207  1.00  0.00     0.010 A 
ATOM     42  C   UNL A   1      45.619  23.712  25.513  1.00  0.00    -0.014 A 
BRANCH  42  43
ATOM     43  C   UNL A   1      45.766  25.121  25.959  1.00  0.00     0.031 A 
ATOM     44  C   UNL A   1      47.132  25.750  25.880  1.00  0.00     0.074 A 
ATOM     45  C   UNL A   1      44.723  25.846  26.403  1.00  0.00     0.049 A 
ATOM     46  N   UNL A   1      47.516  26.956  26.213  1.00  0.00    -0.248 NA
ATOM     47  C   UNL A   1      48.211  24.896  25.357  1.00  0.00     0.031 C 
ATOM     48  C   UNL A   1      43.344  25.377  26.498  1.00  0.00     0.029 A 
ATOM     49  N   UNL A   1      44.672  27.142  26.855  1.00  0.00    -0.354 N 
ATOM     50  C   UNL A   1      48.879  27.004  25.944  1.00  0.00     0.074 A 
ATOM     51  C   UNL A   1      49.260  25.697  25.453  1.00  0.00     0.031 C 
ATOM     52  C   UNL A   1      42.577  26.376  26.972  1.00  0.00     0.029 A 
ATOM     53  C   UNL A   1      43.417  27.545  27.244  1.00  0.00     0.049 A 
ATOM     54  H   UNL A   1      45.461  27.729  26.899  1.00  0.00     0.167 HD
ATOM     55  C   UNL A   1      49.739  28.041  26.085  1.00  0.00     0.037 A 
ATOM     56  C   UNL A   1      42.996  28.715  27.768  1.00  0.00     0.037 A 
ATOM     57  C   UNL A   1      49.369  29.338  26.587  1.00  0.00     0.049 A 
ATOM     58  C   UNL A   1      43.986  29.831  27.999  1.00  0.00     0.074 A 
ATOM     59  C   UNL A   1      50.169  30.455  26.752  1.00  0.00     0.029 A 
ATOM     60  N   UNL A   1      48.099  29.686  27.021  1.00  0.00    -0.354 N 
ATOM     61  N   UNL A   1      45.267  29.874  27.716  1.00  0.00    -0.248 NA
ATOM     62  C   UNL A   1      43.472  31.059  28.626  1.00  0.00     0.031 C 
ATOM     63  C   UNL A   1      49.394  31.462  27.338  1.00  0.00     0.029 A 
ATOM     64  C   UNL A   1      48.099  30.991  27.486  1.00  0.00     0.049 A 
ATOM     65  H   UNL A   1      47.313  29.094  27.002  1.00  0.00     0.167 HD
ATOM     66  C   UNL A   1      45.704  31.139  28.103  1.00  0.00     0.074 A 
ATOM     67  C   UNL A   1      44.551  31.832  28.638  1.00  0.00     0.031 C 
ATOM     68  C   UNL A   1      46.946  31.677  28.018  1.00  0.00     0.037 A 
BRANCH  55  69
ATOM     69  C   UNL A   1      51.177  27.784  25.732  1.00  0.00     0.058 A 
ATOM     70  C   UNL A   1      51.631  27.812  24.403  1.00  0.00     0.135 A 
ATOM     71  C   UNL A   1      52.107  27.475  26.736  1.00  0.00     0.135 A 
ATOM     72  F   UNL A   1      50.778  28.084  23.402  1.00  0.00    -0.206 F 
ATOM     73  C   UNL A   1      52.945  27.494  24.078  1.00  0.00     0.059 A 
ATOM     74  C   UNL A   1      53.433  27.182  26.438  1.00  0.00     0.059 A 
ATOM     75  F   UNL A   1      51.725  27.433  28.022  1.00  0.00    -0.206 F 
ATOM     76  C   UNL A   1      53.837  27.169  25.103  1.00  0.00     0.060 A 
BRANCH  76  77
ATOM     77  S   UNL A   1      55.524  26.706  24.665  1.00  0.00     0.124 S 
ATOM     78  O   UNL A   1      55.538  26.985  23.232  1.00  0.00    -0.237 OA
ATOM     79  O   UNL A   1      56.322  27.603  25.494  1.00  0.00    -0.237 OA
ATOM     80  O   UNL A   1      55.595  25.294  25.030  1.00  0.00    -0.744 OA
ENDBRANCH  76  77
ENDBRANCH  55  69
BRANCH  56  81
ATOM     81  C   UNL A   1      41.560  28.901  28.111  1.00  0.00     0.058 A 
ATOM     82  C   UNL A   1      41.125  28.846  29.444  1.00  0.00     0.135 A 
ATOM     83  C   UNL A   1      40.598  29.144  27.119  1.00  0.00     0.135 A 
ATOM     84  F   UNL A   1      42.003  28.596  30.426  1.00  0.00    -0.206 F 
ATOM     85  C   UNL A   1      39.788  29.029  29.782  1.00  0.00     0.059 A 
ATOM     86  C   UNL A   1      39.259  29.353  27.434  1.00  0.00     0.059 A 
ATOM     87  F   UNL A   1      40.963  29.205  25.828  1.00  0.00    -0.206 F 
ATOM     88  C   UNL A   1      38.863  29.291  28.770  1.00  0.00     0.060 A 
BRANCH  88  89
ATOM     89  S   UNL A   1      37.144  29.603  29.229  1.00  0.00     0.124 S 
ATOM     90  O   UNL A   1      37.118  31.059  29.303  1.00  0.00    -0.237 OA
ATOM     91  O   UNL A   1      36.418  29.006  28.112  1.00  0.00    -0.237 OA
ATOM     92  O   UNL A   1      37.005  28.904  30.503  1.00  0.00    -0.744 OA
ENDBRANCH  88  89
ENDBRANCH  56  81
BRANCH  68  93
ATOM     93  C   UNL A   1      47.132  33.099  28.482  1.00  0.00     0.058 A 
ATOM     94  C   UNL A   1      47.522  33.405  29.795  1.00  0.00     0.135 A 
ATOM     95  C   UNL A   1      46.981  34.166  27.580  1.00  0.00     0.135 A 
ATOM     96  F   UNL A   1      47.677  32.426  30.700  1.00  0.00    -0.206 F 
ATOM     97  C   UNL A   1      47.738  34.719  30.202  1.00  0.00     0.059 A 
ATOM     98  C   UNL A   1      47.217  35.484  27.959  1.00  0.00     0.059 A 
ATOM     99  F   UNL A   1      46.621  33.931  26.308  1.00  0.00    -0.206 F 
ATOM    100  C   UNL A   1      47.585  35.752  29.276  1.00  0.00     0.060 A 
BRANCH 100 101
ATOM    101  S   UNL A   1      47.907  37.450  29.806  1.00  0.00     0.124 S 
ATOM    102  O   UNL A   1      49.304  37.371  30.216  1.00  0.00    -0.237 OA
ATOM    103  O   UNL A   1      47.647  38.212  28.588  1.00  0.00    -0.237 OA
ATOM    104  O   UNL A   1      46.946  37.658  30.884  1.00  0.00    -0.744 OA
ENDBRANCH 100 101
ENDBRANCH  68  93
ENDBRANCH  42  43
ENDBRANCH  35  37
ENDBRANCH  34  35
ENDBRANCH  33  34
ENDBRANCH  32  33
ENDBRANCH  31  32
ENDBRANCH   1  31
TORSDOF 23
ENDMDL
