MODEL 1
REMARK VINA RESULT:     -11.0      0.000      0.000
REMARK SMILES O=C(Cn1nc(-c2ccc(Br)cc2)ccc1=O)N[C@H](C(=O)OCCOCCOCCOC(=O)c1ccc(-c2c3nc(c(-c4c(F)cc(S(=O)(=O)[O-])cc4F)c4ccc([nH]4)c(-c4c(F)cc(S(=O)(=O)[O-])cc4F)c4nc(c(-c5c(F)cc(S(=O)(=O)[O-])cc5F)c5ccc2[nH]5)C=C4)C=C3)cc1)c1ccccc1
REMARK SMILES IDX 26 1 25 2 24 3 23 4 22 5 20 6 21 7 19 8 18 9 1 10 2 11 3 13
REMARK SMILES IDX 4 14 5 15 16 16 6 17 15 18 17 19 14 20 7 21 8 22 13 23 9 24
REMARK SMILES IDX 12 25 10 26 11 27 100 28 101 29 105 30 102 31 104 32 103 33
REMARK SMILES IDX 27 34 28 35 29 36 30 37 31 38 32 39 33 40 34 41 35 42 99 43
REMARK SMILES IDX 36 44 98 45 37 46 38 47 39 48 92 49 40 50 97 51 91 52 93 53
REMARK SMILES IDX 41 54 96 55 90 56 89 57 42 59 76 60 55 61 75 62 56 63 59 64
REMARK SMILES IDX 74 65 94 66 57 67 58 68 73 70 95 71 60 72 43 73 44 74 53 75
REMARK SMILES IDX 45 76 46 77 52 78 54 79 47 80 48 81 49 82 50 83 51 84 77 85
REMARK SMILES IDX 78 86 87 87 79 88 80 89 86 90 88 91 81 92 82 93 83 94 84 95
REMARK SMILES IDX 85 96 61 97 62 98 71 99 63 100 64 101 70 102 72 103 65 104
REMARK SMILES IDX 66 105 67 106 68 107 69 108
REMARK H PARENT 18 12 93 58 59 69
REMARK Flexibility Score: inf
ROOT
ATOM      1  C   UNL A   1      38.926  21.935  26.047  1.00  0.00     0.188 C 
ENDROOT
BRANCH   1   2
ATOM      2  O   UNL A   1      38.396  23.245  26.134  1.00  0.00    -0.376 OA
BRANCH   2   3
ATOM      3  C   UNL A   1      37.126  23.453  25.534  1.00  0.00     0.202 C 
BRANCH   3   4
ATOM      4  C   UNL A   1      36.432  22.171  25.054  1.00  0.00     0.261 C 
BRANCH   4   5
ATOM      5  O   UNL A   1      34.999  22.168  25.126  1.00  0.00    -0.461 OA
BRANCH   5   6
ATOM      6  C   UNL A   1      34.428  21.543  26.207  1.00  0.00     0.333 C 
ATOM      7  O   UNL A   1      34.808  21.702  27.358  1.00  0.00    -0.249 OA
BRANCH   6   8
ATOM      8  C   UNL A   1      33.117  20.858  25.746  1.00  0.00     0.223 C 
BRANCH   8   9
ATOM      9  N   UNL A   1      32.035  21.787  25.440  1.00  0.00    -0.337 N 
ATOM     10  O   UNL A   1      31.767  22.546  27.587  1.00  0.00    -0.273 OA
ATOM     11  C   UNL A   1      31.439  22.573  26.405  1.00  0.00     0.242 C 
ATOM     12  H   UNL A   1      31.720  21.857  24.510  1.00  0.00     0.164 HD
BRANCH  11  13
ATOM     13  C   UNL A   1      30.349  23.499  25.873  1.00  0.00     0.248 C 
BRANCH  13  14
ATOM     14  N   UNL A   1      31.032  24.517  25.095  1.00  0.00    -0.220 N 
ATOM     15  N   UNL A   1      31.702  25.477  25.822  1.00  0.00    -0.169 NA
ATOM     16  C   UNL A   1      30.824  24.574  23.726  1.00  0.00     0.267 A 
ATOM     17  C   UNL A   1      32.081  26.546  25.195  1.00  0.00     0.091 A 
ATOM     18  C   UNL A   1      31.280  25.813  23.062  1.00  0.00     0.075 A 
ATOM     19  O   UNL A   1      30.296  23.695  23.053  1.00  0.00    -0.268 OA
ATOM     20  C   UNL A   1      31.877  26.786  23.752  1.00  0.00     0.036 A 
BRANCH  17  21
ATOM     21  C   UNL A   1      32.714  27.628  25.987  1.00  0.00     0.002 A 
ATOM     22  C   UNL A   1      31.896  28.587  26.595  1.00  0.00     0.011 A 
ATOM     23  C   UNL A   1      34.105  27.781  25.999  1.00  0.00     0.011 A 
ATOM     24  C   UNL A   1      32.469  29.699  27.214  1.00  0.00     0.016 A 
ATOM     25  C   UNL A   1      34.674  28.908  26.596  1.00  0.00     0.016 A 
ATOM     26  C   UNL A   1      33.854  29.861  27.200  1.00  0.00     0.018 A 
ATOM     27  Br  UNL A   1      34.624  31.399  27.982  1.00  0.00    -0.051 Br
ENDBRANCH  17  21
ENDBRANCH  13  14
ENDBRANCH  11  13
ENDBRANCH   8   9
BRANCH   8  28
ATOM     28  C   UNL A   1      33.250  19.608  24.889  1.00  0.00    -0.014 A 
ATOM     29  C   UNL A   1      34.339  18.736  24.980  1.00  0.00     0.006 A 
ATOM     30  C   UNL A   1      32.325  19.388  23.846  1.00  0.00     0.006 A 
ATOM     31  C   UNL A   1      34.489  17.679  24.073  1.00  0.00     0.000 A 
ATOM     32  C   UNL A   1      32.479  18.334  22.945  1.00  0.00     0.000 A 
ATOM     33  C   UNL A   1      33.563  17.479  23.056  1.00  0.00     0.000 A 
ENDBRANCH   8  28
ENDBRANCH   6   8
ENDBRANCH   5   6
ENDBRANCH   4   5
ENDBRANCH   3   4
ENDBRANCH   2   3
ENDBRANCH   1   2
BRANCH   1  34
ATOM     34  C   UNL A   1      40.125  21.692  26.988  1.00  0.00     0.188 C 
BRANCH  34  35
ATOM     35  O   UNL A   1      41.418  21.432  26.461  1.00  0.00    -0.376 OA
BRANCH  35  36
ATOM     36  C   UNL A   1      42.114  22.480  25.808  1.00  0.00     0.202 C 
BRANCH  36  37
ATOM     37  C   UNL A   1      42.527  23.715  26.625  1.00  0.00     0.261 C 
BRANCH  37  38
ATOM     38  O   UNL A   1      42.489  24.973  25.926  1.00  0.00    -0.460 OA
BRANCH  38  39
ATOM     39  C   UNL A   1      41.331  25.677  26.017  1.00  0.00     0.338 C 
ATOM     40  O   UNL A   1      40.366  25.597  25.273  1.00  0.00    -0.246 OA
BRANCH  39  41
ATOM     41  C   UNL A   1      41.312  26.450  27.282  1.00  0.00     0.060 A 
ATOM     42  C   UNL A   1      42.294  27.399  27.565  1.00  0.00     0.016 A 
ATOM     43  C   UNL A   1      40.267  26.232  28.192  1.00  0.00     0.016 A 
ATOM     44  C   UNL A   1      42.210  28.151  28.746  1.00  0.00     0.010 A 
ATOM     45  C   UNL A   1      40.198  26.966  29.382  1.00  0.00     0.010 A 
ATOM     46  C   UNL A   1      41.155  27.952  29.657  1.00  0.00    -0.014 A 
BRANCH  46  47
ATOM     47  C   UNL A   1      40.965  28.890  30.797  1.00  0.00     0.031 A 
ATOM     48  C   UNL A   1      39.890  29.938  30.801  1.00  0.00     0.074 A 
ATOM     49  C   UNL A   1      41.800  28.787  31.848  1.00  0.00     0.049 A 
ATOM     50  N   UNL A   1      39.599  30.816  31.727  1.00  0.00    -0.248 NA
ATOM     51  C   UNL A   1      39.042  30.021  29.607  1.00  0.00     0.031 C 
ATOM     52  C   UNL A   1      42.896  27.822  31.954  1.00  0.00     0.029 A 
ATOM     53  N   UNL A   1      41.853  29.483  33.030  1.00  0.00    -0.354 N 
ATOM     54  C   UNL A   1      38.531  31.558  31.236  1.00  0.00     0.074 A 
ATOM     55  C   UNL A   1      38.256  31.050  29.905  1.00  0.00     0.031 C 
ATOM     56  C   UNL A   1      43.490  27.963  33.149  1.00  0.00     0.029 A 
ATOM     57  C   UNL A   1      42.840  29.046  33.881  1.00  0.00     0.049 A 
ATOM     58  H   UNL A   1      41.242  30.225  33.246  1.00  0.00     0.167 HD
ATOM     59  C   UNL A   1      37.835  32.550  31.845  1.00  0.00     0.037 A 
ATOM     60  C   UNL A   1      43.181  29.463  35.116  1.00  0.00     0.037 A 
ATOM     61  C   UNL A   1      38.102  33.032  33.181  1.00  0.00     0.049 A 
ATOM     62  C   UNL A   1      42.400  30.572  35.766  1.00  0.00     0.074 A 
ATOM     63  C   UNL A   1      37.416  33.999  33.899  1.00  0.00     0.029 A 
ATOM     64  N   UNL A   1      39.125  32.584  34.005  1.00  0.00    -0.354 N 
ATOM     65  N   UNL A   1      41.369  31.235  35.301  1.00  0.00    -0.248 NA
ATOM     66  C   UNL A   1      42.825  30.982  37.111  1.00  0.00     0.031 C 
ATOM     67  C   UNL A   1      38.051  34.168  35.134  1.00  0.00     0.029 A 
ATOM     68  C   UNL A   1      39.101  33.269  35.212  1.00  0.00     0.049 A 
ATOM     69  H   UNL A   1      39.774  31.882  33.767  1.00  0.00     0.167 HD
ATOM     70  C   UNL A   1      41.010  32.128  36.305  1.00  0.00     0.074 A 
ATOM     71  C   UNL A   1      41.920  31.906  37.408  1.00  0.00     0.031 C 
ATOM     72  C   UNL A   1      40.015  33.051  36.307  1.00  0.00     0.037 A 
BRANCH  59  73
ATOM     73  C   UNL A   1      36.698  33.188  31.087  1.00  0.00     0.058 A 
ATOM     74  C   UNL A   1      35.362  33.006  31.477  1.00  0.00     0.135 A 
ATOM     75  C   UNL A   1      36.950  34.067  30.019  1.00  0.00     0.135 A 
ATOM     76  F   UNL A   1      35.061  32.175  32.487  1.00  0.00    -0.206 F 
ATOM     77  C   UNL A   1      34.317  33.652  30.825  1.00  0.00     0.059 A 
ATOM     78  C   UNL A   1      35.921  34.747  29.371  1.00  0.00     0.059 A 
ATOM     79  F   UNL A   1      38.208  34.286  29.606  1.00  0.00    -0.206 F 
ATOM     80  C   UNL A   1      34.606  34.526  29.776  1.00  0.00     0.060 A 
BRANCH  80  81
ATOM     81  S   UNL A   1      33.238  35.380  28.963  1.00  0.00     0.124 S 
ATOM     82  O   UNL A   1      32.486  35.884  30.108  1.00  0.00    -0.237 OA
ATOM     83  O   UNL A   1      33.931  36.387  28.167  1.00  0.00    -0.237 OA
ATOM     84  O   UNL A   1      32.581  34.324  28.199  1.00  0.00    -0.744 OA
ENDBRANCH  80  81
ENDBRANCH  59  73
BRANCH  60  85
ATOM     85  C   UNL A   1      44.300  28.795  35.831  1.00  0.00     0.058 A 
ATOM     86  C   UNL A   1      45.617  29.258  35.697  1.00  0.00     0.135 A 
ATOM     87  C   UNL A   1      44.072  27.708  36.688  1.00  0.00     0.135 A 
ATOM     88  F   UNL A   1      45.886  30.291  34.884  1.00  0.00    -0.206 F 
ATOM     89  C   UNL A   1      46.671  28.662  36.381  1.00  0.00     0.059 A 
ATOM     90  C   UNL A   1      45.105  27.112  37.404  1.00  0.00     0.059 A 
ATOM     91  F   UNL A   1      42.826  27.238  36.861  1.00  0.00    -0.206 F 
ATOM     92  C   UNL A   1      46.403  27.594  37.239  1.00  0.00     0.060 A 
BRANCH  92  93
ATOM     93  S   UNL A   1      47.772  26.870  38.166  1.00  0.00     0.124 S 
ATOM     94  O   UNL A   1      47.705  25.474  37.749  1.00  0.00    -0.237 OA
ATOM     95  O   UNL A   1      48.912  27.633  37.669  1.00  0.00    -0.237 OA
ATOM     96  O   UNL A   1      47.411  27.129  39.557  1.00  0.00    -0.744 OA
ENDBRANCH  92  93
ENDBRANCH  60  85
BRANCH  72  97
ATOM     97  C   UNL A   1      39.847  33.888  37.549  1.00  0.00     0.058 A 
ATOM     98  C   UNL A   1      40.531  35.102  37.717  1.00  0.00     0.135 A 
ATOM     99  C   UNL A   1      38.960  33.494  38.564  1.00  0.00     0.135 A 
ATOM    100  F   UNL A   1      41.397  35.525  36.781  1.00  0.00    -0.206 F 
ATOM    101  C   UNL A   1      40.363  35.882  38.857  1.00  0.00     0.059 A 
ATOM    102  C   UNL A   1      38.754  34.272  39.700  1.00  0.00     0.059 A 
ATOM    103  F   UNL A   1      38.272  32.346  38.454  1.00  0.00    -0.206 F 
ATOM    104  C   UNL A   1      39.469  35.460  39.842  1.00  0.00     0.060 A 
BRANCH 104 105
ATOM    105  S   UNL A   1      39.245  36.497  41.304  1.00  0.00     0.124 S 
ATOM    106  O   UNL A   1      38.728  37.729  40.715  1.00  0.00    -0.237 OA
ATOM    107  O   UNL A   1      38.291  35.722  42.091  1.00  0.00    -0.237 OA
ATOM    108  O   UNL A   1      40.588  36.588  41.868  1.00  0.00    -0.744 OA
ENDBRANCH 104 105
ENDBRANCH  72  97
ENDBRANCH  46  47
ENDBRANCH  39  41
ENDBRANCH  38  39
ENDBRANCH  37  38
ENDBRANCH  36  37
ENDBRANCH  35  36
ENDBRANCH  34  35
ENDBRANCH   1  34
TORSDOF 25
ENDMDL
MODEL 2
REMARK VINA RESULT:     -10.9      0.987      7.858
REMARK SMILES O=C(Cn1nc(-c2ccc(Br)cc2)ccc1=O)N[C@H](C(=O)OCCOCCOCCOC(=O)c1ccc(-c2c3nc(c(-c4c(F)cc(S(=O)(=O)[O-])cc4F)c4ccc([nH]4)c(-c4c(F)cc(S(=O)(=O)[O-])cc4F)c4nc(c(-c5c(F)cc(S(=O)(=O)[O-])cc5F)c5ccc2[nH]5)C=C4)C=C3)cc1)c1ccccc1
REMARK SMILES IDX 26 1 25 2 24 3 23 4 22 5 20 6 21 7 19 8 18 9 1 10 2 11 3 13
REMARK SMILES IDX 4 14 5 15 16 16 6 17 15 18 17 19 14 20 7 21 8 22 13 23 9 24
REMARK SMILES IDX 12 25 10 26 11 27 100 28 101 29 105 30 102 31 104 32 103 33
REMARK SMILES IDX 27 34 28 35 29 36 30 37 31 38 32 39 33 40 34 41 35 42 99 43
REMARK SMILES IDX 36 44 98 45 37 46 38 47 39 48 92 49 40 50 97 51 91 52 93 53
REMARK SMILES IDX 41 54 96 55 90 56 89 57 42 59 76 60 55 61 75 62 56 63 59 64
REMARK SMILES IDX 74 65 94 66 57 67 58 68 73 70 95 71 60 72 43 73 44 74 53 75
REMARK SMILES IDX 45 76 46 77 52 78 54 79 47 80 48 81 49 82 50 83 51 84 77 85
REMARK SMILES IDX 78 86 87 87 79 88 80 89 86 90 88 91 81 92 82 93 83 94 84 95
REMARK SMILES IDX 85 96 61 97 62 98 71 99 63 100 64 101 70 102 72 103 65 104
REMARK SMILES IDX 66 105 67 106 68 107 69 108
REMARK H PARENT 18 12 93 58 59 69
REMARK Flexibility Score: inf
ROOT
ATOM      1  C   UNL A   1      39.366  22.167  26.087  1.00  0.00     0.188 C 
ENDROOT
BRANCH   1   2
ATOM      2  O   UNL A   1      38.510  23.295  26.121  1.00  0.00    -0.376 OA
BRANCH   2   3
ATOM      3  C   UNL A   1      37.272  23.170  25.436  1.00  0.00     0.202 C 
BRANCH   3   4
ATOM      4  C   UNL A   1      36.353  22.068  25.982  1.00  0.00     0.261 C 
BRANCH   4   5
ATOM      5  O   UNL A   1      35.124  21.867  25.271  1.00  0.00    -0.461 OA
BRANCH   5   6
ATOM      6  C   UNL A   1      34.070  21.345  25.978  1.00  0.00     0.333 C 
ATOM      7  O   UNL A   1      33.886  21.552  27.170  1.00  0.00    -0.249 OA
BRANCH   6   8
ATOM      8  C   UNL A   1      33.068  20.713  24.980  1.00  0.00     0.223 C 
BRANCH   8   9
ATOM      9  N   UNL A   1      32.477  21.664  24.046  1.00  0.00    -0.337 N 
ATOM     10  O   UNL A   1      31.010  22.584  25.549  1.00  0.00    -0.273 OA
ATOM     11  C   UNL A   1      31.477  22.542  24.415  1.00  0.00     0.242 C 
ATOM     12  H   UNL A   1      32.804  21.682  23.117  1.00  0.00     0.164 HD
BRANCH  11  13
ATOM     13  C   UNL A   1      31.019  23.474  23.298  1.00  0.00     0.248 C 
BRANCH  13  14
ATOM     14  N   UNL A   1      31.996  24.546  23.244  1.00  0.00    -0.220 N 
ATOM     15  N   UNL A   1      31.722  25.647  24.025  1.00  0.00    -0.169 NA
ATOM     16  C   UNL A   1      33.013  24.486  22.303  1.00  0.00     0.267 A 
ATOM     17  C   UNL A   1      32.403  26.726  23.797  1.00  0.00     0.091 A 
ATOM     18  C   UNL A   1      33.760  25.742  22.088  1.00  0.00     0.075 A 
ATOM     19  O   UNL A   1      33.317  23.491  21.653  1.00  0.00    -0.268 OA
ATOM     20  C   UNL A   1      33.474  26.842  22.787  1.00  0.00     0.036 A 
BRANCH  17  21
ATOM     21  C   UNL A   1      32.049  27.945  24.563  1.00  0.00     0.002 A 
ATOM     22  C   UNL A   1      31.080  28.811  24.045  1.00  0.00     0.011 A 
ATOM     23  C   UNL A   1      32.777  28.306  25.703  1.00  0.00     0.011 A 
ATOM     24  C   UNL A   1      30.839  30.038  24.665  1.00  0.00     0.016 A 
ATOM     25  C   UNL A   1      32.553  29.547  26.305  1.00  0.00     0.016 A 
ATOM     26  C   UNL A   1      31.586  30.406  25.784  1.00  0.00     0.018 A 
ATOM     27  Br  UNL A   1      31.304  32.094  26.583  1.00  0.00    -0.051 Br
ENDBRANCH  17  21
ENDBRANCH  13  14
ENDBRANCH  11  13
ENDBRANCH   8   9
BRANCH   8  28
ATOM     28  C   UNL A   1      33.383  19.314  24.472  1.00  0.00    -0.014 A 
ATOM     29  C   UNL A   1      34.586  18.657  24.750  1.00  0.00     0.006 A 
ATOM     30  C   UNL A   1      32.504  18.701  23.554  1.00  0.00     0.006 A 
ATOM     31  C   UNL A   1      34.890  17.432  24.143  1.00  0.00     0.000 A 
ATOM     32  C   UNL A   1      32.811  17.482  22.951  1.00  0.00     0.000 A 
ATOM     33  C   UNL A   1      34.006  16.845  23.244  1.00  0.00     0.000 A 
ENDBRANCH   8  28
ENDBRANCH   6   8
ENDBRANCH   5   6
ENDBRANCH   4   5
ENDBRANCH   3   4
ENDBRANCH   2   3
ENDBRANCH   1   2
BRANCH   1  34
ATOM     34  C   UNL A   1      40.337  22.094  27.284  1.00  0.00     0.188 C 
BRANCH  34  35
ATOM     35  O   UNL A   1      41.678  21.664  27.102  1.00  0.00    -0.376 OA
BRANCH  35  36
ATOM     36  C   UNL A   1      42.571  22.496  26.380  1.00  0.00     0.202 C 
BRANCH  36  37
ATOM     37  C   UNL A   1      43.245  23.668  27.112  1.00  0.00     0.261 C 
BRANCH  37  38
ATOM     38  O   UNL A   1      43.385  24.885  26.354  1.00  0.00    -0.460 OA
BRANCH  38  39
ATOM     39  C   UNL A   1      42.233  25.514  26.007  1.00  0.00     0.338 C 
ATOM     40  O   UNL A   1      41.544  25.288  25.024  1.00  0.00    -0.246 OA
BRANCH  39  41
ATOM     41  C   UNL A   1      41.804  26.415  27.103  1.00  0.00     0.060 A 
ATOM     42  C   UNL A   1      40.785  26.050  27.983  1.00  0.00     0.016 A 
ATOM     43  C   UNL A   1      42.461  27.645  27.264  1.00  0.00     0.016 A 
ATOM     44  C   UNL A   1      40.447  26.905  29.042  1.00  0.00     0.010 A 
ATOM     45  C   UNL A   1      42.105  28.507  28.307  1.00  0.00     0.010 A 
ATOM     46  C   UNL A   1      41.112  28.132  29.223  1.00  0.00    -0.014 A 
BRANCH  46  47
ATOM     47  C   UNL A   1      40.888  28.930  30.459  1.00  0.00     0.031 A 
ATOM     48  C   UNL A   1      41.728  28.752  31.690  1.00  0.00     0.074 A 
ATOM     49  C   UNL A   1      39.887  29.831  30.459  1.00  0.00     0.049 A 
ATOM     50  N   UNL A   1      41.656  29.383  32.836  1.00  0.00    -0.248 NA
ATOM     51  C   UNL A   1      42.775  27.726  31.635  1.00  0.00     0.031 C 
ATOM     52  C   UNL A   1      38.988  30.082  29.331  1.00  0.00     0.029 A 
ATOM     53  N   UNL A   1      39.465  30.710  31.425  1.00  0.00    -0.354 N 
ATOM     54  C   UNL A   1      42.648  28.837  33.641  1.00  0.00     0.074 A 
ATOM     55  C   UNL A   1      43.280  27.790  32.863  1.00  0.00     0.031 C 
ATOM     56  C   UNL A   1      38.145  31.074  29.655  1.00  0.00     0.029 A 
ATOM     57  C   UNL A   1      38.420  31.508  31.022  1.00  0.00     0.049 A 
ATOM     58  H   UNL A   1      39.871  30.763  32.321  1.00  0.00     0.167 HD
ATOM     59  C   UNL A   1      43.009  29.191  34.901  1.00  0.00     0.037 A 
ATOM     60  C   UNL A   1      37.760  32.485  31.674  1.00  0.00     0.037 A 
ATOM     61  C   UNL A   1      42.389  30.253  35.659  1.00  0.00     0.049 A 
ATOM     62  C   UNL A   1      38.174  32.853  33.072  1.00  0.00     0.074 A 
ATOM     63  C   UNL A   1      42.722  30.716  36.922  1.00  0.00     0.029 A 
ATOM     64  N   UNL A   1      41.317  31.024  35.229  1.00  0.00    -0.354 N 
ATOM     65  N   UNL A   1      39.139  32.351  33.804  1.00  0.00    -0.248 NA
ATOM     66  C   UNL A   1      37.413  33.923  33.730  1.00  0.00     0.031 C 
ATOM     67  C   UNL A   1      41.826  31.730  37.274  1.00  0.00     0.029 A 
ATOM     68  C   UNL A   1      40.965  31.941  36.210  1.00  0.00     0.049 A 
ATOM     69  H   UNL A   1      40.871  30.932  34.356  1.00  0.00     0.167 HD
ATOM     70  C   UNL A   1      39.114  33.059  35.001  1.00  0.00     0.074 A 
ATOM     71  C   UNL A   1      38.051  34.036  34.887  1.00  0.00     0.031 C 
ATOM     72  C   UNL A   1      39.900  32.909  36.096  1.00  0.00     0.037 A 
BRANCH  59  73
ATOM     73  C   UNL A   1      44.141  28.438  35.552  1.00  0.00     0.058 A 
ATOM     74  C   UNL A   1      45.456  28.931  35.538  1.00  0.00     0.135 A 
ATOM     75  C   UNL A   1      43.897  27.260  36.278  1.00  0.00     0.135 A 
ATOM     76  F   UNL A   1      45.750  30.050  34.856  1.00  0.00    -0.206 F 
ATOM     77  C   UNL A   1      46.489  28.277  36.201  1.00  0.00     0.059 A 
ATOM     78  C   UNL A   1      44.910  26.604  36.975  1.00  0.00     0.059 A 
ATOM     79  F   UNL A   1      42.659  26.744  36.334  1.00  0.00    -0.206 F 
ATOM     80  C   UNL A   1      46.206  27.115  36.922  1.00  0.00     0.060 A 
BRANCH  80  81
ATOM     81  S   UNL A   1      47.553  26.298  37.802  1.00  0.00     0.124 S 
ATOM     82  O   UNL A   1      47.074  24.920  37.859  1.00  0.00    -0.237 OA
ATOM     83  O   UNL A   1      48.691  26.537  36.920  1.00  0.00    -0.237 OA
ATOM     84  O   UNL A   1      47.600  26.997  39.083  1.00  0.00    -0.744 OA
ENDBRANCH  80  81
ENDBRANCH  59  73
BRANCH  60  85
ATOM     85  C   UNL A   1      36.660  33.210  30.987  1.00  0.00     0.058 A 
ATOM     86  C   UNL A   1      35.319  32.960  31.314  1.00  0.00     0.135 A 
ATOM     87  C   UNL A   1      36.925  34.191  30.019  1.00  0.00     0.135 A 
ATOM     88  F   UNL A   1      35.016  32.026  32.230  1.00  0.00    -0.206 F 
ATOM     89  C   UNL A   1      34.279  33.649  30.702  1.00  0.00     0.059 A 
ATOM     90  C   UNL A   1      35.904  34.914  29.412  1.00  0.00     0.059 A 
ATOM     91  F   UNL A   1      38.192  34.478  29.683  1.00  0.00    -0.206 F 
ATOM     92  C   UNL A   1      34.583  34.631  29.756  1.00  0.00     0.060 A 
BRANCH  92  93
ATOM     93  S   UNL A   1      33.225  35.560  29.013  1.00  0.00     0.124 S 
ATOM     94  O   UNL A   1      32.470  34.501  28.354  1.00  0.00    -0.237 OA
ATOM     95  O   UNL A   1      32.594  36.162  30.183  1.00  0.00    -0.237 OA
ATOM     96  O   UNL A   1      33.905  36.496  28.124  1.00  0.00    -0.744 OA
ENDBRANCH  92  93
ENDBRANCH  60  85
BRANCH  72  97
ATOM     97  C   UNL A   1      39.652  33.830  37.262  1.00  0.00     0.058 A 
ATOM     98  C   UNL A   1      38.851  33.445  38.349  1.00  0.00     0.135 A 
ATOM     99  C   UNL A   1      40.256  35.098  37.315  1.00  0.00     0.135 A 
ATOM    100  F   UNL A   1      38.243  32.247  38.349  1.00  0.00    -0.206 F 
ATOM    101  C   UNL A   1      38.635  34.291  39.432  1.00  0.00     0.059 A 
ATOM    102  C   UNL A   1      40.078  35.950  38.402  1.00  0.00     0.059 A 
ATOM    103  F   UNL A   1      41.039  35.517  36.308  1.00  0.00    -0.206 F 
ATOM    104  C   UNL A   1      39.256  35.541  39.451  1.00  0.00     0.060 A 
BRANCH 104 105
ATOM    105  S   UNL A   1      38.985  36.617  40.876  1.00  0.00     0.124 S 
ATOM    106  O   UNL A   1      40.313  36.646  41.481  1.00  0.00    -0.237 OA
ATOM    107  O   UNL A   1      38.547  37.860  40.249  1.00  0.00    -0.237 OA
ATOM    108  O   UNL A   1      37.963  35.914  41.645  1.00  0.00    -0.744 OA
ENDBRANCH 104 105
ENDBRANCH  72  97
ENDBRANCH  46  47
ENDBRANCH  39  41
ENDBRANCH  38  39
ENDBRANCH  37  38
ENDBRANCH  36  37
ENDBRANCH  35  36
ENDBRANCH  34  35
ENDBRANCH   1  34
TORSDOF 25
ENDMDL
MODEL 3
REMARK VINA RESULT:     -10.7      6.112     11.909
REMARK SMILES O=C(Cn1nc(-c2ccc(Br)cc2)ccc1=O)N[C@H](C(=O)OCCOCCOCCOC(=O)c1ccc(-c2c3nc(c(-c4c(F)cc(S(=O)(=O)[O-])cc4F)c4ccc([nH]4)c(-c4c(F)cc(S(=O)(=O)[O-])cc4F)c4nc(c(-c5c(F)cc(S(=O)(=O)[O-])cc5F)c5ccc2[nH]5)C=C4)C=C3)cc1)c1ccccc1
REMARK SMILES IDX 26 1 25 2 24 3 23 4 22 5 20 6 21 7 19 8 18 9 1 10 2 11 3 13
REMARK SMILES IDX 4 14 5 15 16 16 6 17 15 18 17 19 14 20 7 21 8 22 13 23 9 24
REMARK SMILES IDX 12 25 10 26 11 27 100 28 101 29 105 30 102 31 104 32 103 33
REMARK SMILES IDX 27 34 28 35 29 36 30 37 31 38 32 39 33 40 34 41 35 42 99 43
REMARK SMILES IDX 36 44 98 45 37 46 38 47 39 48 92 49 40 50 97 51 91 52 93 53
REMARK SMILES IDX 41 54 96 55 90 56 89 57 42 59 76 60 55 61 75 62 56 63 59 64
REMARK SMILES IDX 74 65 94 66 57 67 58 68 73 70 95 71 60 72 43 73 44 74 53 75
REMARK SMILES IDX 45 76 46 77 52 78 54 79 47 80 48 81 49 82 50 83 51 84 77 85
REMARK SMILES IDX 78 86 87 87 79 88 80 89 86 90 88 91 81 92 82 93 83 94 84 95
REMARK SMILES IDX 85 96 61 97 62 98 71 99 63 100 64 101 70 102 72 103 65 104
REMARK SMILES IDX 66 105 67 106 68 107 69 108
REMARK H PARENT 18 12 93 58 59 69
REMARK Flexibility Score: inf
ROOT
ATOM      1  C   UNL A   1      34.544  31.075  28.085  1.00  0.00     0.188 C 
ENDROOT
BRANCH   1   2
ATOM      2  O   UNL A   1      34.109  30.447  26.892  1.00  0.00    -0.376 OA
BRANCH   2   3
ATOM      3  C   UNL A   1      33.085  29.473  27.029  1.00  0.00     0.202 C 
BRANCH   3   4
ATOM      4  C   UNL A   1      33.547  28.027  26.801  1.00  0.00     0.261 C 
BRANCH   4   5
ATOM      5  O   UNL A   1      33.424  27.533  25.460  1.00  0.00    -0.461 OA
BRANCH   5   6
ATOM      6  C   UNL A   1      32.493  26.549  25.239  1.00  0.00     0.333 C 
ATOM      7  O   UNL A   1      31.976  25.894  26.134  1.00  0.00    -0.249 OA
BRANCH   6   8
ATOM      8  C   UNL A   1      32.045  26.614  23.758  1.00  0.00     0.223 C 
BRANCH   8   9
ATOM      9  N   UNL A   1      32.109  25.336  23.058  1.00  0.00    -0.337 N 
ATOM     10  O   UNL A   1      33.618  26.016  21.472  1.00  0.00    -0.273 OA
ATOM     11  C   UNL A   1      32.910  25.137  21.951  1.00  0.00     0.242 C 
ATOM     12  H   UNL A   1      31.563  24.587  23.389  1.00  0.00     0.164 HD
BRANCH  11  13
ATOM     13  C   UNL A   1      32.857  23.721  21.387  1.00  0.00     0.248 C 
BRANCH  13  14
ATOM     14  N   UNL A   1      33.016  22.830  22.522  1.00  0.00    -0.220 N 
ATOM     15  N   UNL A   1      34.097  23.086  23.337  1.00  0.00    -0.169 NA
ATOM     16  C   UNL A   1      32.214  21.703  22.614  1.00  0.00     0.267 A 
ATOM     17  C   UNL A   1      34.439  22.165  24.183  1.00  0.00     0.091 A 
ATOM     18  C   UNL A   1      32.647  20.690  23.598  1.00  0.00     0.075 A 
ATOM     19  O   UNL A   1      31.205  21.496  21.947  1.00  0.00    -0.268 OA
ATOM     20  C   UNL A   1      33.727  20.884  24.358  1.00  0.00     0.036 A 
BRANCH  17  21
ATOM     21  C   UNL A   1      35.659  22.387  24.995  1.00  0.00     0.002 A 
ATOM     22  C   UNL A   1      35.891  23.659  25.532  1.00  0.00     0.011 A 
ATOM     23  C   UNL A   1      36.638  21.392  25.096  1.00  0.00     0.011 A 
ATOM     24  C   UNL A   1      37.103  23.936  26.167  1.00  0.00     0.016 A 
ATOM     25  C   UNL A   1      37.860  21.681  25.709  1.00  0.00     0.016 A 
ATOM     26  C   UNL A   1      38.086  22.950  26.241  1.00  0.00     0.018 A 
ATOM     27  Br  UNL A   1      39.749  23.346  27.045  1.00  0.00    -0.051 Br
ENDBRANCH  17  21
ENDBRANCH  13  14
ENDBRANCH  11  13
ENDBRANCH   8   9
BRANCH   8  28
ATOM     28  C   UNL A   1      30.900  27.557  23.419  1.00  0.00    -0.014 A 
ATOM     29  C   UNL A   1      29.558  27.238  23.652  1.00  0.00     0.006 A 
ATOM     30  C   UNL A   1      31.172  28.739  22.698  1.00  0.00     0.006 A 
ATOM     31  C   UNL A   1      28.533  28.075  23.193  1.00  0.00     0.000 A 
ATOM     32  C   UNL A   1      30.147  29.568  22.242  1.00  0.00     0.000 A 
ATOM     33  C   UNL A   1      28.826  29.236  22.488  1.00  0.00     0.000 A 
ENDBRANCH   8  28
ENDBRANCH   6   8
ENDBRANCH   5   6
ENDBRANCH   4   5
ENDBRANCH   3   4
ENDBRANCH   2   3
ENDBRANCH   1   2
BRANCH   1  34
ATOM     34  C   UNL A   1      35.178  32.462  27.855  1.00  0.00     0.188 C 
BRANCH  34  35
ATOM     35  O   UNL A   1      35.036  33.492  28.822  1.00  0.00    -0.376 OA
BRANCH  35  36
ATOM     36  C   UNL A   1      36.161  33.859  29.603  1.00  0.00     0.202 C 
BRANCH  36  37
ATOM     37  C   UNL A   1      36.180  33.483  31.094  1.00  0.00     0.261 C 
BRANCH  37  38
ATOM     38  O   UNL A   1      37.224  32.579  31.501  1.00  0.00    -0.460 OA
BRANCH  38  39
ATOM     39  C   UNL A   1      37.009  31.261  31.251  1.00  0.00     0.338 C 
ATOM     40  O   UNL A   1      35.945  30.666  31.324  1.00  0.00    -0.246 OA
BRANCH  39  41
ATOM     41  C   UNL A   1      38.236  30.652  30.683  1.00  0.00     0.060 A 
ATOM     42  C   UNL A   1      38.456  30.617  29.306  1.00  0.00     0.016 A 
ATOM     43  C   UNL A   1      39.200  30.128  31.559  1.00  0.00     0.016 A 
ATOM     44  C   UNL A   1      39.655  30.085  28.811  1.00  0.00     0.010 A 
ATOM     45  C   UNL A   1      40.385  29.576  31.061  1.00  0.00     0.010 A 
ATOM     46  C   UNL A   1      40.635  29.573  29.682  1.00  0.00    -0.014 A 
BRANCH  46  47
ATOM     47  C   UNL A   1      41.979  29.203  29.161  1.00  0.00     0.031 A 
ATOM     48  C   UNL A   1      42.285  27.830  28.638  1.00  0.00     0.074 A 
ATOM     49  C   UNL A   1      42.945  30.141  29.175  1.00  0.00     0.049 A 
ATOM     50  N   UNL A   1      43.406  27.366  28.144  1.00  0.00    -0.248 NA
ATOM     51  C   UNL A   1      41.199  26.845  28.689  1.00  0.00     0.031 C 
ATOM     52  C   UNL A   1      42.776  31.507  29.676  1.00  0.00     0.029 A 
ATOM     53  N   UNL A   1      44.248  30.101  28.747  1.00  0.00    -0.354 N 
ATOM     54  C   UNL A   1      43.165  26.037  27.819  1.00  0.00     0.074 A 
ATOM     55  C   UNL A   1      41.798  25.757  28.216  1.00  0.00     0.031 C 
ATOM     56  C   UNL A   1      43.920  32.184  29.494  1.00  0.00     0.029 A 
ATOM     57  C   UNL A   1      44.912  31.296  28.895  1.00  0.00     0.049 A 
ATOM     58  H   UNL A   1      44.668  29.293  28.371  1.00  0.00     0.167 HD
ATOM     59  C   UNL A   1      43.997  25.143  27.227  1.00  0.00     0.037 A 
ATOM     60  C   UNL A   1      46.174  31.644  28.577  1.00  0.00     0.037 A 
ATOM     61  C   UNL A   1      45.350  25.440  26.812  1.00  0.00     0.049 A 
ATOM     62  C   UNL A   1      47.081  30.633  27.930  1.00  0.00     0.074 A 
ATOM     63  C   UNL A   1      46.250  24.613  26.160  1.00  0.00     0.029 A 
ATOM     64  N   UNL A   1      45.998  26.653  27.000  1.00  0.00    -0.354 N 
ATOM     65  N   UNL A   1      46.823  29.391  27.595  1.00  0.00    -0.248 NA
ATOM     66  C   UNL A   1      48.445  31.073  27.612  1.00  0.00     0.031 C 
ATOM     67  C   UNL A   1      47.453  25.307  25.995  1.00  0.00     0.029 A 
ATOM     68  C   UNL A   1      47.290  26.587  26.496  1.00  0.00     0.049 A 
ATOM     69  H   UNL A   1      45.599  27.445  27.430  1.00  0.00     0.167 HD
ATOM     70  C   UNL A   1      47.988  28.908  27.009  1.00  0.00     0.074 A 
ATOM     71  C   UNL A   1      48.943  29.997  27.017  1.00  0.00     0.031 C 
ATOM     72  C   UNL A   1      48.242  27.672  26.512  1.00  0.00     0.037 A 
BRANCH  59  73
ATOM     73  C   UNL A   1      43.478  23.752  26.970  1.00  0.00     0.058 A 
ATOM     74  C   UNL A   1      43.138  23.321  25.677  1.00  0.00     0.135 A 
ATOM     75  C   UNL A   1      43.408  22.808  28.009  1.00  0.00     0.135 A 
ATOM     76  F   UNL A   1      43.181  24.181  24.646  1.00  0.00    -0.206 F 
ATOM     77  C   UNL A   1      42.729  22.016  25.426  1.00  0.00     0.059 A 
ATOM     78  C   UNL A   1      43.029  21.487  27.776  1.00  0.00     0.059 A 
ATOM     79  F   UNL A   1      43.727  23.159  29.265  1.00  0.00    -0.206 F 
ATOM     80  C   UNL A   1      42.682  21.103  26.481  1.00  0.00     0.060 A 
BRANCH  80  81
ATOM     81  S   UNL A   1      42.180  19.405  26.130  1.00  0.00     0.124 S 
ATOM     82  O   UNL A   1      42.501  18.738  27.388  1.00  0.00    -0.237 OA
ATOM     83  O   UNL A   1      40.758  19.557  25.838  1.00  0.00    -0.237 OA
ATOM     84  O   UNL A   1      43.013  19.030  24.992  1.00  0.00    -0.744 OA
ENDBRANCH  80  81
ENDBRANCH  59  73
BRANCH  60  85
ATOM     85  C   UNL A   1      46.638  33.032  28.835  1.00  0.00     0.058 A 
ATOM     86  C   UNL A   1      46.464  34.039  27.875  1.00  0.00     0.135 A 
ATOM     87  C   UNL A   1      47.230  33.387  30.057  1.00  0.00     0.135 A 
ATOM     88  F   UNL A   1      45.908  33.746  26.689  1.00  0.00    -0.206 F 
ATOM     89  C   UNL A   1      46.866  35.348  28.112  1.00  0.00     0.059 A 
ATOM     90  C   UNL A   1      47.616  34.695  30.329  1.00  0.00     0.059 A 
ATOM     91  F   UNL A   1      47.405  32.462  31.014  1.00  0.00    -0.206 F 
ATOM     92  C   UNL A   1      47.435  35.668  29.347  1.00  0.00     0.060 A 
BRANCH  92  93
ATOM     93  S   UNL A   1      47.897  37.385  29.663  1.00  0.00     0.124 S 
ATOM     94  O   UNL A   1      46.845  38.107  28.959  1.00  0.00    -0.237 OA
ATOM     95  O   UNL A   1      47.852  37.447  31.120  1.00  0.00    -0.237 OA
ATOM     96  O   UNL A   1      49.231  37.487  29.079  1.00  0.00    -0.744 OA
ENDBRANCH  92  93
ENDBRANCH  60  85
BRANCH  72  97
ATOM     97  C   UNL A   1      49.606  27.427  25.921  1.00  0.00     0.058 A 
ATOM     98  C   UNL A   1      50.704  27.078  26.723  1.00  0.00     0.135 A 
ATOM     99  C   UNL A   1      49.809  27.498  24.533  1.00  0.00     0.135 A 
ATOM    100  F   UNL A   1      50.569  27.001  28.057  1.00  0.00    -0.206 F 
ATOM    101  C   UNL A   1      51.960  26.837  26.174  1.00  0.00     0.059 A 
ATOM    102  C   UNL A   1      51.050  27.233  23.959  1.00  0.00     0.059 A 
ATOM    103  F   UNL A   1      48.793  27.818  23.716  1.00  0.00    -0.206 F 
ATOM    104  C   UNL A   1      52.122  26.913  24.790  1.00  0.00     0.060 A 
BRANCH 104 105
ATOM    105  S   UNL A   1      53.753  26.572  24.093  1.00  0.00     0.124 S 
ATOM    106  O   UNL A   1      54.166  27.899  23.645  1.00  0.00    -0.237 OA
ATOM    107  O   UNL A   1      54.477  26.038  25.242  1.00  0.00    -0.237 OA
ATOM    108  O   UNL A   1      53.476  25.611  23.030  1.00  0.00    -0.744 OA
ENDBRANCH 104 105
ENDBRANCH  72  97
ENDBRANCH  46  47
ENDBRANCH  39  41
ENDBRANCH  38  39
ENDBRANCH  37  38
ENDBRANCH  36  37
ENDBRANCH  35  36
ENDBRANCH  34  35
ENDBRANCH   1  34
TORSDOF 25
ENDMDL
