MODEL 1
REMARK VINA RESULT:      -9.6      0.000      0.000
REMARK SMILES COc1ccc(/C=C(\NC(=O)c2ccccc2Br)C(=O)OCCOCCOCCOC(=O)c2ccc(-c3c4nc(c(-c5c(F)cc(S(=O)(=O)[O-])cc5F)c5ccc([nH]5)c(-c5c(F)cc(S(=O)(=O)[O-])cc5F)c5nc(c(-c6c(F)cc(S(=O)(=O)[O-])cc6F)c6ccc3[nH]6)C=C5)C=C4)cc2)cc1
REMARK SMILES IDX 26 1 25 2 24 3 23 4 22 5 21 6 19 7 20 8 8 9 7 10 6 11 3 12
REMARK SMILES IDX 4 13 100 14 5 15 99 16 2 17 1 18 9 19 10 20 11 22 12 23
REMARK SMILES IDX 13 24 17 25 14 26 16 27 18 28 15 29 27 30 28 31 29 32 30 33
REMARK SMILES IDX 31 34 32 35 33 36 34 37 98 38 35 39 97 40 36 41 37 42 38 43
REMARK SMILES IDX 91 44 39 45 96 46 90 47 92 48 40 49 95 50 89 51 88 52 41 54
REMARK SMILES IDX 75 55 54 56 74 57 55 58 58 59 73 60 93 61 56 62 57 63 72 65
REMARK SMILES IDX 94 66 59 67 42 68 43 69 52 70 44 71 45 72 51 73 53 74 46 75
REMARK SMILES IDX 47 76 48 77 49 78 50 79 76 80 77 81 86 82 78 83 79 84 85 85
REMARK SMILES IDX 87 86 80 87 81 88 82 89 83 90 84 91 60 92 61 93 70 94 62 95
REMARK SMILES IDX 63 96 69 97 71 98 64 99 65 100 66 101 67 102 68 103
REMARK H PARENT 9 21 92 53 58 64
REMARK Flexibility Score: inf
ROOT
ATOM      1  C   UNL A   1      35.421  32.550  27.997  1.00  0.00     0.188 C 
ENDROOT
BRANCH   1   2
ATOM      2  C   UNL A   1      34.803  31.193  27.601  1.00  0.00     0.188 C 
BRANCH   2   3
ATOM      3  O   UNL A   1      33.391  31.103  27.443  1.00  0.00    -0.376 OA
BRANCH   3   4
ATOM      4  C   UNL A   1      32.831  29.832  27.125  1.00  0.00     0.202 C 
BRANCH   4   5
ATOM      5  C   UNL A   1      33.797  28.646  27.116  1.00  0.00     0.261 C 
BRANCH   5   6
ATOM      6  O   UNL A   1      33.166  27.465  26.585  1.00  0.00    -0.459 OA
BRANCH   6   7
ATOM      7  C   UNL A   1      33.807  26.865  25.553  1.00  0.00     0.354 C 
ATOM      8  O   UNL A   1      34.352  27.447  24.627  1.00  0.00    -0.244 OA
BRANCH   7   9
ATOM      9  C   UNL A   1      33.910  25.383  25.779  1.00  0.00     0.128 C 
ATOM     10  C   UNL A   1      35.036  24.848  25.247  1.00  0.00     0.042 C 
BRANCH  10  11
ATOM     11  C   UNL A   1      35.524  23.449  25.223  1.00  0.00    -0.023 A 
ATOM     12  C   UNL A   1      36.572  20.819  25.042  1.00  0.00     0.118 A 
ATOM     13  C   UNL A   1      35.199  21.037  25.144  1.00  0.00     0.047 A 
ATOM     14  C   UNL A   1      37.425  21.919  24.999  1.00  0.00     0.047 A 
ATOM     15  C   UNL A   1      34.677  22.335  25.210  1.00  0.00     0.012 A 
ATOM     16  C   UNL A   1      36.904  23.220  25.092  1.00  0.00     0.012 A 
BRANCH  12  17
ATOM     17  O   UNL A   1      36.938  19.505  24.956  1.00  0.00    -0.497 OA
ATOM     18  C   UNL A   1      35.904  18.567  24.685  1.00  0.00     0.278 C 
ENDBRANCH  12  17
ENDBRANCH  10  11
BRANCH   9  19
ATOM     19  N   UNL A   1      33.003  24.618  26.484  1.00  0.00    -0.316 N 
ATOM     20  C   UNL A   1      31.684  24.263  26.357  1.00  0.00     0.257 C 
ATOM     21  H   UNL A   1      33.409  24.224  27.290  1.00  0.00     0.170 HD
ATOM     22  O   UNL A   1      31.203  23.489  27.188  1.00  0.00    -0.269 OA
BRANCH  20  23
ATOM     23  C   UNL A   1      30.772  24.805  25.344  1.00  0.00     0.054 A 
ATOM     24  C   UNL A   1      29.777  25.670  25.834  1.00  0.00     0.015 A 
ATOM     25  C   UNL A   1      30.773  24.443  23.996  1.00  0.00     0.030 A 
ATOM     26  C   UNL A   1      28.836  26.227  24.971  1.00  0.00     0.001 A 
ATOM     27  C   UNL A   1      29.845  25.031  23.127  1.00  0.00     0.016 A 
ATOM     28  Br  UNL A   1      31.941  23.131  23.281  1.00  0.00    -0.050 Br
ATOM     29  C   UNL A   1      28.884  25.924  23.613  1.00  0.00     0.001 A 
ENDBRANCH  20  23
ENDBRANCH   9  19
ENDBRANCH   7   9
ENDBRANCH   6   7
ENDBRANCH   5   6
ENDBRANCH   4   5
ENDBRANCH   3   4
ENDBRANCH   2   3
ENDBRANCH   1   2
BRANCH   1  30
ATOM     30  O   UNL A   1      34.634  33.331  28.888  1.00  0.00    -0.376 OA
BRANCH  30  31
ATOM     31  C   UNL A   1      34.566  32.835  30.221  1.00  0.00     0.202 C 
BRANCH  31  32
ATOM     32  C   UNL A   1      35.937  32.723  30.899  1.00  0.00     0.261 C 
BRANCH  32  33
ATOM     33  O   UNL A   1      36.558  31.433  30.779  1.00  0.00    -0.460 OA
BRANCH  33  34
ATOM     34  C   UNL A   1      37.433  31.081  31.750  1.00  0.00     0.338 C 
ATOM     35  O   UNL A   1      37.203  30.999  32.944  1.00  0.00    -0.246 OA
BRANCH  34  36
ATOM     36  C   UNL A   1      38.662  30.587  31.091  1.00  0.00     0.060 A 
ATOM     37  C   UNL A   1      39.649  29.983  31.881  1.00  0.00     0.016 A 
ATOM     38  C   UNL A   1      38.815  30.660  29.702  1.00  0.00     0.016 A 
ATOM     39  C   UNL A   1      40.802  29.469  31.283  1.00  0.00     0.010 A 
ATOM     40  C   UNL A   1      39.978  30.162  29.108  1.00  0.00     0.010 A 
ATOM     41  C   UNL A   1      40.988  29.588  29.897  1.00  0.00    -0.014 A 
BRANCH  41  42
ATOM     42  C   UNL A   1      42.319  29.297  29.311  1.00  0.00     0.031 A 
ATOM     43  C   UNL A   1      42.580  27.901  28.811  1.00  0.00     0.074 A 
ATOM     44  C   UNL A   1      43.266  30.247  29.195  1.00  0.00     0.049 A 
ATOM     45  N   UNL A   1      43.648  27.411  28.237  1.00  0.00    -0.248 NA
ATOM     46  C   UNL A   1      41.486  26.929  28.978  1.00  0.00     0.031 C 
ATOM     47  C   UNL A   1      43.137  31.636  29.630  1.00  0.00     0.029 A 
ATOM     48  N   UNL A   1      44.534  30.176  28.673  1.00  0.00    -0.354 N 
ATOM     49  C   UNL A   1      43.344  26.086  27.949  1.00  0.00     0.074 A 
ATOM     50  C   UNL A   1      42.013  25.833  28.454  1.00  0.00     0.031 C 
ATOM     51  C   UNL A   1      44.287  32.286  29.366  1.00  0.00     0.029 A 
ATOM     52  C   UNL A   1      45.236  31.355  28.755  1.00  0.00     0.049 A 
ATOM     53  H   UNL A   1      44.907  29.356  28.275  1.00  0.00     0.167 HD
ATOM     54  C   UNL A   1      44.097  25.165  27.303  1.00  0.00     0.037 A 
ATOM     55  C   UNL A   1      46.502  31.642  28.387  1.00  0.00     0.037 A 
ATOM     56  C   UNL A   1      45.433  25.400  26.826  1.00  0.00     0.049 A 
ATOM     57  C   UNL A   1      47.350  30.571  27.742  1.00  0.00     0.074 A 
ATOM     58  C   UNL A   1      46.283  24.519  26.180  1.00  0.00     0.029 A 
ATOM     59  N   UNL A   1      46.115  26.600  26.948  1.00  0.00    -0.354 N 
ATOM     60  N   UNL A   1      47.035  29.333  27.444  1.00  0.00    -0.248 NA
ATOM     61  C   UNL A   1      48.725  30.943  27.374  1.00  0.00     0.031 C 
ATOM     62  C   UNL A   1      47.493  25.179  25.938  1.00  0.00     0.029 A 
ATOM     63  C   UNL A   1      47.379  26.481  26.396  1.00  0.00     0.049 A 
ATOM     64  H   UNL A   1      45.754  27.416  27.364  1.00  0.00     0.167 HD
ATOM     65  C   UNL A   1      48.160  28.793  26.826  1.00  0.00     0.074 A 
ATOM     66  C   UNL A   1      49.157  29.840  26.780  1.00  0.00     0.031 C 
ATOM     67  C   UNL A   1      48.353  27.541  26.341  1.00  0.00     0.037 A 
BRANCH  54  68
ATOM     68  C   UNL A   1      43.485  23.816  27.068  1.00  0.00     0.058 A 
ATOM     69  C   UNL A   1      43.425  22.859  28.094  1.00  0.00     0.135 A 
ATOM     70  C   UNL A   1      42.915  23.489  25.828  1.00  0.00     0.135 A 
ATOM     71  F   UNL A   1      43.979  23.114  29.289  1.00  0.00    -0.206 F 
ATOM     72  C   UNL A   1      42.826  21.621  27.897  1.00  0.00     0.059 A 
ATOM     73  C   UNL A   1      42.290  22.264  25.615  1.00  0.00     0.059 A 
ATOM     74  F   UNL A   1      42.956  24.366  24.813  1.00  0.00    -0.206 F 
ATOM     75  C   UNL A   1      42.257  21.334  26.653  1.00  0.00     0.060 A 
BRANCH  75  76
ATOM     76  S   UNL A   1      41.454  19.733  26.426  1.00  0.00     0.124 S 
ATOM     77  O   UNL A   1      42.225  19.177  25.318  1.00  0.00    -0.237 OA
ATOM     78  O   UNL A   1      41.658  19.095  27.722  1.00  0.00    -0.237 OA
ATOM     79  O   UNL A   1      40.073  20.088  26.114  1.00  0.00    -0.744 OA
ENDBRANCH  75  76
ENDBRANCH  54  68
BRANCH  55  80
ATOM     80  C   UNL A   1      47.074  32.997  28.620  1.00  0.00     0.058 A 
ATOM     81  C   UNL A   1      47.669  33.334  29.846  1.00  0.00     0.135 A 
ATOM     82  C   UNL A   1      46.965  34.005  27.649  1.00  0.00     0.135 A 
ATOM     83  F   UNL A   1      47.784  32.408  30.810  1.00  0.00    -0.206 F 
ATOM     84  C   UNL A   1      48.096  34.629  30.118  1.00  0.00     0.059 A 
ATOM     85  C   UNL A   1      47.410  35.302  27.888  1.00  0.00     0.059 A 
ATOM     86  F   UNL A   1      46.414  33.732  26.456  1.00  0.00    -0.206 F 
ATOM     87  C   UNL A   1      47.953  35.610  29.135  1.00  0.00     0.060 A 
BRANCH  87  88
ATOM     88  S   UNL A   1      48.497  37.294  29.496  1.00  0.00     0.124 S 
ATOM     89  O   UNL A   1      49.717  37.049  30.256  1.00  0.00    -0.237 OA
ATOM     90  O   UNL A   1      48.678  37.855  28.161  1.00  0.00    -0.237 OA
ATOM     91  O   UNL A   1      47.380  37.849  30.255  1.00  0.00    -0.744 OA
ENDBRANCH  87  88
ENDBRANCH  55  80
BRANCH  67  92
ATOM     92  C   UNL A   1      49.670  27.249  25.675  1.00  0.00     0.058 A 
ATOM     93  C   UNL A   1      49.855  27.425  24.295  1.00  0.00     0.135 A 
ATOM     94  C   UNL A   1      50.771  26.821  26.435  1.00  0.00     0.135 A 
ATOM     95  F   UNL A   1      48.835  27.830  23.523  1.00  0.00    -0.206 F 
ATOM     96  C   UNL A   1      51.078  27.155  23.686  1.00  0.00     0.059 A 
ATOM     97  C   UNL A   1      52.009  26.572  25.852  1.00  0.00     0.059 A 
ATOM     98  F   UNL A   1      50.652  26.651  27.762  1.00  0.00    -0.206 F 
ATOM     99  C   UNL A   1      52.148  26.725  24.473  1.00  0.00     0.060 A 
BRANCH  99 100
ATOM    100  S   UNL A   1      53.733  26.391  23.676  1.00  0.00     0.124 S 
ATOM    101  O   UNL A   1      54.262  25.320  24.513  1.00  0.00    -0.237 OA
ATOM    102  O   UNL A   1      53.332  26.002  22.328  1.00  0.00    -0.237 OA
ATOM    103  O   UNL A   1      54.435  27.667  23.770  1.00  0.00    -0.744 OA
ENDBRANCH  99 100
ENDBRANCH  67  92
ENDBRANCH  41  42
ENDBRANCH  34  36
ENDBRANCH  33  34
ENDBRANCH  32  33
ENDBRANCH  31  32
ENDBRANCH  30  31
ENDBRANCH   1  30
TORSDOF 24
ENDMDL
MODEL 2
REMARK VINA RESULT:      -8.9     10.958     17.546
REMARK SMILES COc1ccc(/C=C(\NC(=O)c2ccccc2Br)C(=O)OCCOCCOCCOC(=O)c2ccc(-c3c4nc(c(-c5c(F)cc(S(=O)(=O)[O-])cc5F)c5ccc([nH]5)c(-c5c(F)cc(S(=O)(=O)[O-])cc5F)c5nc(c(-c6c(F)cc(S(=O)(=O)[O-])cc6F)c6ccc3[nH]6)C=C5)C=C4)cc2)cc1
REMARK SMILES IDX 26 1 25 2 24 3 23 4 22 5 21 6 19 7 20 8 8 9 7 10 6 11 3 12
REMARK SMILES IDX 4 13 100 14 5 15 99 16 2 17 1 18 9 19 10 20 11 22 12 23
REMARK SMILES IDX 13 24 17 25 14 26 16 27 18 28 15 29 27 30 28 31 29 32 30 33
REMARK SMILES IDX 31 34 32 35 33 36 34 37 98 38 35 39 97 40 36 41 37 42 38 43
REMARK SMILES IDX 91 44 39 45 96 46 90 47 92 48 40 49 95 50 89 51 88 52 41 54
REMARK SMILES IDX 75 55 54 56 74 57 55 58 58 59 73 60 93 61 56 62 57 63 72 65
REMARK SMILES IDX 94 66 59 67 42 68 43 69 52 70 44 71 45 72 51 73 53 74 46 75
REMARK SMILES IDX 47 76 48 77 49 78 50 79 76 80 77 81 86 82 78 83 79 84 85 85
REMARK SMILES IDX 87 86 80 87 81 88 82 89 83 90 84 91 60 92 61 93 70 94 62 95
REMARK SMILES IDX 63 96 69 97 71 98 64 99 65 100 66 101 67 102 68 103
REMARK H PARENT 9 21 92 53 58 64
REMARK Flexibility Score: inf
ROOT
ATOM      1  C   UNL A   1      46.427  21.656  39.457  1.00  0.00     0.188 C 
ENDROOT
BRANCH   1   2
ATOM      2  C   UNL A   1      46.668  20.297  40.147  1.00  0.00     0.188 C 
BRANCH   2   3
ATOM      3  O   UNL A   1      45.557  19.605  40.705  1.00  0.00    -0.376 OA
BRANCH   3   4
ATOM      4  C   UNL A   1      45.336  19.710  42.109  1.00  0.00     0.202 C 
BRANCH   4   5
ATOM      5  C   UNL A   1      43.921  20.091  42.549  1.00  0.00     0.261 C 
BRANCH   5   6
ATOM      6  O   UNL A   1      43.400  19.146  43.502  1.00  0.00    -0.459 OA
BRANCH   6   7
ATOM      7  C   UNL A   1      44.320  18.385  44.143  1.00  0.00     0.354 C 
ATOM      8  O   UNL A   1      44.988  18.743  45.101  1.00  0.00    -0.244 OA
BRANCH   7   9
ATOM      9  C   UNL A   1      44.297  16.973  43.626  1.00  0.00     0.128 C 
ATOM     10  C   UNL A   1      43.232  16.267  44.081  1.00  0.00     0.042 C 
BRANCH  10  11
ATOM     11  C   UNL A   1      42.832  14.861  43.840  1.00  0.00    -0.023 A 
ATOM     12  C   UNL A   1      42.235  12.137  43.317  1.00  0.00     0.118 A 
ATOM     13  C   UNL A   1      41.344  13.148  42.957  1.00  0.00     0.047 A 
ATOM     14  C   UNL A   1      43.444  12.488  43.913  1.00  0.00     0.047 A 
ATOM     15  C   UNL A   1      41.647  14.494  43.193  1.00  0.00     0.012 A 
ATOM     16  C   UNL A   1      43.736  13.837  44.174  1.00  0.00     0.012 A 
BRANCH  12  17
ATOM     17  O   UNL A   1      41.824  10.872  43.001  1.00  0.00    -0.497 OA
ATOM     18  C   UNL A   1      42.807   9.845  43.057  1.00  0.00     0.278 C 
ENDBRANCH  12  17
ENDBRANCH  10  11
BRANCH   9  19
ATOM     19  N   UNL A   1      45.211  16.429  42.749  1.00  0.00    -0.316 N 
ATOM     20  C   UNL A   1      46.575  16.289  42.687  1.00  0.00     0.257 C 
ATOM     21  H   UNL A   1      44.770  16.037  41.960  1.00  0.00     0.170 HD
ATOM     22  O   UNL A   1      47.058  15.675  41.734  1.00  0.00    -0.269 OA
BRANCH  20  23
ATOM     23  C   UNL A   1      47.516  16.894  43.636  1.00  0.00     0.054 A 
ATOM     24  C   UNL A   1      48.209  18.020  43.159  1.00  0.00     0.015 A 
ATOM     25  C   UNL A   1      47.823  16.374  44.895  1.00  0.00     0.030 A 
ATOM     26  C   UNL A   1      49.148  18.666  43.960  1.00  0.00     0.001 A 
ATOM     27  C   UNL A   1      48.745  17.045  45.708  1.00  0.00     0.016 A 
ATOM     28  Br  UNL A   1      47.094  14.748  45.544  1.00  0.00    -0.050 Br
ATOM     29  C   UNL A   1      49.400  18.190  45.243  1.00  0.00     0.001 A 
ENDBRANCH  20  23
ENDBRANCH   9  19
ENDBRANCH   7   9
ENDBRANCH   6   7
ENDBRANCH   5   6
ENDBRANCH   4   5
ENDBRANCH   3   4
ENDBRANCH   2   3
ENDBRANCH   1   2
BRANCH   1  30
ATOM     30  O   UNL A   1      45.856  22.658  40.288  1.00  0.00    -0.376 OA
BRANCH  30  31
ATOM     31  C   UNL A   1      45.642  23.915  39.653  1.00  0.00     0.202 C 
BRANCH  31  32
ATOM     32  C   UNL A   1      46.914  24.765  39.544  1.00  0.00     0.261 C 
BRANCH  32  33
ATOM     33  O   UNL A   1      46.683  26.144  39.213  1.00  0.00    -0.460 OA
BRANCH  33  34
ATOM     34  C   UNL A   1      47.128  26.569  38.008  1.00  0.00     0.338 C 
ATOM     35  O   UNL A   1      48.159  26.232  37.451  1.00  0.00    -0.246 OA
BRANCH  34  36
ATOM     36  C   UNL A   1      46.038  27.340  37.371  1.00  0.00     0.060 A 
ATOM     37  C   UNL A   1      44.715  26.940  37.596  1.00  0.00     0.016 A 
ATOM     38  C   UNL A   1      46.312  28.483  36.612  1.00  0.00     0.016 A 
ATOM     39  C   UNL A   1      43.662  27.673  37.043  1.00  0.00     0.010 A 
ATOM     40  C   UNL A   1      45.258  29.205  36.043  1.00  0.00     0.010 A 
ATOM     41  C   UNL A   1      43.930  28.789  36.235  1.00  0.00    -0.014 A 
BRANCH  41  42
ATOM     42  C   UNL A   1      42.837  29.389  35.431  1.00  0.00     0.031 A 
ATOM     43  C   UNL A   1      42.093  30.560  36.017  1.00  0.00     0.074 A 
ATOM     44  C   UNL A   1      42.526  28.934  34.204  1.00  0.00     0.049 A 
ATOM     45  N   UNL A   1      41.123  31.269  35.501  1.00  0.00    -0.248 NA
ATOM     46  C   UNL A   1      42.504  30.991  37.365  1.00  0.00     0.031 C 
ATOM     47  C   UNL A   1      43.174  27.816  33.521  1.00  0.00     0.029 A 
ATOM     48  N   UNL A   1      41.573  29.364  33.314  1.00  0.00    -0.354 N 
ATOM     49  C   UNL A   1      40.828  32.245  36.445  1.00  0.00     0.074 A 
ATOM     50  C   UNL A   1      41.685  32.009  37.586  1.00  0.00     0.031 C 
ATOM     51  C   UNL A   1      42.591  27.641  32.319  1.00  0.00     0.029 A 
ATOM     52  C   UNL A   1      41.521  28.625  32.155  1.00  0.00     0.049 A 
ATOM     53  H   UNL A   1      40.980  30.130  33.489  1.00  0.00     0.167 HD
ATOM     54  C   UNL A   1      39.937  33.260  36.366  1.00  0.00     0.037 A 
ATOM     55  C   UNL A   1      40.697  28.730  31.092  1.00  0.00     0.037 A 
ATOM     56  C   UNL A   1      39.060  33.483  35.249  1.00  0.00     0.049 A 
ATOM     57  C   UNL A   1      39.655  29.824  31.063  1.00  0.00     0.074 A 
ATOM     58  C   UNL A   1      38.106  34.473  35.087  1.00  0.00     0.029 A 
ATOM     59  N   UNL A   1      39.023  32.701  34.105  1.00  0.00    -0.354 N 
ATOM     60  N   UNL A   1      39.414  30.760  31.950  1.00  0.00    -0.248 NA
ATOM     61  C   UNL A   1      38.780  29.878  29.882  1.00  0.00     0.031 C 
ATOM     62  C   UNL A   1      37.471  34.271  33.857  1.00  0.00     0.029 A 
ATOM     63  C   UNL A   1      38.059  33.181  33.236  1.00  0.00     0.049 A 
ATOM     64  H   UNL A   1      39.599  31.921  33.935  1.00  0.00     0.167 HD
ATOM     65  C   UNL A   1      38.384  31.532  31.417  1.00  0.00     0.074 A 
ATOM     66  C   UNL A   1      38.057  30.962  30.127  1.00  0.00     0.031 C 
ATOM     67  C   UNL A   1      37.760  32.614  31.946  1.00  0.00     0.037 A 
BRANCH  54  68
ATOM     68  C   UNL A   1      39.874  34.216  37.521  1.00  0.00     0.058 A 
ATOM     69  C   UNL A   1      40.616  35.408  37.514  1.00  0.00     0.135 A 
ATOM     70  C   UNL A   1      39.038  33.966  38.619  1.00  0.00     0.135 A 
ATOM     71  F   UNL A   1      41.450  35.680  36.499  1.00  0.00    -0.206 F 
ATOM     72  C   UNL A   1      40.535  36.318  38.561  1.00  0.00     0.059 A 
ATOM     73  C   UNL A   1      38.925  34.873  39.668  1.00  0.00     0.059 A 
ATOM     74  F   UNL A   1      38.317  32.836  38.676  1.00  0.00    -0.206 F 
ATOM     75  C   UNL A   1      39.682  36.043  39.633  1.00  0.00     0.060 A 
BRANCH  75  76
ATOM     76  S   UNL A   1      39.565  37.252  40.969  1.00  0.00     0.124 S 
ATOM     77  O   UNL A   1      38.569  38.176  40.438  1.00  0.00    -0.237 OA
ATOM     78  O   UNL A   1      39.131  36.431  42.095  1.00  0.00    -0.237 OA
ATOM     79  O   UNL A   1      40.923  37.780  41.068  1.00  0.00    -0.744 OA
ENDBRANCH  75  76
ENDBRANCH  54  68
BRANCH  55  80
ATOM     80  C   UNL A   1      40.797  27.775  29.954  1.00  0.00     0.058 A 
ATOM     81  C   UNL A   1      41.842  27.863  29.020  1.00  0.00     0.135 A 
ATOM     82  C   UNL A   1      39.806  26.806  29.734  1.00  0.00     0.135 A 
ATOM     83  F   UNL A   1      42.806  28.782  29.182  1.00  0.00    -0.206 F 
ATOM     84  C   UNL A   1      41.879  27.057  27.888  1.00  0.00     0.059 A 
ATOM     85  C   UNL A   1      39.835  25.969  28.622  1.00  0.00     0.059 A 
ATOM     86  F   UNL A   1      38.791  26.673  30.601  1.00  0.00    -0.206 F 
ATOM     87  C   UNL A   1      40.864  26.119  27.692  1.00  0.00     0.060 A 
BRANCH  87  88
ATOM     88  S   UNL A   1      40.908  25.081  26.213  1.00  0.00     0.124 S 
ATOM     89  O   UNL A   1      41.968  24.139  26.551  1.00  0.00    -0.237 OA
ATOM     90  O   UNL A   1      39.555  24.536  26.178  1.00  0.00    -0.237 OA
ATOM     91  O   UNL A   1      41.221  26.032  25.150  1.00  0.00    -0.744 OA
ENDBRANCH  87  88
ENDBRANCH  55  80
BRANCH  67  92
ATOM     92  C   UNL A   1      36.701  33.282  31.114  1.00  0.00     0.058 A 
ATOM     93  C   UNL A   1      37.026  34.105  30.026  1.00  0.00     0.135 A 
ATOM     94  C   UNL A   1      35.340  33.066  31.390  1.00  0.00     0.135 A 
ATOM     95  F   UNL A   1      38.311  34.345  29.720  1.00  0.00    -0.206 F 
ATOM     96  C   UNL A   1      36.039  34.718  29.258  1.00  0.00     0.059 A 
ATOM     97  C   UNL A   1      34.338  33.647  30.620  1.00  0.00     0.059 A 
ATOM     98  F   UNL A   1      34.974  32.276  32.411  1.00  0.00    -0.206 F 
ATOM     99  C   UNL A   1      34.698  34.486  29.566  1.00  0.00     0.060 A 
BRANCH  99 100
ATOM    100  S   UNL A   1      33.425  35.275  28.557  1.00  0.00     0.124 S 
ATOM    101  O   UNL A   1      34.218  35.831  27.466  1.00  0.00    -0.237 OA
ATOM    102  O   UNL A   1      32.561  34.153  28.204  1.00  0.00    -0.237 OA
ATOM    103  O   UNL A   1      32.832  36.252  29.464  1.00  0.00    -0.744 OA
ENDBRANCH  99 100
ENDBRANCH  67  92
ENDBRANCH  41  42
ENDBRANCH  34  36
ENDBRANCH  33  34
ENDBRANCH  32  33
ENDBRANCH  31  32
ENDBRANCH  30  31
ENDBRANCH   1  30
TORSDOF 24
ENDMDL
MODEL 3
REMARK VINA RESULT:      -8.8      2.276      2.947
REMARK SMILES COc1ccc(/C=C(\NC(=O)c2ccccc2Br)C(=O)OCCOCCOCCOC(=O)c2ccc(-c3c4nc(c(-c5c(F)cc(S(=O)(=O)[O-])cc5F)c5ccc([nH]5)c(-c5c(F)cc(S(=O)(=O)[O-])cc5F)c5nc(c(-c6c(F)cc(S(=O)(=O)[O-])cc6F)c6ccc3[nH]6)C=C5)C=C4)cc2)cc1
REMARK SMILES IDX 26 1 25 2 24 3 23 4 22 5 21 6 19 7 20 8 8 9 7 10 6 11 3 12
REMARK SMILES IDX 4 13 100 14 5 15 99 16 2 17 1 18 9 19 10 20 11 22 12 23
REMARK SMILES IDX 13 24 17 25 14 26 16 27 18 28 15 29 27 30 28 31 29 32 30 33
REMARK SMILES IDX 31 34 32 35 33 36 34 37 98 38 35 39 97 40 36 41 37 42 38 43
REMARK SMILES IDX 91 44 39 45 96 46 90 47 92 48 40 49 95 50 89 51 88 52 41 54
REMARK SMILES IDX 75 55 54 56 74 57 55 58 58 59 73 60 93 61 56 62 57 63 72 65
REMARK SMILES IDX 94 66 59 67 42 68 43 69 52 70 44 71 45 72 51 73 53 74 46 75
REMARK SMILES IDX 47 76 48 77 49 78 50 79 76 80 77 81 86 82 78 83 79 84 85 85
REMARK SMILES IDX 87 86 80 87 81 88 82 89 83 90 84 91 60 92 61 93 70 94 62 95
REMARK SMILES IDX 63 96 69 97 71 98 64 99 65 100 66 101 67 102 68 103
REMARK H PARENT 9 21 92 53 58 64
REMARK Flexibility Score: inf
ROOT
ATOM      1  C   UNL A   1      36.383  31.661  30.019  1.00  0.00     0.188 C 
ENDROOT
BRANCH   1   2
ATOM      2  C   UNL A   1      36.238  30.304  29.299  1.00  0.00     0.188 C 
BRANCH   2   3
ATOM      3  O   UNL A   1      36.014  30.294  27.893  1.00  0.00    -0.376 OA
BRANCH   3   4
ATOM      4  C   UNL A   1      35.124  29.316  27.362  1.00  0.00     0.202 C 
BRANCH   4   5
ATOM      5  C   UNL A   1      33.670  29.752  27.170  1.00  0.00     0.261 C 
BRANCH   5   6
ATOM      6  O   UNL A   1      32.859  28.661  26.694  1.00  0.00    -0.459 OA
BRANCH   6   7
ATOM      7  C   UNL A   1      32.749  28.549  25.348  1.00  0.00     0.354 C 
ATOM      8  O   UNL A   1      32.311  29.412  24.602  1.00  0.00    -0.244 OA
BRANCH   7   9
ATOM      9  C   UNL A   1      33.396  27.282  24.864  1.00  0.00     0.128 C 
ATOM     10  C   UNL A   1      33.579  26.375  25.855  1.00  0.00     0.042 C 
BRANCH  10  11
ATOM     11  C   UNL A   1      34.183  25.023  25.828  1.00  0.00    -0.023 A 
ATOM     12  C   UNL A   1      35.399  22.469  25.607  1.00  0.00     0.118 A 
ATOM     13  C   UNL A   1      34.111  22.607  26.122  1.00  0.00     0.047 A 
ATOM     14  C   UNL A   1      36.073  23.607  25.171  1.00  0.00     0.047 A 
ATOM     15  C   UNL A   1      33.499  23.863  26.211  1.00  0.00     0.012 A 
ATOM     16  C   UNL A   1      35.470  24.871  25.284  1.00  0.00     0.012 A 
BRANCH  12  17
ATOM     17  O   UNL A   1      35.860  21.184  25.552  1.00  0.00    -0.497 OA
ATOM     18  C   UNL A   1      35.031  20.232  24.894  1.00  0.00     0.278 C 
ENDBRANCH  12  17
ENDBRANCH  10  11
BRANCH   9  19
ATOM     19  N   UNL A   1      33.739  27.010  23.556  1.00  0.00    -0.316 N 
ATOM     20  C   UNL A   1      33.409  26.070  22.612  1.00  0.00     0.257 C 
ATOM     21  H   UNL A   1      34.390  27.660  23.207  1.00  0.00     0.170 HD
ATOM     22  O   UNL A   1      33.896  26.176  21.484  1.00  0.00    -0.269 OA
BRANCH  20  23
ATOM     23  C   UNL A   1      32.579  24.889  22.870  1.00  0.00     0.054 A 
ATOM     24  C   UNL A   1      33.204  23.652  22.635  1.00  0.00     0.015 A 
ATOM     25  C   UNL A   1      31.228  24.926  23.221  1.00  0.00     0.030 A 
ATOM     26  C   UNL A   1      32.508  22.459  22.820  1.00  0.00     0.001 A 
ATOM     27  C   UNL A   1      30.541  23.724  23.437  1.00  0.00     0.016 A 
ATOM     28  Br  UNL A   1      30.243  26.541  23.361  1.00  0.00    -0.050 Br
ATOM     29  C   UNL A   1      31.182  22.496  23.243  1.00  0.00     0.001 A 
ENDBRANCH  20  23
ENDBRANCH   9  19
ENDBRANCH   7   9
ENDBRANCH   6   7
ENDBRANCH   5   6
ENDBRANCH   4   5
ENDBRANCH   3   4
ENDBRANCH   2   3
ENDBRANCH   1   2
BRANCH   1  30
ATOM     30  O   UNL A   1      35.314  31.993  30.895  1.00  0.00    -0.376 OA
BRANCH  30  31
ATOM     31  C   UNL A   1      35.690  32.189  32.254  1.00  0.00     0.202 C 
BRANCH  31  32
ATOM     32  C   UNL A   1      36.721  31.170  32.753  1.00  0.00     0.261 C 
BRANCH  32  33
ATOM     33  O   UNL A   1      38.022  31.720  33.022  1.00  0.00    -0.460 OA
BRANCH  33  34
ATOM     34  C   UNL A   1      38.762  31.105  33.974  1.00  0.00     0.338 C 
ATOM     35  O   UNL A   1      38.369  30.696  35.052  1.00  0.00    -0.246 OA
BRANCH  34  36
ATOM     36  C   UNL A   1      40.088  30.806  33.389  1.00  0.00     0.060 A 
ATOM     37  C   UNL A   1      40.376  31.281  32.104  1.00  0.00     0.016 A 
ATOM     38  C   UNL A   1      41.061  30.119  34.123  1.00  0.00     0.016 A 
ATOM     39  C   UNL A   1      41.634  31.051  31.542  1.00  0.00     0.010 A 
ATOM     40  C   UNL A   1      42.313  29.873  33.552  1.00  0.00     0.010 A 
ATOM     41  C   UNL A   1      42.597  30.315  32.249  1.00  0.00    -0.014 A 
BRANCH  41  42
ATOM     42  C   UNL A   1      43.814  29.839  31.548  1.00  0.00     0.031 A 
ATOM     43  C   UNL A   1      43.719  28.558  30.762  1.00  0.00     0.074 A 
ATOM     44  C   UNL A   1      44.967  30.532  31.578  1.00  0.00     0.049 A 
ATOM     45  N   UNL A   1      44.631  27.954  30.046  1.00  0.00    -0.248 NA
ATOM     46  C   UNL A   1      42.417  27.869  30.785  1.00  0.00     0.031 C 
ATOM     47  C   UNL A   1      45.188  31.788  32.293  1.00  0.00     0.029 A 
ATOM     48  N   UNL A   1      46.178  30.265  30.987  1.00  0.00    -0.354 N 
ATOM     49  C   UNL A   1      44.007  26.834  29.511  1.00  0.00     0.074 A 
ATOM     50  C   UNL A   1      42.655  26.813  30.022  1.00  0.00     0.031 C 
ATOM     51  C   UNL A   1      46.464  32.178  32.107  1.00  0.00     0.029 A 
ATOM     52  C   UNL A   1      47.152  31.193  31.271  1.00  0.00     0.049 A 
ATOM     53  H   UNL A   1      46.335  29.481  30.413  1.00  0.00     0.167 HD
ATOM     54  C   UNL A   1      44.507  25.914  28.654  1.00  0.00     0.037 A 
ATOM     55  C   UNL A   1      48.449  31.234  30.904  1.00  0.00     0.037 A 
ATOM     56  C   UNL A   1      45.859  25.911  28.165  1.00  0.00     0.049 A 
ATOM     57  C   UNL A   1      49.004  30.149  30.012  1.00  0.00     0.074 A 
ATOM     58  C   UNL A   1      46.464  25.004  27.311  1.00  0.00     0.029 A 
ATOM     59  N   UNL A   1      46.819  26.855  28.493  1.00  0.00    -0.354 N 
ATOM     60  N   UNL A   1      48.390  29.116  29.486  1.00  0.00    -0.248 NA
ATOM     61  C   UNL A   1      50.429  30.243  29.656  1.00  0.00     0.031 C 
ATOM     62  C   UNL A   1      47.800  25.385  27.146  1.00  0.00     0.029 A 
ATOM     63  C   UNL A   1      48.014  26.550  27.864  1.00  0.00     0.049 A 
ATOM     64  H   UNL A   1      46.673  27.628  29.084  1.00  0.00     0.167 HD
ATOM     65  C   UNL A   1      49.346  28.459  28.713  1.00  0.00     0.074 A 
ATOM     66  C   UNL A   1      50.573  29.218  28.829  1.00  0.00     0.031 C 
ATOM     67  C   UNL A   1      49.221  27.328  27.974  1.00  0.00     0.037 A 
BRANCH  54  68
ATOM     68  C   UNL A   1      43.578  24.834  28.181  1.00  0.00     0.058 A 
ATOM     69  C   UNL A   1      43.370  23.674  28.944  1.00  0.00     0.135 A 
ATOM     70  C   UNL A   1      42.858  24.976  26.986  1.00  0.00     0.135 A 
ATOM     71  F   UNL A   1      44.055  23.480  30.081  1.00  0.00    -0.206 F 
ATOM     72  C   UNL A   1      42.483  22.686  28.533  1.00  0.00     0.059 A 
ATOM     73  C   UNL A   1      41.948  24.009  26.567  1.00  0.00     0.059 A 
ATOM     74  F   UNL A   1      43.029  26.062  26.217  1.00  0.00    -0.206 F 
ATOM     75  C   UNL A   1      41.773  22.866  27.344  1.00  0.00     0.060 A 
BRANCH  75  76
ATOM     76  S   UNL A   1      40.601  21.587  26.843  1.00  0.00     0.124 S 
ATOM     77  O   UNL A   1      40.651  20.682  27.986  1.00  0.00    -0.237 OA
ATOM     78  O   UNL A   1      39.362  22.343  26.688  1.00  0.00    -0.237 OA
ATOM     79  O   UNL A   1      41.174  21.068  25.604  1.00  0.00    -0.744 OA
ENDBRANCH  75  76
ENDBRANCH  54  68
BRANCH  55  80
ATOM     80  C   UNL A   1      49.341  32.329  31.377  1.00  0.00     0.058 A 
ATOM     81  C   UNL A   1      50.004  32.244  32.611  1.00  0.00     0.135 A 
ATOM     82  C   UNL A   1      49.483  33.515  30.641  1.00  0.00     0.135 A 
ATOM     83  F   UNL A   1      49.889  31.135  33.358  1.00  0.00    -0.206 F 
ATOM     84  C   UNL A   1      50.741  33.309  33.119  1.00  0.00     0.059 A 
ATOM     85  C   UNL A   1      50.236  34.585  31.115  1.00  0.00     0.059 A 
ATOM     86  F   UNL A   1      48.877  33.644  29.450  1.00  0.00    -0.206 F 
ATOM     87  C   UNL A   1      50.842  34.481  32.366  1.00  0.00     0.060 A 
BRANCH  87  88
ATOM     88  S   UNL A   1      51.789  35.867  33.035  1.00  0.00     0.124 S 
ATOM     89  O   UNL A   1      51.874  36.747  31.876  1.00  0.00    -0.237 OA
ATOM     90  O   UNL A   1      50.936  36.327  34.126  1.00  0.00    -0.237 OA
ATOM     91  O   UNL A   1      53.043  35.244  33.449  1.00  0.00    -0.744 OA
ENDBRANCH  87  88
ENDBRANCH  55  80
BRANCH  67  92
ATOM     92  C   UNL A   1      50.424  26.870  27.196  1.00  0.00     0.058 A 
ATOM     93  C   UNL A   1      50.605  27.212  25.847  1.00  0.00     0.135 A 
ATOM     94  C   UNL A   1      51.426  26.110  27.820  1.00  0.00     0.135 A 
ATOM     95  F   UNL A   1      49.676  27.936  25.203  1.00  0.00    -0.206 F 
ATOM     96  C   UNL A   1      51.722  26.787  25.134  1.00  0.00     0.059 A 
ATOM     97  C   UNL A   1      52.564  25.697  27.133  1.00  0.00     0.059 A 
ATOM     98  F   UNL A   1      51.310  25.768  29.113  1.00  0.00    -0.206 F 
ATOM     99  C   UNL A   1      52.695  26.026  25.785  1.00  0.00     0.060 A 
BRANCH  99 100
ATOM    100  S   UNL A   1      54.147  25.491  24.855  1.00  0.00     0.124 S 
ATOM    101  O   UNL A   1      53.914  24.056  24.748  1.00  0.00    -0.237 OA
ATOM    102  O   UNL A   1      54.022  26.248  23.613  1.00  0.00    -0.237 OA
ATOM    103  O   UNL A   1      55.261  25.885  25.711  1.00  0.00    -0.744 OA
ENDBRANCH  99 100
ENDBRANCH  67  92
ENDBRANCH  41  42
ENDBRANCH  34  36
ENDBRANCH  33  34
ENDBRANCH  32  33
ENDBRANCH  31  32
ENDBRANCH  30  31
ENDBRANCH   1  30
TORSDOF 24
ENDMDL
