MODEL 1
REMARK VINA RESULT:     -10.7      0.000      0.000
REMARK SMILES Cc1cccc(S(=O)(=O)Nc2cc(C(=O)OCCOCCOCCOC(=O)c3ccc(-c4c5nc(c(-c6c(F)cc(S(=O)(=O)[O-])cc6F)c6ccc([nH]6)c(-c6c(F)cc(S(=O)(=O)[O-])cc6F)c6nc(c(-c7c(F)cc(S(=O)(=O)[O-])cc7F)c7ccc4[nH]7)C=C6)C=C5)cc3)ccc2N2CCC[C@H](C[NH+]3CCCC3)C2)c1
REMARK SMILES IDX 20 1 19 2 18 3 17 4 16 5 14 6 15 7 13 8 11 9 12 10 96 11
REMARK SMILES IDX 95 12 94 13 10 14 7 16 8 17 9 18 6 19 1 20 2 21 3 22 109 23
REMARK SMILES IDX 4 24 5 25 97 26 98 27 108 28 99 29 101 30 100 31 102 32
REMARK SMILES IDX 103 33 104 34 107 35 105 37 106 38 21 39 22 40 23 41 24 42
REMARK SMILES IDX 25 43 26 44 27 45 28 46 29 47 93 48 30 49 92 50 31 51 32 52
REMARK SMILES IDX 33 53 86 54 34 55 91 56 85 57 87 58 35 59 90 60 84 61 83 62
REMARK SMILES IDX 36 64 70 65 49 66 69 67 50 68 53 69 68 70 88 71 51 72 52 73
REMARK SMILES IDX 67 75 89 76 54 77 37 78 38 79 47 80 39 81 40 82 46 83 48 84
REMARK SMILES IDX 41 85 42 86 43 87 44 88 45 89 71 90 72 91 81 92 73 93 74 94
REMARK SMILES IDX 80 95 82 96 75 97 76 98 77 99 78 100 79 101 55 102 56 103
REMARK SMILES IDX 65 104 57 105 58 106 64 107 66 108 59 109 60 110 61 111
REMARK SMILES IDX 62 112 63 113
REMARK H PARENT 10 15 103 36 87 63 53 74
REMARK Flexibility Score: inf
ROOT
ATOM      1  C   UNL A   1      43.283  21.681  25.914  1.00  0.00     0.188 C 
ENDROOT
BRANCH   1   2
ATOM      2  O   UNL A   1      42.796  20.424  25.410  1.00  0.00    -0.376 OA
BRANCH   2   3
ATOM      3  C   UNL A   1      41.830  19.601  26.092  1.00  0.00     0.202 C 
BRANCH   3   4
ATOM      4  C   UNL A   1      40.248  19.782  25.831  1.00  0.00     0.261 C 
BRANCH   4   5
ATOM      5  O   UNL A   1      39.520  21.196  25.980  1.00  0.00    -0.460 OA
BRANCH   5   6
ATOM      6  C   UNL A   1      38.302  21.222  25.358  1.00  0.00     0.338 C 
ATOM      7  O   UNL A   1      38.174  20.131  24.824  1.00  0.00    -0.246 OA
BRANCH   6   8
ATOM      8  C   UNL A   1      36.948  22.084  25.175  1.00  0.00     0.062 A 
ATOM      9  C   UNL A   1      34.591  22.662  24.735  1.00  0.00     0.073 A 
ATOM     10  C   UNL A   1      35.786  21.818  24.507  1.00  0.00     0.044 A 
ATOM     11  C   UNL A   1      34.494  23.887  25.481  1.00  0.00     0.061 A 
ATOM     12  C   UNL A   1      35.653  24.165  26.128  1.00  0.00     0.029 A 
ATOM     13  C   UNL A   1      36.729  23.252  26.004  1.00  0.00     0.018 A 
BRANCH   9  14
ATOM     14  N   UNL A   1      33.351  22.133  24.350  1.00  0.00    -0.277 N 
ATOM     15  H   UNL A   1      32.858  22.506  23.583  1.00  0.00     0.180 HD
BRANCH  14  16
ATOM     16  S   UNL A   1      32.727  20.848  25.229  1.00  0.00     0.261 S 
ATOM     17  O   UNL A   1      31.299  20.984  25.125  1.00  0.00    -0.201 OA
ATOM     18  O   UNL A   1      33.392  20.966  26.526  1.00  0.00    -0.201 OA
BRANCH  16  19
ATOM     19  C   UNL A   1      33.138  19.204  24.606  1.00  0.00     0.088 A 
ATOM     20  C   UNL A   1      35.111  15.944  25.177  1.00  0.00     0.044 C 
ATOM     21  C   UNL A   1      34.120  16.945  24.622  1.00  0.00    -0.050 A 
ATOM     22  C   UNL A   1      33.507  16.674  23.396  1.00  0.00     0.003 A 
ATOM     23  C   UNL A   1      33.911  18.210  25.228  1.00  0.00     0.025 A 
ATOM     24  C   UNL A   1      32.755  17.659  22.758  1.00  0.00     0.002 A 
ATOM     25  C   UNL A   1      32.585  18.913  23.351  1.00  0.00     0.022 A 
ENDBRANCH  16  19
ENDBRANCH  14  16
ENDBRANCH   9  14
BRANCH  11  26
ATOM     26  N   UNL A   1      33.381  24.706  25.751  1.00  0.00    -0.369 N 
ATOM     27  C   UNL A   1      32.435  24.185  26.763  1.00  0.00     0.116 C 
ATOM     28  C   UNL A   1      33.266  26.136  25.412  1.00  0.00     0.126 C 
ATOM     29  C   UNL A   1      31.012  24.751  26.625  1.00  0.00     0.022 C 
ATOM     30  C   UNL A   1      31.813  26.624  25.158  1.00  0.00     0.064 C 
ATOM     31  C   UNL A   1      30.987  26.256  26.390  1.00  0.00     0.013 C 
BRANCH  30  32
ATOM     32  C   UNL A   1      31.216  26.140  23.803  1.00  0.00     0.267 C 
BRANCH  32  33
ATOM     33  N   UNL A   1      31.728  26.686  22.533  1.00  0.00    -0.335 N 
ATOM     34  C   UNL A   1      32.882  26.004  21.955  1.00  0.00     0.262 C 
ATOM     35  C   UNL A   1      31.971  28.120  22.430  1.00  0.00     0.262 C 
ATOM     36  H   UNL A   1      30.887  26.485  21.991  1.00  0.00     0.348 HD
ATOM     37  C   UNL A   1      34.063  26.901  22.265  1.00  0.00     0.067 C 
ATOM     38  C   UNL A   1      33.478  28.303  22.248  1.00  0.00     0.067 C 
ENDBRANCH  32  33
ENDBRANCH  30  32
ENDBRANCH  11  26
ENDBRANCH   6   8
ENDBRANCH   5   6
ENDBRANCH   4   5
ENDBRANCH   3   4
ENDBRANCH   2   3
ENDBRANCH   1   2
BRANCH   1  39
ATOM     39  C   UNL A   1      42.449  22.960  26.002  1.00  0.00     0.188 C 
BRANCH  39  40
ATOM     40  O   UNL A   1      43.309  24.075  26.132  1.00  0.00    -0.376 OA
BRANCH  40  41
ATOM     41  C   UNL A   1      42.867  25.148  26.927  1.00  0.00     0.202 C 
BRANCH  41  42
ATOM     42  C   UNL A   1      42.042  24.724  28.152  1.00  0.00     0.261 C 
BRANCH  42  43
ATOM     43  O   UNL A   1      41.468  25.851  28.875  1.00  0.00    -0.460 OA
BRANCH  43  44
ATOM     44  C   UNL A   1      40.103  26.067  28.805  1.00  0.00     0.338 C 
ATOM     45  O   UNL A   1      39.320  25.158  28.579  1.00  0.00    -0.246 OA
BRANCH  44  46
ATOM     46  C   UNL A   1      39.744  27.472  29.221  1.00  0.00     0.060 A 
ATOM     47  C   UNL A   1      40.106  28.693  28.640  1.00  0.00     0.016 A 
ATOM     48  C   UNL A   1      39.121  27.585  30.415  1.00  0.00     0.016 A 
ATOM     49  C   UNL A   1      40.088  29.960  29.391  1.00  0.00     0.010 A 
ATOM     50  C   UNL A   1      39.423  28.725  31.172  1.00  0.00     0.010 A 
ATOM     51  C   UNL A   1      39.844  30.029  30.766  1.00  0.00    -0.014 A 
BRANCH  51  52
ATOM     52  C   UNL A   1      40.025  31.376  31.833  1.00  0.00     0.031 A 
ATOM     53  C   UNL A   1      41.118  31.750  33.115  1.00  0.00     0.074 A 
ATOM     54  C   UNL A   1      39.447  32.520  31.426  1.00  0.00     0.049 A 
ATOM     55  N   UNL A   1      41.804  32.870  33.280  1.00  0.00    -0.248 NA
ATOM     56  C   UNL A   1      41.647  30.796  34.118  1.00  0.00     0.031 C 
ATOM     57  C   UNL A   1      39.756  33.891  31.823  1.00  0.00     0.029 A 
ATOM     58  N   UNL A   1      38.239  32.631  30.760  1.00  0.00    -0.354 N 
ATOM     59  C   UNL A   1      42.847  32.681  34.200  1.00  0.00     0.074 A 
ATOM     60  C   UNL A   1      42.826  31.293  34.516  1.00  0.00     0.031 C 
ATOM     61  C   UNL A   1      38.635  34.612  31.786  1.00  0.00     0.029 A 
ATOM     62  C   UNL A   1      37.585  33.701  31.406  1.00  0.00     0.049 A 
ATOM     63  H   UNL A   1      37.910  32.087  30.008  1.00  0.00     0.167 HD
ATOM     64  C   UNL A   1      43.345  33.621  35.064  1.00  0.00     0.037 A 
ATOM     65  C   UNL A   1      36.490  33.408  32.154  1.00  0.00     0.037 A 
ATOM     66  C   UNL A   1      42.259  34.529  35.359  1.00  0.00     0.049 A 
ATOM     67  C   UNL A   1      36.737  33.645  33.631  1.00  0.00     0.074 A 
ATOM     68  C   UNL A   1      41.771  35.675  34.771  1.00  0.00     0.029 A 
ATOM     69  N   UNL A   1      41.233  34.018  36.148  1.00  0.00    -0.354 N 
ATOM     70  N   UNL A   1      37.911  33.670  34.225  1.00  0.00    -0.248 NA
ATOM     71  C   UNL A   1      35.652  34.025  34.524  1.00  0.00     0.031 C 
ATOM     72  C   UNL A   1      40.374  35.721  35.063  1.00  0.00     0.029 A 
ATOM     73  C   UNL A   1      40.036  34.647  35.884  1.00  0.00     0.049 A 
ATOM     74  H   UNL A   1      41.348  33.298  36.809  1.00  0.00     0.167 HD
ATOM     75  C   UNL A   1      37.747  34.045  35.543  1.00  0.00     0.074 A 
ATOM     76  C   UNL A   1      36.322  34.293  35.655  1.00  0.00     0.031 C 
ATOM     77  C   UNL A   1      38.766  34.182  36.457  1.00  0.00     0.037 A 
BRANCH  64  78
ATOM     78  C   UNL A   1      44.672  33.542  35.845  1.00  0.00     0.058 A 
ATOM     79  C   UNL A   1      44.713  33.192  37.217  1.00  0.00     0.135 A 
ATOM     80  C   UNL A   1      45.926  33.953  35.326  1.00  0.00     0.135 A 
ATOM     81  F   UNL A   1      43.592  32.831  37.861  1.00  0.00    -0.206 F 
ATOM     82  C   UNL A   1      45.886  33.240  38.001  1.00  0.00     0.059 A 
ATOM     83  C   UNL A   1      47.119  33.975  36.079  1.00  0.00     0.059 A 
ATOM     84  F   UNL A   1      46.036  34.401  34.066  1.00  0.00    -0.206 F 
ATOM     85  C   UNL A   1      47.087  33.645  37.427  1.00  0.00     0.060 A 
BRANCH  85  86
ATOM     86  S   UNL A   1      48.577  33.794  38.457  1.00  0.00     0.124 S 
ATOM     87  O   UNL A   1      48.102  34.633  39.554  1.00  0.00    -0.237 OA
ATOM     88  O   UNL A   1      48.871  32.408  38.804  1.00  0.00    -0.237 OA
ATOM     89  O   UNL A   1      49.546  34.426  37.567  1.00  0.00    -0.744 OA
ENDBRANCH  85  86
ENDBRANCH  64  78
BRANCH  65  90
ATOM     90  C   UNL A   1      35.621  32.440  31.400  1.00  0.00     0.058 A 
ATOM     91  C   UNL A   1      35.012  32.996  30.241  1.00  0.00     0.135 A 
ATOM     92  C   UNL A   1      35.802  31.051  31.400  1.00  0.00     0.135 A 
ATOM     93  F   UNL A   1      34.803  34.322  30.173  1.00  0.00    -0.206 F 
ATOM     94  C   UNL A   1      34.843  32.272  29.067  1.00  0.00     0.059 A 
ATOM     95  C   UNL A   1      35.534  30.280  30.248  1.00  0.00     0.059 A 
ATOM     96  F   UNL A   1      36.405  30.444  32.434  1.00  0.00    -0.206 F 
ATOM     97  C   UNL A   1      35.163  30.923  29.061  1.00  0.00     0.060 A 
BRANCH  97  98
ATOM     98  S   UNL A   1      35.235  30.099  27.445  1.00  0.00     0.124 S 
ATOM     99  O   UNL A   1      34.874  28.725  27.779  1.00  0.00    -0.237 OA
ATOM    100  O   UNL A   1      34.230  30.842  26.689  1.00  0.00    -0.237 OA
ATOM    101  O   UNL A   1      36.620  30.297  27.036  1.00  0.00    -0.744 OA
ENDBRANCH  97  98
ENDBRANCH  65  90
BRANCH  77 102
ATOM    102  C   UNL A   1      38.561  34.043  37.977  1.00  0.00     0.058 A 
ATOM    103  C   UNL A   1      38.176  32.841  38.610  1.00  0.00     0.135 A 
ATOM    104  C   UNL A   1      38.843  35.092  38.891  1.00  0.00     0.135 A 
ATOM    105  F   UNL A   1      38.122  31.677  37.952  1.00  0.00    -0.206 F 
ATOM    106  C   UNL A   1      37.891  32.742  39.973  1.00  0.00     0.059 A 
ATOM    107  C   UNL A   1      38.636  34.996  40.274  1.00  0.00     0.059 A 
ATOM    108  F   UNL A   1      39.393  36.247  38.495  1.00  0.00    -0.206 F 
ATOM    109  C   UNL A   1      38.098  33.833  40.798  1.00  0.00     0.060 A 
BRANCH 109 110
ATOM    110  S   UNL A   1      37.721  33.678  42.551  1.00  0.00     0.124 S 
ATOM    111  O   UNL A   1      36.622  32.717  42.526  1.00  0.00    -0.237 OA
ATOM    112  O   UNL A   1      38.979  33.183  43.103  1.00  0.00    -0.237 OA
ATOM    113  O   UNL A   1      37.363  35.037  42.943  1.00  0.00    -0.744 OA
ENDBRANCH 109 110
ENDBRANCH  77 102
ENDBRANCH  51  52
ENDBRANCH  44  46
ENDBRANCH  43  44
ENDBRANCH  42  43
ENDBRANCH  41  42
ENDBRANCH  40  41
ENDBRANCH  39  40
ENDBRANCH   1  39
TORSDOF 26
ENDMDL
MODEL 2
REMARK VINA RESULT:      -9.6      1.659      2.070
REMARK SMILES Cc1cccc(S(=O)(=O)Nc2cc(C(=O)OCCOCCOCCOC(=O)c3ccc(-c4c5nc(c(-c6c(F)cc(S(=O)(=O)[O-])cc6F)c6ccc([nH]6)c(-c6c(F)cc(S(=O)(=O)[O-])cc6F)c6nc(c(-c7c(F)cc(S(=O)(=O)[O-])cc7F)c7ccc4[nH]7)C=C6)C=C5)cc3)ccc2N2CCC[C@H](C[NH+]3CCCC3)C2)c1
REMARK SMILES IDX 20 1 19 2 18 3 17 4 16 5 14 6 15 7 13 8 11 9 12 10 96 11
REMARK SMILES IDX 95 12 94 13 10 14 7 16 8 17 9 18 6 19 1 20 2 21 3 22 109 23
REMARK SMILES IDX 4 24 5 25 97 26 98 27 108 28 99 29 101 30 100 31 102 32
REMARK SMILES IDX 103 33 104 34 107 35 105 37 106 38 21 39 22 40 23 41 24 42
REMARK SMILES IDX 25 43 26 44 27 45 28 46 29 47 93 48 30 49 92 50 31 51 32 52
REMARK SMILES IDX 33 53 86 54 34 55 91 56 85 57 87 58 35 59 90 60 84 61 83 62
REMARK SMILES IDX 36 64 70 65 49 66 69 67 50 68 53 69 68 70 88 71 51 72 52 73
REMARK SMILES IDX 67 75 89 76 54 77 37 78 38 79 47 80 39 81 40 82 46 83 48 84
REMARK SMILES IDX 41 85 42 86 43 87 44 88 45 89 71 90 72 91 81 92 73 93 74 94
REMARK SMILES IDX 80 95 82 96 75 97 76 98 77 99 78 100 79 101 55 102 56 103
REMARK SMILES IDX 65 104 57 105 58 106 64 107 66 108 59 109 60 110 61 111
REMARK SMILES IDX 62 112 63 113
REMARK H PARENT 10 15 103 36 87 63 53 74
REMARK Flexibility Score: inf
ROOT
ATOM      1  C   UNL A   1      43.492  21.426  25.708  1.00  0.00     0.188 C 
ENDROOT
BRANCH   1   2
ATOM      2  O   UNL A   1      42.939  20.137  25.385  1.00  0.00    -0.376 OA
BRANCH   2   3
ATOM      3  C   UNL A   1      41.934  19.470  26.172  1.00  0.00     0.202 C 
BRANCH   3   4
ATOM      4  C   UNL A   1      40.362  19.700  25.888  1.00  0.00     0.261 C 
BRANCH   4   5
ATOM      5  O   UNL A   1      39.682  21.141  25.998  1.00  0.00    -0.460 OA
BRANCH   5   6
ATOM      6  C   UNL A   1      38.455  21.184  25.395  1.00  0.00     0.338 C 
ATOM      7  O   UNL A   1      38.277  20.075  24.916  1.00  0.00    -0.246 OA
BRANCH   6   8
ATOM      8  C   UNL A   1      37.133  22.089  25.191  1.00  0.00     0.062 A 
ATOM      9  C   UNL A   1      34.796  22.737  24.742  1.00  0.00     0.073 A 
ATOM     10  C   UNL A   1      35.959  21.845  24.534  1.00  0.00     0.044 A 
ATOM     11  C   UNL A   1      34.745  23.985  25.454  1.00  0.00     0.061 A 
ATOM     12  C   UNL A   1      35.916  24.240  26.089  1.00  0.00     0.029 A 
ATOM     13  C   UNL A   1      36.958  23.286  25.988  1.00  0.00     0.018 A 
BRANCH   9  14
ATOM     14  N   UNL A   1      33.536  22.242  24.374  1.00  0.00    -0.277 N 
ATOM     15  H   UNL A   1      33.044  22.628  23.614  1.00  0.00     0.180 HD
BRANCH  14  16
ATOM     16  S   UNL A   1      32.889  20.978  25.265  1.00  0.00     0.261 S 
ATOM     17  O   UNL A   1      31.469  21.201  25.252  1.00  0.00    -0.201 OA
ATOM     18  O   UNL A   1      33.637  21.025  26.521  1.00  0.00    -0.201 OA
BRANCH  16  19
ATOM     19  C   UNL A   1      33.160  19.326  24.586  1.00  0.00     0.088 A 
ATOM     20  C   UNL A   1      34.884  15.909  25.020  1.00  0.00     0.044 C 
ATOM     21  C   UNL A   1      33.963  16.999  24.515  1.00  0.00    -0.050 A 
ATOM     22  C   UNL A   1      33.308  16.814  23.295  1.00  0.00     0.003 A 
ATOM     23  C   UNL A   1      33.865  18.257  25.162  1.00  0.00     0.025 A 
ATOM     24  C   UNL A   1      32.623  17.872  22.703  1.00  0.00     0.002 A 
ATOM     25  C   UNL A   1      32.562  19.117  23.335  1.00  0.00     0.022 A 
ENDBRANCH  16  19
ENDBRANCH  14  16
ENDBRANCH   9  14
BRANCH  11  26
ATOM     26  N   UNL A   1      33.663  24.850  25.704  1.00  0.00    -0.369 N 
ATOM     27  C   UNL A   1      32.609  24.314  26.594  1.00  0.00     0.116 C 
ATOM     28  C   UNL A   1      33.658  26.307  25.477  1.00  0.00     0.126 C 
ATOM     29  C   UNL A   1      31.236  24.978  26.393  1.00  0.00     0.022 C 
ATOM     30  C   UNL A   1      32.262  26.905  25.153  1.00  0.00     0.064 C 
ATOM     31  C   UNL A   1      31.318  26.496  26.283  1.00  0.00     0.013 C 
BRANCH  30  32
ATOM     32  C   UNL A   1      31.751  26.568  23.720  1.00  0.00     0.267 C 
BRANCH  32  33
ATOM     33  N   UNL A   1      31.186  27.629  22.868  1.00  0.00    -0.335 N 
ATOM     34  C   UNL A   1      31.659  28.986  23.127  1.00  0.00     0.262 C 
ATOM     35  C   UNL A   1      29.741  27.696  22.691  1.00  0.00     0.262 C 
ATOM     36  H   UNL A   1      31.579  27.277  21.994  1.00  0.00     0.348 HD
ATOM     37  C   UNL A   1      30.529  29.655  23.886  1.00  0.00     0.067 C 
ATOM     38  C   UNL A   1      29.274  29.003  23.333  1.00  0.00     0.067 C 
ENDBRANCH  32  33
ENDBRANCH  30  32
ENDBRANCH  11  26
ENDBRANCH   6   8
ENDBRANCH   5   6
ENDBRANCH   4   5
ENDBRANCH   3   4
ENDBRANCH   2   3
ENDBRANCH   1   2
BRANCH   1  39
ATOM     39  C   UNL A   1      42.740  22.750  25.566  1.00  0.00     0.188 C 
BRANCH  39  40
ATOM     40  O   UNL A   1      43.650  23.773  25.210  1.00  0.00    -0.376 OA
BRANCH  40  41
ATOM     41  C   UNL A   1      43.565  24.992  25.908  1.00  0.00     0.202 C 
BRANCH  41  42
ATOM     42  C   UNL A   1      43.266  24.837  27.407  1.00  0.00     0.261 C 
BRANCH  42  43
ATOM     43  O   UNL A   1      42.755  26.056  28.019  1.00  0.00    -0.460 OA
BRANCH  43  44
ATOM     44  C   UNL A   1      41.395  26.179  28.234  1.00  0.00     0.338 C 
ATOM     45  O   UNL A   1      40.651  25.211  28.211  1.00  0.00    -0.246 OA
BRANCH  44  46
ATOM     46  C   UNL A   1      41.027  27.577  28.668  1.00  0.00     0.060 A 
ATOM     47  C   UNL A   1      41.225  28.795  28.009  1.00  0.00     0.016 A 
ATOM     48  C   UNL A   1      40.594  27.695  29.943  1.00  0.00     0.016 A 
ATOM     49  C   UNL A   1      41.255  30.083  28.723  1.00  0.00     0.010 A 
ATOM     50  C   UNL A   1      40.947  28.873  30.616  1.00  0.00     0.010 A 
ATOM     51  C   UNL A   1      41.226  30.183  30.118  1.00  0.00    -0.014 A 
BRANCH  51  52
ATOM     52  C   UNL A   1      41.497  31.571  31.111  1.00  0.00     0.031 A 
ATOM     53  C   UNL A   1      42.796  32.083  32.125  1.00  0.00     0.074 A 
ATOM     54  C   UNL A   1      40.736  32.643  30.829  1.00  0.00     0.049 A 
ATOM     55  N   UNL A   1      43.387  33.267  32.131  1.00  0.00    -0.248 NA
ATOM     56  C   UNL A   1      43.617  31.212  32.998  1.00  0.00     0.031 C 
ATOM     57  C   UNL A   1      40.986  34.048  31.141  1.00  0.00     0.029 A 
ATOM     58  N   UNL A   1      39.408  32.621  30.437  1.00  0.00    -0.354 N 
ATOM     59  C   UNL A   1      44.616  33.204  32.807  1.00  0.00     0.074 A 
ATOM     60  C   UNL A   1      44.800  31.829  33.130  1.00  0.00     0.031 C 
ATOM     61  C   UNL A   1      39.817  34.659  31.340  1.00  0.00     0.029 A 
ATOM     62  C   UNL A   1      38.805  33.642  31.201  1.00  0.00     0.049 A 
ATOM     63  H   UNL A   1      38.982  32.027  29.778  1.00  0.00     0.167 HD
ATOM     64  C   UNL A   1      45.191  34.211  33.537  1.00  0.00     0.037 A 
ATOM     65  C   UNL A   1      37.929  33.269  32.169  1.00  0.00     0.037 A 
ATOM     66  C   UNL A   1      44.109  35.020  34.051  1.00  0.00     0.049 A 
ATOM     67  C   UNL A   1      38.461  33.569  33.556  1.00  0.00     0.074 A 
ATOM     68  C   UNL A   1      43.397  36.098  33.573  1.00  0.00     0.029 A 
ATOM     69  N   UNL A   1      43.331  34.437  35.046  1.00  0.00    -0.354 N 
ATOM     70  N   UNL A   1      39.726  33.722  33.884  1.00  0.00    -0.248 NA
ATOM     71  C   UNL A   1      37.558  33.871  34.659  1.00  0.00     0.031 C 
ATOM     72  C   UNL A   1      42.097  36.019  34.158  1.00  0.00     0.029 A 
ATOM     73  C   UNL A   1      42.049  34.943  35.041  1.00  0.00     0.049 A 
ATOM     74  H   UNL A   1      43.654  33.750  35.672  1.00  0.00     0.167 HD
ATOM     75  C   UNL A   1      39.811  34.117  35.203  1.00  0.00     0.074 A 
ATOM     76  C   UNL A   1      38.424  34.232  35.618  1.00  0.00     0.031 C 
ATOM     77  C   UNL A   1      40.982  34.375  35.877  1.00  0.00     0.037 A 
BRANCH  64  78
ATOM     78  C   UNL A   1      46.656  34.279  34.015  1.00  0.00     0.058 A 
ATOM     79  C   UNL A   1      47.084  33.645  35.206  1.00  0.00     0.135 A 
ATOM     80  C   UNL A   1      47.652  35.091  33.413  1.00  0.00     0.135 A 
ATOM     81  F   UNL A   1      46.235  32.885  35.916  1.00  0.00    -0.206 F 
ATOM     82  C   UNL A   1      48.378  33.796  35.750  1.00  0.00     0.059 A 
ATOM     83  C   UNL A   1      48.962  35.229  33.917  1.00  0.00     0.059 A 
ATOM     84  F   UNL A   1      47.375  35.828  32.327  1.00  0.00    -0.206 F 
ATOM     85  C   UNL A   1      49.312  34.601  35.105  1.00  0.00     0.060 A 
BRANCH  85  86
ATOM     86  S   UNL A   1      50.947  34.867  35.852  1.00  0.00     0.124 S 
ATOM     87  O   UNL A   1      51.493  35.929  35.013  1.00  0.00    -0.237 OA
ATOM     88  O   UNL A   1      50.618  35.250  37.221  1.00  0.00    -0.237 OA
ATOM     89  O   UNL A   1      51.601  33.569  35.715  1.00  0.00    -0.744 OA
ENDBRANCH  85  86
ENDBRANCH  64  78
BRANCH  65  90
ATOM     90  C   UNL A   1      37.018  32.202  31.626  1.00  0.00     0.058 A 
ATOM     91  C   UNL A   1      35.930  32.707  30.862  1.00  0.00     0.135 A 
ATOM     92  C   UNL A   1      37.421  30.891  31.339  1.00  0.00     0.135 A 
ATOM     93  F   UNL A   1      35.487  33.957  31.087  1.00  0.00    -0.206 F 
ATOM     94  C   UNL A   1      35.456  32.067  29.724  1.00  0.00     0.059 A 
ATOM     95  C   UNL A   1      36.873  30.181  30.249  1.00  0.00     0.059 A 
ATOM     96  F   UNL A   1      38.466  30.345  31.982  1.00  0.00    -0.206 F 
ATOM     97  C   UNL A   1      35.976  30.826  29.390  1.00  0.00     0.060 A 
BRANCH  97  98
ATOM     98  S   UNL A   1      35.571  30.178  27.743  1.00  0.00     0.124 S 
ATOM     99  O   UNL A   1      34.712  29.041  28.058  1.00  0.00    -0.237 OA
ATOM    100  O   UNL A   1      34.894  31.321  27.134  1.00  0.00    -0.237 OA
ATOM    101  O   UNL A   1      36.877  29.839  27.192  1.00  0.00    -0.744 OA
ENDBRANCH  97  98
ENDBRANCH  65  90
BRANCH  77 102
ATOM    102  C   UNL A   1      41.120  34.261  37.406  1.00  0.00     0.058 A 
ATOM    103  C   UNL A   1      40.586  33.197  38.165  1.00  0.00     0.135 A 
ATOM    104  C   UNL A   1      41.892  35.168  38.179  1.00  0.00     0.135 A 
ATOM    105  F   UNL A   1      40.056  32.110  37.590  1.00  0.00    -0.206 F 
ATOM    106  C   UNL A   1      40.622  33.147  39.559  1.00  0.00     0.059 A 
ATOM    107  C   UNL A   1      42.007  35.098  39.575  1.00  0.00     0.059 A 
ATOM    108  F   UNL A   1      42.625  36.135  37.613  1.00  0.00    -0.206 F 
ATOM    109  C   UNL A   1      41.313  34.117  40.262  1.00  0.00     0.060 A 
BRANCH 109 110
ATOM    110  S   UNL A   1      41.343  34.029  42.060  1.00  0.00     0.124 S 
ATOM    111  O   UNL A   1      39.978  33.600  42.350  1.00  0.00    -0.237 OA
ATOM    112  O   UNL A   1      42.382  33.035  42.311  1.00  0.00    -0.237 OA
ATOM    113  O   UNL A   1      41.677  35.392  42.461  1.00  0.00    -0.744 OA
ENDBRANCH 109 110
ENDBRANCH  77 102
ENDBRANCH  51  52
ENDBRANCH  44  46
ENDBRANCH  43  44
ENDBRANCH  42  43
ENDBRANCH  41  42
ENDBRANCH  40  41
ENDBRANCH  39  40
ENDBRANCH   1  39
TORSDOF 26
ENDMDL
MODEL 3
REMARK VINA RESULT:      -9.3      5.153     11.067
REMARK SMILES Cc1cccc(S(=O)(=O)Nc2cc(C(=O)OCCOCCOCCOC(=O)c3ccc(-c4c5nc(c(-c6c(F)cc(S(=O)(=O)[O-])cc6F)c6ccc([nH]6)c(-c6c(F)cc(S(=O)(=O)[O-])cc6F)c6nc(c(-c7c(F)cc(S(=O)(=O)[O-])cc7F)c7ccc4[nH]7)C=C6)C=C5)cc3)ccc2N2CCC[C@H](C[NH+]3CCCC3)C2)c1
REMARK SMILES IDX 20 1 19 2 18 3 17 4 16 5 14 6 15 7 13 8 11 9 12 10 96 11
REMARK SMILES IDX 95 12 94 13 10 14 7 16 8 17 9 18 6 19 1 20 2 21 3 22 109 23
REMARK SMILES IDX 4 24 5 25 97 26 98 27 108 28 99 29 101 30 100 31 102 32
REMARK SMILES IDX 103 33 104 34 107 35 105 37 106 38 21 39 22 40 23 41 24 42
REMARK SMILES IDX 25 43 26 44 27 45 28 46 29 47 93 48 30 49 92 50 31 51 32 52
REMARK SMILES IDX 33 53 86 54 34 55 91 56 85 57 87 58 35 59 90 60 84 61 83 62
REMARK SMILES IDX 36 64 70 65 49 66 69 67 50 68 53 69 68 70 88 71 51 72 52 73
REMARK SMILES IDX 67 75 89 76 54 77 37 78 38 79 47 80 39 81 40 82 46 83 48 84
REMARK SMILES IDX 41 85 42 86 43 87 44 88 45 89 71 90 72 91 81 92 73 93 74 94
REMARK SMILES IDX 80 95 82 96 75 97 76 98 77 99 78 100 79 101 55 102 56 103
REMARK SMILES IDX 65 104 57 105 58 106 64 107 66 108 59 109 60 110 61 111
REMARK SMILES IDX 62 112 63 113
REMARK H PARENT 10 15 103 36 87 63 53 74
REMARK Flexibility Score: inf
ROOT
ATOM      1  C   UNL A   1      36.124  23.157  24.680  1.00  0.00     0.188 C 
ENDROOT
BRANCH   1   2
ATOM      2  O   UNL A   1      35.572  24.487  24.688  1.00  0.00    -0.376 OA
BRANCH   2   3
ATOM      3  C   UNL A   1      34.163  24.774  24.779  1.00  0.00     0.202 C 
BRANCH   3   4
ATOM      4  C   UNL A   1      33.506  25.997  23.958  1.00  0.00     0.261 C 
BRANCH   4   5
ATOM      5  O   UNL A   1      34.096  27.480  24.029  1.00  0.00    -0.460 OA
BRANCH   5   6
ATOM      6  C   UNL A   1      33.684  28.150  25.148  1.00  0.00     0.338 C 
ATOM      7  O   UNL A   1      32.508  27.858  25.301  1.00  0.00    -0.246 OA
BRANCH   6   8
ATOM      8  C   UNL A   1      34.188  29.059  26.384  1.00  0.00     0.062 A 
ATOM      9  C   UNL A   1      35.666  30.336  27.892  1.00  0.00     0.073 A 
ATOM     10  C   UNL A   1      35.424  29.223  26.945  1.00  0.00     0.044 A 
ATOM     11  C   UNL A   1      34.707  31.240  28.467  1.00  0.00     0.061 A 
ATOM     12  C   UNL A   1      33.476  31.066  27.927  1.00  0.00     0.029 A 
ATOM     13  C   UNL A   1      33.318  30.089  26.914  1.00  0.00     0.018 A 
BRANCH   9  14
ATOM     14  N   UNL A   1      37.000  30.697  28.128  1.00  0.00    -0.277 N 
ATOM     15  H   UNL A   1      37.425  31.423  27.617  1.00  0.00     0.180 HD
BRANCH  14  16
ATOM     16  S   UNL A   1      37.854  29.858  29.303  1.00  0.00     0.261 S 
ATOM     17  O   UNL A   1      38.971  29.277  28.608  1.00  0.00    -0.201 OA
ATOM     18  O   UNL A   1      36.839  29.007  29.922  1.00  0.00    -0.201 OA
BRANCH  16  19
ATOM     19  C   UNL A   1      38.540  30.864  30.636  1.00  0.00     0.088 A 
ATOM     20  C   UNL A   1      39.701  34.361  31.763  1.00  0.00     0.044 C 
ATOM     21  C   UNL A   1      39.274  32.909  31.797  1.00  0.00    -0.050 A 
ATOM     22  C   UNL A   1      39.542  32.157  32.944  1.00  0.00     0.003 A 
ATOM     23  C   UNL A   1      38.754  32.252  30.653  1.00  0.00     0.025 A 
ATOM     24  C   UNL A   1      39.355  30.777  32.933  1.00  0.00     0.002 A 
ATOM     25  C   UNL A   1      38.872  30.137  31.788  1.00  0.00     0.022 A 
ENDBRANCH  16  19
ENDBRANCH  14  16
ENDBRANCH   9  14
BRANCH  11  26
ATOM     26  N   UNL A   1      34.891  32.328  29.343  1.00  0.00    -0.369 N 
ATOM     27  C   UNL A   1      35.153  31.974  30.756  1.00  0.00     0.116 C 
ATOM     28  C   UNL A   1      35.205  33.710  28.938  1.00  0.00     0.126 C 
ATOM     29  C   UNL A   1      34.778  33.087  31.749  1.00  0.00     0.022 C 
ATOM     30  C   UNL A   1      34.691  34.801  29.917  1.00  0.00     0.064 C 
ATOM     31  C   UNL A   1      35.243  34.468  31.302  1.00  0.00     0.013 C 
BRANCH  30  32
ATOM     32  C   UNL A   1      33.148  35.017  29.863  1.00  0.00     0.267 C 
BRANCH  32  33
ATOM     33  N   UNL A   1      32.529  36.120  30.619  1.00  0.00    -0.335 N 
ATOM     34  C   UNL A   1      33.290  37.364  30.686  1.00  0.00     0.262 C 
ATOM     35  C   UNL A   1      32.010  35.853  31.955  1.00  0.00     0.262 C 
ATOM     36  H   UNL A   1      31.725  36.228  30.001  1.00  0.00     0.348 HD
ATOM     37  C   UNL A   1      33.890  37.382  32.078  1.00  0.00     0.067 C 
ATOM     38  C   UNL A   1      32.863  36.661  32.933  1.00  0.00     0.067 C 
ENDBRANCH  32  33
ENDBRANCH  30  32
ENDBRANCH  11  26
ENDBRANCH   6   8
ENDBRANCH   5   6
ENDBRANCH   4   5
ENDBRANCH   3   4
ENDBRANCH   2   3
ENDBRANCH   1   2
BRANCH   1  39
ATOM     39  C   UNL A   1      36.994  22.574  25.795  1.00  0.00     0.188 C 
BRANCH  39  40
ATOM     40  O   UNL A   1      38.004  21.763  25.228  1.00  0.00    -0.376 OA
BRANCH  40  41
ATOM     41  C   UNL A   1      39.195  21.600  25.962  1.00  0.00     0.202 C 
BRANCH  41  42
ATOM     42  C   UNL A   1      39.506  22.761  26.919  1.00  0.00     0.261 C 
BRANCH  42  43
ATOM     43  O   UNL A   1      40.091  23.915  26.250  1.00  0.00    -0.460 OA
BRANCH  43  44
ATOM     44  C   UNL A   1      41.463  24.086  26.286  1.00  0.00     0.338 C 
ATOM     45  O   UNL A   1      42.229  23.219  25.895  1.00  0.00    -0.246 OA
BRANCH  44  46
ATOM     46  C   UNL A   1      41.835  25.496  26.673  1.00  0.00     0.060 A 
ATOM     47  C   UNL A   1      42.544  26.461  25.950  1.00  0.00     0.016 A 
ATOM     48  C   UNL A   1      41.596  25.828  27.962  1.00  0.00     0.016 A 
ATOM     49  C   UNL A   1      43.231  27.589  26.601  1.00  0.00     0.010 A 
ATOM     50  C   UNL A   1      42.512  26.705  28.560  1.00  0.00     0.010 A 
ATOM     51  C   UNL A   1      43.346  27.714  27.990  1.00  0.00    -0.014 A 
BRANCH  51  52
ATOM     52  C   UNL A   1      44.311  28.820  28.902  1.00  0.00     0.031 A 
ATOM     53  C   UNL A   1      43.956  30.213  29.857  1.00  0.00     0.074 A 
ATOM     54  C   UNL A   1      45.535  28.379  29.241  1.00  0.00     0.049 A 
ATOM     55  N   UNL A   1      44.376  30.470  31.085  1.00  0.00    -0.248 NA
ATOM     56  C   UNL A   1      42.938  31.246  29.549  1.00  0.00     0.031 C 
ATOM     57  C   UNL A   1      46.401  28.832  30.326  1.00  0.00     0.029 A 
ATOM     58  N   UNL A   1      46.365  27.596  28.458  1.00  0.00    -0.354 N 
ATOM     59  C   UNL A   1      43.606  31.486  31.670  1.00  0.00     0.074 A 
ATOM     60  C   UNL A   1      42.577  31.772  30.728  1.00  0.00     0.031 C 
ATOM     61  C   UNL A   1      47.673  28.696  29.946  1.00  0.00     0.029 A 
ATOM     62  C   UNL A   1      47.636  28.193  28.596  1.00  0.00     0.049 A 
ATOM     63  H   UNL A   1      46.124  26.804  27.924  1.00  0.00     0.167 HD
ATOM     64  C   UNL A   1      44.046  32.415  32.577  1.00  0.00     0.037 A 
ATOM     65  C   UNL A   1      48.157  28.820  27.510  1.00  0.00     0.037 A 
ATOM     66  C   UNL A   1      45.454  32.616  32.315  1.00  0.00     0.049 A 
ATOM     67  C   UNL A   1      48.253  30.319  27.717  1.00  0.00     0.074 A 
ATOM     68  C   UNL A   1      46.612  32.004  32.740  1.00  0.00     0.029 A 
ATOM     69  N   UNL A   1      45.765  33.286  31.137  1.00  0.00    -0.354 N 
ATOM     70  N   UNL A   1      47.545  31.029  28.569  1.00  0.00    -0.248 NA
ATOM     71  C   UNL A   1      49.288  31.104  27.060  1.00  0.00     0.031 C 
ATOM     72  C   UNL A   1      47.563  32.154  31.685  1.00  0.00     0.029 A 
ATOM     73  C   UNL A   1      47.004  32.915  30.661  1.00  0.00     0.049 A 
ATOM     74  H   UNL A   1      45.176  33.941  30.699  1.00  0.00     0.167 HD
ATOM     75  C   UNL A   1      48.003  32.331  28.568  1.00  0.00     0.074 A 
ATOM     76  C   UNL A   1      49.117  32.303  27.639  1.00  0.00     0.031 C 
ATOM     77  C   UNL A   1      47.497  33.347  29.346  1.00  0.00     0.037 A 
BRANCH  64  78
ATOM     78  C   UNL A   1      43.169  33.325  33.460  1.00  0.00     0.058 A 
ATOM     79  C   UNL A   1      43.076  34.720  33.236  1.00  0.00     0.135 A 
ATOM     80  C   UNL A   1      42.516  32.894  34.644  1.00  0.00     0.135 A 
ATOM     81  F   UNL A   1      43.688  35.283  32.183  1.00  0.00    -0.206 F 
ATOM     82  C   UNL A   1      42.396  35.607  34.100  1.00  0.00     0.059 A 
ATOM     83  C   UNL A   1      41.800  33.755  35.503  1.00  0.00     0.059 A 
ATOM     84  F   UNL A   1      42.588  31.616  35.043  1.00  0.00    -0.206 F 
ATOM     85  C   UNL A   1      41.769  35.118  35.241  1.00  0.00     0.060 A 
BRANCH  85  86
ATOM     86  S   UNL A   1      40.973  36.270  36.400  1.00  0.00     0.124 S 
ATOM     87  O   UNL A   1      41.797  37.466  36.249  1.00  0.00    -0.237 OA
ATOM     88  O   UNL A   1      39.614  36.369  35.877  1.00  0.00    -0.237 OA
ATOM     89  O   UNL A   1      41.090  35.594  37.689  1.00  0.00    -0.744 OA
ENDBRANCH  85  86
ENDBRANCH  64  78
BRANCH  65  90
ATOM     90  C   UNL A   1      47.941  27.962  26.293  1.00  0.00     0.058 A 
ATOM     91  C   UNL A   1      48.722  26.774  26.281  1.00  0.00     0.135 A 
ATOM     92  C   UNL A   1      46.755  27.933  25.548  1.00  0.00     0.135 A 
ATOM     93  F   UNL A   1      49.875  26.731  26.971  1.00  0.00    -0.206 F 
ATOM     94  C   UNL A   1      48.236  25.567  25.794  1.00  0.00     0.059 A 
ATOM     95  C   UNL A   1      46.296  26.737  24.953  1.00  0.00     0.059 A 
ATOM     96  F   UNL A   1      45.934  28.995  25.535  1.00  0.00    -0.206 F 
ATOM     97  C   UNL A   1      46.993  25.545  25.181  1.00  0.00     0.060 A 
BRANCH  97  98
ATOM     98  S   UNL A   1      46.263  23.915  24.853  1.00  0.00     0.124 S 
ATOM     99  O   UNL A   1      44.873  24.250  24.557  1.00  0.00    -0.237 OA
ATOM    100  O   UNL A   1      47.053  23.462  23.711  1.00  0.00    -0.237 OA
ATOM    101  O   UNL A   1      46.478  23.200  26.105  1.00  0.00    -0.744 OA
ENDBRANCH  97  98
ENDBRANCH  65  90
BRANCH  77 102
ATOM    102  C   UNL A   1      47.601  34.834  28.963  1.00  0.00     0.058 A 
ATOM    103  C   UNL A   1      46.600  35.535  28.256  1.00  0.00     0.135 A 
ATOM    104  C   UNL A   1      48.674  35.664  29.383  1.00  0.00     0.135 A 
ATOM    105  F   UNL A   1      45.400  34.997  28.005  1.00  0.00    -0.206 F 
ATOM    106  C   UNL A   1      46.739  36.853  27.820  1.00  0.00     0.059 A 
ATOM    107  C   UNL A   1      48.802  37.013  29.022  1.00  0.00     0.059 A 
ATOM    108  F   UNL A   1      49.625  35.224  30.217  1.00  0.00    -0.206 F 
ATOM    109  C   UNL A   1      47.857  37.582  28.185  1.00  0.00     0.060 A 
BRANCH 109 110
ATOM    110  S   UNL A   1      48.012  39.280  27.610  1.00  0.00     0.124 S 
ATOM    111  O   UNL A   1      47.435  40.018  28.730  1.00  0.00    -0.237 OA
ATOM    112  O   UNL A   1      49.454  39.424  27.436  1.00  0.00    -0.237 OA
ATOM    113  O   UNL A   1      47.232  39.292  26.376  1.00  0.00    -0.744 OA
ENDBRANCH 109 110
ENDBRANCH  77 102
ENDBRANCH  51  52
ENDBRANCH  44  46
ENDBRANCH  43  44
ENDBRANCH  42  43
ENDBRANCH  41  42
ENDBRANCH  40  41
ENDBRANCH  39  40
ENDBRANCH   1  39
TORSDOF 26
ENDMDL
