MODEL 1
REMARK VINA RESULT:     -10.6      0.000      0.000
REMARK SMILES O=C(CCc1cccnc1)Nc1cccc(F)c1C(=O)OCCOCCOCCOC(=O)c1ccc(-c2c3nc(c(-c4c(F)cc(S(=O)(=O)[O-])cc4F)c4ccc([nH]4)c(-c4c(F)cc(S(=O)(=O)[O-])cc4F)c4nc(c(-c5c(F)cc(S(=O)(=O)[O-])cc5F)c5ccc2[nH]5)C=C4)C=C3)cc1
REMARK SMILES IDX 25 1 24 2 23 3 22 4 21 5 19 6 20 7 18 8 12 9 13 10 14 11
REMARK SMILES IDX 16 12 15 13 17 14 11 15 1 16 2 17 3 19 4 20 5 21 6 22 10 23
REMARK SMILES IDX 7 24 9 25 8 26 26 27 27 28 28 29 29 30 30 31 31 32 32 33
REMARK SMILES IDX 33 34 34 35 98 36 35 37 97 38 36 39 37 40 38 41 91 42 39 43
REMARK SMILES IDX 96 44 90 45 92 46 40 47 95 48 89 49 88 50 41 52 75 53 54 54
REMARK SMILES IDX 74 55 55 56 58 57 73 58 93 59 56 60 57 61 72 63 94 64 59 65
REMARK SMILES IDX 42 66 43 67 52 68 44 69 45 70 51 71 53 72 46 73 47 74 48 75
REMARK SMILES IDX 49 76 50 77 76 78 77 79 86 80 78 81 79 82 85 83 87 84 80 85
REMARK SMILES IDX 81 86 82 87 83 88 84 89 60 90 61 91 70 92 62 93 63 94 69 95
REMARK SMILES IDX 71 96 64 97 65 98 66 99 67 100 68 101
REMARK H PARENT 11 18 92 51 58 62
REMARK Flexibility Score: inf
ROOT
ATOM      1  C   UNL A   1      35.895  21.717  25.966  1.00  0.00     0.188 C 
ENDROOT
BRANCH   1   2
ATOM      2  O   UNL A   1      35.591  23.102  25.991  1.00  0.00    -0.376 OA
BRANCH   2   3
ATOM      3  C   UNL A   1      34.225  23.445  26.259  1.00  0.00     0.202 C 
BRANCH   3   4
ATOM      4  C   UNL A   1      33.791  24.895  25.957  1.00  0.00     0.261 C 
BRANCH   4   5
ATOM      5  O   UNL A   1      34.470  25.510  24.842  1.00  0.00    -0.460 OA
BRANCH   5   6
ATOM      6  C   UNL A   1      33.911  25.393  23.618  1.00  0.00     0.343 C 
ATOM      7  O   UNL A   1      34.328  24.667  22.728  1.00  0.00    -0.246 OA
BRANCH   6   8
ATOM      8  C   UNL A   1      32.566  26.052  23.583  1.00  0.00     0.119 A 
ATOM      9  C   UNL A   1      31.408  25.273  23.352  1.00  0.00     0.058 A 
ATOM     10  C   UNL A   1      30.145  25.880  23.456  1.00  0.00     0.027 A 
ATOM     11  C   UNL A   1      30.015  27.231  23.784  1.00  0.00     0.005 A 
ATOM     12  C   UNL A   1      32.413  27.412  23.890  1.00  0.00     0.139 A 
ATOM     13  C   UNL A   1      31.152  27.997  24.001  1.00  0.00     0.040 A 
ATOM     14  F   UNL A   1      33.472  28.200  24.128  1.00  0.00    -0.206 F 
BRANCH   9  15
ATOM     15  N   UNL A   1      31.535  23.883  23.100  1.00  0.00    -0.325 N 
ATOM     16  O   UNL A   1      30.972  22.999  25.151  1.00  0.00    -0.275 OA
ATOM     17  C   UNL A   1      31.387  22.857  24.002  1.00  0.00     0.224 C 
ATOM     18  H   UNL A   1      31.753  23.625  22.175  1.00  0.00     0.169 HD
BRANCH  17  19
ATOM     19  C   UNL A   1      31.832  21.479  23.534  1.00  0.00     0.105 C 
BRANCH  19  20
ATOM     20  C   UNL A   1      32.445  20.507  24.543  1.00  0.00     0.047 C 
BRANCH  20  21
ATOM     21  C   UNL A   1      33.059  19.221  24.037  1.00  0.00    -0.029 A 
ATOM     22  C   UNL A   1      34.155  18.580  24.611  1.00  0.00     0.007 A 
ATOM     23  C   UNL A   1      32.482  18.591  22.932  1.00  0.00     0.114 A 
ATOM     24  C   UNL A   1      34.580  17.351  24.111  1.00  0.00     0.020 A 
ATOM     25  N   UNL A   1      32.893  17.411  22.405  1.00  0.00    -0.264 NA
ATOM     26  C   UNL A   1      33.923  16.806  23.025  1.00  0.00     0.111 A 
ENDBRANCH  20  21
ENDBRANCH  19  20
ENDBRANCH  17  19
ENDBRANCH   9  15
ENDBRANCH   6   8
ENDBRANCH   5   6
ENDBRANCH   4   5
ENDBRANCH   3   4
ENDBRANCH   2   3
ENDBRANCH   1   2
BRANCH   1  27
ATOM     27  C   UNL A   1      37.051  21.307  25.059  1.00  0.00     0.188 C 
BRANCH  27  28
ATOM     28  O   UNL A   1      38.263  22.038  25.198  1.00  0.00    -0.376 OA
BRANCH  28  29
ATOM     29  C   UNL A   1      39.252  21.473  26.052  1.00  0.00     0.202 C 
BRANCH  29  30
ATOM     30  C   UNL A   1      40.056  22.425  26.958  1.00  0.00     0.261 C 
BRANCH  30  31
ATOM     31  O   UNL A   1      39.792  23.835  26.818  1.00  0.00    -0.460 OA
BRANCH  31  32
ATOM     32  C   UNL A   1      40.895  24.633  26.850  1.00  0.00     0.338 C 
ATOM     33  O   UNL A   1      41.904  24.525  26.181  1.00  0.00    -0.246 OA
BRANCH  32  34
ATOM     34  C   UNL A   1      40.674  25.762  27.780  1.00  0.00     0.060 A 
ATOM     35  C   UNL A   1      41.614  26.800  27.862  1.00  0.00     0.016 A 
ATOM     36  C   UNL A   1      39.573  25.743  28.638  1.00  0.00     0.016 A 
ATOM     37  C   UNL A   1      41.460  27.812  28.816  1.00  0.00     0.010 A 
ATOM     38  C   UNL A   1      39.424  26.755  29.594  1.00  0.00     0.010 A 
ATOM     39  C   UNL A   1      40.383  27.778  29.714  1.00  0.00    -0.014 A 
BRANCH  39  40
ATOM     40  C   UNL A   1      40.354  28.695  30.888  1.00  0.00     0.031 A 
ATOM     41  C   UNL A   1      39.349  29.811  30.904  1.00  0.00     0.074 A 
ATOM     42  C   UNL A   1      41.193  28.545  31.930  1.00  0.00     0.049 A 
ATOM     43  N   UNL A   1      39.174  30.749  31.797  1.00  0.00    -0.248 NA
ATOM     44  C   UNL A   1      38.437  29.893  29.753  1.00  0.00     0.031 C 
ATOM     45  C   UNL A   1      42.217  27.516  32.027  1.00  0.00     0.029 A 
ATOM     46  N   UNL A   1      41.325  29.253  33.102  1.00  0.00    -0.354 N 
ATOM     47  C   UNL A   1      38.143  31.541  31.312  1.00  0.00     0.074 A 
ATOM     48  C   UNL A   1      37.753  30.994  30.030  1.00  0.00     0.031 C 
ATOM     49  C   UNL A   1      42.853  27.630  33.203  1.00  0.00     0.029 A 
ATOM     50  C   UNL A   1      42.316  28.775  33.930  1.00  0.00     0.049 A 
ATOM     51  H   UNL A   1      40.763  30.029  33.327  1.00  0.00     0.167 HD
ATOM     52  C   UNL A   1      37.566  32.620  31.888  1.00  0.00     0.037 A 
ATOM     53  C   UNL A   1      42.759  29.217  35.126  1.00  0.00     0.037 A 
ATOM     54  C   UNL A   1      37.956  33.162  33.164  1.00  0.00     0.049 A 
ATOM     55  C   UNL A   1      42.127  30.443  35.729  1.00  0.00     0.074 A 
ATOM     56  C   UNL A   1      37.421  34.250  33.832  1.00  0.00     0.029 A 
ATOM     57  N   UNL A   1      38.976  32.666  33.962  1.00  0.00    -0.354 N 
ATOM     58  N   UNL A   1      41.142  31.174  35.261  1.00  0.00    -0.248 NA
ATOM     59  C   UNL A   1      42.671  30.916  37.009  1.00  0.00     0.031 C 
ATOM     60  C   UNL A   1      38.151  34.443  35.008  1.00  0.00     0.029 A 
ATOM     61  C   UNL A   1      39.101  33.438  35.105  1.00  0.00     0.049 A 
ATOM     62  H   UNL A   1      39.531  31.881  33.748  1.00  0.00     0.167 HD
ATOM     63  C   UNL A   1      40.939  32.182  36.197  1.00  0.00     0.074 A 
ATOM     64  C   UNL A   1      41.888  31.956  37.268  1.00  0.00     0.031 C 
ATOM     65  C   UNL A   1      40.050  33.206  36.167  1.00  0.00     0.037 A 
BRANCH  52  66
ATOM     66  C   UNL A   1      36.456  33.298  31.136  1.00  0.00     0.058 A 
ATOM     67  C   UNL A   1      36.741  34.103  30.021  1.00  0.00     0.135 A 
ATOM     68  C   UNL A   1      35.117  33.192  31.544  1.00  0.00     0.135 A 
ATOM     69  F   UNL A   1      38.002  34.228  29.581  1.00  0.00    -0.206 F 
ATOM     70  C   UNL A   1      35.738  34.793  29.349  1.00  0.00     0.059 A 
ATOM     71  C   UNL A   1      34.095  33.851  30.869  1.00  0.00     0.059 A 
ATOM     72  F   UNL A   1      34.789  32.412  32.587  1.00  0.00    -0.206 F 
ATOM     73  C   UNL A   1      34.418  34.662  29.782  1.00  0.00     0.060 A 
BRANCH  73  74
ATOM     74  S   UNL A   1      33.128  35.548  28.884  1.00  0.00     0.124 S 
ATOM     75  O   UNL A   1      33.909  36.490  28.089  1.00  0.00    -0.237 OA
ATOM     76  O   UNL A   1      32.480  34.471  28.141  1.00  0.00    -0.237 OA
ATOM     77  O   UNL A   1      32.321  36.139  29.947  1.00  0.00    -0.744 OA
ENDBRANCH  73  74
ENDBRANCH  52  66
BRANCH  53  78
ATOM     78  C   UNL A   1      43.856  28.496  35.833  1.00  0.00     0.058 A 
ATOM     79  C   UNL A   1      43.586  27.467  36.750  1.00  0.00     0.135 A 
ATOM     80  C   UNL A   1      45.202  28.836  35.620  1.00  0.00     0.135 A 
ATOM     81  F   UNL A   1      42.319  27.101  36.997  1.00  0.00    -0.206 F 
ATOM     82  C   UNL A   1      44.602  26.830  37.453  1.00  0.00     0.059 A 
ATOM     83  C   UNL A   1      46.240  28.190  36.289  1.00  0.00     0.059 A 
ATOM     84  F   UNL A   1      45.517  29.796  34.736  1.00  0.00    -0.206 F 
ATOM     85  C   UNL A   1      45.926  27.202  37.220  1.00  0.00     0.060 A 
BRANCH  85  86
ATOM     86  S   UNL A   1      47.225  26.378  38.166  1.00  0.00     0.124 S 
ATOM     87  O   UNL A   1      48.199  27.455  38.317  1.00  0.00    -0.237 OA
ATOM     88  O   UNL A   1      46.517  25.988  39.382  1.00  0.00    -0.237 OA
ATOM     89  O   UNL A   1      47.633  25.278  37.299  1.00  0.00    -0.744 OA
ENDBRANCH  85  86
ENDBRANCH  53  78
BRANCH  65  90
ATOM     90  C   UNL A   1      40.035  34.155  37.335  1.00  0.00     0.058 A 
ATOM     91  C   UNL A   1      40.925  35.241  37.378  1.00  0.00     0.135 A 
ATOM     92  C   UNL A   1      39.196  33.951  38.441  1.00  0.00     0.135 A 
ATOM     93  F   UNL A   1      41.755  35.478  36.350  1.00  0.00    -0.206 F 
ATOM     94  C   UNL A   1      40.993  36.082  38.483  1.00  0.00     0.059 A 
ATOM     95  C   UNL A   1      39.226  34.800  39.546  1.00  0.00     0.059 A 
ATOM     96  F   UNL A   1      38.320  32.934  38.447  1.00  0.00    -0.206 F 
ATOM     97  C   UNL A   1      40.140  35.854  39.562  1.00  0.00     0.060 A 
BRANCH  97  98
ATOM     98  S   UNL A   1      40.227  36.972  40.978  1.00  0.00     0.124 S 
ATOM     99  O   UNL A   1      41.421  37.752  40.668  1.00  0.00    -0.237 OA
ATOM    100  O   UNL A   1      38.959  37.687  40.884  1.00  0.00    -0.237 OA
ATOM    101  O   UNL A   1      40.346  36.068  42.117  1.00  0.00    -0.744 OA
ENDBRANCH  97  98
ENDBRANCH  65  90
ENDBRANCH  39  40
ENDBRANCH  32  34
ENDBRANCH  31  32
ENDBRANCH  30  31
ENDBRANCH  29  30
ENDBRANCH  28  29
ENDBRANCH  27  28
ENDBRANCH   1  27
TORSDOF 24
ENDMDL
MODEL 2
REMARK VINA RESULT:     -10.3      1.256      8.122
REMARK SMILES O=C(CCc1cccnc1)Nc1cccc(F)c1C(=O)OCCOCCOCCOC(=O)c1ccc(-c2c3nc(c(-c4c(F)cc(S(=O)(=O)[O-])cc4F)c4ccc([nH]4)c(-c4c(F)cc(S(=O)(=O)[O-])cc4F)c4nc(c(-c5c(F)cc(S(=O)(=O)[O-])cc5F)c5ccc2[nH]5)C=C4)C=C3)cc1
REMARK SMILES IDX 25 1 24 2 23 3 22 4 21 5 19 6 20 7 18 8 12 9 13 10 14 11
REMARK SMILES IDX 16 12 15 13 17 14 11 15 1 16 2 17 3 19 4 20 5 21 6 22 10 23
REMARK SMILES IDX 7 24 9 25 8 26 26 27 27 28 28 29 29 30 30 31 31 32 32 33
REMARK SMILES IDX 33 34 34 35 98 36 35 37 97 38 36 39 37 40 38 41 91 42 39 43
REMARK SMILES IDX 96 44 90 45 92 46 40 47 95 48 89 49 88 50 41 52 75 53 54 54
REMARK SMILES IDX 74 55 55 56 58 57 73 58 93 59 56 60 57 61 72 63 94 64 59 65
REMARK SMILES IDX 42 66 43 67 52 68 44 69 45 70 51 71 53 72 46 73 47 74 48 75
REMARK SMILES IDX 49 76 50 77 76 78 77 79 86 80 78 81 79 82 85 83 87 84 80 85
REMARK SMILES IDX 81 86 82 87 83 88 84 89 60 90 61 91 70 92 62 93 63 94 69 95
REMARK SMILES IDX 71 96 64 97 65 98 66 99 67 100 68 101
REMARK H PARENT 11 18 92 51 58 62
REMARK Flexibility Score: inf
ROOT
ATOM      1  C   UNL A   1      37.318  21.695  24.534  1.00  0.00     0.188 C 
ENDROOT
BRANCH   1   2
ATOM      2  O   UNL A   1      37.004  23.062  24.325  1.00  0.00    -0.376 OA
BRANCH   2   3
ATOM      3  C   UNL A   1      36.122  23.661  25.283  1.00  0.00     0.202 C 
BRANCH   3   4
ATOM      4  C   UNL A   1      35.040  24.619  24.742  1.00  0.00     0.261 C 
BRANCH   4   5
ATOM      5  O   UNL A   1      34.428  24.201  23.504  1.00  0.00    -0.460 OA
BRANCH   5   6
ATOM      6  C   UNL A   1      33.619  25.078  22.869  1.00  0.00     0.343 C 
ATOM      7  O   UNL A   1      33.709  25.380  21.689  1.00  0.00    -0.246 OA
BRANCH   6   8
ATOM      8  C   UNL A   1      32.435  25.420  23.721  1.00  0.00     0.119 A 
ATOM      9  C   UNL A   1      31.579  24.391  24.180  1.00  0.00     0.058 A 
ATOM     10  C   UNL A   1      30.554  24.710  25.087  1.00  0.00     0.027 A 
ATOM     11  C   UNL A   1      30.370  26.017  25.541  1.00  0.00     0.005 A 
ATOM     12  C   UNL A   1      32.219  26.730  24.174  1.00  0.00     0.139 A 
ATOM     13  C   UNL A   1      31.204  27.028  25.082  1.00  0.00     0.040 A 
ATOM     14  F   UNL A   1      33.002  27.746  23.782  1.00  0.00    -0.206 F 
BRANCH   9  15
ATOM     15  N   UNL A   1      31.817  23.051  23.785  1.00  0.00    -0.325 N 
ATOM     16  O   UNL A   1      32.238  22.048  25.815  1.00  0.00    -0.275 OA
ATOM     17  C   UNL A   1      32.194  22.000  24.587  1.00  0.00     0.224 C 
ATOM     18  H   UNL A   1      31.699  22.850  22.828  1.00  0.00     0.169 HD
BRANCH  17  19
ATOM     19  C   UNL A   1      32.635  20.731  23.873  1.00  0.00     0.105 C 
BRANCH  19  20
ATOM     20  C   UNL A   1      33.788  19.909  24.449  1.00  0.00     0.047 C 
BRANCH  20  21
ATOM     21  C   UNL A   1      33.580  18.432  24.696  1.00  0.00    -0.029 A 
ATOM     22  C   UNL A   1      32.681  17.894  25.615  1.00  0.00     0.007 A 
ATOM     23  C   UNL A   1      34.310  17.516  23.934  1.00  0.00     0.114 A 
ATOM     24  C   UNL A   1      32.511  16.514  25.692  1.00  0.00     0.020 A 
ATOM     25  N   UNL A   1      34.188  16.168  24.011  1.00  0.00    -0.264 NA
ATOM     26  C   UNL A   1      33.270  15.698  24.877  1.00  0.00     0.111 A 
ENDBRANCH  20  21
ENDBRANCH  19  20
ENDBRANCH  17  19
ENDBRANCH   9  15
ENDBRANCH   6   8
ENDBRANCH   5   6
ENDBRANCH   4   5
ENDBRANCH   3   4
ENDBRANCH   2   3
ENDBRANCH   1   2
BRANCH   1  27
ATOM     27  C   UNL A   1      38.210  21.394  25.733  1.00  0.00     0.188 C 
BRANCH  27  28
ATOM     28  O   UNL A   1      39.375  22.196  25.881  1.00  0.00    -0.376 OA
BRANCH  28  29
ATOM     29  C   UNL A   1      40.447  21.629  26.627  1.00  0.00     0.202 C 
BRANCH  29  30
ATOM     30  C   UNL A   1      41.887  21.962  26.193  1.00  0.00     0.261 C 
BRANCH  30  31
ATOM     31  O   UNL A   1      42.540  23.049  26.878  1.00  0.00    -0.460 OA
BRANCH  31  32
ATOM     32  C   UNL A   1      42.549  24.233  26.204  1.00  0.00     0.338 C 
ATOM     33  O   UNL A   1      42.802  24.410  25.029  1.00  0.00    -0.246 OA
BRANCH  32  34
ATOM     34  C   UNL A   1      42.102  25.325  27.096  1.00  0.00     0.060 A 
ATOM     35  C   UNL A   1      42.793  26.545  27.114  1.00  0.00     0.016 A 
ATOM     36  C   UNL A   1      41.047  25.103  27.983  1.00  0.00     0.016 A 
ATOM     37  C   UNL A   1      42.439  27.539  28.033  1.00  0.00     0.010 A 
ATOM     38  C   UNL A   1      40.697  26.098  28.903  1.00  0.00     0.010 A 
ATOM     39  C   UNL A   1      41.411  27.310  28.959  1.00  0.00    -0.014 A 
BRANCH  39  40
ATOM     40  C   UNL A   1      41.203  28.247  30.098  1.00  0.00     0.031 A 
ATOM     41  C   UNL A   1      42.133  28.166  31.275  1.00  0.00     0.074 A 
ATOM     42  C   UNL A   1      40.216  29.163  30.097  1.00  0.00     0.049 A 
ATOM     43  N   UNL A   1      42.113  28.849  32.389  1.00  0.00    -0.248 NA
ATOM     44  C   UNL A   1      43.213  27.171  31.194  1.00  0.00     0.031 C 
ATOM     45  C   UNL A   1      39.245  29.332  29.027  1.00  0.00     0.029 A 
ATOM     46  N   UNL A   1      39.861  30.120  31.018  1.00  0.00    -0.354 N 
ATOM     47  C   UNL A   1      43.167  28.360  33.148  1.00  0.00     0.074 A 
ATOM     48  C   UNL A   1      43.785  27.298  32.382  1.00  0.00     0.031 C 
ATOM     49  C   UNL A   1      38.422  30.348  29.328  1.00  0.00     0.029 A 
ATOM     50  C   UNL A   1      38.776  30.879  30.640  1.00  0.00     0.049 A 
ATOM     51  H   UNL A   1      40.338  30.250  31.869  1.00  0.00     0.167 HD
ATOM     52  C   UNL A   1      43.587  28.765  34.368  1.00  0.00     0.037 A 
ATOM     53  C   UNL A   1      38.124  31.872  31.281  1.00  0.00     0.037 A 
ATOM     54  C   UNL A   1      42.968  29.820  35.128  1.00  0.00     0.049 A 
ATOM     55  C   UNL A   1      38.586  32.279  32.654  1.00  0.00     0.074 A 
ATOM     56  C   UNL A   1      43.332  30.306  36.372  1.00  0.00     0.029 A 
ATOM     57  N   UNL A   1      41.860  30.550  34.722  1.00  0.00    -0.354 N 
ATOM     58  N   UNL A   1      39.594  31.812  33.353  1.00  0.00    -0.248 NA
ATOM     59  C   UNL A   1      37.820  33.332  33.335  1.00  0.00     0.031 C 
ATOM     60  C   UNL A   1      42.413  31.292  36.741  1.00  0.00     0.029 A 
ATOM     61  C   UNL A   1      41.514  31.466  35.702  1.00  0.00     0.049 A 
ATOM     62  H   UNL A   1      41.389  30.433  33.866  1.00  0.00     0.167 HD
ATOM     63  C   UNL A   1      39.592  32.525  34.547  1.00  0.00     0.074 A 
ATOM     64  C   UNL A   1      38.495  33.469  34.468  1.00  0.00     0.031 C 
ATOM     65  C   UNL A   1      40.419  32.403  35.614  1.00  0.00     0.037 A 
BRANCH  52  66
ATOM     66  C   UNL A   1      44.766  28.053  34.967  1.00  0.00     0.058 A 
ATOM     67  C   UNL A   1      44.578  26.921  35.777  1.00  0.00     0.135 A 
ATOM     68  C   UNL A   1      46.079  28.516  34.781  1.00  0.00     0.135 A 
ATOM     69  F   UNL A   1      43.346  26.429  35.977  1.00  0.00    -0.206 F 
ATOM     70  C   UNL A   1      45.648  26.286  36.396  1.00  0.00     0.059 A 
ATOM     71  C   UNL A   1      47.167  27.877  35.367  1.00  0.00     0.059 A 
ATOM     72  F   UNL A   1      46.315  29.576  33.992  1.00  0.00    -0.206 F 
ATOM     73  C   UNL A   1      46.939  26.772  36.187  1.00  0.00     0.060 A 
BRANCH  73  74
ATOM     74  S   UNL A   1      48.318  25.921  36.980  1.00  0.00     0.124 S 
ATOM     75  O   UNL A   1      49.095  25.473  35.831  1.00  0.00    -0.237 OA
ATOM     76  O   UNL A   1      48.915  26.987  37.779  1.00  0.00    -0.237 OA
ATOM     77  O   UNL A   1      47.665  24.864  37.749  1.00  0.00    -0.744 OA
ENDBRANCH  73  74
ENDBRANCH  52  66
BRANCH  53  78
ATOM     78  C   UNL A   1      36.966  32.551  30.632  1.00  0.00     0.058 A 
ATOM     79  C   UNL A   1      37.147  33.645  29.769  1.00  0.00     0.135 A 
ATOM     80  C   UNL A   1      35.649  32.130  30.875  1.00  0.00     0.135 A 
ATOM     81  F   UNL A   1      38.382  34.094  29.501  1.00  0.00    -0.206 F 
ATOM     82  C   UNL A   1      36.067  34.317  29.205  1.00  0.00     0.059 A 
ATOM     83  C   UNL A   1      34.553  32.767  30.297  1.00  0.00     0.059 A 
ATOM     84  F   UNL A   1      35.421  31.075  31.672  1.00  0.00    -0.206 F 
ATOM     85  C   UNL A   1      34.773  33.874  29.479  1.00  0.00     0.060 A 
BRANCH  85  86
ATOM     86  S   UNL A   1      33.389  34.780  28.756  1.00  0.00     0.124 S 
ATOM     87  O   UNL A   1      32.836  33.782  27.845  1.00  0.00    -0.237 OA
ATOM     88  O   UNL A   1      32.578  35.086  29.930  1.00  0.00    -0.237 OA
ATOM     89  O   UNL A   1      34.028  35.927  28.119  1.00  0.00    -0.744 OA
ENDBRANCH  85  86
ENDBRANCH  53  78
BRANCH  65  90
ATOM     90  C   UNL A   1      40.197  33.325  36.782  1.00  0.00     0.058 A 
ATOM     91  C   UNL A   1      40.977  34.483  36.932  1.00  0.00     0.135 A 
ATOM     92  C   UNL A   1      39.265  33.029  37.790  1.00  0.00     0.135 A 
ATOM     93  F   UNL A   1      41.888  34.810  36.002  1.00  0.00    -0.206 F 
ATOM     94  C   UNL A   1      40.853  35.306  38.046  1.00  0.00     0.059 A 
ATOM     95  C   UNL A   1      39.102  33.856  38.899  1.00  0.00     0.059 A 
ATOM     96  F   UNL A   1      38.487  31.939  37.691  1.00  0.00    -0.206 F 
ATOM     97  C   UNL A   1      39.912  34.984  39.024  1.00  0.00     0.060 A 
BRANCH  97  98
ATOM     98  S   UNL A   1      39.749  36.078  40.451  1.00  0.00     0.124 S 
ATOM     99  O   UNL A   1      38.727  37.014  39.995  1.00  0.00    -0.237 OA
ATOM    100  O   UNL A   1      39.340  35.153  41.503  1.00  0.00    -0.237 OA
ATOM    101  O   UNL A   1      41.089  36.637  40.605  1.00  0.00    -0.744 OA
ENDBRANCH  97  98
ENDBRANCH  65  90
ENDBRANCH  39  40
ENDBRANCH  32  34
ENDBRANCH  31  32
ENDBRANCH  30  31
ENDBRANCH  29  30
ENDBRANCH  28  29
ENDBRANCH  27  28
ENDBRANCH   1  27
TORSDOF 24
ENDMDL
MODEL 3
REMARK VINA RESULT:     -10.3      6.337      8.437
REMARK SMILES O=C(CCc1cccnc1)Nc1cccc(F)c1C(=O)OCCOCCOCCOC(=O)c1ccc(-c2c3nc(c(-c4c(F)cc(S(=O)(=O)[O-])cc4F)c4ccc([nH]4)c(-c4c(F)cc(S(=O)(=O)[O-])cc4F)c4nc(c(-c5c(F)cc(S(=O)(=O)[O-])cc5F)c5ccc2[nH]5)C=C4)C=C3)cc1
REMARK SMILES IDX 25 1 24 2 23 3 22 4 21 5 19 6 20 7 18 8 12 9 13 10 14 11
REMARK SMILES IDX 16 12 15 13 17 14 11 15 1 16 2 17 3 19 4 20 5 21 6 22 10 23
REMARK SMILES IDX 7 24 9 25 8 26 26 27 27 28 28 29 29 30 30 31 31 32 32 33
REMARK SMILES IDX 33 34 34 35 98 36 35 37 97 38 36 39 37 40 38 41 91 42 39 43
REMARK SMILES IDX 96 44 90 45 92 46 40 47 95 48 89 49 88 50 41 52 75 53 54 54
REMARK SMILES IDX 74 55 55 56 58 57 73 58 93 59 56 60 57 61 72 63 94 64 59 65
REMARK SMILES IDX 42 66 43 67 52 68 44 69 45 70 51 71 53 72 46 73 47 74 48 75
REMARK SMILES IDX 49 76 50 77 76 78 77 79 86 80 78 81 79 82 85 83 87 84 80 85
REMARK SMILES IDX 81 86 82 87 83 88 84 89 60 90 61 91 70 92 62 93 63 94 69 95
REMARK SMILES IDX 71 96 64 97 65 98 66 99 67 100 68 101
REMARK H PARENT 11 18 92 51 58 62
REMARK Flexibility Score: inf
ROOT
ATOM      1  C   UNL A   1      36.155  23.225  24.538  1.00  0.00     0.188 C 
ENDROOT
BRANCH   1   2
ATOM      2  O   UNL A   1      34.897  23.783  24.192  1.00  0.00    -0.376 OA
BRANCH   2   3
ATOM      3  C   UNL A   1      34.266  24.588  25.195  1.00  0.00     0.202 C 
BRANCH   3   4
ATOM      4  C   UNL A   1      33.742  25.974  24.761  1.00  0.00     0.261 C 
BRANCH   4   5
ATOM      5  O   UNL A   1      34.097  26.359  23.416  1.00  0.00    -0.460 OA
BRANCH   5   6
ATOM      6  C   UNL A   1      33.248  26.029  22.418  1.00  0.00     0.343 C 
ATOM      7  O   UNL A   1      33.546  25.347  21.449  1.00  0.00    -0.246 OA
BRANCH   6   8
ATOM      8  C   UNL A   1      31.837  26.373  22.785  1.00  0.00     0.119 A 
ATOM      9  C   UNL A   1      30.901  25.338  23.019  1.00  0.00     0.058 A 
ATOM     10  C   UNL A   1      29.621  25.670  23.493  1.00  0.00     0.027 A 
ATOM     11  C   UNL A   1      29.261  26.996  23.737  1.00  0.00     0.005 A 
ATOM     12  C   UNL A   1      31.447  27.700  23.017  1.00  0.00     0.139 A 
ATOM     13  C   UNL A   1      30.176  28.012  23.497  1.00  0.00     0.040 A 
ATOM     14  F   UNL A   1      32.292  28.723  22.821  1.00  0.00    -0.206 F 
BRANCH   9  15
ATOM     15  N   UNL A   1      31.292  23.985  22.851  1.00  0.00    -0.325 N 
ATOM     16  O   UNL A   1      31.014  23.165  24.985  1.00  0.00    -0.275 OA
ATOM     17  C   UNL A   1      31.396  23.021  23.825  1.00  0.00     0.224 C 
ATOM     18  H   UNL A   1      31.515  23.706  21.933  1.00  0.00     0.169 HD
BRANCH  17  19
ATOM     19  C   UNL A   1      32.086  21.726  23.421  1.00  0.00     0.105 C 
BRANCH  19  20
ATOM     20  C   UNL A   1      32.393  20.676  24.490  1.00  0.00     0.047 C 
BRANCH  20  21
ATOM     21  C   UNL A   1      33.055  19.382  24.073  1.00  0.00    -0.029 A 
ATOM     22  C   UNL A   1      34.223  18.866  24.632  1.00  0.00     0.007 A 
ATOM     23  C   UNL A   1      32.453  18.611  23.076  1.00  0.00     0.114 A 
ATOM     24  C   UNL A   1      34.692  17.618  24.228  1.00  0.00     0.020 A 
ATOM     25  N   UNL A   1      32.904  17.409  22.641  1.00  0.00    -0.264 NA
ATOM     26  C   UNL A   1      34.007  16.930  23.247  1.00  0.00     0.111 A 
ENDBRANCH  20  21
ENDBRANCH  19  20
ENDBRANCH  17  19
ENDBRANCH   9  15
ENDBRANCH   6   8
ENDBRANCH   5   6
ENDBRANCH   4   5
ENDBRANCH   3   4
ENDBRANCH   2   3
ENDBRANCH   1   2
BRANCH   1  27
ATOM     27  C   UNL A   1      36.801  23.779  25.803  1.00  0.00     0.188 C 
BRANCH  27  28
ATOM     28  O   UNL A   1      38.162  23.435  26.030  1.00  0.00    -0.376 OA
BRANCH  28  29
ATOM     29  C   UNL A   1      38.489  22.051  25.964  1.00  0.00     0.202 C 
BRANCH  29  30
ATOM     30  C   UNL A   1      39.898  21.618  26.409  1.00  0.00     0.261 C 
BRANCH  30  31
ATOM     31  O   UNL A   1      40.173  20.203  26.415  1.00  0.00    -0.460 OA
BRANCH  31  32
ATOM     32  C   UNL A   1      41.478  19.869  26.214  1.00  0.00     0.338 C 
ATOM     33  O   UNL A   1      41.916  18.802  25.830  1.00  0.00    -0.246 OA
BRANCH  32  34
ATOM     34  C   UNL A   1      42.341  21.048  26.442  1.00  0.00     0.060 A 
ATOM     35  C   UNL A   1      42.601  21.487  27.749  1.00  0.00     0.016 A 
ATOM     36  C   UNL A   1      42.822  21.774  25.350  1.00  0.00     0.016 A 
ATOM     37  C   UNL A   1      43.328  22.664  27.963  1.00  0.00     0.010 A 
ATOM     38  C   UNL A   1      43.545  22.952  25.568  1.00  0.00     0.010 A 
ATOM     39  C   UNL A   1      43.775  23.425  26.873  1.00  0.00    -0.014 A 
BRANCH  39  40
ATOM     40  C   UNL A   1      44.316  24.797  27.087  1.00  0.00     0.031 A 
ATOM     41  C   UNL A   1      43.387  25.865  27.590  1.00  0.00     0.074 A 
ATOM     42  C   UNL A   1      45.606  25.100  26.850  1.00  0.00     0.049 A 
ATOM     43  N   UNL A   1      43.628  27.131  27.805  1.00  0.00    -0.248 NA
ATOM     44  C   UNL A   1      42.001  25.456  27.866  1.00  0.00     0.031 C 
ATOM     45  C   UNL A   1      46.598  24.161  26.349  1.00  0.00     0.029 A 
ATOM     46  N   UNL A   1      46.306  26.275  26.992  1.00  0.00    -0.354 N 
ATOM     47  C   UNL A   1      42.424  27.675  28.229  1.00  0.00     0.074 A 
ATOM     48  C   UNL A   1      41.445  26.609  28.208  1.00  0.00     0.031 C 
ATOM     49  C   UNL A   1      47.787  24.777  26.255  1.00  0.00     0.029 A 
ATOM     50  C   UNL A   1      47.634  26.175  26.643  1.00  0.00     0.049 A 
ATOM     51  H   UNL A   1      45.895  27.110  27.314  1.00  0.00     0.167 HD
ATOM     52  C   UNL A   1      42.160  28.946  28.610  1.00  0.00     0.037 A 
ATOM     53  C   UNL A   1      48.615  27.103  26.617  1.00  0.00     0.037 A 
ATOM     54  C   UNL A   1      43.136  30.004  28.628  1.00  0.00     0.049 A 
ATOM     55  C   UNL A   1      48.287  28.519  27.009  1.00  0.00     0.074 A 
ATOM     56  C   UNL A   1      42.961  31.323  29.010  1.00  0.00     0.029 A 
ATOM     57  N   UNL A   1      44.464  29.871  28.249  1.00  0.00    -0.354 N 
ATOM     58  N   UNL A   1      47.144  29.014  27.419  1.00  0.00    -0.248 NA
ATOM     59  C   UNL A   1      49.372  29.506  26.921  1.00  0.00     0.031 C 
ATOM     60  C   UNL A   1      44.168  31.999  28.810  1.00  0.00     0.029 A 
ATOM     61  C   UNL A   1      45.113  31.089  28.365  1.00  0.00     0.049 A 
ATOM     62  H   UNL A   1      44.882  29.035  27.941  1.00  0.00     0.167 HD
ATOM     63  C   UNL A   1      47.376  30.365  27.654  1.00  0.00     0.074 A 
ATOM     64  C   UNL A   1      48.773  30.606  27.359  1.00  0.00     0.031 C 
ATOM     65  C   UNL A   1      46.507  31.320  28.069  1.00  0.00     0.037 A 
BRANCH  52  66
ATOM     66  C   UNL A   1      40.753  29.267  29.027  1.00  0.00     0.058 A 
ATOM     67  C   UNL A   1      39.752  29.462  28.062  1.00  0.00     0.135 A 
ATOM     68  C   UNL A   1      40.403  29.429  30.377  1.00  0.00     0.135 A 
ATOM     69  F   UNL A   1      40.029  29.307  26.758  1.00  0.00    -0.206 F 
ATOM     70  C   UNL A   1      38.459  29.826  28.420  1.00  0.00     0.059 A 
ATOM     71  C   UNL A   1      39.108  29.764  30.759  1.00  0.00     0.059 A 
ATOM     72  F   UNL A   1      41.316  29.226  31.340  1.00  0.00    -0.206 F 
ATOM     73  C   UNL A   1      38.147  29.976  29.772  1.00  0.00     0.060 A 
BRANCH  73  74
ATOM     74  S   UNL A   1      36.458  30.426  30.218  1.00  0.00     0.124 S 
ATOM     75  O   UNL A   1      35.787  30.397  28.924  1.00  0.00    -0.237 OA
ATOM     76  O   UNL A   1      36.095  29.361  31.149  1.00  0.00    -0.237 OA
ATOM     77  O   UNL A   1      36.607  31.748  30.820  1.00  0.00    -0.744 OA
ENDBRANCH  73  74
ENDBRANCH  52  66
BRANCH  53  78
ATOM     78  C   UNL A   1      49.997  26.723  26.205  1.00  0.00     0.058 A 
ATOM     79  C   UNL A   1      50.891  26.122  27.107  1.00  0.00     0.135 A 
ATOM     80  C   UNL A   1      50.460  26.972  24.904  1.00  0.00     0.135 A 
ATOM     81  F   UNL A   1      50.505  25.862  28.365  1.00  0.00    -0.206 F 
ATOM     82  C   UNL A   1      52.198  25.816  26.744  1.00  0.00     0.059 A 
ATOM     83  C   UNL A   1      51.755  26.647  24.508  1.00  0.00     0.059 A 
ATOM     84  F   UNL A   1      49.639  27.523  23.996  1.00  0.00    -0.206 F 
ATOM     85  C   UNL A   1      52.624  26.087  25.444  1.00  0.00     0.060 A 
BRANCH  85  86
ATOM     86  S   UNL A   1      54.334  25.707  25.008  1.00  0.00     0.124 S 
ATOM     87  O   UNL A   1      55.064  26.443  26.036  1.00  0.00    -0.237 OA
ATOM     88  O   UNL A   1      54.363  24.252  25.127  1.00  0.00    -0.237 OA
ATOM     89  O   UNL A   1      54.463  26.227  23.651  1.00  0.00    -0.744 OA
ENDBRANCH  85  86
ENDBRANCH  53  78
BRANCH  65  90
ATOM     90  C   UNL A   1      47.037  32.715  28.257  1.00  0.00     0.058 A 
ATOM     91  C   UNL A   1      47.607  33.100  29.481  1.00  0.00     0.135 A 
ATOM     92  C   UNL A   1      46.917  33.692  27.256  1.00  0.00     0.135 A 
ATOM     93  F   UNL A   1      47.739  32.207  30.476  1.00  0.00    -0.206 F 
ATOM     94  C   UNL A   1      48.025  34.406  29.712  1.00  0.00     0.059 A 
ATOM     95  C   UNL A   1      47.358  34.998  27.454  1.00  0.00     0.059 A 
ATOM     96  F   UNL A   1      46.389  33.375  26.063  1.00  0.00    -0.206 F 
ATOM     97  C   UNL A   1      47.896  35.348  28.692  1.00  0.00     0.060 A 
BRANCH  97  98
ATOM     98  S   UNL A   1      48.467  37.032  29.003  1.00  0.00     0.124 S 
ATOM     99  O   UNL A   1      48.206  37.178  30.432  1.00  0.00    -0.237 OA
ATOM    100  O   UNL A   1      49.873  36.957  28.619  1.00  0.00    -0.237 OA
ATOM    101  O   UNL A   1      47.628  37.843  28.126  1.00  0.00    -0.744 OA
ENDBRANCH  97  98
ENDBRANCH  65  90
ENDBRANCH  39  40
ENDBRANCH  32  34
ENDBRANCH  31  32
ENDBRANCH  30  31
ENDBRANCH  29  30
ENDBRANCH  28  29
ENDBRANCH  27  28
ENDBRANCH   1  27
TORSDOF 24
ENDMDL
