MODEL 1
REMARK VINA RESULT:     -10.5      0.000      0.000
REMARK SMILES Cc1c(Cl)ccc2c1C=C(C(=O)OCCOCCOCCOC(=O)c1ccc(-c3c4nc(c(-c5c(F)cc(S(=O)(=O)[O-])cc5F)c5ccc([nH]5)c(-c5c(F)cc(S(=O)(=O)[O-])cc5F)c5nc(c(-c6c(F)cc(S(=O)(=O)[O-])cc6F)c6ccc3[nH]6)C=C5)C=C4)cc1)[C@@H](C(F)(F)F)O2
REMARK SMILES IDX 18 1 17 2 16 3 15 4 14 5 13 6 11 7 12 8 10 9 1 10 2 11 3 12
REMARK SMILES IDX 8 13 4 14 5 15 7 16 9 17 6 18 96 19 91 20 92 21 93 22 94 23
REMARK SMILES IDX 95 24 19 25 20 26 21 27 22 28 23 29 24 30 25 31 26 32 90 33
REMARK SMILES IDX 27 34 89 35 28 36 29 37 30 38 83 39 31 40 88 41 82 42 84 43
REMARK SMILES IDX 32 44 87 45 81 46 80 47 33 49 67 50 46 51 66 52 47 53 50 54
REMARK SMILES IDX 65 55 85 56 48 57 49 58 64 60 86 61 51 62 34 63 35 64 44 65
REMARK SMILES IDX 36 66 37 67 43 68 45 69 38 70 39 71 40 72 41 73 42 74 68 75
REMARK SMILES IDX 69 76 78 77 70 78 71 79 77 80 79 81 72 82 73 83 74 84 75 85
REMARK SMILES IDX 76 86 52 87 53 88 62 89 54 90 55 91 61 92 63 93 56 94 57 95
REMARK SMILES IDX 58 96 59 97 60 98
REMARK H PARENT 84 48 50 59
REMARK Flexibility Score: inf
ROOT
ATOM      1  C   UNL A   1      32.025  30.041  25.193  1.00  0.00     0.188 C 
ENDROOT
BRANCH   1   2
ATOM      2  C   UNL A   1      30.798  29.510  24.415  1.00  0.00     0.188 C 
BRANCH   2   3
ATOM      3  O   UNL A   1      30.985  28.202  23.928  1.00  0.00    -0.376 OA
BRANCH   3   4
ATOM      4  C   UNL A   1      30.413  27.109  24.620  1.00  0.00     0.202 C 
BRANCH   4   5
ATOM      5  C   UNL A   1      31.159  26.302  25.701  1.00  0.00     0.261 C 
BRANCH   5   6
ATOM      6  O   UNL A   1      31.957  25.194  25.269  1.00  0.00    -0.460 OA
BRANCH   6   7
ATOM      7  C   UNL A   1      33.205  25.474  24.826  1.00  0.00     0.338 C 
ATOM      8  O   UNL A   1      33.645  26.573  24.539  1.00  0.00    -0.246 OA
BRANCH   7   9
ATOM      9  C   UNL A   1      34.010  24.233  24.859  1.00  0.00     0.087 C 
ATOM     10  C   UNL A   1      38.013  24.320  26.567  1.00  0.00     0.047 C 
ATOM     11  C   UNL A   1      37.413  23.113  25.888  1.00  0.00    -0.021 A 
ATOM     12  C   UNL A   1      38.198  21.956  25.694  1.00  0.00     0.044 A 
ATOM     13  C   UNL A   1      36.084  23.116  25.392  1.00  0.00     0.022 A 
ATOM     14  Cl  UNL A   1      39.875  21.898  26.117  1.00  0.00    -0.084 Cl
ATOM     15  C   UNL A   1      37.658  20.806  25.117  1.00  0.00     0.024 A 
ATOM     16  C   UNL A   1      35.545  21.934  24.856  1.00  0.00     0.128 A 
ATOM     17  C   UNL A   1      35.252  24.319  25.359  1.00  0.00     0.027 C 
ATOM     18  C   UNL A   1      36.325  20.786  24.728  1.00  0.00     0.048 A 
ATOM     19  O   UNL A   1      34.258  21.795  24.423  1.00  0.00    -0.475 OA
ATOM     20  C   UNL A   1      33.392  22.956  24.368  1.00  0.00     0.316 C 
BRANCH  20  21
ATOM     21  C   UNL A   1      32.857  23.079  22.935  1.00  0.00     0.430 C 
ATOM     22  F   UNL A   1      33.589  23.961  22.210  1.00  0.00    -0.167 F 
ATOM     23  F   UNL A   1      32.911  21.900  22.272  1.00  0.00    -0.167 F 
ATOM     24  F   UNL A   1      31.573  23.501  22.905  1.00  0.00    -0.167 F 
ENDBRANCH  20  21
ENDBRANCH   7   9
ENDBRANCH   6   7
ENDBRANCH   5   6
ENDBRANCH   4   5
ENDBRANCH   3   4
ENDBRANCH   2   3
ENDBRANCH   1   2
BRANCH   1  25
ATOM     25  O   UNL A   1      32.594  29.253  26.231  1.00  0.00    -0.376 OA
BRANCH  25  26
ATOM     26  C   UNL A   1      33.981  29.409  26.517  1.00  0.00     0.202 C 
BRANCH  26  27
ATOM     27  C   UNL A   1      34.497  29.315  27.966  1.00  0.00     0.261 C 
BRANCH  27  28
ATOM     28  O   UNL A   1      35.645  30.121  28.278  1.00  0.00    -0.460 OA
BRANCH  28  29
ATOM     29  C   UNL A   1      36.277  29.831  29.445  1.00  0.00     0.338 C 
ATOM     30  O   UNL A   1      35.766  29.627  30.534  1.00  0.00    -0.246 OA
BRANCH  29  31
ATOM     31  C   UNL A   1      37.712  29.621  29.170  1.00  0.00     0.060 A 
ATOM     32  C   UNL A   1      38.152  29.549  27.839  1.00  0.00     0.016 A 
ATOM     33  C   UNL A   1      38.615  29.473  30.222  1.00  0.00     0.016 A 
ATOM     34  C   UNL A   1      39.504  29.361  27.558  1.00  0.00     0.010 A 
ATOM     35  C   UNL A   1      39.964  29.240  29.938  1.00  0.00     0.010 A 
ATOM     36  C   UNL A   1      40.411  29.174  28.607  1.00  0.00    -0.014 A 
BRANCH  36  37
ATOM     37  C   UNL A   1      41.791  28.728  28.304  1.00  0.00     0.031 A 
ATOM     38  C   UNL A   1      42.893  29.750  28.342  1.00  0.00     0.074 A 
ATOM     39  C   UNL A   1      42.063  27.441  28.026  1.00  0.00     0.049 A 
ATOM     40  N   UNL A   1      44.169  29.599  28.112  1.00  0.00    -0.248 NA
ATOM     41  C   UNL A   1      42.499  31.126  28.692  1.00  0.00     0.031 C 
ATOM     42  C   UNL A   1      41.085  26.355  28.005  1.00  0.00     0.029 A 
ATOM     43  N   UNL A   1      43.251  26.830  27.705  1.00  0.00    -0.354 N 
ATOM     44  C   UNL A   1      44.735  30.852  28.305  1.00  0.00     0.074 A 
ATOM     45  C   UNL A   1      43.659  31.762  28.631  1.00  0.00     0.031 C 
ATOM     46  C   UNL A   1      41.712  25.211  27.678  1.00  0.00     0.029 A 
ATOM     47  C   UNL A   1      43.129  25.486  27.444  1.00  0.00     0.049 A 
ATOM     48  H   UNL A   1      44.109  27.311  27.666  1.00  0.00     0.167 HD
ATOM     49  C   UNL A   1      46.038  31.209  28.231  1.00  0.00     0.037 A 
ATOM     50  C   UNL A   1      44.055  24.588  27.048  1.00  0.00     0.037 A 
ATOM     51  C   UNL A   1      47.101  30.305  27.882  1.00  0.00     0.049 A 
ATOM     52  C   UNL A   1      45.486  25.034  26.865  1.00  0.00     0.074 A 
ATOM     53  C   UNL A   1      48.453  30.573  27.774  1.00  0.00     0.029 A 
ATOM     54  N   UNL A   1      46.930  28.965  27.571  1.00  0.00    -0.354 N 
ATOM     55  N   UNL A   1      46.014  26.216  27.078  1.00  0.00    -0.248 NA
ATOM     56  C   UNL A   1      46.447  24.027  26.389  1.00  0.00     0.031 C 
ATOM     57  C   UNL A   1      49.093  29.409  27.345  1.00  0.00     0.029 A 
ATOM     58  C   UNL A   1      48.149  28.398  27.243  1.00  0.00     0.049 A 
ATOM     59  H   UNL A   1      46.069  28.486  27.581  1.00  0.00     0.167 HD
ATOM     60  C   UNL A   1      47.371  26.086  26.795  1.00  0.00     0.074 A 
ATOM     61  C   UNL A   1      47.584  24.711  26.396  1.00  0.00     0.031 C 
ATOM     62  C   UNL A   1      48.350  27.021  26.864  1.00  0.00     0.037 A 
BRANCH  49  63
ATOM     63  C   UNL A   1      46.387  32.640  28.525  1.00  0.00     0.058 A 
ATOM     64  C   UNL A   1      46.394  33.614  27.514  1.00  0.00     0.135 A 
ATOM     65  C   UNL A   1      46.666  33.054  29.837  1.00  0.00     0.135 A 
ATOM     66  F   UNL A   1      46.155  33.266  26.239  1.00  0.00    -0.206 F 
ATOM     67  C   UNL A   1      46.680  34.945  27.791  1.00  0.00     0.059 A 
ATOM     68  C   UNL A   1      46.928  34.387  30.141  1.00  0.00     0.059 A 
ATOM     69  F   UNL A   1      46.679  32.162  30.840  1.00  0.00    -0.206 F 
ATOM     70  C   UNL A   1      46.941  35.323  29.109  1.00  0.00     0.060 A 
BRANCH  70  71
ATOM     71  S   UNL A   1      47.292  37.060  29.449  1.00  0.00     0.124 S 
ATOM     72  O   UNL A   1      46.222  37.725  28.708  1.00  0.00    -0.237 OA
ATOM     73  O   UNL A   1      47.185  37.118  30.903  1.00  0.00    -0.237 OA
ATOM     74  O   UNL A   1      48.635  37.250  28.911  1.00  0.00    -0.744 OA
ENDBRANCH  70  71
ENDBRANCH  49  63
BRANCH  50  75
ATOM     75  C   UNL A   1      43.664  23.172  26.808  1.00  0.00     0.058 A 
ATOM     76  C   UNL A   1      43.606  22.650  25.508  1.00  0.00     0.135 A 
ATOM     77  C   UNL A   1      43.350  22.310  27.871  1.00  0.00     0.135 A 
ATOM     78  F   UNL A   1      43.884  23.437  24.457  1.00  0.00    -0.206 F 
ATOM     79  C   UNL A   1      43.244  21.328  25.267  1.00  0.00     0.059 A 
ATOM     80  C   UNL A   1      43.009  20.977  27.658  1.00  0.00     0.059 A 
ATOM     81  F   UNL A   1      43.395  22.757  29.136  1.00  0.00    -0.206 F 
ATOM     82  C   UNL A   1      42.954  20.496  26.351  1.00  0.00     0.060 A 
BRANCH  82  83
ATOM     83  S   UNL A   1      42.540  18.769  26.025  1.00  0.00     0.124 S 
ATOM     84  O   UNL A   1      41.135  18.868  25.649  1.00  0.00    -0.237 OA
ATOM     85  O   UNL A   1      43.467  18.433  24.950  1.00  0.00    -0.237 OA
ATOM     86  O   UNL A   1      42.806  18.113  27.302  1.00  0.00    -0.744 OA
ENDBRANCH  82  83
ENDBRANCH  50  75
BRANCH  62  87
ATOM     87  C   UNL A   1      49.760  26.607  26.535  1.00  0.00     0.058 A 
ATOM     88  C   UNL A   1      50.573  25.958  27.476  1.00  0.00     0.135 A 
ATOM     89  C   UNL A   1      50.247  26.737  25.224  1.00  0.00     0.135 A 
ATOM     90  F   UNL A   1      50.158  25.815  28.745  1.00  0.00    -0.206 F 
ATOM     91  C   UNL A   1      51.818  25.443  27.126  1.00  0.00     0.059 A 
ATOM     92  C   UNL A   1      51.477  26.206  24.845  1.00  0.00     0.059 A 
ATOM     93  F   UNL A   1      49.503  27.341  24.283  1.00  0.00    -0.206 F 
ATOM     94  C   UNL A   1      52.254  25.557  25.803  1.00  0.00     0.060 A 
BRANCH  94  95
ATOM     95  S   UNL A   1      53.828  24.799  25.347  1.00  0.00     0.124 S 
ATOM     96  O   UNL A   1      54.226  25.611  24.200  1.00  0.00    -0.237 OA
ATOM     97  O   UNL A   1      54.621  24.982  26.557  1.00  0.00    -0.237 OA
ATOM     98  O   UNL A   1      53.466  23.419  25.041  1.00  0.00    -0.744 OA
ENDBRANCH  94  95
ENDBRANCH  62  87
ENDBRANCH  36  37
ENDBRANCH  29  31
ENDBRANCH  28  29
ENDBRANCH  27  28
ENDBRANCH  26  27
ENDBRANCH  25  26
ENDBRANCH   1  25
TORSDOF 21
ENDMDL
MODEL 2
REMARK VINA RESULT:     -10.3      4.237      7.410
REMARK SMILES Cc1c(Cl)ccc2c1C=C(C(=O)OCCOCCOCCOC(=O)c1ccc(-c3c4nc(c(-c5c(F)cc(S(=O)(=O)[O-])cc5F)c5ccc([nH]5)c(-c5c(F)cc(S(=O)(=O)[O-])cc5F)c5nc(c(-c6c(F)cc(S(=O)(=O)[O-])cc6F)c6ccc3[nH]6)C=C5)C=C4)cc1)[C@@H](C(F)(F)F)O2
REMARK SMILES IDX 18 1 17 2 16 3 15 4 14 5 13 6 11 7 12 8 10 9 1 10 2 11 3 12
REMARK SMILES IDX 8 13 4 14 5 15 7 16 9 17 6 18 96 19 91 20 92 21 93 22 94 23
REMARK SMILES IDX 95 24 19 25 20 26 21 27 22 28 23 29 24 30 25 31 26 32 90 33
REMARK SMILES IDX 27 34 89 35 28 36 29 37 30 38 83 39 31 40 88 41 82 42 84 43
REMARK SMILES IDX 32 44 87 45 81 46 80 47 33 49 67 50 46 51 66 52 47 53 50 54
REMARK SMILES IDX 65 55 85 56 48 57 49 58 64 60 86 61 51 62 34 63 35 64 44 65
REMARK SMILES IDX 36 66 37 67 43 68 45 69 38 70 39 71 40 72 41 73 42 74 68 75
REMARK SMILES IDX 69 76 78 77 70 78 71 79 77 80 79 81 72 82 73 83 74 84 75 85
REMARK SMILES IDX 76 86 52 87 53 88 62 89 54 90 55 91 61 92 63 93 56 94 57 95
REMARK SMILES IDX 58 96 59 97 60 98
REMARK H PARENT 84 48 50 59
REMARK Flexibility Score: inf
ROOT
ATOM      1  C   UNL A   1      33.196  35.776  30.878  1.00  0.00     0.188 C 
ENDROOT
BRANCH   1   2
ATOM      2  C   UNL A   1      33.856  34.756  31.834  1.00  0.00     0.188 C 
BRANCH   2   3
ATOM      3  O   UNL A   1      34.809  35.345  32.688  1.00  0.00    -0.376 OA
BRANCH   3   4
ATOM      4  C   UNL A   1      36.175  35.004  32.555  1.00  0.00     0.202 C 
BRANCH   4   5
ATOM      5  C   UNL A   1      36.707  34.026  31.488  1.00  0.00     0.261 C 
BRANCH   5   6
ATOM      6  O   UNL A   1      37.660  33.043  31.906  1.00  0.00    -0.460 OA
BRANCH   6   7
ATOM      7  C   UNL A   1      37.279  32.201  32.895  1.00  0.00     0.338 C 
ATOM      8  O   UNL A   1      36.152  31.792  33.107  1.00  0.00    -0.246 OA
BRANCH   7   9
ATOM      9  C   UNL A   1      38.485  31.748  33.624  1.00  0.00     0.087 C 
ATOM     10  C   UNL A   1      40.374  27.989  32.507  1.00  0.00     0.047 C 
ATOM     11  C   UNL A   1      40.804  28.830  33.685  1.00  0.00    -0.021 A 
ATOM     12  C   UNL A   1      41.811  28.358  34.553  1.00  0.00     0.044 A 
ATOM     13  C   UNL A   1      40.190  30.075  33.979  1.00  0.00     0.022 A 
ATOM     14  Cl  UNL A   1      42.515  26.787  34.380  1.00  0.00    -0.084 Cl
ATOM     15  C   UNL A   1      42.267  29.134  35.619  1.00  0.00     0.024 A 
ATOM     16  C   UNL A   1      40.693  30.861  35.029  1.00  0.00     0.128 A 
ATOM     17  C   UNL A   1      39.008  30.565  33.270  1.00  0.00     0.027 C 
ATOM     18  C   UNL A   1      41.730  30.396  35.838  1.00  0.00     0.048 A 
ATOM     19  O   UNL A   1      40.238  32.107  35.353  1.00  0.00    -0.475 OA
ATOM     20  C   UNL A   1      39.069  32.638  34.682  1.00  0.00     0.316 C 
BRANCH  20  21
ATOM     21  C   UNL A   1      38.041  33.021  35.756  1.00  0.00     0.430 C 
ATOM     22  F   UNL A   1      38.646  33.547  36.851  1.00  0.00    -0.167 F 
ATOM     23  F   UNL A   1      37.171  33.957  35.312  1.00  0.00    -0.167 F 
ATOM     24  F   UNL A   1      37.316  31.957  36.169  1.00  0.00    -0.167 F 
ENDBRANCH  20  21
ENDBRANCH   7   9
ENDBRANCH   6   7
ENDBRANCH   5   6
ENDBRANCH   4   5
ENDBRANCH   3   4
ENDBRANCH   2   3
ENDBRANCH   1   2
BRANCH   1  25
ATOM     25  O   UNL A   1      32.898  35.395  29.540  1.00  0.00    -0.376 OA
BRANCH  25  26
ATOM     26  C   UNL A   1      33.902  34.718  28.789  1.00  0.00     0.202 C 
BRANCH  26  27
ATOM     27  C   UNL A   1      33.667  33.281  28.287  1.00  0.00     0.261 C 
BRANCH  27  28
ATOM     28  O   UNL A   1      34.394  32.248  28.974  1.00  0.00    -0.460 OA
BRANCH  28  29
ATOM     29  C   UNL A   1      34.406  31.030  28.376  1.00  0.00     0.338 C 
ATOM     30  O   UNL A   1      33.522  30.525  27.703  1.00  0.00    -0.246 OA
BRANCH  29  31
ATOM     31  C   UNL A   1      35.754  30.444  28.514  1.00  0.00     0.060 A 
ATOM     32  C   UNL A   1      36.259  30.183  29.798  1.00  0.00     0.016 A 
ATOM     33  C   UNL A   1      36.524  30.177  27.383  1.00  0.00     0.016 A 
ATOM     34  C   UNL A   1      37.526  29.623  29.950  1.00  0.00     0.010 A 
ATOM     35  C   UNL A   1      37.812  29.656  27.540  1.00  0.00     0.010 A 
ATOM     36  C   UNL A   1      38.320  29.385  28.823  1.00  0.00    -0.014 A 
BRANCH  36  37
ATOM     37  C   UNL A   1      39.747  29.028  29.001  1.00  0.00     0.031 A 
ATOM     38  C   UNL A   1      40.677  30.071  29.556  1.00  0.00     0.074 A 
ATOM     39  C   UNL A   1      40.201  27.798  28.702  1.00  0.00     0.049 A 
ATOM     40  N   UNL A   1      41.958  29.992  29.795  1.00  0.00    -0.248 NA
ATOM     41  C   UNL A   1      40.077  31.374  29.887  1.00  0.00     0.031 C 
ATOM     42  C   UNL A   1      39.384  26.694  28.201  1.00  0.00     0.029 A 
ATOM     43  N   UNL A   1      41.468  27.274  28.774  1.00  0.00    -0.354 N 
ATOM     44  C   UNL A   1      42.316  31.226  30.321  1.00  0.00     0.074 A 
ATOM     45  C   UNL A   1      41.127  32.050  30.327  1.00  0.00     0.031 C 
ATOM     46  C   UNL A   1      40.174  25.623  28.003  1.00  0.00     0.029 A 
ATOM     47  C   UNL A   1      41.555  25.973  28.339  1.00  0.00     0.049 A 
ATOM     48  H   UNL A   1      42.242  27.783  29.107  1.00  0.00     0.167 HD
ATOM     49  C   UNL A   1      43.526  31.631  30.773  1.00  0.00     0.037 A 
ATOM     50  C   UNL A   1      42.628  25.165  28.213  1.00  0.00     0.037 A 
ATOM     51  C   UNL A   1      44.710  30.816  30.740  1.00  0.00     0.049 A 
ATOM     52  C   UNL A   1      43.989  25.677  28.620  1.00  0.00     0.074 A 
ATOM     53  C   UNL A   1      45.985  31.139  31.167  1.00  0.00     0.029 A 
ATOM     54  N   UNL A   1      44.769  29.524  30.241  1.00  0.00    -0.354 N 
ATOM     55  N   UNL A   1      44.311  26.837  29.143  1.00  0.00    -0.248 NA
ATOM     56  C   UNL A   1      45.133  24.774  28.422  1.00  0.00     0.031 C 
ATOM     57  C   UNL A   1      46.826  30.064  30.877  1.00  0.00     0.029 A 
ATOM     58  C   UNL A   1      46.064  29.045  30.323  1.00  0.00     0.049 A 
ATOM     59  H   UNL A   1      44.003  29.021  29.880  1.00  0.00     0.167 HD
ATOM     60  C   UNL A   1      45.684  26.789  29.366  1.00  0.00     0.074 A 
ATOM     61  C   UNL A   1      46.134  25.486  28.923  1.00  0.00     0.031 C 
ATOM     62  C   UNL A   1      46.496  27.738  29.894  1.00  0.00     0.037 A 
BRANCH  49  63
ATOM     63  C   UNL A   1      43.631  33.022  31.331  1.00  0.00     0.058 A 
ATOM     64  C   UNL A   1      43.393  33.284  32.690  1.00  0.00     0.135 A 
ATOM     65  C   UNL A   1      44.024  34.094  30.515  1.00  0.00     0.135 A 
ATOM     66  F   UNL A   1      42.994  32.298  33.509  1.00  0.00    -0.206 F 
ATOM     67  C   UNL A   1      43.526  34.564  33.216  1.00  0.00     0.059 A 
ATOM     68  C   UNL A   1      44.190  35.378  31.025  1.00  0.00     0.059 A 
ATOM     69  F   UNL A   1      44.258  33.898  29.207  1.00  0.00    -0.206 F 
ATOM     70  C   UNL A   1      43.930  35.603  32.376  1.00  0.00     0.060 A 
BRANCH  70  71
ATOM     71  S   UNL A   1      44.115  37.254  33.083  1.00  0.00     0.124 S 
ATOM     72  O   UNL A   1      45.492  37.212  33.567  1.00  0.00    -0.237 OA
ATOM     73  O   UNL A   1      43.875  38.113  31.928  1.00  0.00    -0.237 OA
ATOM     74  O   UNL A   1      43.089  37.298  34.121  1.00  0.00    -0.744 OA
ENDBRANCH  70  71
ENDBRANCH  49  63
BRANCH  50  75
ATOM     75  C   UNL A   1      42.463  23.781  27.691  1.00  0.00     0.058 A 
ATOM     76  C   UNL A   1      42.409  23.533  26.312  1.00  0.00     0.135 A 
ATOM     77  C   UNL A   1      42.363  22.680  28.556  1.00  0.00     0.135 A 
ATOM     78  F   UNL A   1      42.486  24.553  25.444  1.00  0.00    -0.206 F 
ATOM     79  C   UNL A   1      42.256  22.244  25.807  1.00  0.00     0.059 A 
ATOM     80  C   UNL A   1      42.235  21.379  28.076  1.00  0.00     0.059 A 
ATOM     81  F   UNL A   1      42.414  22.861  29.885  1.00  0.00    -0.206 F 
ATOM     82  C   UNL A   1      42.177  21.172  26.698  1.00  0.00     0.060 A 
BRANCH  82  83
ATOM     83  S   UNL A   1      42.034  19.502  26.027  1.00  0.00     0.124 S 
ATOM     84  O   UNL A   1      42.564  18.697  27.121  1.00  0.00    -0.237 OA
ATOM     85  O   UNL A   1      40.598  19.393  25.791  1.00  0.00    -0.237 OA
ATOM     86  O   UNL A   1      42.859  19.551  24.823  1.00  0.00    -0.744 OA
ENDBRANCH  82  83
ENDBRANCH  50  75
BRANCH  62  87
ATOM     87  C   UNL A   1      47.957  27.417  30.063  1.00  0.00     0.058 A 
ATOM     88  C   UNL A   1      48.904  27.769  29.090  1.00  0.00     0.135 A 
ATOM     89  C   UNL A   1      48.428  26.880  31.273  1.00  0.00     0.135 A 
ATOM     90  F   UNL A   1      48.506  28.279  27.913  1.00  0.00    -0.206 F 
ATOM     91  C   UNL A   1      50.268  27.608  29.313  1.00  0.00     0.059 A 
ATOM     92  C   UNL A   1      49.788  26.735  31.529  1.00  0.00     0.059 A 
ATOM     93  F   UNL A   1      47.563  26.537  32.242  1.00  0.00    -0.206 F 
ATOM     94  C   UNL A   1      50.702  27.105  30.543  1.00  0.00     0.060 A 
BRANCH  94  95
ATOM     95  S   UNL A   1      52.477  26.993  30.850  1.00  0.00     0.124 S 
ATOM     96  O   UNL A   1      53.024  27.251  29.521  1.00  0.00    -0.237 OA
ATOM     97  O   UNL A   1      52.688  28.047  31.836  1.00  0.00    -0.237 OA
ATOM     98  O   UNL A   1      52.653  25.631  31.345  1.00  0.00    -0.744 OA
ENDBRANCH  94  95
ENDBRANCH  62  87
ENDBRANCH  36  37
ENDBRANCH  29  31
ENDBRANCH  28  29
ENDBRANCH  27  28
ENDBRANCH  26  27
ENDBRANCH  25  26
ENDBRANCH   1  25
TORSDOF 21
ENDMDL
MODEL 3
REMARK VINA RESULT:     -10.2      4.882      6.048
REMARK SMILES Cc1c(Cl)ccc2c1C=C(C(=O)OCCOCCOCCOC(=O)c1ccc(-c3c4nc(c(-c5c(F)cc(S(=O)(=O)[O-])cc5F)c5ccc([nH]5)c(-c5c(F)cc(S(=O)(=O)[O-])cc5F)c5nc(c(-c6c(F)cc(S(=O)(=O)[O-])cc6F)c6ccc3[nH]6)C=C5)C=C4)cc1)[C@@H](C(F)(F)F)O2
REMARK SMILES IDX 18 1 17 2 16 3 15 4 14 5 13 6 11 7 12 8 10 9 1 10 2 11 3 12
REMARK SMILES IDX 8 13 4 14 5 15 7 16 9 17 6 18 96 19 91 20 92 21 93 22 94 23
REMARK SMILES IDX 95 24 19 25 20 26 21 27 22 28 23 29 24 30 25 31 26 32 90 33
REMARK SMILES IDX 27 34 89 35 28 36 29 37 30 38 83 39 31 40 88 41 82 42 84 43
REMARK SMILES IDX 32 44 87 45 81 46 80 47 33 49 67 50 46 51 66 52 47 53 50 54
REMARK SMILES IDX 65 55 85 56 48 57 49 58 64 60 86 61 51 62 34 63 35 64 44 65
REMARK SMILES IDX 36 66 37 67 43 68 45 69 38 70 39 71 40 72 41 73 42 74 68 75
REMARK SMILES IDX 69 76 78 77 70 78 71 79 77 80 79 81 72 82 73 83 74 84 75 85
REMARK SMILES IDX 76 86 52 87 53 88 62 89 54 90 55 91 61 92 63 93 56 94 57 95
REMARK SMILES IDX 58 96 59 97 60 98
REMARK H PARENT 84 48 50 59
REMARK Flexibility Score: inf
ROOT
ATOM      1  C   UNL A   1      31.095  29.530  24.525  1.00  0.00     0.188 C 
ENDROOT
BRANCH   1   2
ATOM      2  C   UNL A   1      31.073  28.905  23.111  1.00  0.00     0.188 C 
BRANCH   2   3
ATOM      3  O   UNL A   1      32.292  29.067  22.423  1.00  0.00    -0.376 OA
BRANCH   3   4
ATOM      4  C   UNL A   1      33.297  28.079  22.539  1.00  0.00     0.202 C 
BRANCH   4   5
ATOM      5  C   UNL A   1      33.019  26.631  22.988  1.00  0.00     0.261 C 
BRANCH   5   6
ATOM      6  O   UNL A   1      33.968  26.014  23.864  1.00  0.00    -0.460 OA
BRANCH   6   7
ATOM      7  C   UNL A   1      33.472  25.236  24.855  1.00  0.00     0.338 C 
ATOM      8  O   UNL A   1      32.476  25.455  25.520  1.00  0.00    -0.246 OA
BRANCH   7   9
ATOM      9  C   UNL A   1      34.271  23.993  24.928  1.00  0.00     0.087 C 
ATOM     10  C   UNL A   1      38.348  24.154  26.446  1.00  0.00     0.047 C 
ATOM     11  C   UNL A   1      37.712  22.911  25.871  1.00  0.00    -0.021 A 
ATOM     12  C   UNL A   1      38.481  21.738  25.713  1.00  0.00     0.044 A 
ATOM     13  C   UNL A   1      36.362  22.894  25.436  1.00  0.00     0.022 A 
ATOM     14  Cl  UNL A   1      40.175  21.694  26.064  1.00  0.00    -0.084 Cl
ATOM     15  C   UNL A   1      37.909  20.559  25.233  1.00  0.00     0.024 A 
ATOM     16  C   UNL A   1      35.792  21.687  24.998  1.00  0.00     0.128 A 
ATOM     17  C   UNL A   1      35.534  24.099  25.365  1.00  0.00     0.027 C 
ATOM     18  C   UNL A   1      36.560  20.526  24.906  1.00  0.00     0.048 A 
ATOM     19  O   UNL A   1      34.486  21.531  24.633  1.00  0.00    -0.475 OA
ATOM     20  C   UNL A   1      33.625  22.693  24.546  1.00  0.00     0.316 C 
BRANCH  20  21
ATOM     21  C   UNL A   1      33.026  22.732  23.133  1.00  0.00     0.430 C 
ATOM     22  F   UNL A   1      31.879  23.455  23.104  1.00  0.00    -0.167 F 
ATOM     23  F   UNL A   1      33.866  23.311  22.243  1.00  0.00    -0.167 F 
ATOM     24  F   UNL A   1      32.735  21.496  22.669  1.00  0.00    -0.167 F 
ENDBRANCH  20  21
ENDBRANCH   7   9
ENDBRANCH   6   7
ENDBRANCH   5   6
ENDBRANCH   4   5
ENDBRANCH   3   4
ENDBRANCH   2   3
ENDBRANCH   1   2
BRANCH   1  25
ATOM     25  O   UNL A   1      31.454  28.727  25.643  1.00  0.00    -0.376 OA
BRANCH  25  26
ATOM     26  C   UNL A   1      31.769  29.377  26.871  1.00  0.00     0.202 C 
BRANCH  26  27
ATOM     27  C   UNL A   1      32.759  30.558  26.900  1.00  0.00     0.261 C 
BRANCH  27  28
ATOM     28  O   UNL A   1      33.810  30.473  27.877  1.00  0.00    -0.460 OA
BRANCH  28  29
ATOM     29  C   UNL A   1      34.759  31.441  27.815  1.00  0.00     0.338 C 
ATOM     30  O   UNL A   1      34.597  32.623  27.555  1.00  0.00    -0.246 OA
BRANCH  29  31
ATOM     31  C   UNL A   1      36.040  30.883  28.290  1.00  0.00     0.060 A 
ATOM     32  C   UNL A   1      36.065  29.591  28.836  1.00  0.00     0.016 A 
ATOM     33  C   UNL A   1      37.208  31.643  28.219  1.00  0.00     0.016 A 
ATOM     34  C   UNL A   1      37.266  29.042  29.283  1.00  0.00     0.010 A 
ATOM     35  C   UNL A   1      38.403  31.107  28.707  1.00  0.00     0.010 A 
ATOM     36  C   UNL A   1      38.435  29.810  29.249  1.00  0.00    -0.014 A 
BRANCH  36  37
ATOM     37  C   UNL A   1      39.646  29.322  29.948  1.00  0.00     0.031 A 
ATOM     38  C   UNL A   1      40.032  29.978  31.244  1.00  0.00     0.074 A 
ATOM     39  C   UNL A   1      40.373  28.302  29.455  1.00  0.00     0.049 A 
ATOM     40  N   UNL A   1      41.045  29.726  32.028  1.00  0.00    -0.248 NA
ATOM     41  C   UNL A   1      39.153  31.060  31.717  1.00  0.00     0.031 C 
ATOM     42  C   UNL A   1      40.069  27.561  28.233  1.00  0.00     0.029 A 
ATOM     43  N   UNL A   1      41.521  27.716  29.928  1.00  0.00    -0.354 N 
ATOM     44  C   UNL A   1      40.917  30.603  33.097  1.00  0.00     0.074 A 
ATOM     45  C   UNL A   1      39.754  31.423  32.841  1.00  0.00     0.031 C 
ATOM     46  C   UNL A   1      41.015  26.622  28.047  1.00  0.00     0.029 A 
ATOM     47  C   UNL A   1      42.003  26.712  29.123  1.00  0.00     0.049 A 
ATOM     48  H   UNL A   1      41.958  27.990  30.766  1.00  0.00     0.167 HD
ATOM     49  C   UNL A   1      41.694  30.706  34.200  1.00  0.00     0.037 A 
ATOM     50  C   UNL A   1      43.120  25.964  29.236  1.00  0.00     0.037 A 
ATOM     51  C   UNL A   1      42.865  29.906  34.437  1.00  0.00     0.049 A 
ATOM     52  C   UNL A   1      44.032  26.173  30.421  1.00  0.00     0.074 A 
ATOM     53  C   UNL A   1      43.722  29.940  35.522  1.00  0.00     0.029 A 
ATOM     54  N   UNL A   1      43.351  28.938  33.571  1.00  0.00    -0.354 N 
ATOM     55  N   UNL A   1      43.886  26.986  31.440  1.00  0.00    -0.248 NA
ATOM     56  C   UNL A   1      45.258  25.364  30.474  1.00  0.00     0.031 C 
ATOM     57  C   UNL A   1      44.756  29.032  35.287  1.00  0.00     0.029 A 
ATOM     58  C   UNL A   1      44.512  28.387  34.084  1.00  0.00     0.049 A 
ATOM     59  H   UNL A   1      42.932  28.680  32.718  1.00  0.00     0.167 HD
ATOM     60  C   UNL A   1      44.981  26.763  32.269  1.00  0.00     0.074 A 
ATOM     61  C   UNL A   1      45.782  25.738  31.634  1.00  0.00     0.031 C 
ATOM     62  C   UNL A   1      45.292  27.353  33.450  1.00  0.00     0.037 A 
BRANCH  49  63
ATOM     63  C   UNL A   1      41.307  31.728  35.232  1.00  0.00     0.058 A 
ATOM     64  C   UNL A   1      41.962  32.967  35.315  1.00  0.00     0.135 A 
ATOM     65  C   UNL A   1      40.240  31.489  36.111  1.00  0.00     0.135 A 
ATOM     66  F   UNL A   1      43.004  33.237  34.512  1.00  0.00    -0.206 F 
ATOM     67  C   UNL A   1      41.581  33.928  36.244  1.00  0.00     0.059 A 
ATOM     68  C   UNL A   1      39.824  32.447  37.031  1.00  0.00     0.059 A 
ATOM     69  F   UNL A   1      39.584  30.318  36.077  1.00  0.00    -0.206 F 
ATOM     70  C   UNL A   1      40.507  33.660  37.095  1.00  0.00     0.060 A 
BRANCH  70  71
ATOM     71  S   UNL A   1      40.018  34.929  38.282  1.00  0.00     0.124 S 
ATOM     72  O   UNL A   1      39.571  36.000  37.396  1.00  0.00    -0.237 OA
ATOM     73  O   UNL A   1      38.968  34.254  39.038  1.00  0.00    -0.237 OA
ATOM     74  O   UNL A   1      41.247  35.199  39.020  1.00  0.00    -0.744 OA
ENDBRANCH  70  71
ENDBRANCH  49  63
BRANCH  50  75
ATOM     75  C   UNL A   1      43.436  24.937  28.206  1.00  0.00     0.058 A 
ATOM     76  C   UNL A   1      43.004  23.611  28.352  1.00  0.00     0.135 A 
ATOM     77  C   UNL A   1      44.169  25.260  27.052  1.00  0.00     0.135 A 
ATOM     78  F   UNL A   1      42.312  23.249  29.443  1.00  0.00    -0.206 F 
ATOM     79  C   UNL A   1      43.290  22.640  27.397  1.00  0.00     0.059 A 
ATOM     80  C   UNL A   1      44.447  24.312  26.071  1.00  0.00     0.059 A 
ATOM     81  F   UNL A   1      44.603  26.516  26.860  1.00  0.00    -0.206 F 
ATOM     82  C   UNL A   1      44.007  23.002  26.255  1.00  0.00     0.060 A 
BRANCH  82  83
ATOM     83  S   UNL A   1      44.323  21.743  25.000  1.00  0.00     0.124 S 
ATOM     84  O   UNL A   1      45.712  21.395  25.273  1.00  0.00    -0.237 OA
ATOM     85  O   UNL A   1      43.332  20.726  25.336  1.00  0.00    -0.237 OA
ATOM     86  O   UNL A   1      44.086  22.452  23.746  1.00  0.00    -0.744 OA
ENDBRANCH  82  83
ENDBRANCH  50  75
BRANCH  62  87
ATOM     87  C   UNL A   1      46.532  26.899  34.173  1.00  0.00     0.058 A 
ATOM     88  C   UNL A   1      46.513  25.801  35.045  1.00  0.00     0.135 A 
ATOM     89  C   UNL A   1      47.775  27.482  33.878  1.00  0.00     0.135 A 
ATOM     90  F   UNL A   1      45.350  25.212  35.366  1.00  0.00    -0.206 F 
ATOM     91  C   UNL A   1      47.685  25.290  35.594  1.00  0.00     0.059 A 
ATOM     92  C   UNL A   1      48.963  26.972  34.394  1.00  0.00     0.059 A 
ATOM     93  F   UNL A   1      47.849  28.529  33.040  1.00  0.00    -0.206 F 
ATOM     94  C   UNL A   1      48.908  25.873  35.250  1.00  0.00     0.060 A 
BRANCH  94  95
ATOM     95  S   UNL A   1      50.425  25.137  35.896  1.00  0.00     0.124 S 
ATOM     96  O   UNL A   1      50.206  23.720  35.623  1.00  0.00    -0.237 OA
ATOM     97  O   UNL A   1      51.452  25.786  35.087  1.00  0.00    -0.237 OA
ATOM     98  O   UNL A   1      50.413  25.513  37.306  1.00  0.00    -0.744 OA
ENDBRANCH  94  95
ENDBRANCH  62  87
ENDBRANCH  36  37
ENDBRANCH  29  31
ENDBRANCH  28  29
ENDBRANCH  27  28
ENDBRANCH  26  27
ENDBRANCH  25  26
ENDBRANCH   1  25
TORSDOF 21
ENDMDL
