MODEL 1
REMARK VINA RESULT:      -9.2      0.000      0.000
REMARK SMILES Cc1nn(C)c(N[C@@H]2C=C[C@H](C(=O)OCCOCCOCCOC(=O)c3ccc(-c4c5nc(c(-c6c(F)cc(S(=O)(=O)[O-])cc6F)c6ccc([nH]6)c(-c6c(F)cc(S(=O)(=O)[O-])cc6F)c6nc(c(-c7c(F)cc(S(=O)(=O)[O-])cc7F)c7ccc4[nH]7)C=C6)C=C5)cc3)C2)c1C#N
REMARK SMILES IDX 18 1 17 2 16 3 15 4 14 5 12 6 13 7 11 8 8 9 9 10 92 11 10 12
REMARK SMILES IDX 7 13 6 15 1 16 2 17 3 18 93 19 4 20 5 21 94 22 95 23 19 24
REMARK SMILES IDX 20 25 21 26 22 27 23 28 24 29 25 30 26 31 27 32 91 33 28 34
REMARK SMILES IDX 90 35 29 36 30 37 31 38 84 39 32 40 89 41 83 42 85 43 33 44
REMARK SMILES IDX 88 45 82 46 81 47 34 49 68 50 47 51 67 52 48 53 51 54 66 55
REMARK SMILES IDX 86 56 49 57 50 58 65 60 87 61 52 62 35 63 36 64 45 65 37 66
REMARK SMILES IDX 38 67 44 68 46 69 39 70 40 71 41 72 42 73 43 74 69 75 70 76
REMARK SMILES IDX 79 77 71 78 72 79 78 80 80 81 73 82 74 83 75 84 76 85 77 86
REMARK SMILES IDX 53 87 54 88 63 89 55 90 56 91 62 92 64 93 57 94 58 95 59 96
REMARK SMILES IDX 60 97 61 98
REMARK H PARENT 7 14 85 48 51 59
REMARK Flexibility Score: inf
ROOT
ATOM      1  C   UNL A   1      46.271  24.089  25.382  1.00  0.00     0.188 C 
ENDROOT
BRANCH   1   2
ATOM      2  O   UNL A   1      47.396  24.889  25.145  1.00  0.00    -0.376 OA
BRANCH   2   3
ATOM      3  C   UNL A   1      47.703  25.126  23.781  1.00  0.00     0.202 C 
BRANCH   3   4
ATOM      4  C   UNL A   1      48.696  26.227  23.314  1.00  0.00     0.261 C 
BRANCH   4   5
ATOM      5  O   UNL A   1      48.349  27.006  22.134  1.00  0.00    -0.463 OA
BRANCH   5   6
ATOM      6  C   UNL A   1      48.981  26.637  20.977  1.00  0.00     0.312 C 
ATOM      7  O   UNL A   1      48.576  25.709  20.274  1.00  0.00    -0.252 OA
BRANCH   6   8
ATOM      8  C   UNL A   1      50.321  27.358  20.662  1.00  0.00     0.124 C 
ATOM      9  C   UNL A   1      52.131  27.887  22.327  1.00  0.00     0.104 C 
ATOM     10  C   UNL A   1      51.299  29.071  22.020  1.00  0.00    -0.006 C 
ATOM     11  C   UNL A   1      51.678  26.896  21.225  1.00  0.00     0.048 C 
ATOM     12  C   UNL A   1      50.331  28.803  21.129  1.00  0.00    -0.014 C 
BRANCH   9  13
ATOM     13  N   UNL A   1      52.178  27.498  23.749  1.00  0.00    -0.363 N 
ATOM     14  H   UNL A   1      51.307  27.164  24.063  1.00  0.00     0.162 HD
BRANCH  13  15
ATOM     15  C   UNL A   1      53.124  27.478  24.757  1.00  0.00     0.142 A 
ATOM     16  C   UNL A   1      54.261  26.200  28.006  1.00  0.00     0.070 C 
ATOM     17  C   UNL A   1      54.076  26.901  26.705  1.00  0.00     0.079 A 
ATOM     18  N   UNL A   1      54.203  28.222  26.635  1.00  0.00    -0.175 NA
ATOM     19  C   UNL A   1      53.662  26.392  25.456  1.00  0.00     0.117 A 
ATOM     20  N   UNL A   1      53.764  28.527  25.393  1.00  0.00    -0.251 N 
ATOM     21  C   UNL A   1      53.963  29.890  25.005  1.00  0.00     0.176 C 
BRANCH  19  22
ATOM     22  C   UNL A   1      53.766  25.014  25.117  1.00  0.00     0.105 C 
ATOM     23  N   UNL A   1      53.660  23.887  24.917  1.00  0.00    -0.192 NA
ENDBRANCH  19  22
ENDBRANCH  13  15
ENDBRANCH   9  13
ENDBRANCH   6   8
ENDBRANCH   5   6
ENDBRANCH   4   5
ENDBRANCH   3   4
ENDBRANCH   2   3
ENDBRANCH   1   2
BRANCH   1  24
ATOM     24  C   UNL A   1      46.312  22.776  24.629  1.00  0.00     0.188 C 
BRANCH  24  25
ATOM     25  O   UNL A   1      46.254  21.570  25.369  1.00  0.00    -0.376 OA
BRANCH  25  26
ATOM     26  C   UNL A   1      46.201  20.344  24.669  1.00  0.00     0.202 C 
BRANCH  26  27
ATOM     27  C   UNL A   1      45.110  19.355  25.005  1.00  0.00     0.261 C 
BRANCH  27  28
ATOM     28  O   UNL A   1      43.738  19.736  24.919  1.00  0.00    -0.460 OA
BRANCH  28  29
ATOM     29  C   UNL A   1      42.657  19.523  25.683  1.00  0.00     0.338 C 
ATOM     30  O   UNL A   1      42.055  18.499  25.922  1.00  0.00    -0.246 OA
BRANCH  29  31
ATOM     31  C   UNL A   1      42.361  20.884  26.204  1.00  0.00     0.060 A 
ATOM     32  C   UNL A   1      42.670  22.032  25.470  1.00  0.00     0.016 A 
ATOM     33  C   UNL A   1      41.843  20.987  27.511  1.00  0.00     0.016 A 
ATOM     34  C   UNL A   1      42.694  23.251  26.141  1.00  0.00     0.010 A 
ATOM     35  C   UNL A   1      41.876  22.176  28.169  1.00  0.00     0.010 A 
ATOM     36  C   UNL A   1      42.410  23.272  27.513  1.00  0.00    -0.014 A 
BRANCH  36  37
ATOM     37  C   UNL A   1      42.535  24.452  28.339  1.00  0.00     0.031 A 
ATOM     38  C   UNL A   1      41.416  25.399  28.116  1.00  0.00     0.074 A 
ATOM     39  C   UNL A   1      43.426  24.476  29.357  1.00  0.00     0.049 A 
ATOM     40  N   UNL A   1      41.412  26.410  27.310  1.00  0.00    -0.248 NA
ATOM     41  C   UNL A   1      40.069  25.036  28.597  1.00  0.00     0.031 C 
ATOM     42  C   UNL A   1      44.359  23.428  29.796  1.00  0.00     0.029 A 
ATOM     43  N   UNL A   1      43.646  25.457  30.275  1.00  0.00    -0.354 N 
ATOM     44  C   UNL A   1      40.166  26.997  27.486  1.00  0.00     0.074 A 
ATOM     45  C   UNL A   1      39.317  25.953  27.980  1.00  0.00     0.031 C 
ATOM     46  C   UNL A   1      44.868  23.738  31.014  1.00  0.00     0.029 A 
ATOM     47  C   UNL A   1      44.432  25.072  31.373  1.00  0.00     0.049 A 
ATOM     48  H   UNL A   1      43.281  26.366  30.177  1.00  0.00     0.167 HD
ATOM     49  C   UNL A   1      40.059  28.353  27.603  1.00  0.00     0.037 A 
ATOM     50  C   UNL A   1      44.688  25.842  32.472  1.00  0.00     0.037 A 
ATOM     51  C   UNL A   1      41.313  28.972  27.229  1.00  0.00     0.049 A 
ATOM     52  C   UNL A   1      44.433  27.253  32.045  1.00  0.00     0.074 A 
ATOM     53  C   UNL A   1      42.096  28.977  26.091  1.00  0.00     0.029 A 
ATOM     54  N   UNL A   1      42.147  29.317  28.268  1.00  0.00    -0.354 N 
ATOM     55  N   UNL A   1      45.138  27.848  31.115  1.00  0.00    -0.248 NA
ATOM     56  C   UNL A   1      43.075  27.750  32.215  1.00  0.00     0.031 C 
ATOM     57  C   UNL A   1      43.436  28.855  26.566  1.00  0.00     0.029 A 
ATOM     58  C   UNL A   1      43.425  28.929  27.961  1.00  0.00     0.049 A 
ATOM     59  H   UNL A   1      41.870  29.769  29.098  1.00  0.00     0.167 HD
ATOM     60  C   UNL A   1      44.197  28.459  30.293  1.00  0.00     0.074 A 
ATOM     61  C   UNL A   1      42.939  28.386  31.045  1.00  0.00     0.031 C 
ATOM     62  C   UNL A   1      44.441  28.656  28.959  1.00  0.00     0.037 A 
BRANCH  49  63
ATOM     63  C   UNL A   1      39.050  29.080  28.473  1.00  0.00     0.058 A 
ATOM     64  C   UNL A   1      38.185  30.008  27.854  1.00  0.00     0.135 A 
ATOM     65  C   UNL A   1      39.059  29.119  29.886  1.00  0.00     0.135 A 
ATOM     66  F   UNL A   1      38.083  30.062  26.516  1.00  0.00    -0.206 F 
ATOM     67  C   UNL A   1      37.455  30.952  28.576  1.00  0.00     0.059 A 
ATOM     68  C   UNL A   1      38.304  30.022  30.627  1.00  0.00     0.059 A 
ATOM     69  F   UNL A   1      39.854  28.348  30.632  1.00  0.00    -0.206 F 
ATOM     70  C   UNL A   1      37.528  30.956  29.964  1.00  0.00     0.060 A 
BRANCH  70  71
ATOM     71  S   UNL A   1      36.616  32.197  30.894  1.00  0.00     0.124 S 
ATOM     72  O   UNL A   1      37.518  32.451  32.011  1.00  0.00    -0.237 OA
ATOM     73  O   UNL A   1      36.491  33.270  29.914  1.00  0.00    -0.237 OA
ATOM     74  O   UNL A   1      35.369  31.516  31.230  1.00  0.00    -0.744 OA
ENDBRANCH  70  71
ENDBRANCH  49  63
BRANCH  50  75
ATOM     75  C   UNL A   1      44.681  25.432  33.912  1.00  0.00     0.058 A 
ATOM     76  C   UNL A   1      45.867  25.102  34.604  1.00  0.00     0.135 A 
ATOM     77  C   UNL A   1      43.548  25.651  34.721  1.00  0.00     0.135 A 
ATOM     78  F   UNL A   1      47.004  24.887  33.924  1.00  0.00    -0.206 F 
ATOM     79  C   UNL A   1      45.935  25.052  36.008  1.00  0.00     0.059 A 
ATOM     80  C   UNL A   1      43.593  25.606  36.117  1.00  0.00     0.059 A 
ATOM     81  F   UNL A   1      42.376  26.007  34.177  1.00  0.00    -0.206 F 
ATOM     82  C   UNL A   1      44.795  25.333  36.759  1.00  0.00     0.060 A 
BRANCH  82  83
ATOM     83  S   UNL A   1      44.903  25.461  38.565  1.00  0.00     0.124 S 
ATOM     84  O   UNL A   1      43.723  26.257  38.886  1.00  0.00    -0.237 OA
ATOM     85  O   UNL A   1      44.860  24.063  38.980  1.00  0.00    -0.237 OA
ATOM     86  O   UNL A   1      46.183  26.131  38.780  1.00  0.00    -0.744 OA
ENDBRANCH  82  83
ENDBRANCH  50  75
BRANCH  62  87
ATOM     87  C   UNL A   1      45.848  28.445  28.443  1.00  0.00     0.058 A 
ATOM     88  C   UNL A   1      46.378  27.229  27.968  1.00  0.00     0.135 A 
ATOM     89  C   UNL A   1      46.646  29.585  28.280  1.00  0.00     0.135 A 
ATOM     90  F   UNL A   1      45.649  26.107  27.982  1.00  0.00    -0.206 F 
ATOM     91  C   UNL A   1      47.659  27.146  27.408  1.00  0.00     0.059 A 
ATOM     92  C   UNL A   1      47.909  29.533  27.699  1.00  0.00     0.059 A 
ATOM     93  F   UNL A   1      46.176  30.789  28.644  1.00  0.00    -0.206 F 
ATOM     94  C   UNL A   1      48.420  28.307  27.285  1.00  0.00     0.060 A 
BRANCH  94  95
ATOM     95  S   UNL A   1      50.074  28.220  26.563  1.00  0.00     0.124 S 
ATOM     96  O   UNL A   1      50.272  26.781  26.426  1.00  0.00    -0.237 OA
ATOM     97  O   UNL A   1      49.917  28.961  25.315  1.00  0.00    -0.237 OA
ATOM     98  O   UNL A   1      50.918  28.871  27.563  1.00  0.00    -0.744 OA
ENDBRANCH  94  95
ENDBRANCH  62  87
ENDBRANCH  36  37
ENDBRANCH  29  31
ENDBRANCH  28  29
ENDBRANCH  27  28
ENDBRANCH  26  27
ENDBRANCH  25  26
ENDBRANCH  24  25
ENDBRANCH   1  24
TORSDOF 23
ENDMDL
MODEL 2
REMARK VINA RESULT:      -8.7      5.442     12.263
REMARK SMILES Cc1nn(C)c(N[C@@H]2C=C[C@H](C(=O)OCCOCCOCCOC(=O)c3ccc(-c4c5nc(c(-c6c(F)cc(S(=O)(=O)[O-])cc6F)c6ccc([nH]6)c(-c6c(F)cc(S(=O)(=O)[O-])cc6F)c6nc(c(-c7c(F)cc(S(=O)(=O)[O-])cc7F)c7ccc4[nH]7)C=C6)C=C5)cc3)C2)c1C#N
REMARK SMILES IDX 18 1 17 2 16 3 15 4 14 5 12 6 13 7 11 8 8 9 9 10 92 11 10 12
REMARK SMILES IDX 7 13 6 15 1 16 2 17 3 18 93 19 4 20 5 21 94 22 95 23 19 24
REMARK SMILES IDX 20 25 21 26 22 27 23 28 24 29 25 30 26 31 27 32 91 33 28 34
REMARK SMILES IDX 90 35 29 36 30 37 31 38 84 39 32 40 89 41 83 42 85 43 33 44
REMARK SMILES IDX 88 45 82 46 81 47 34 49 68 50 47 51 67 52 48 53 51 54 66 55
REMARK SMILES IDX 86 56 49 57 50 58 65 60 87 61 52 62 35 63 36 64 45 65 37 66
REMARK SMILES IDX 38 67 44 68 46 69 39 70 40 71 41 72 42 73 43 74 69 75 70 76
REMARK SMILES IDX 79 77 71 78 72 79 78 80 80 81 73 82 74 83 75 84 76 85 77 86
REMARK SMILES IDX 53 87 54 88 63 89 55 90 56 91 62 92 64 93 57 94 58 95 59 96
REMARK SMILES IDX 60 97 61 98
REMARK H PARENT 7 14 85 48 51 59
REMARK Flexibility Score: inf
ROOT
ATOM      1  C   UNL A   1      40.040  22.158  26.818  1.00  0.00     0.188 C 
ENDROOT
BRANCH   1   2
ATOM      2  O   UNL A   1      39.437  21.377  25.822  1.00  0.00    -0.376 OA
BRANCH   2   3
ATOM      3  C   UNL A   1      38.065  21.646  25.581  1.00  0.00     0.202 C 
BRANCH   3   4
ATOM      4  C   UNL A   1      37.462  23.078  25.617  1.00  0.00     0.261 C 
BRANCH   4   5
ATOM      5  O   UNL A   1      36.645  23.505  24.490  1.00  0.00    -0.463 OA
BRANCH   5   6
ATOM      6  C   UNL A   1      35.292  23.437  24.683  1.00  0.00     0.312 C 
ATOM      7  O   UNL A   1      34.756  23.812  25.728  1.00  0.00    -0.252 OA
BRANCH   6   8
ATOM      8  C   UNL A   1      34.471  22.729  23.569  1.00  0.00     0.124 C 
ATOM      9  C   UNL A   1      32.115  23.298  22.893  1.00  0.00     0.104 C 
ATOM     10  C   UNL A   1      32.167  22.102  23.763  1.00  0.00    -0.006 C 
ATOM     11  C   UNL A   1      33.612  23.491  22.543  1.00  0.00     0.048 C 
ATOM     12  C   UNL A   1      33.420  21.785  24.127  1.00  0.00    -0.014 C 
BRANCH   9  13
ATOM     13  N   UNL A   1      31.286  24.410  23.395  1.00  0.00    -0.363 N 
ATOM     14  H   UNL A   1      30.374  24.378  23.024  1.00  0.00     0.162 HD
BRANCH  13  15
ATOM     15  C   UNL A   1      31.452  25.485  24.248  1.00  0.00     0.142 A 
ATOM     16  C   UNL A   1      32.967  28.752  24.963  1.00  0.00     0.070 C 
ATOM     17  C   UNL A   1      32.225  27.460  24.977  1.00  0.00     0.079 A 
ATOM     18  N   UNL A   1      32.333  26.641  26.017  1.00  0.00    -0.175 NA
ATOM     19  C   UNL A   1      31.446  26.856  23.969  1.00  0.00     0.117 A 
ATOM     20  N   UNL A   1      31.723  25.507  25.605  1.00  0.00    -0.251 N 
ATOM     21  C   UNL A   1      31.553  24.513  26.620  1.00  0.00     0.176 C 
BRANCH  19  22
ATOM     22  C   UNL A   1      30.874  27.594  22.895  1.00  0.00     0.105 C 
ATOM     23  N   UNL A   1      30.291  28.028  22.004  1.00  0.00    -0.192 NA
ENDBRANCH  19  22
ENDBRANCH  13  15
ENDBRANCH   9  13
ENDBRANCH   6   8
ENDBRANCH   5   6
ENDBRANCH   4   5
ENDBRANCH   3   4
ENDBRANCH   2   3
ENDBRANCH   1   2
BRANCH   1  24
ATOM     24  C   UNL A   1      41.054  21.388  27.638  1.00  0.00     0.188 C 
BRANCH  24  25
ATOM     25  O   UNL A   1      42.325  21.127  27.070  1.00  0.00    -0.376 OA
BRANCH  25  26
ATOM     26  C   UNL A   1      42.917  22.112  26.250  1.00  0.00     0.202 C 
BRANCH  26  27
ATOM     27  C   UNL A   1      43.853  23.120  26.875  1.00  0.00     0.261 C 
BRANCH  27  28
ATOM     28  O   UNL A   1      44.081  24.381  26.248  1.00  0.00    -0.460 OA
BRANCH  28  29
ATOM     29  C   UNL A   1      43.327  25.207  25.507  1.00  0.00     0.338 C 
ATOM     30  O   UNL A   1      42.731  25.009  24.471  1.00  0.00    -0.246 OA
BRANCH  29  31
ATOM     31  C   UNL A   1      43.382  26.473  26.286  1.00  0.00     0.060 A 
ATOM     32  C   UNL A   1      44.170  26.593  27.434  1.00  0.00     0.016 A 
ATOM     33  C   UNL A   1      42.533  27.525  25.886  1.00  0.00     0.016 A 
ATOM     34  C   UNL A   1      43.913  27.654  28.296  1.00  0.00     0.010 A 
ATOM     35  C   UNL A   1      42.276  28.557  26.733  1.00  0.00     0.010 A 
ATOM     36  C   UNL A   1      42.881  28.548  27.977  1.00  0.00    -0.014 A 
BRANCH  36  37
ATOM     37  C   UNL A   1      42.437  29.605  28.859  1.00  0.00     0.031 A 
ATOM     38  C   UNL A   1      43.392  30.739  28.883  1.00  0.00     0.074 A 
ATOM     39  C   UNL A   1      41.169  29.602  29.334  1.00  0.00     0.049 A 
ATOM     40  N   UNL A   1      44.343  30.925  29.737  1.00  0.00    -0.248 NA
ATOM     41  C   UNL A   1      43.510  31.596  27.687  1.00  0.00     0.031 C 
ATOM     42  C   UNL A   1      40.090  28.635  29.089  1.00  0.00     0.029 A 
ATOM     43  N   UNL A   1      40.550  30.530  30.114  1.00  0.00    -0.354 N 
ATOM     44  C   UNL A   1      44.925  32.129  29.362  1.00  0.00     0.074 A 
ATOM     45  C   UNL A   1      44.622  32.282  27.969  1.00  0.00     0.031 C 
ATOM     46  C   UNL A   1      38.906  29.141  29.513  1.00  0.00     0.029 A 
ATOM     47  C   UNL A   1      39.156  30.390  30.204  1.00  0.00     0.049 A 
ATOM     48  H   UNL A   1      41.041  31.244  30.580  1.00  0.00     0.167 HD
ATOM     49  C   UNL A   1      45.234  33.064  30.307  1.00  0.00     0.037 A 
ATOM     50  C   UNL A   1      38.310  31.263  30.827  1.00  0.00     0.037 A 
ATOM     51  C   UNL A   1      45.136  32.472  31.625  1.00  0.00     0.049 A 
ATOM     52  C   UNL A   1      39.163  32.039  31.781  1.00  0.00     0.074 A 
ATOM     53  C   UNL A   1      45.740  31.404  32.260  1.00  0.00     0.029 A 
ATOM     54  N   UNL A   1      43.962  32.707  32.304  1.00  0.00    -0.354 N 
ATOM     55  N   UNL A   1      39.783  31.480  32.790  1.00  0.00    -0.248 NA
ATOM     56  C   UNL A   1      39.777  33.255  31.266  1.00  0.00     0.031 C 
ATOM     57  C   UNL A   1      44.687  30.759  32.975  1.00  0.00     0.029 A 
ATOM     58  C   UNL A   1      43.530  31.534  32.866  1.00  0.00     0.049 A 
ATOM     59  H   UNL A   1      43.507  33.577  32.375  1.00  0.00     0.167 HD
ATOM     60  C   UNL A   1      41.075  31.992  32.742  1.00  0.00     0.074 A 
ATOM     61  C   UNL A   1      40.999  33.110  31.793  1.00  0.00     0.031 C 
ATOM     62  C   UNL A   1      42.144  31.268  33.199  1.00  0.00     0.037 A 
BRANCH  49  63
ATOM     63  C   UNL A   1      45.155  34.567  30.112  1.00  0.00     0.058 A 
ATOM     64  C   UNL A   1      43.921  35.121  29.705  1.00  0.00     0.135 A 
ATOM     65  C   UNL A   1      46.259  35.446  30.041  1.00  0.00     0.135 A 
ATOM     66  F   UNL A   1      42.797  34.386  29.736  1.00  0.00    -0.206 F 
ATOM     67  C   UNL A   1      43.811  36.413  29.192  1.00  0.00     0.059 A 
ATOM     68  C   UNL A   1      46.162  36.753  29.575  1.00  0.00     0.059 A 
ATOM     69  F   UNL A   1      47.508  35.075  30.337  1.00  0.00    -0.206 F 
ATOM     70  C   UNL A   1      44.941  37.220  29.123  1.00  0.00     0.060 A 
BRANCH  70  71
ATOM     71  S   UNL A   1      44.805  38.873  28.427  1.00  0.00     0.124 S 
ATOM     72  O   UNL A   1      44.525  38.581  27.026  1.00  0.00    -0.237 OA
ATOM     73  O   UNL A   1      43.701  39.431  29.199  1.00  0.00    -0.237 OA
ATOM     74  O   UNL A   1      46.113  39.462  28.700  1.00  0.00    -0.744 OA
ENDBRANCH  70  71
ENDBRANCH  49  63
BRANCH  50  75
ATOM     75  C   UNL A   1      36.986  31.772  30.349  1.00  0.00     0.058 A 
ATOM     76  C   UNL A   1      35.971  32.177  31.243  1.00  0.00     0.135 A 
ATOM     77  C   UNL A   1      36.801  32.157  29.007  1.00  0.00     0.135 A 
ATOM     78  F   UNL A   1      36.062  31.870  32.547  1.00  0.00    -0.206 F 
ATOM     79  C   UNL A   1      34.877  32.963  30.840  1.00  0.00     0.059 A 
ATOM     80  C   UNL A   1      35.722  32.939  28.583  1.00  0.00     0.059 A 
ATOM     81  F   UNL A   1      37.718  31.861  28.075  1.00  0.00    -0.206 F 
ATOM     82  C   UNL A   1      34.775  33.363  29.508  1.00  0.00     0.060 A 
BRANCH  82  83
ATOM     83  S   UNL A   1      33.482  34.531  29.004  1.00  0.00     0.124 S 
ATOM     84  O   UNL A   1      32.750  33.763  28.003  1.00  0.00    -0.237 OA
ATOM     85  O   UNL A   1      32.777  34.775  30.258  1.00  0.00    -0.237 OA
ATOM     86  O   UNL A   1      34.236  35.669  28.486  1.00  0.00    -0.744 OA
ENDBRANCH  82  83
ENDBRANCH  50  75
BRANCH  62  87
ATOM     87  C   UNL A   1      41.876  30.013  34.002  1.00  0.00     0.058 A 
ATOM     88  C   UNL A   1      41.688  28.720  33.472  1.00  0.00     0.135 A 
ATOM     89  C   UNL A   1      41.974  30.114  35.396  1.00  0.00     0.135 A 
ATOM     90  F   UNL A   1      41.689  28.510  32.151  1.00  0.00    -0.206 F 
ATOM     91  C   UNL A   1      41.552  27.595  34.294  1.00  0.00     0.059 A 
ATOM     92  C   UNL A   1      41.872  29.006  36.231  1.00  0.00     0.059 A 
ATOM     93  F   UNL A   1      42.225  31.303  35.965  1.00  0.00    -0.206 F 
ATOM     94  C   UNL A   1      41.638  27.751  35.676  1.00  0.00     0.060 A 
BRANCH  94  95
ATOM     95  S   UNL A   1      41.466  26.310  36.752  1.00  0.00     0.124 S 
ATOM     96  O   UNL A   1      42.816  26.166  37.288  1.00  0.00    -0.237 OA
ATOM     97  O   UNL A   1      40.448  26.742  37.705  1.00  0.00    -0.237 OA
ATOM     98  O   UNL A   1      41.043  25.250  35.838  1.00  0.00    -0.744 OA
ENDBRANCH  94  95
ENDBRANCH  62  87
ENDBRANCH  36  37
ENDBRANCH  29  31
ENDBRANCH  28  29
ENDBRANCH  27  28
ENDBRANCH  26  27
ENDBRANCH  25  26
ENDBRANCH  24  25
ENDBRANCH   1  24
TORSDOF 23
ENDMDL
MODEL 3
REMARK VINA RESULT:      -8.4      1.773      2.154
REMARK SMILES Cc1nn(C)c(N[C@@H]2C=C[C@H](C(=O)OCCOCCOCCOC(=O)c3ccc(-c4c5nc(c(-c6c(F)cc(S(=O)(=O)[O-])cc6F)c6ccc([nH]6)c(-c6c(F)cc(S(=O)(=O)[O-])cc6F)c6nc(c(-c7c(F)cc(S(=O)(=O)[O-])cc7F)c7ccc4[nH]7)C=C6)C=C5)cc3)C2)c1C#N
REMARK SMILES IDX 18 1 17 2 16 3 15 4 14 5 12 6 13 7 11 8 8 9 9 10 92 11 10 12
REMARK SMILES IDX 7 13 6 15 1 16 2 17 3 18 93 19 4 20 5 21 94 22 95 23 19 24
REMARK SMILES IDX 20 25 21 26 22 27 23 28 24 29 25 30 26 31 27 32 91 33 28 34
REMARK SMILES IDX 90 35 29 36 30 37 31 38 84 39 32 40 89 41 83 42 85 43 33 44
REMARK SMILES IDX 88 45 82 46 81 47 34 49 68 50 47 51 67 52 48 53 51 54 66 55
REMARK SMILES IDX 86 56 49 57 50 58 65 60 87 61 52 62 35 63 36 64 45 65 37 66
REMARK SMILES IDX 38 67 44 68 46 69 39 70 40 71 41 72 42 73 43 74 69 75 70 76
REMARK SMILES IDX 79 77 71 78 72 79 78 80 80 81 73 82 74 83 75 84 76 85 77 86
REMARK SMILES IDX 53 87 54 88 63 89 55 90 56 91 62 92 64 93 57 94 58 95 59 96
REMARK SMILES IDX 60 97 61 98
REMARK H PARENT 7 14 85 48 51 59
REMARK Flexibility Score: inf
ROOT
ATOM      1  C   UNL A   1      46.609  24.491  25.148  1.00  0.00     0.188 C 
ENDROOT
BRANCH   1   2
ATOM      2  O   UNL A   1      47.894  25.018  24.965  1.00  0.00    -0.376 OA
BRANCH   2   3
ATOM      3  C   UNL A   1      48.012  26.007  23.954  1.00  0.00     0.202 C 
BRANCH   3   4
ATOM      4  C   UNL A   1      49.358  26.345  23.253  1.00  0.00     0.261 C 
BRANCH   4   5
ATOM      5  O   UNL A   1      49.330  27.269  22.129  1.00  0.00    -0.463 OA
BRANCH   5   6
ATOM      6  C   UNL A   1      49.303  26.689  20.889  1.00  0.00     0.312 C 
ATOM      7  O   UNL A   1      48.272  26.220  20.405  1.00  0.00    -0.252 OA
BRANCH   6   8
ATOM      8  C   UNL A   1      50.674  26.525  20.175  1.00  0.00     0.124 C 
ATOM      9  C   UNL A   1      52.724  27.923  20.589  1.00  0.00     0.104 C 
ATOM     10  C   UNL A   1      52.012  28.336  19.360  1.00  0.00    -0.006 C 
ATOM     11  C   UNL A   1      52.022  26.580  20.916  1.00  0.00     0.048 C 
ATOM     12  C   UNL A   1      50.918  27.594  19.125  1.00  0.00    -0.014 C 
BRANCH   9  13
ATOM     13  N   UNL A   1      52.895  28.977  21.606  1.00  0.00    -0.363 N 
ATOM     14  H   UNL A   1      52.284  28.849  22.367  1.00  0.00     0.162 HD
BRANCH  13  15
ATOM     15  C   UNL A   1      53.689  30.097  21.772  1.00  0.00     0.142 A 
ATOM     16  C   UNL A   1      55.997  32.061  23.845  1.00  0.00     0.070 C 
ATOM     17  C   UNL A   1      55.095  31.516  22.792  1.00  0.00     0.079 A 
ATOM     18  N   UNL A   1      54.151  32.286  22.260  1.00  0.00    -0.175 NA
ATOM     19  C   UNL A   1      54.986  30.204  22.287  1.00  0.00     0.117 A 
ATOM     20  N   UNL A   1      53.406  31.429  21.526  1.00  0.00    -0.251 N 
ATOM     21  C   UNL A   1      52.412  32.049  20.705  1.00  0.00     0.176 C 
BRANCH  19  22
ATOM     22  C   UNL A   1      56.036  29.250  22.398  1.00  0.00     0.105 C 
ATOM     23  N   UNL A   1      56.752  28.351  22.398  1.00  0.00    -0.192 NA
ENDBRANCH  19  22
ENDBRANCH  13  15
ENDBRANCH   9  13
ENDBRANCH   6   8
ENDBRANCH   5   6
ENDBRANCH   4   5
ENDBRANCH   3   4
ENDBRANCH   2   3
ENDBRANCH   1   2
BRANCH   1  24
ATOM     24  C   UNL A   1      46.407  23.169  24.435  1.00  0.00     0.188 C 
BRANCH  24  25
ATOM     25  O   UNL A   1      46.354  21.985  25.209  1.00  0.00    -0.376 OA
BRANCH  25  26
ATOM     26  C   UNL A   1      46.363  20.738  24.546  1.00  0.00     0.202 C 
BRANCH  26  27
ATOM     27  C   UNL A   1      45.400  19.663  24.994  1.00  0.00     0.261 C 
BRANCH  27  28
ATOM     28  O   UNL A   1      43.997  19.824  24.801  1.00  0.00    -0.460 OA
BRANCH  28  29
ATOM     29  C   UNL A   1      42.913  19.574  25.551  1.00  0.00     0.338 C 
ATOM     30  O   UNL A   1      42.334  18.533  25.771  1.00  0.00    -0.246 OA
BRANCH  29  31
ATOM     31  C   UNL A   1      42.578  20.921  26.085  1.00  0.00     0.060 A 
ATOM     32  C   UNL A   1      42.927  22.088  25.401  1.00  0.00     0.016 A 
ATOM     33  C   UNL A   1      41.978  20.989  27.360  1.00  0.00     0.016 A 
ATOM     34  C   UNL A   1      42.903  23.290  26.102  1.00  0.00     0.010 A 
ATOM     35  C   UNL A   1      41.963  22.162  28.047  1.00  0.00     0.010 A 
ATOM     36  C   UNL A   1      42.532  23.275  27.454  1.00  0.00    -0.014 A 
BRANCH  36  37
ATOM     37  C   UNL A   1      42.599  24.435  28.315  1.00  0.00     0.031 A 
ATOM     38  C   UNL A   1      41.432  25.329  28.123  1.00  0.00     0.074 A 
ATOM     39  C   UNL A   1      43.491  24.474  29.332  1.00  0.00     0.049 A 
ATOM     40  N   UNL A   1      41.373  26.362  27.348  1.00  0.00    -0.248 NA
ATOM     41  C   UNL A   1      40.107  24.883  28.595  1.00  0.00     0.031 C 
ATOM     42  C   UNL A   1      44.478  23.463  29.737  1.00  0.00     0.029 A 
ATOM     43  N   UNL A   1      43.662  25.437  30.279  1.00  0.00    -0.354 N 
ATOM     44  C   UNL A   1      40.099  26.879  27.544  1.00  0.00     0.074 A 
ATOM     45  C   UNL A   1      39.307  25.778  28.007  1.00  0.00     0.031 C 
ATOM     46  C   UNL A   1      44.974  23.762  30.963  1.00  0.00     0.029 A 
ATOM     47  C   UNL A   1      44.471  25.061  31.364  1.00  0.00     0.049 A 
ATOM     48  H   UNL A   1      43.251  26.328  30.209  1.00  0.00     0.167 HD
ATOM     49  C   UNL A   1      39.922  28.223  27.702  1.00  0.00     0.037 A 
ATOM     50  C   UNL A   1      44.691  25.808  32.485  1.00  0.00     0.037 A 
ATOM     51  C   UNL A   1      41.142  28.918  27.344  1.00  0.00     0.049 A 
ATOM     52  C   UNL A   1      44.362  27.217  32.101  1.00  0.00     0.074 A 
ATOM     53  C   UNL A   1      41.919  28.997  26.206  1.00  0.00     0.029 A 
ATOM     54  N   UNL A   1      41.960  29.273  28.393  1.00  0.00    -0.354 N 
ATOM     55  N   UNL A   1      45.031  27.875  31.189  1.00  0.00    -0.248 NA
ATOM     56  C   UNL A   1      42.980  27.638  32.288  1.00  0.00     0.031 C 
ATOM     57  C   UNL A   1      43.265  28.931  26.675  1.00  0.00     0.029 A 
ATOM     58  C   UNL A   1      43.256  28.961  28.072  1.00  0.00     0.049 A 
ATOM     59  H   UNL A   1      41.663  29.686  29.236  1.00  0.00     0.167 HD
ATOM     60  C   UNL A   1      44.058  28.461  30.387  1.00  0.00     0.074 A 
ATOM     61  C   UNL A   1      42.808  28.301  31.139  1.00  0.00     0.031 C 
ATOM     62  C   UNL A   1      44.288  28.711  29.060  1.00  0.00     0.037 A 
BRANCH  49  63
ATOM     63  C   UNL A   1      38.880  28.870  28.595  1.00  0.00     0.058 A 
ATOM     64  C   UNL A   1      38.031  29.845  28.028  1.00  0.00     0.135 A 
ATOM     65  C   UNL A   1      38.841  28.790  30.006  1.00  0.00     0.135 A 
ATOM     66  F   UNL A   1      37.973  30.012  26.696  1.00  0.00    -0.206 F 
ATOM     67  C   UNL A   1      37.271  30.722  28.801  1.00  0.00     0.059 A 
ATOM     68  C   UNL A   1      38.055  29.625  30.794  1.00  0.00     0.059 A 
ATOM     69  F   UNL A   1      39.615  27.961  30.711  1.00  0.00    -0.206 F 
ATOM     70  C   UNL A   1      37.297  30.609  30.187  1.00  0.00     0.060 A 
BRANCH  70  71
ATOM     71  S   UNL A   1      36.346  31.763  31.186  1.00  0.00     0.124 S 
ATOM     72  O   UNL A   1      35.973  30.931  32.324  1.00  0.00    -0.237 OA
ATOM     73  O   UNL A   1      37.329  32.807  31.451  1.00  0.00    -0.237 OA
ATOM     74  O   UNL A   1      35.251  32.152  30.301  1.00  0.00    -0.744 OA
ENDBRANCH  70  71
ENDBRANCH  49  63
BRANCH  50  75
ATOM     75  C   UNL A   1      44.709  25.356  33.912  1.00  0.00     0.058 A 
ATOM     76  C   UNL A   1      44.091  24.155  34.326  1.00  0.00     0.135 A 
ATOM     77  C   UNL A   1      45.593  25.935  34.843  1.00  0.00     0.135 A 
ATOM     78  F   UNL A   1      43.242  23.518  33.505  1.00  0.00    -0.206 F 
ATOM     79  C   UNL A   1      44.379  23.542  35.558  1.00  0.00     0.059 A 
ATOM     80  C   UNL A   1      45.894  25.343  36.074  1.00  0.00     0.059 A 
ATOM     81  F   UNL A   1      46.266  27.056  34.545  1.00  0.00    -0.206 F 
ATOM     82  C   UNL A   1      45.305  24.133  36.417  1.00  0.00     0.060 A 
BRANCH  82  83
ATOM     83  S   UNL A   1      45.833  23.267  37.920  1.00  0.00     0.124 S 
ATOM     84  O   UNL A   1      45.673  21.868  37.540  1.00  0.00    -0.237 OA
ATOM     85  O   UNL A   1      47.207  23.729  38.080  1.00  0.00    -0.237 OA
ATOM     86  O   UNL A   1      44.897  23.747  38.934  1.00  0.00    -0.744 OA
ENDBRANCH  82  83
ENDBRANCH  50  75
BRANCH  62  87
ATOM     87  C   UNL A   1      45.702  28.589  28.535  1.00  0.00     0.058 A 
ATOM     88  C   UNL A   1      46.248  27.460  27.891  1.00  0.00     0.135 A 
ATOM     89  C   UNL A   1      46.491  29.746  28.552  1.00  0.00     0.135 A 
ATOM     90  F   UNL A   1      45.528  26.343  27.731  1.00  0.00    -0.206 F 
ATOM     91  C   UNL A   1      47.535  27.471  27.340  1.00  0.00     0.059 A 
ATOM     92  C   UNL A   1      47.761  29.790  27.985  1.00  0.00     0.059 A 
ATOM     93  F   UNL A   1      46.006  30.879  29.084  1.00  0.00    -0.206 F 
ATOM     94  C   UNL A   1      48.287  28.642  27.400  1.00  0.00     0.060 A 
BRANCH  94  95
ATOM     95  S   UNL A   1      49.950  28.674  26.693  1.00  0.00     0.124 S 
ATOM     96  O   UNL A   1      49.673  28.799  25.266  1.00  0.00    -0.237 OA
ATOM     97  O   UNL A   1      50.545  29.846  27.329  1.00  0.00    -0.237 OA
ATOM     98  O   UNL A   1      50.522  27.394  27.106  1.00  0.00    -0.744 OA
ENDBRANCH  94  95
ENDBRANCH  62  87
ENDBRANCH  36  37
ENDBRANCH  29  31
ENDBRANCH  28  29
ENDBRANCH  27  28
ENDBRANCH  26  27
ENDBRANCH  25  26
ENDBRANCH  24  25
ENDBRANCH   1  24
TORSDOF 23
ENDMDL
