MODEL 1
REMARK VINA RESULT:     -10.8      0.000      0.000
REMARK SMILES COc1c[nH]c(C[N@H+]2CCC[C@@H](c3ccc(C(=O)OCCOCCOCCOC(=O)c4ccc(-c5c6nc(c(-c7c(F)cc(S(=O)(=O)[O-])cc7F)c7ccc([nH]7)c(-c7c(F)cc(S(=O)(=O)[O-])cc7F)c7nc(c(-c8c(F)cc(S(=O)(=O)[O-])cc8F)c8ccc5[nH]8)C=C7)C=C6)cc4)cc3)C2)cc1=O
REMARK SMILES IDX 23 1 22 2 21 3 20 4 19 5 17 6 18 7 16 8 13 9 14 10 98 11
REMARK SMILES IDX 15 12 97 13 12 14 8 15 9 16 99 17 10 19 11 20 7 21 6 22 3 23
REMARK SMILES IDX 4 24 101 25 5 26 100 27 102 28 2 30 1 31 24 32 25 33 26 34
REMARK SMILES IDX 27 35 28 36 29 37 30 38 31 39 32 40 96 41 33 42 95 43 34 44
REMARK SMILES IDX 35 45 36 46 89 47 37 48 94 49 88 50 90 51 38 52 93 53 87 54
REMARK SMILES IDX 86 55 39 57 73 58 52 59 72 60 53 61 56 62 71 63 91 64 54 65
REMARK SMILES IDX 55 66 70 68 92 69 57 70 40 71 41 72 50 73 42 74 43 75 49 76
REMARK SMILES IDX 51 77 44 78 45 79 46 80 47 81 48 82 74 83 75 84 84 85 76 86
REMARK SMILES IDX 77 87 83 88 85 89 78 90 79 91 80 92 81 93 82 94 58 95 59 96
REMARK SMILES IDX 68 97 60 98 61 99 67 100 69 101 62 102 63 103 64 104 65 105
REMARK SMILES IDX 66 106
REMARK H PARENT 8 18 5 29 90 56 56 67
REMARK Flexibility Score: inf
ROOT
ATOM      1  C   UNL A   1      45.392  20.298  24.425  1.00  0.00     0.188 C 
ENDROOT
BRANCH   1   2
ATOM      2  O   UNL A   1      44.894  19.391  25.394  1.00  0.00    -0.376 OA
BRANCH   2   3
ATOM      3  C   UNL A   1      43.657  18.728  25.179  1.00  0.00     0.202 C 
BRANCH   3   4
ATOM      4  C   UNL A   1      42.484  18.898  26.154  1.00  0.00     0.261 C 
BRANCH   4   5
ATOM      5  O   UNL A   1      41.306  19.471  25.569  1.00  0.00    -0.460 OA
BRANCH   5   6
ATOM      6  C   UNL A   1      40.758  20.490  26.279  1.00  0.00     0.338 C 
ATOM      7  O   UNL A   1      41.315  21.206  27.085  1.00  0.00    -0.246 OA
BRANCH   6   8
ATOM      8  C   UNL A   1      39.381  20.746  25.807  1.00  0.00     0.060 A 
ATOM      9  C   UNL A   1      36.712  21.297  25.149  1.00  0.00    -0.039 A 
ATOM     10  C   UNL A   1      37.548  22.309  25.651  1.00  0.00     0.005 A 
ATOM     11  C   UNL A   1      37.265  20.030  24.889  1.00  0.00     0.005 A 
ATOM     12  C   UNL A   1      38.864  22.029  26.006  1.00  0.00     0.016 A 
ATOM     13  C   UNL A   1      38.601  19.756  25.206  1.00  0.00     0.016 A 
BRANCH   9  14
ATOM     14  C   UNL A   1      35.203  21.508  25.069  1.00  0.00     0.074 C 
ATOM     15  N   UNL A   1      33.499  22.748  23.664  1.00  0.00    -0.329 N 
ATOM     16  C   UNL A   1      32.752  21.500  23.453  1.00  0.00     0.262 C 
ATOM     17  C   UNL A   1      34.919  22.475  23.897  1.00  0.00     0.270 C 
ATOM     18  H   UNL A   1      33.128  23.187  24.506  1.00  0.00     0.348 HD
ATOM     19  C   UNL A   1      32.925  20.540  24.637  1.00  0.00     0.062 C 
ATOM     20  C   UNL A   1      34.398  20.214  24.894  1.00  0.00     0.020 C 
BRANCH  15  21
ATOM     21  C   UNL A   1      33.290  23.722  22.568  1.00  0.00     0.317 C 
BRANCH  21  22
ATOM     22  C   UNL A   1      32.803  25.120  22.944  1.00  0.00     0.074 A 
ATOM     23  C   UNL A   1      32.212  27.816  23.699  1.00  0.00     0.182 A 
ATOM     24  C   UNL A   1      33.049  27.032  24.392  1.00  0.00     0.133 A 
ATOM     25  C   UNL A   1      31.500  27.166  22.545  1.00  0.00     0.223 A 
ATOM     26  N   UNL A   1      33.287  25.717  24.096  1.00  0.00    -0.357 N 
ATOM     27  C   UNL A   1      31.910  25.775  22.180  1.00  0.00     0.083 A 
ATOM     28  O   UNL A   1      30.618  27.717  21.893  1.00  0.00    -0.286 OA
ATOM     29  H   UNL A   1      33.820  25.177  24.723  1.00  0.00     0.166 HD
BRANCH  23  30
ATOM     30  O   UNL A   1      32.107  29.160  23.989  1.00  0.00    -0.491 OA
ATOM     31  C   UNL A   1      31.570  29.420  25.281  1.00  0.00     0.278 C 
ENDBRANCH  23  30
ENDBRANCH  21  22
ENDBRANCH  15  21
ENDBRANCH   9  14
ENDBRANCH   6   8
ENDBRANCH   5   6
ENDBRANCH   4   5
ENDBRANCH   3   4
ENDBRANCH   2   3
ENDBRANCH   1   2
BRANCH   1  32
ATOM     32  C   UNL A   1      44.777  21.708  24.293  1.00  0.00     0.188 C 
BRANCH  32  33
ATOM     33  O   UNL A   1      44.414  22.368  25.481  1.00  0.00    -0.376 OA
BRANCH  33  34
ATOM     34  C   UNL A   1      43.496  23.446  25.471  1.00  0.00     0.202 C 
BRANCH  34  35
ATOM     35  C   UNL A   1      43.801  24.923  25.789  1.00  0.00     0.261 C 
BRANCH  35  36
ATOM     36  O   UNL A   1      43.025  25.935  25.152  1.00  0.00    -0.460 OA
BRANCH  36  37
ATOM     37  C   UNL A   1      41.754  26.059  25.606  1.00  0.00     0.338 C 
ATOM     38  O   UNL A   1      40.747  25.584  25.110  1.00  0.00    -0.246 OA
BRANCH  37  39
ATOM     39  C   UNL A   1      41.781  26.728  26.917  1.00  0.00     0.060 A 
ATOM     40  C   UNL A   1      40.903  26.278  27.911  1.00  0.00     0.016 A 
ATOM     41  C   UNL A   1      42.618  27.822  27.146  1.00  0.00     0.016 A 
ATOM     42  C   UNL A   1      40.827  26.954  29.127  1.00  0.00     0.010 A 
ATOM     43  C   UNL A   1      42.529  28.508  28.360  1.00  0.00     0.010 A 
ATOM     44  C   UNL A   1      41.604  28.101  29.338  1.00  0.00    -0.014 A 
BRANCH  44  45
ATOM     45  C   UNL A   1      41.296  28.983  30.489  1.00  0.00     0.031 A 
ATOM     46  C   UNL A   1      42.161  28.884  31.717  1.00  0.00     0.074 A 
ATOM     47  C   UNL A   1      40.296  29.881  30.435  1.00  0.00     0.049 A 
ATOM     48  N   UNL A   1      42.082  29.541  32.845  1.00  0.00    -0.248 NA
ATOM     49  C   UNL A   1      43.261  27.907  31.665  1.00  0.00     0.031 C 
ATOM     50  C   UNL A   1      39.411  30.095  29.290  1.00  0.00     0.029 A 
ATOM     51  N   UNL A   1      39.857  30.781  31.374  1.00  0.00    -0.354 N 
ATOM     52  C   UNL A   1      43.119  29.059  33.636  1.00  0.00     0.074 A 
ATOM     53  C   UNL A   1      43.791  28.029  32.873  1.00  0.00     0.031 C 
ATOM     54  C   UNL A   1      38.527  31.061  29.599  1.00  0.00     0.029 A 
ATOM     55  C   UNL A   1      38.767  31.514  30.968  1.00  0.00     0.049 A 
ATOM     56  H   UNL A   1      40.282  30.890  32.254  1.00  0.00     0.167 HD
ATOM     57  C   UNL A   1      43.487  29.446  34.880  1.00  0.00     0.037 A 
ATOM     58  C   UNL A   1      38.040  32.434  31.635  1.00  0.00     0.037 A 
ATOM     59  C   UNL A   1      42.814  30.467  35.639  1.00  0.00     0.049 A 
ATOM     60  C   UNL A   1      38.433  32.806  33.043  1.00  0.00     0.074 A 
ATOM     61  C   UNL A   1      43.115  30.940  36.903  1.00  0.00     0.029 A 
ATOM     62  N   UNL A   1      41.698  31.169  35.205  1.00  0.00    -0.354 N 
ATOM     63  N   UNL A   1      39.429  32.358  33.770  1.00  0.00    -0.248 NA
ATOM     64  C   UNL A   1      37.604  33.816  33.717  1.00  0.00     0.031 C 
ATOM     65  C   UNL A   1      42.155  31.896  37.253  1.00  0.00     0.029 A 
ATOM     66  C   UNL A   1      41.286  32.056  36.186  1.00  0.00     0.049 A 
ATOM     67  H   UNL A   1      41.263  31.053  34.329  1.00  0.00     0.167 HD
ATOM     68  C   UNL A   1      39.363  33.052  34.976  1.00  0.00     0.074 A 
ATOM     69  C   UNL A   1      38.236  33.958  34.873  1.00  0.00     0.031 C 
ATOM     70  C   UNL A   1      40.163  32.952  36.068  1.00  0.00     0.037 A 
BRANCH  57  71
ATOM     71  C   UNL A   1      44.656  28.738  35.507  1.00  0.00     0.058 A 
ATOM     72  C   UNL A   1      45.972  29.201  35.345  1.00  0.00     0.135 A 
ATOM     73  C   UNL A   1      44.457  27.594  36.295  1.00  0.00     0.135 A 
ATOM     74  F   UNL A   1      46.222  30.278  34.584  1.00  0.00    -0.206 F 
ATOM     75  C   UNL A   1      47.052  28.537  35.919  1.00  0.00     0.059 A 
ATOM     76  C   UNL A   1      45.518  26.930  36.901  1.00  0.00     0.059 A 
ATOM     77  F   UNL A   1      43.219  27.106  36.479  1.00  0.00    -0.206 F 
ATOM     78  C   UNL A   1      46.815  27.401  36.694  1.00  0.00     0.060 A 
BRANCH  78  79
ATOM     79  S   UNL A   1      48.225  26.551  37.434  1.00  0.00     0.124 S 
ATOM     80  O   UNL A   1      49.135  26.453  36.296  1.00  0.00    -0.237 OA
ATOM     81  O   UNL A   1      48.628  27.473  38.490  1.00  0.00    -0.237 OA
ATOM     82  O   UNL A   1      47.659  25.286  37.893  1.00  0.00    -0.744 OA
ENDBRANCH  78  79
ENDBRANCH  57  71
BRANCH  58  83
ATOM     83  C   UNL A   1      36.862  33.067  30.984  1.00  0.00     0.058 A 
ATOM     84  C   UNL A   1      37.020  34.026  29.972  1.00  0.00     0.135 A 
ATOM     85  C   UNL A   1      35.554  32.734  31.369  1.00  0.00     0.135 A 
ATOM     86  F   UNL A   1      38.251  34.390  29.581  1.00  0.00    -0.206 F 
ATOM     87  C   UNL A   1      35.925  34.643  29.375  1.00  0.00     0.059 A 
ATOM     88  C   UNL A   1      34.443  33.319  30.770  1.00  0.00     0.059 A 
ATOM     89  F   UNL A   1      35.348  31.817  32.327  1.00  0.00    -0.206 F 
ATOM     90  C   UNL A   1      34.639  34.281  29.780  1.00  0.00     0.060 A 
BRANCH  90  91
ATOM     91  S   UNL A   1      33.224  35.055  28.966  1.00  0.00     0.124 S 
ATOM     92  O   UNL A   1      33.831  36.252  28.397  1.00  0.00    -0.237 OA
ATOM     93  O   UNL A   1      32.819  34.029  28.011  1.00  0.00    -0.237 OA
ATOM     94  O   UNL A   1      32.289  35.282  30.065  1.00  0.00    -0.744 OA
ENDBRANCH  90  91
ENDBRANCH  58  83
BRANCH  70  95
ATOM     95  C   UNL A   1      39.871  33.869  37.227  1.00  0.00     0.058 A 
ATOM     96  C   UNL A   1      39.024  33.486  38.279  1.00  0.00     0.135 A 
ATOM     97  C   UNL A   1      40.475  35.135  37.301  1.00  0.00     0.135 A 
ATOM     98  F   UNL A   1      38.419  32.287  38.257  1.00  0.00    -0.206 F 
ATOM     99  C   UNL A   1      38.756  34.340  39.345  1.00  0.00     0.059 A 
ATOM    100  C   UNL A   1      40.245  35.993  38.372  1.00  0.00     0.059 A 
ATOM    101  F   UNL A   1      41.306  35.546  36.330  1.00  0.00    -0.206 F 
ATOM    102  C   UNL A   1      39.369  35.594  39.380  1.00  0.00     0.060 A 
BRANCH 102 103
ATOM    103  S   UNL A   1      39.023  36.689  40.773  1.00  0.00     0.124 S 
ATOM    104  O   UNL A   1      40.369  37.043  41.211  1.00  0.00    -0.237 OA
ATOM    105  O   UNL A   1      38.257  37.763  40.147  1.00  0.00    -0.237 OA
ATOM    106  O   UNL A   1      38.266  35.842  41.691  1.00  0.00    -0.744 OA
ENDBRANCH 102 103
ENDBRANCH  70  95
ENDBRANCH  44  45
ENDBRANCH  37  39
ENDBRANCH  36  37
ENDBRANCH  35  36
ENDBRANCH  34  35
ENDBRANCH  33  34
ENDBRANCH  32  33
ENDBRANCH   1  32
TORSDOF 24
ENDMDL
MODEL 2
REMARK VINA RESULT:     -10.0      2.563     10.037
REMARK SMILES COc1c[nH]c(C[N@H+]2CCC[C@@H](c3ccc(C(=O)OCCOCCOCCOC(=O)c4ccc(-c5c6nc(c(-c7c(F)cc(S(=O)(=O)[O-])cc7F)c7ccc([nH]7)c(-c7c(F)cc(S(=O)(=O)[O-])cc7F)c7nc(c(-c8c(F)cc(S(=O)(=O)[O-])cc8F)c8ccc5[nH]8)C=C7)C=C6)cc4)cc3)C2)cc1=O
REMARK SMILES IDX 23 1 22 2 21 3 20 4 19 5 17 6 18 7 16 8 13 9 14 10 98 11
REMARK SMILES IDX 15 12 97 13 12 14 8 15 9 16 99 17 10 19 11 20 7 21 6 22 3 23
REMARK SMILES IDX 4 24 101 25 5 26 100 27 102 28 2 30 1 31 24 32 25 33 26 34
REMARK SMILES IDX 27 35 28 36 29 37 30 38 31 39 32 40 96 41 33 42 95 43 34 44
REMARK SMILES IDX 35 45 36 46 89 47 37 48 94 49 88 50 90 51 38 52 93 53 87 54
REMARK SMILES IDX 86 55 39 57 73 58 52 59 72 60 53 61 56 62 71 63 91 64 54 65
REMARK SMILES IDX 55 66 70 68 92 69 57 70 40 71 41 72 50 73 42 74 43 75 49 76
REMARK SMILES IDX 51 77 44 78 45 79 46 80 47 81 48 82 74 83 75 84 84 85 76 86
REMARK SMILES IDX 77 87 83 88 85 89 78 90 79 91 80 92 81 93 82 94 58 95 59 96
REMARK SMILES IDX 68 97 60 98 61 99 67 100 69 101 62 102 63 103 64 104 65 105
REMARK SMILES IDX 66 106
REMARK H PARENT 8 18 5 29 90 56 56 67
REMARK Flexibility Score: inf
ROOT
ATOM      1  C   UNL A   1      33.413  27.803  24.100  1.00  0.00     0.188 C 
ENDROOT
BRANCH   1   2
ATOM      2  O   UNL A   1      32.949  27.119  22.948  1.00  0.00    -0.376 OA
BRANCH   2   3
ATOM      3  C   UNL A   1      31.733  26.386  22.997  1.00  0.00     0.202 C 
BRANCH   3   4
ATOM      4  C   UNL A   1      31.688  24.896  22.630  1.00  0.00     0.261 C 
BRANCH   4   5
ATOM      5  O   UNL A   1      32.536  24.063  23.432  1.00  0.00    -0.460 OA
BRANCH   5   6
ATOM      6  C   UNL A   1      33.620  23.563  22.782  1.00  0.00     0.338 C 
ATOM      7  O   UNL A   1      33.690  23.237  21.616  1.00  0.00    -0.246 OA
BRANCH   6   8
ATOM      8  C   UNL A   1      34.805  23.629  23.662  1.00  0.00     0.060 A 
ATOM      9  C   UNL A   1      37.038  23.501  25.352  1.00  0.00    -0.039 A 
ATOM     10  C   UNL A   1      37.047  22.852  24.105  1.00  0.00     0.005 A 
ATOM     11  C   UNL A   1      35.931  24.297  25.692  1.00  0.00     0.005 A 
ATOM     12  C   UNL A   1      35.928  22.891  23.280  1.00  0.00     0.016 A 
ATOM     13  C   UNL A   1      34.819  24.372  24.844  1.00  0.00     0.016 A 
BRANCH   9  14
ATOM     14  C   UNL A   1      38.115  23.198  26.390  1.00  0.00     0.074 C 
ATOM     15  N   UNL A   1      39.931  21.492  26.846  1.00  0.00    -0.329 N 
ATOM     16  C   UNL A   1      40.921  22.570  26.983  1.00  0.00     0.262 C 
ATOM     17  C   UNL A   1      38.835  21.898  25.964  1.00  0.00     0.270 C 
ATOM     18  H   UNL A   1      39.536  21.323  27.770  1.00  0.00     0.348 HD
ATOM     19  C   UNL A   1      40.272  23.861  27.496  1.00  0.00     0.062 C 
ATOM     20  C   UNL A   1      39.135  24.328  26.583  1.00  0.00     0.020 C 
BRANCH  15  21
ATOM     21  C   UNL A   1      40.546  20.213  26.421  1.00  0.00     0.317 C 
BRANCH  21  22
ATOM     22  C   UNL A   1      41.977  20.256  25.890  1.00  0.00     0.074 A 
ATOM     23  C   UNL A   1      44.695  20.616  25.072  1.00  0.00     0.182 A 
ATOM     24  C   UNL A   1      43.794  21.608  25.063  1.00  0.00     0.133 A 
ATOM     25  C   UNL A   1      44.174  19.253  25.436  1.00  0.00     0.223 A 
ATOM     26  N   UNL A   1      42.472  21.442  25.375  1.00  0.00    -0.357 N 
ATOM     27  C   UNL A   1      42.759  19.161  25.909  1.00  0.00     0.083 A 
ATOM     28  O   UNL A   1      44.848  18.229  25.373  1.00  0.00    -0.286 OA
ATOM     29  H   UNL A   1      41.851  22.191  25.227  1.00  0.00     0.166 HD
BRANCH  23  30
ATOM     30  O   UNL A   1      46.030  20.879  24.853  1.00  0.00    -0.491 OA
ATOM     31  C   UNL A   1      46.294  22.240  24.531  1.00  0.00     0.278 C 
ENDBRANCH  23  30
ENDBRANCH  21  22
ENDBRANCH  15  21
ENDBRANCH   9  14
ENDBRANCH   6   8
ENDBRANCH   5   6
ENDBRANCH   4   5
ENDBRANCH   3   4
ENDBRANCH   2   3
ENDBRANCH   1   2
BRANCH   1  32
ATOM     32  C   UNL A   1      32.766  29.139  24.524  1.00  0.00     0.188 C 
BRANCH  32  33
ATOM     33  O   UNL A   1      33.182  29.700  25.745  1.00  0.00    -0.376 OA
BRANCH  33  34
ATOM     34  C   UNL A   1      32.316  30.518  26.509  1.00  0.00     0.202 C 
BRANCH  34  35
ATOM     35  C   UNL A   1      32.622  31.924  27.063  1.00  0.00     0.261 C 
BRANCH  35  36
ATOM     36  O   UNL A   1      33.441  32.039  28.225  1.00  0.00    -0.460 OA
BRANCH  36  37
ATOM     37  C   UNL A   1      33.934  33.279  28.462  1.00  0.00     0.338 C 
ATOM     38  O   UNL A   1      33.440  34.342  28.132  1.00  0.00    -0.246 OA
BRANCH  37  39
ATOM     39  C   UNL A   1      35.103  33.163  29.351  1.00  0.00     0.060 A 
ATOM     40  C   UNL A   1      36.250  33.901  29.039  1.00  0.00     0.016 A 
ATOM     41  C   UNL A   1      35.087  32.294  30.444  1.00  0.00     0.016 A 
ATOM     42  C   UNL A   1      37.408  33.736  29.796  1.00  0.00     0.010 A 
ATOM     43  C   UNL A   1      36.254  32.117  31.192  1.00  0.00     0.010 A 
ATOM     44  C   UNL A   1      37.430  32.808  30.846  1.00  0.00    -0.014 A 
BRANCH  44  45
ATOM     45  C   UNL A   1      38.730  32.413  31.438  1.00  0.00     0.031 A 
ATOM     46  C   UNL A   1      39.109  32.985  32.778  1.00  0.00     0.074 A 
ATOM     47  C   UNL A   1      39.543  31.536  30.821  1.00  0.00     0.049 A 
ATOM     48  N   UNL A   1      40.190  32.795  33.488  1.00  0.00    -0.248 NA
ATOM     49  C   UNL A   1      38.133  33.897  33.399  1.00  0.00     0.031 C 
ATOM     50  C   UNL A   1      39.272  30.889  29.538  1.00  0.00     0.029 A 
ATOM     51  N   UNL A   1      40.768  31.043  31.196  1.00  0.00    -0.354 N 
ATOM     52  C   UNL A   1      40.028  33.562  34.636  1.00  0.00     0.074 A 
ATOM     53  C   UNL A   1      38.759  34.248  34.512  1.00  0.00     0.031 C 
ATOM     54  C   UNL A   1      40.308  30.088  29.228  1.00  0.00     0.029 A 
ATOM     55  C   UNL A   1      41.323  30.186  30.276  1.00  0.00     0.049 A 
ATOM     56  H   UNL A   1      41.207  31.281  32.044  1.00  0.00     0.167 HD
ATOM     57  C   UNL A   1      40.854  33.678  35.702  1.00  0.00     0.037 A 
ATOM     58  C   UNL A   1      42.520  29.566  30.277  1.00  0.00     0.037 A 
ATOM     59  C   UNL A   1      42.117  32.999  35.821  1.00  0.00     0.049 A 
ATOM     60  C   UNL A   1      43.450  29.756  31.449  1.00  0.00     0.074 A 
ATOM     61  C   UNL A   1      43.022  33.040  36.866  1.00  0.00     0.029 A 
ATOM     62  N   UNL A   1      42.658  32.159  34.857  1.00  0.00    -0.354 N 
ATOM     63  N   UNL A   1      43.274  30.467  32.538  1.00  0.00    -0.248 NA
ATOM     64  C   UNL A   1      44.740  29.052  31.394  1.00  0.00     0.031 C 
ATOM     65  C   UNL A   1      44.132  32.262  36.515  1.00  0.00     0.029 A 
ATOM     66  C   UNL A   1      43.894  31.695  35.273  1.00  0.00     0.049 A 
ATOM     67  H   UNL A   1      42.226  31.929  34.003  1.00  0.00     0.167 HD
ATOM     68  C   UNL A   1      44.418  30.273  33.309  1.00  0.00     0.074 A 
ATOM     69  C   UNL A   1      45.272  29.369  32.566  1.00  0.00     0.031 C 
ATOM     70  C   UNL A   1      44.732  30.793  34.523  1.00  0.00     0.037 A 
BRANCH  57  71
ATOM     71  C   UNL A   1      40.425  34.596  36.813  1.00  0.00     0.058 A 
ATOM     72  C   UNL A   1      40.843  35.936  36.866  1.00  0.00     0.135 A 
ATOM     73  C   UNL A   1      39.570  34.136  37.827  1.00  0.00     0.135 A 
ATOM     74  F   UNL A   1      41.677  36.422  35.934  1.00  0.00    -0.206 F 
ATOM     75  C   UNL A   1      40.451  36.779  37.902  1.00  0.00     0.059 A 
ATOM     76  C   UNL A   1      39.144  34.969  38.857  1.00  0.00     0.059 A 
ATOM     77  F   UNL A   1      39.145  32.862  37.827  1.00  0.00    -0.206 F 
ATOM     78  C   UNL A   1      39.603  36.285  38.894  1.00  0.00     0.060 A 
BRANCH  78  79
ATOM     79  S   UNL A   1      39.102  37.391  40.230  1.00  0.00     0.124 S 
ATOM     80  O   UNL A   1      38.487  36.455  41.167  1.00  0.00    -0.237 OA
ATOM     81  O   UNL A   1      40.374  37.968  40.653  1.00  0.00    -0.237 OA
ATOM     82  O   UNL A   1      38.182  38.318  39.578  1.00  0.00    -0.744 OA
ENDBRANCH  78  79
ENDBRANCH  57  71
BRANCH  58  83
ATOM     83  C   UNL A   1      42.915  28.707  29.128  1.00  0.00     0.058 A 
ATOM     84  C   UNL A   1      42.692  27.322  29.146  1.00  0.00     0.135 A 
ATOM     85  C   UNL A   1      43.535  29.253  27.993  1.00  0.00     0.135 A 
ATOM     86  F   UNL A   1      42.117  26.751  30.215  1.00  0.00    -0.206 F 
ATOM     87  C   UNL A   1      43.080  26.507  28.088  1.00  0.00     0.059 A 
ATOM     88  C   UNL A   1      43.911  28.463  26.912  1.00  0.00     0.059 A 
ATOM     89  F   UNL A   1      43.765  30.574  27.923  1.00  0.00    -0.206 F 
ATOM     90  C   UNL A   1      43.689  27.087  26.973  1.00  0.00     0.060 A 
BRANCH  90  91
ATOM     91  S   UNL A   1      44.149  26.026  25.585  1.00  0.00     0.124 S 
ATOM     92  O   UNL A   1      44.603  24.824  26.273  1.00  0.00    -0.237 OA
ATOM     93  O   UNL A   1      42.890  25.908  24.857  1.00  0.00    -0.237 OA
ATOM     94  O   UNL A   1      45.187  26.796  24.905  1.00  0.00    -0.744 OA
ENDBRANCH  90  91
ENDBRANCH  58  83
BRANCH  70  95
ATOM     95  C   UNL A   1      46.039  30.370  35.140  1.00  0.00     0.058 A 
ATOM     96  C   UNL A   1      47.221  31.102  34.947  1.00  0.00     0.135 A 
ATOM     97  C   UNL A   1      46.101  29.233  35.964  1.00  0.00     0.135 A 
ATOM     98  F   UNL A   1      47.218  32.196  34.168  1.00  0.00    -0.206 F 
ATOM     99  C   UNL A   1      48.426  30.703  35.518  1.00  0.00     0.059 A 
ATOM    100  C   UNL A   1      47.288  28.833  36.569  1.00  0.00     0.059 A 
ATOM    101  F   UNL A   1      44.997  28.505  36.195  1.00  0.00    -0.206 F 
ATOM    102  C   UNL A   1      48.449  29.564  36.326  1.00  0.00     0.060 A 
BRANCH 102 103
ATOM    103  S   UNL A   1      50.016  29.061  37.070  1.00  0.00     0.124 S 
ATOM    104  O   UNL A   1      50.716  30.337  37.170  1.00  0.00    -0.237 OA
ATOM    105  O   UNL A   1      49.588  28.471  38.335  1.00  0.00    -0.237 OA
ATOM    106  O   UNL A   1      50.565  28.117  36.100  1.00  0.00    -0.744 OA
ENDBRANCH 102 103
ENDBRANCH  70  95
ENDBRANCH  44  45
ENDBRANCH  37  39
ENDBRANCH  36  37
ENDBRANCH  35  36
ENDBRANCH  34  35
ENDBRANCH  33  34
ENDBRANCH  32  33
ENDBRANCH   1  32
TORSDOF 24
ENDMDL
MODEL 3
REMARK VINA RESULT:      -9.9      1.060      7.888
REMARK SMILES COc1c[nH]c(C[N@H+]2CCC[C@@H](c3ccc(C(=O)OCCOCCOCCOC(=O)c4ccc(-c5c6nc(c(-c7c(F)cc(S(=O)(=O)[O-])cc7F)c7ccc([nH]7)c(-c7c(F)cc(S(=O)(=O)[O-])cc7F)c7nc(c(-c8c(F)cc(S(=O)(=O)[O-])cc8F)c8ccc5[nH]8)C=C7)C=C6)cc4)cc3)C2)cc1=O
REMARK SMILES IDX 23 1 22 2 21 3 20 4 19 5 17 6 18 7 16 8 13 9 14 10 98 11
REMARK SMILES IDX 15 12 97 13 12 14 8 15 9 16 99 17 10 19 11 20 7 21 6 22 3 23
REMARK SMILES IDX 4 24 101 25 5 26 100 27 102 28 2 30 1 31 24 32 25 33 26 34
REMARK SMILES IDX 27 35 28 36 29 37 30 38 31 39 32 40 96 41 33 42 95 43 34 44
REMARK SMILES IDX 35 45 36 46 89 47 37 48 94 49 88 50 90 51 38 52 93 53 87 54
REMARK SMILES IDX 86 55 39 57 73 58 52 59 72 60 53 61 56 62 71 63 91 64 54 65
REMARK SMILES IDX 55 66 70 68 92 69 57 70 40 71 41 72 50 73 42 74 43 75 49 76
REMARK SMILES IDX 51 77 44 78 45 79 46 80 47 81 48 82 74 83 75 84 84 85 76 86
REMARK SMILES IDX 77 87 83 88 85 89 78 90 79 91 80 92 81 93 82 94 58 95 59 96
REMARK SMILES IDX 68 97 60 98 61 99 67 100 69 101 62 102 63 103 64 104 65 105
REMARK SMILES IDX 66 106
REMARK H PARENT 8 18 5 29 90 56 56 67
REMARK Flexibility Score: inf
ROOT
ATOM      1  C   UNL A   1      45.021  19.699  25.073  1.00  0.00     0.188 C 
ENDROOT
BRANCH   1   2
ATOM      2  O   UNL A   1      43.743  19.104  24.912  1.00  0.00    -0.376 OA
BRANCH   2   3
ATOM      3  C   UNL A   1      42.603  19.692  25.521  1.00  0.00     0.202 C 
BRANCH   3   4
ATOM      4  C   UNL A   1      42.362  19.581  27.032  1.00  0.00     0.261 C 
BRANCH   4   5
ATOM      5  O   UNL A   1      41.097  20.097  27.470  1.00  0.00    -0.460 OA
BRANCH   5   6
ATOM      6  C   UNL A   1      40.984  21.449  27.407  1.00  0.00     0.338 C 
ATOM      7  O   UNL A   1      41.799  22.272  27.772  1.00  0.00    -0.246 OA
BRANCH   6   8
ATOM      8  C   UNL A   1      39.769  21.816  26.651  1.00  0.00     0.060 A 
ATOM      9  C   UNL A   1      37.349  22.549  25.439  1.00  0.00    -0.039 A 
ATOM     10  C   UNL A   1      38.043  23.457  26.258  1.00  0.00     0.005 A 
ATOM     11  C   UNL A   1      37.940  21.304  25.158  1.00  0.00     0.005 A 
ATOM     12  C   UNL A   1      39.228  23.083  26.883  1.00  0.00     0.016 A 
ATOM     13  C   UNL A   1      39.154  20.940  25.753  1.00  0.00     0.016 A 
BRANCH   9  14
ATOM     14  C   UNL A   1      35.909  22.828  25.021  1.00  0.00     0.074 C 
ATOM     15  N   UNL A   1      34.280  24.762  24.879  1.00  0.00    -0.329 N 
ATOM     16  C   UNL A   1      34.017  24.449  23.467  1.00  0.00     0.262 C 
ATOM     17  C   UNL A   1      35.622  24.326  25.271  1.00  0.00     0.270 C 
ATOM     18  H   UNL A   1      33.609  24.235  25.437  1.00  0.00     0.348 HD
ATOM     19  C   UNL A   1      34.197  22.952  23.186  1.00  0.00     0.062 C 
ATOM     20  C   UNL A   1      35.598  22.466  23.563  1.00  0.00     0.020 C 
BRANCH  15  21
ATOM     21  C   UNL A   1      34.042  26.190  25.193  1.00  0.00     0.317 C 
BRANCH  21  22
ATOM     22  C   UNL A   1      32.836  26.868  24.546  1.00  0.00     0.074 A 
ATOM     23  C   UNL A   1      30.440  28.143  23.641  1.00  0.00     0.182 A 
ATOM     24  C   UNL A   1      30.436  27.080  24.457  1.00  0.00     0.133 A 
ATOM     25  C   UNL A   1      31.785  28.577  23.126  1.00  0.00     0.223 A 
ATOM     26  N   UNL A   1      31.564  26.406  24.840  1.00  0.00    -0.357 N 
ATOM     27  C   UNL A   1      32.990  27.898  23.694  1.00  0.00     0.083 A 
ATOM     28  O   UNL A   1      31.939  29.454  22.281  1.00  0.00    -0.286 OA
ATOM     29  H   UNL A   1      31.468  25.565  25.341  1.00  0.00     0.166 HD
BRANCH  23  30
ATOM     30  O   UNL A   1      29.276  28.837  23.387  1.00  0.00    -0.491 OA
ATOM     31  C   UNL A   1      29.436  30.250  23.442  1.00  0.00     0.278 C 
ENDBRANCH  23  30
ENDBRANCH  21  22
ENDBRANCH  15  21
ENDBRANCH   9  14
ENDBRANCH   6   8
ENDBRANCH   5   6
ENDBRANCH   4   5
ENDBRANCH   3   4
ENDBRANCH   2   3
ENDBRANCH   1   2
BRANCH   1  32
ATOM     32  C   UNL A   1      45.142  21.205  25.388  1.00  0.00     0.188 C 
BRANCH  32  33
ATOM     33  O   UNL A   1      44.712  22.108  24.398  1.00  0.00    -0.376 OA
BRANCH  33  34
ATOM     34  C   UNL A   1      44.861  23.506  24.566  1.00  0.00     0.202 C 
BRANCH  34  35
ATOM     35  C   UNL A   1      44.811  24.288  25.894  1.00  0.00     0.261 C 
BRANCH  35  36
ATOM     36  O   UNL A   1      44.036  25.482  25.957  1.00  0.00    -0.460 OA
BRANCH  36  37
ATOM     37  C   UNL A   1      42.701  25.297  26.099  1.00  0.00     0.338 C 
ATOM     38  O   UNL A   1      42.020  24.433  25.576  1.00  0.00    -0.246 OA
BRANCH  37  39
ATOM     39  C   UNL A   1      42.202  26.214  27.137  1.00  0.00     0.060 A 
ATOM     40  C   UNL A   1      42.728  27.510  27.189  1.00  0.00     0.016 A 
ATOM     41  C   UNL A   1      41.269  25.783  28.084  1.00  0.00     0.016 A 
ATOM     42  C   UNL A   1      42.356  28.369  28.222  1.00  0.00     0.010 A 
ATOM     43  C   UNL A   1      40.910  26.640  29.128  1.00  0.00     0.010 A 
ATOM     44  C   UNL A   1      41.484  27.921  29.222  1.00  0.00    -0.014 A 
BRANCH  44  45
ATOM     45  C   UNL A   1      41.339  28.715  30.466  1.00  0.00     0.031 A 
ATOM     46  C   UNL A   1      40.238  29.739  30.536  1.00  0.00     0.074 A 
ATOM     47  C   UNL A   1      42.140  28.506  31.526  1.00  0.00     0.049 A 
ATOM     48  N   UNL A   1      39.921  30.555  31.508  1.00  0.00    -0.248 NA
ATOM     49  C   UNL A   1      39.381  29.861  29.345  1.00  0.00     0.031 C 
ATOM     50  C   UNL A   1      43.218  27.521  31.592  1.00  0.00     0.029 A 
ATOM     51  N   UNL A   1      42.168  29.120  32.754  1.00  0.00    -0.354 N 
ATOM     52  C   UNL A   1      38.832  31.286  31.048  1.00  0.00     0.074 A 
ATOM     53  C   UNL A   1      38.564  30.842  29.697  1.00  0.00     0.031 C 
ATOM     54  C   UNL A   1      43.809  27.604  32.798  1.00  0.00     0.029 A 
ATOM     55  C   UNL A   1      43.169  28.663  33.577  1.00  0.00     0.049 A 
ATOM     56  H   UNL A   1      41.531  29.822  33.019  1.00  0.00     0.167 HD
ATOM     57  C   UNL A   1      38.112  32.232  31.695  1.00  0.00     0.037 A 
ATOM     58  C   UNL A   1      43.532  29.065  34.811  1.00  0.00     0.037 A 
ATOM     59  C   UNL A   1      38.383  32.675  33.037  1.00  0.00     0.049 A 
ATOM     60  C   UNL A   1      42.752  30.164  35.490  1.00  0.00     0.074 A 
ATOM     61  C   UNL A   1      37.706  33.619  33.786  1.00  0.00     0.029 A 
ATOM     62  N   UNL A   1      39.422  32.206  33.830  1.00  0.00    -0.354 N 
ATOM     63  N   UNL A   1      41.710  30.831  35.052  1.00  0.00    -0.248 NA
ATOM     64  C   UNL A   1      43.195  30.558  36.835  1.00  0.00     0.031 C 
ATOM     65  C   UNL A   1      38.362  33.757  35.015  1.00  0.00     0.029 A 
ATOM     66  C   UNL A   1      39.417  32.859  35.051  1.00  0.00     0.049 A 
ATOM     67  H   UNL A   1      40.068  31.513  33.563  1.00  0.00     0.167 HD
ATOM     68  C   UNL A   1      41.357  31.703  36.078  1.00  0.00     0.074 A 
ATOM     69  C   UNL A   1      42.288  31.468  37.163  1.00  0.00     0.031 C 
ATOM     70  C   UNL A   1      40.350  32.613  36.122  1.00  0.00     0.037 A 
BRANCH  57  71
ATOM     71  C   UNL A   1      36.978  32.872  30.944  1.00  0.00     0.058 A 
ATOM     72  C   UNL A   1      37.204  33.776  29.893  1.00  0.00     0.135 A 
ATOM     73  C   UNL A   1      35.646  32.563  31.265  1.00  0.00     0.135 A 
ATOM     74  F   UNL A   1      38.457  34.123  29.558  1.00  0.00    -0.206 F 
ATOM     75  C   UNL A   1      36.151  34.373  29.207  1.00  0.00     0.059 A 
ATOM     76  C   UNL A   1      34.578  33.127  30.576  1.00  0.00     0.059 A 
ATOM     77  F   UNL A   1      35.373  31.709  32.265  1.00  0.00    -0.206 F 
ATOM     78  C   UNL A   1      34.841  34.043  29.557  1.00  0.00     0.060 A 
BRANCH  78  79
ATOM     79  S   UNL A   1      33.484  34.824  28.658  1.00  0.00     0.124 S 
ATOM     80  O   UNL A   1      34.119  36.050  28.181  1.00  0.00    -0.237 OA
ATOM     81  O   UNL A   1      33.174  33.831  27.634  1.00  0.00    -0.237 OA
ATOM     82  O   UNL A   1      32.458  35.007  29.680  1.00  0.00    -0.744 OA
ENDBRANCH  78  79
ENDBRANCH  57  71
BRANCH  58  83
ATOM     83  C   UNL A   1      44.695  28.432  35.490  1.00  0.00     0.058 A 
ATOM     84  C   UNL A   1      46.000  28.907  35.289  1.00  0.00     0.135 A 
ATOM     85  C   UNL A   1      44.526  27.331  36.343  1.00  0.00     0.135 A 
ATOM     86  F   UNL A   1      46.215  29.948  34.469  1.00  0.00    -0.206 F 
ATOM     87  C   UNL A   1      47.096  28.307  35.899  1.00  0.00     0.059 A 
ATOM     88  C   UNL A   1      45.604  26.728  36.983  1.00  0.00     0.059 A 
ATOM     89  F   UNL A   1      43.298  26.841  36.574  1.00  0.00    -0.206 F 
ATOM     90  C   UNL A   1      46.888  27.217  36.746  1.00  0.00     0.060 A 
BRANCH  90  91
ATOM     91  S   UNL A   1      48.315  26.473  37.568  1.00  0.00     0.124 S 
ATOM     92  O   UNL A   1      48.924  25.722  36.477  1.00  0.00    -0.237 OA
ATOM     93  O   UNL A   1      49.052  27.645  38.027  1.00  0.00    -0.237 OA
ATOM     94  O   UNL A   1      47.709  25.669  38.626  1.00  0.00    -0.744 OA
ENDBRANCH  90  91
ENDBRANCH  58  83
BRANCH  70  95
ATOM     95  C   UNL A   1      40.182  33.399  37.396  1.00  0.00     0.058 A 
ATOM     96  C   UNL A   1      39.211  33.062  38.352  1.00  0.00     0.135 A 
ATOM     97  C   UNL A   1      41.029  34.484  37.677  1.00  0.00     0.135 A 
ATOM     98  F   UNL A   1      38.375  32.035  38.132  1.00  0.00    -0.206 F 
ATOM     99  C   UNL A   1      39.060  33.795  39.525  1.00  0.00     0.059 A 
ATOM    100  C   UNL A   1      40.915  35.213  38.858  1.00  0.00     0.059 A 
ATOM    101  F   UNL A   1      41.985  34.840  36.805  1.00  0.00    -0.206 F 
ATOM    102  C   UNL A   1      39.916  34.872  39.767  1.00  0.00     0.060 A 
BRANCH 102 103
ATOM    103  S   UNL A   1      39.718  35.809  41.298  1.00  0.00     0.124 S 
ATOM    104  O   UNL A   1      38.383  36.371  41.127  1.00  0.00    -0.237 OA
ATOM    105  O   UNL A   1      39.846  34.775  42.319  1.00  0.00    -0.237 OA
ATOM    106  O   UNL A   1      40.816  36.772  41.250  1.00  0.00    -0.744 OA
ENDBRANCH 102 103
ENDBRANCH  70  95
ENDBRANCH  44  45
ENDBRANCH  37  39
ENDBRANCH  36  37
ENDBRANCH  35  36
ENDBRANCH  34  35
ENDBRANCH  33  34
ENDBRANCH  32  33
ENDBRANCH   1  32
TORSDOF 24
ENDMDL
