MODEL 1
REMARK VINA RESULT:     -10.3      0.000      0.000
REMARK SMILES Cc1oc2ccc(OCc3ccc(Br)cc3)cc2c1C(=O)OCCOCCOCCOC(=O)c1ccc(-c2c3nc(c(-c4c(F)cc(S(=O)(=O)[O-])cc4F)c4ccc([nH]4)c(-c4c(F)cc(S(=O)(=O)[O-])cc4F)c4nc(c(-c5c(F)cc(S(=O)(=O)[O-])cc5F)c5ccc2[nH]5)C=C4)C=C3)cc1
REMARK SMILES IDX 26 1 25 2 24 3 23 4 22 5 20 6 21 7 19 8 1 9 2 10 3 11 4 12
REMARK SMILES IDX 18 13 5 14 17 15 6 16 7 17 8 18 9 19 10 20 11 21 16 22 12 23
REMARK SMILES IDX 15 24 13 25 14 26 27 27 28 28 29 29 30 30 31 31 32 32 33 33
REMARK SMILES IDX 34 34 35 35 99 36 36 37 98 38 37 39 38 40 39 41 92 42 40 43
REMARK SMILES IDX 97 44 91 45 93 46 41 47 96 48 90 49 89 50 42 52 76 53 55 54
REMARK SMILES IDX 75 55 56 56 59 57 74 58 94 59 57 60 58 61 73 63 95 64 60 65
REMARK SMILES IDX 43 66 44 67 53 68 45 69 46 70 52 71 54 72 47 73 48 74 49 75
REMARK SMILES IDX 50 76 51 77 77 78 78 79 87 80 79 81 80 82 86 83 88 84 81 85
REMARK SMILES IDX 82 86 83 87 84 88 85 89 61 90 62 91 71 92 63 93 64 94 70 95
REMARK SMILES IDX 72 96 65 97 66 98 67 99 68 100 69 101
REMARK H PARENT 93 51 59 62
REMARK Flexibility Score: inf
ROOT
ATOM      1  C   UNL A   1      31.482  31.312  25.902  1.00  0.00     0.188 C 
ENDROOT
BRANCH   1   2
ATOM      2  O   UNL A   1      31.090  30.002  25.500  1.00  0.00    -0.376 OA
BRANCH   2   3
ATOM      3  C   UNL A   1      30.697  29.749  24.161  1.00  0.00     0.202 C 
BRANCH   3   4
ATOM      4  C   UNL A   1      30.771  28.304  23.666  1.00  0.00     0.261 C 
BRANCH   4   5
ATOM      5  O   UNL A   1      32.112  27.866  23.398  1.00  0.00    -0.460 OA
BRANCH   5   6
ATOM      6  C   UNL A   1      32.883  27.639  24.499  1.00  0.00     0.342 C 
ATOM      7  O   UNL A   1      33.897  28.270  24.772  1.00  0.00    -0.246 OA
BRANCH   6   8
ATOM      8  C   UNL A   1      32.353  26.617  25.381  1.00  0.00     0.109 A 
ATOM      9  C   UNL A   1      31.479  27.904  27.534  1.00  0.00     0.088 C 
ATOM     10  C   UNL A   1      31.729  26.776  26.611  1.00  0.00     0.116 A 
ATOM     11  O   UNL A   1      31.213  25.584  27.030  1.00  0.00    -0.460 OA
ATOM     12  C   UNL A   1      31.603  24.640  26.138  1.00  0.00     0.135 A 
ATOM     13  C   UNL A   1      32.401  25.201  25.155  1.00  0.00     0.039 A 
ATOM     14  C   UNL A   1      31.269  23.296  26.191  1.00  0.00     0.051 A 
ATOM     15  C   UNL A   1      33.038  24.330  24.241  1.00  0.00     0.059 A 
ATOM     16  C   UNL A   1      31.875  22.466  25.241  1.00  0.00     0.050 A 
ATOM     17  C   UNL A   1      32.814  22.944  24.329  1.00  0.00     0.120 A 
BRANCH  17  18
ATOM     18  O   UNL A   1      33.604  22.174  23.518  1.00  0.00    -0.489 OA
BRANCH  18  19
ATOM     19  C   UNL A   1      34.857  22.680  23.028  1.00  0.00     0.265 C 
BRANCH  19  20
ATOM     20  C   UNL A   1      36.005  22.608  24.020  1.00  0.00    -0.011 A 
ATOM     21  C   UNL A   1      36.460  23.754  24.690  1.00  0.00     0.008 A 
ATOM     22  C   UNL A   1      36.623  21.386  24.314  1.00  0.00     0.008 A 
ATOM     23  C   UNL A   1      37.562  23.702  25.545  1.00  0.00     0.016 A 
ATOM     24  C   UNL A   1      37.709  21.320  25.195  1.00  0.00     0.016 A 
ATOM     25  C   UNL A   1      38.189  22.484  25.787  1.00  0.00     0.017 A 
ATOM     26  Br  UNL A   1      39.688  22.420  26.937  1.00  0.00    -0.051 Br
ENDBRANCH  19  20
ENDBRANCH  18  19
ENDBRANCH  17  18
ENDBRANCH   6   8
ENDBRANCH   5   6
ENDBRANCH   4   5
ENDBRANCH   3   4
ENDBRANCH   2   3
ENDBRANCH   1   2
BRANCH   1  27
ATOM     27  C   UNL A   1      32.607  31.489  26.939  1.00  0.00     0.188 C 
BRANCH  27  28
ATOM     28  O   UNL A   1      33.682  30.574  26.775  1.00  0.00    -0.376 OA
BRANCH  28  29
ATOM     29  C   UNL A   1      34.615  30.502  27.840  1.00  0.00     0.202 C 
BRANCH  29  30
ATOM     30  C   UNL A   1      35.034  31.853  28.431  1.00  0.00     0.261 C 
BRANCH  30  31
ATOM     31  O   UNL A   1      36.396  31.939  28.876  1.00  0.00    -0.460 OA
BRANCH  31  32
ATOM     32  C   UNL A   1      36.754  31.177  29.934  1.00  0.00     0.338 C 
ATOM     33  O   UNL A   1      36.103  30.977  30.943  1.00  0.00    -0.246 OA
BRANCH  32  34
ATOM     34  C   UNL A   1      38.015  30.489  29.582  1.00  0.00     0.060 A 
ATOM     35  C   UNL A   1      38.958  30.240  30.585  1.00  0.00     0.016 A 
ATOM     36  C   UNL A   1      38.257  30.079  28.268  1.00  0.00     0.016 A 
ATOM     37  C   UNL A   1      40.160  29.602  30.265  1.00  0.00     0.010 A 
ATOM     38  C   UNL A   1      39.467  29.456  27.948  1.00  0.00     0.010 A 
ATOM     39  C   UNL A   1      40.437  29.239  28.938  1.00  0.00    -0.014 A 
BRANCH  39  40
ATOM     40  C   UNL A   1      41.797  28.789  28.548  1.00  0.00     0.031 A 
ATOM     41  C   UNL A   1      42.909  29.803  28.515  1.00  0.00     0.074 A 
ATOM     42  C   UNL A   1      42.051  27.505  28.235  1.00  0.00     0.049 A 
ATOM     43  N   UNL A   1      44.167  29.645  28.193  1.00  0.00    -0.248 NA
ATOM     44  C   UNL A   1      42.554  31.176  28.906  1.00  0.00     0.031 C 
ATOM     45  C   UNL A   1      41.080  26.414  28.279  1.00  0.00     0.029 A 
ATOM     46  N   UNL A   1      43.218  26.901  27.836  1.00  0.00    -0.354 N 
ATOM     47  C   UNL A   1      44.751  30.899  28.326  1.00  0.00     0.074 A 
ATOM     48  C   UNL A   1      43.708  31.809  28.750  1.00  0.00     0.031 C 
ATOM     49  C   UNL A   1      41.690  25.273  27.910  1.00  0.00     0.029 A 
ATOM     50  C   UNL A   1      43.086  25.557  27.580  1.00  0.00     0.049 A 
ATOM     51  H   UNL A   1      44.070  27.385  27.741  1.00  0.00     0.167 HD
ATOM     52  C   UNL A   1      46.037  31.265  28.113  1.00  0.00     0.037 A 
ATOM     53  C   UNL A   1      43.984  24.663  27.119  1.00  0.00     0.037 A 
ATOM     54  C   UNL A   1      47.076  30.369  27.680  1.00  0.00     0.049 A 
ATOM     55  C   UNL A   1      45.397  25.105  26.828  1.00  0.00     0.074 A 
ATOM     56  C   UNL A   1      48.414  30.644  27.457  1.00  0.00     0.029 A 
ATOM     57  N   UNL A   1      46.892  29.025  27.390  1.00  0.00    -0.354 N 
ATOM     58  N   UNL A   1      45.941  26.288  26.989  1.00  0.00    -0.248 NA
ATOM     59  C   UNL A   1      46.317  24.090  26.293  1.00  0.00     0.031 C 
ATOM     60  C   UNL A   1      49.030  29.477  26.992  1.00  0.00     0.029 A 
ATOM     61  C   UNL A   1      48.084  28.464  26.967  1.00  0.00     0.049 A 
ATOM     62  H   UNL A   1      46.038  28.543  27.472  1.00  0.00     0.167 HD
ATOM     63  C   UNL A   1      47.271  26.152  26.599  1.00  0.00     0.074 A 
ATOM     64  C   UNL A   1      47.450  24.772  26.200  1.00  0.00     0.031 C 
ATOM     65  C   UNL A   1      48.254  27.086  26.577  1.00  0.00     0.037 A 
BRANCH  52  66
ATOM     66  C   UNL A   1      46.382  32.713  28.316  1.00  0.00     0.058 A 
ATOM     67  C   UNL A   1      46.357  33.631  27.256  1.00  0.00     0.135 A 
ATOM     68  C   UNL A   1      46.733  33.187  29.590  1.00  0.00     0.135 A 
ATOM     69  F   UNL A   1      46.046  33.223  26.015  1.00  0.00    -0.206 F 
ATOM     70  C   UNL A   1      46.697  34.967  27.446  1.00  0.00     0.059 A 
ATOM     71  C   UNL A   1      47.056  34.524  29.807  1.00  0.00     0.059 A 
ATOM     72  F   UNL A   1      46.776  32.348  30.637  1.00  0.00    -0.206 F 
ATOM     73  C   UNL A   1      47.051  35.402  28.724  1.00  0.00     0.060 A 
BRANCH  73  74
ATOM     74  S   UNL A   1      47.506  37.134  28.955  1.00  0.00     0.124 S 
ATOM     75  O   UNL A   1      46.201  37.785  28.909  1.00  0.00    -0.237 OA
ATOM     76  O   UNL A   1      48.158  37.117  30.261  1.00  0.00    -0.237 OA
ATOM     77  O   UNL A   1      48.385  37.407  27.823  1.00  0.00    -0.744 OA
ENDBRANCH  73  74
ENDBRANCH  52  66
BRANCH  53  78
ATOM     78  C   UNL A   1      43.577  23.252  26.889  1.00  0.00     0.058 A 
ATOM     79  C   UNL A   1      43.385  22.757  25.591  1.00  0.00     0.135 A 
ATOM     80  C   UNL A   1      43.366  22.374  27.963  1.00  0.00     0.135 A 
ATOM     81  F   UNL A   1      43.564  23.563  24.533  1.00  0.00    -0.206 F 
ATOM     82  C   UNL A   1      42.987  21.443  25.365  1.00  0.00     0.059 A 
ATOM     83  C   UNL A   1      42.989  21.050  27.762  1.00  0.00     0.059 A 
ATOM     84  F   UNL A   1      43.539  22.800  29.224  1.00  0.00    -0.206 F 
ATOM     85  C   UNL A   1      42.793  20.596  26.458  1.00  0.00     0.060 A 
BRANCH  85  86
ATOM     86  S   UNL A   1      42.326  18.878  26.152  1.00  0.00     0.124 S 
ATOM     87  O   UNL A   1      43.258  18.504  25.095  1.00  0.00    -0.237 OA
ATOM     88  O   UNL A   1      42.556  18.260  27.455  1.00  0.00    -0.237 OA
ATOM     89  O   UNL A   1      40.925  18.979  25.753  1.00  0.00    -0.744 OA
ENDBRANCH  85  86
ENDBRANCH  53  78
BRANCH  65  90
ATOM     90  C   UNL A   1      49.624  26.649  26.137  1.00  0.00     0.058 A 
ATOM     91  C   UNL A   1      50.082  26.864  24.828  1.00  0.00     0.135 A 
ATOM     92  C   UNL A   1      50.512  26.064  27.055  1.00  0.00     0.135 A 
ATOM     93  F   UNL A   1      49.271  27.415  23.911  1.00  0.00    -0.206 F 
ATOM     94  C   UNL A   1      51.367  26.497  24.438  1.00  0.00     0.059 A 
ATOM     95  C   UNL A   1      51.809  25.711  26.693  1.00  0.00     0.059 A 
ATOM     96  F   UNL A   1      50.128  25.848  28.322  1.00  0.00    -0.206 F 
ATOM     97  C   UNL A   1      52.223  25.923  25.378  1.00  0.00     0.060 A 
BRANCH  97  98
ATOM     98  S   UNL A   1      53.902  25.486  24.874  1.00  0.00     0.124 S 
ATOM     99  O   UNL A   1      54.694  26.078  25.947  1.00  0.00    -0.237 OA
ATOM    100  O   UNL A   1      53.855  24.027  24.853  1.00  0.00    -0.237 OA
ATOM    101  O   UNL A   1      54.040  26.121  23.568  1.00  0.00    -0.744 OA
ENDBRANCH  97  98
ENDBRANCH  65  90
ENDBRANCH  39  40
ENDBRANCH  32  34
ENDBRANCH  31  32
ENDBRANCH  30  31
ENDBRANCH  29  30
ENDBRANCH  28  29
ENDBRANCH  27  28
ENDBRANCH   1  27
TORSDOF 23
ENDMDL
MODEL 2
REMARK VINA RESULT:     -10.3      1.568      2.201
REMARK SMILES Cc1oc2ccc(OCc3ccc(Br)cc3)cc2c1C(=O)OCCOCCOCCOC(=O)c1ccc(-c2c3nc(c(-c4c(F)cc(S(=O)(=O)[O-])cc4F)c4ccc([nH]4)c(-c4c(F)cc(S(=O)(=O)[O-])cc4F)c4nc(c(-c5c(F)cc(S(=O)(=O)[O-])cc5F)c5ccc2[nH]5)C=C4)C=C3)cc1
REMARK SMILES IDX 26 1 25 2 24 3 23 4 22 5 20 6 21 7 19 8 1 9 2 10 3 11 4 12
REMARK SMILES IDX 18 13 5 14 17 15 6 16 7 17 8 18 9 19 10 20 11 21 16 22 12 23
REMARK SMILES IDX 15 24 13 25 14 26 27 27 28 28 29 29 30 30 31 31 32 32 33 33
REMARK SMILES IDX 34 34 35 35 99 36 36 37 98 38 37 39 38 40 39 41 92 42 40 43
REMARK SMILES IDX 97 44 91 45 93 46 41 47 96 48 90 49 89 50 42 52 76 53 55 54
REMARK SMILES IDX 75 55 56 56 59 57 74 58 94 59 57 60 58 61 73 63 95 64 60 65
REMARK SMILES IDX 43 66 44 67 53 68 45 69 46 70 52 71 54 72 47 73 48 74 49 75
REMARK SMILES IDX 50 76 51 77 77 78 78 79 87 80 79 81 80 82 86 83 88 84 81 85
REMARK SMILES IDX 82 86 83 87 84 88 85 89 61 90 62 91 71 92 63 93 64 94 70 95
REMARK SMILES IDX 72 96 65 97 66 98 67 99 68 100 69 101
REMARK H PARENT 93 51 59 62
REMARK Flexibility Score: inf
ROOT
ATOM      1  C   UNL A   1      32.839  32.103  27.395  1.00  0.00     0.188 C 
ENDROOT
BRANCH   1   2
ATOM      2  O   UNL A   1      32.413  30.810  26.974  1.00  0.00    -0.376 OA
BRANCH   2   3
ATOM      3  C   UNL A   1      33.298  29.957  26.265  1.00  0.00     0.202 C 
BRANCH   3   4
ATOM      4  C   UNL A   1      32.692  28.752  25.547  1.00  0.00     0.261 C 
BRANCH   4   5
ATOM      5  O   UNL A   1      32.738  27.546  26.326  1.00  0.00    -0.460 OA
BRANCH   5   6
ATOM      6  C   UNL A   1      31.638  26.745  26.228  1.00  0.00     0.342 C 
ATOM      7  O   UNL A   1      30.738  26.705  27.058  1.00  0.00    -0.246 OA
BRANCH   6   8
ATOM      8  C   UNL A   1      31.582  25.982  24.996  1.00  0.00     0.109 A 
ATOM      9  C   UNL A   1      29.149  26.380  24.009  1.00  0.00     0.088 C 
ATOM     10  C   UNL A   1      30.546  25.901  24.076  1.00  0.00     0.116 A 
ATOM     11  O   UNL A   1      30.960  25.226  22.965  1.00  0.00    -0.460 OA
ATOM     12  C   UNL A   1      32.213  24.772  23.213  1.00  0.00     0.135 A 
ATOM     13  C   UNL A   1      32.609  25.115  24.495  1.00  0.00     0.039 A 
ATOM     14  C   UNL A   1      32.999  24.054  22.325  1.00  0.00     0.051 A 
ATOM     15  C   UNL A   1      33.821  24.573  24.982  1.00  0.00     0.059 A 
ATOM     16  C   UNL A   1      34.217  23.572  22.821  1.00  0.00     0.050 A 
ATOM     17  C   UNL A   1      34.597  23.745  24.150  1.00  0.00     0.120 A 
BRANCH  17  18
ATOM     18  O   UNL A   1      35.656  23.131  24.764  1.00  0.00    -0.489 OA
BRANCH  18  19
ATOM     19  C   UNL A   1      35.435  22.170  25.809  1.00  0.00     0.265 C 
BRANCH  19  20
ATOM     20  C   UNL A   1      35.048  20.782  25.326  1.00  0.00    -0.011 A 
ATOM     21  C   UNL A   1      36.021  19.804  25.071  1.00  0.00     0.008 A 
ATOM     22  C   UNL A   1      33.703  20.434  25.147  1.00  0.00     0.008 A 
ATOM     23  C   UNL A   1      35.671  18.554  24.555  1.00  0.00     0.016 A 
ATOM     24  C   UNL A   1      33.342  19.172  24.661  1.00  0.00     0.016 A 
ATOM     25  C   UNL A   1      34.332  18.247  24.343  1.00  0.00     0.017 A 
ATOM     26  Br  UNL A   1      33.864  16.558  23.635  1.00  0.00    -0.051 Br
ENDBRANCH  19  20
ENDBRANCH  18  19
ENDBRANCH  17  18
ENDBRANCH   6   8
ENDBRANCH   5   6
ENDBRANCH   4   5
ENDBRANCH   3   4
ENDBRANCH   2   3
ENDBRANCH   1   2
BRANCH   1  27
ATOM     27  C   UNL A   1      34.175  32.260  28.146  1.00  0.00     0.188 C 
BRANCH  27  28
ATOM     28  O   UNL A   1      35.016  33.269  27.606  1.00  0.00    -0.376 OA
BRANCH  28  29
ATOM     29  C   UNL A   1      35.862  33.942  28.525  1.00  0.00     0.202 C 
BRANCH  29  30
ATOM     30  C   UNL A   1      35.709  33.507  29.987  1.00  0.00     0.261 C 
BRANCH  30  31
ATOM     31  O   UNL A   1      36.886  32.954  30.595  1.00  0.00    -0.460 OA
BRANCH  31  32
ATOM     32  C   UNL A   1      36.821  31.673  31.024  1.00  0.00     0.338 C 
ATOM     33  O   UNL A   1      35.886  31.139  31.589  1.00  0.00    -0.246 OA
BRANCH  32  34
ATOM     34  C   UNL A   1      38.032  30.978  30.536  1.00  0.00     0.060 A 
ATOM     35  C   UNL A   1      38.966  30.504  31.463  1.00  0.00     0.016 A 
ATOM     36  C   UNL A   1      38.236  30.782  29.166  1.00  0.00     0.016 A 
ATOM     37  C   UNL A   1      40.122  29.856  31.017  1.00  0.00     0.010 A 
ATOM     38  C   UNL A   1      39.400  30.149  28.722  1.00  0.00     0.010 A 
ATOM     39  C   UNL A   1      40.363  29.707  29.642  1.00  0.00    -0.014 A 
BRANCH  39  40
ATOM     40  C   UNL A   1      41.687  29.246  29.154  1.00  0.00     0.031 A 
ATOM     41  C   UNL A   1      42.821  30.236  29.107  1.00  0.00     0.074 A 
ATOM     42  C   UNL A   1      41.891  27.974  28.767  1.00  0.00     0.049 A 
ATOM     43  N   UNL A   1      44.054  30.066  28.708  1.00  0.00    -0.248 NA
ATOM     44  C   UNL A   1      42.523  31.596  29.583  1.00  0.00     0.031 C 
ATOM     45  C   UNL A   1      40.897  26.905  28.814  1.00  0.00     0.029 A 
ATOM     46  N   UNL A   1      43.019  27.365  28.274  1.00  0.00    -0.354 N 
ATOM     47  C   UNL A   1      44.676  31.299  28.867  1.00  0.00     0.074 A 
ATOM     48  C   UNL A   1      43.681  32.210  29.393  1.00  0.00     0.031 C 
ATOM     49  C   UNL A   1      41.457  25.769  28.357  1.00  0.00     0.029 A 
ATOM     50  C   UNL A   1      42.839  26.038  27.962  1.00  0.00     0.049 A 
ATOM     51  H   UNL A   1      43.876  27.834  28.155  1.00  0.00     0.167 HD
ATOM     52  C   UNL A   1      45.957  31.646  28.600  1.00  0.00     0.037 A 
ATOM     53  C   UNL A   1      43.688  25.149  27.409  1.00  0.00     0.037 A 
ATOM     54  C   UNL A   1      46.948  30.749  28.067  1.00  0.00     0.049 A 
ATOM     55  C   UNL A   1      45.094  25.573  27.060  1.00  0.00     0.074 A 
ATOM     56  C   UNL A   1      48.279  31.005  27.782  1.00  0.00     0.029 A 
ATOM     57  N   UNL A   1      46.715  29.426  27.724  1.00  0.00    -0.354 N 
ATOM     58  N   UNL A   1      45.675  26.733  27.247  1.00  0.00    -0.248 NA
ATOM     59  C   UNL A   1      45.956  24.565  26.427  1.00  0.00     0.031 C 
ATOM     60  C   UNL A   1      48.838  29.849  27.228  1.00  0.00     0.029 A 
ATOM     61  C   UNL A   1      47.868  28.860  27.208  1.00  0.00     0.049 A 
ATOM     62  H   UNL A   1      45.855  28.959  27.831  1.00  0.00     0.167 HD
ATOM     63  C   UNL A   1      46.978  26.587  26.776  1.00  0.00     0.074 A 
ATOM     64  C   UNL A   1      47.100  25.225  26.302  1.00  0.00     0.031 C 
ATOM     65  C   UNL A   1      47.981  27.499  26.744  1.00  0.00     0.037 A 
BRANCH  52  66
ATOM     66  C   UNL A   1      46.349  33.074  28.853  1.00  0.00     0.058 A 
ATOM     67  C   UNL A   1      46.218  34.059  27.862  1.00  0.00     0.135 A 
ATOM     68  C   UNL A   1      46.854  33.461  30.104  1.00  0.00     0.135 A 
ATOM     69  F   UNL A   1      45.759  33.735  26.643  1.00  0.00    -0.206 F 
ATOM     70  C   UNL A   1      46.601  35.377  28.095  1.00  0.00     0.059 A 
ATOM     71  C   UNL A   1      47.223  34.777  30.366  1.00  0.00     0.059 A 
ATOM     72  F   UNL A   1      47.002  32.556  31.084  1.00  0.00    -0.206 F 
ATOM     73  C   UNL A   1      47.108  35.724  29.348  1.00  0.00     0.060 A 
BRANCH  73  74
ATOM     74  S   UNL A   1      47.617  37.433  29.634  1.00  0.00     0.124 S 
ATOM     75  O   UNL A   1      46.444  38.166  29.172  1.00  0.00    -0.237 OA
ATOM     76  O   UNL A   1      47.852  37.455  31.074  1.00  0.00    -0.237 OA
ATOM     77  O   UNL A   1      48.812  37.573  28.807  1.00  0.00    -0.744 OA
ENDBRANCH  73  74
ENDBRANCH  52  66
BRANCH  53  78
ATOM     78  C   UNL A   1      43.234  23.759  27.135  1.00  0.00     0.058 A 
ATOM     79  C   UNL A   1      42.863  23.361  25.843  1.00  0.00     0.135 A 
ATOM     80  C   UNL A   1      43.156  22.806  28.162  1.00  0.00     0.135 A 
ATOM     81  F   UNL A   1      42.909  24.242  24.831  1.00  0.00    -0.206 F 
ATOM     82  C   UNL A   1      42.419  22.070  25.578  1.00  0.00     0.059 A 
ATOM     83  C   UNL A   1      42.736  21.502  27.918  1.00  0.00     0.059 A 
ATOM     84  F   UNL A   1      43.503  23.138  29.415  1.00  0.00    -0.206 F 
ATOM     85  C   UNL A   1      42.361  21.146  26.624  1.00  0.00     0.060 A 
BRANCH  85  86
ATOM     86  S   UNL A   1      41.832  19.457  26.261  1.00  0.00     0.124 S 
ATOM     87  O   UNL A   1      40.389  19.621  26.138  1.00  0.00    -0.237 OA
ATOM     88  O   UNL A   1      42.550  19.169  25.023  1.00  0.00    -0.237 OA
ATOM     89  O   UNL A   1      42.286  18.707  27.429  1.00  0.00    -0.744 OA
ENDBRANCH  85  86
ENDBRANCH  53  78
BRANCH  65  90
ATOM     90  C   UNL A   1      49.313  27.054  26.207  1.00  0.00     0.058 A 
ATOM     91  C   UNL A   1      49.617  27.122  24.838  1.00  0.00     0.135 A 
ATOM     92  C   UNL A   1      50.320  26.612  27.081  1.00  0.00     0.135 A 
ATOM     93  F   UNL A   1      48.688  27.533  23.960  1.00  0.00    -0.206 F 
ATOM     94  C   UNL A   1      50.867  26.750  24.352  1.00  0.00     0.059 A 
ATOM     95  C   UNL A   1      51.584  26.257  26.619  1.00  0.00     0.059 A 
ATOM     96  F   UNL A   1      50.085  26.540  28.400  1.00  0.00    -0.206 F 
ATOM     97  C   UNL A   1      51.844  26.320  25.251  1.00  0.00     0.060 A 
BRANCH  97  98
ATOM     98  S   UNL A   1      53.477  25.877  24.616  1.00  0.00     0.124 S 
ATOM     99  O   UNL A   1      53.400  24.420  24.601  1.00  0.00    -0.237 OA
ATOM    100  O   UNL A   1      53.492  26.523  23.307  1.00  0.00    -0.237 OA
ATOM    101  O   UNL A   1      54.390  26.448  25.600  1.00  0.00    -0.744 OA
ENDBRANCH  97  98
ENDBRANCH  65  90
ENDBRANCH  39  40
ENDBRANCH  32  34
ENDBRANCH  31  32
ENDBRANCH  30  31
ENDBRANCH  29  30
ENDBRANCH  28  29
ENDBRANCH  27  28
ENDBRANCH   1  27
TORSDOF 23
ENDMDL
MODEL 3
REMARK VINA RESULT:     -10.3      6.298     11.757
REMARK SMILES Cc1oc2ccc(OCc3ccc(Br)cc3)cc2c1C(=O)OCCOCCOCCOC(=O)c1ccc(-c2c3nc(c(-c4c(F)cc(S(=O)(=O)[O-])cc4F)c4ccc([nH]4)c(-c4c(F)cc(S(=O)(=O)[O-])cc4F)c4nc(c(-c5c(F)cc(S(=O)(=O)[O-])cc5F)c5ccc2[nH]5)C=C4)C=C3)cc1
REMARK SMILES IDX 26 1 25 2 24 3 23 4 22 5 20 6 21 7 19 8 1 9 2 10 3 11 4 12
REMARK SMILES IDX 18 13 5 14 17 15 6 16 7 17 8 18 9 19 10 20 11 21 16 22 12 23
REMARK SMILES IDX 15 24 13 25 14 26 27 27 28 28 29 29 30 30 31 31 32 32 33 33
REMARK SMILES IDX 34 34 35 35 99 36 36 37 98 38 37 39 38 40 39 41 92 42 40 43
REMARK SMILES IDX 97 44 91 45 93 46 41 47 96 48 90 49 89 50 42 52 76 53 55 54
REMARK SMILES IDX 75 55 56 56 59 57 74 58 94 59 57 60 58 61 73 63 95 64 60 65
REMARK SMILES IDX 43 66 44 67 53 68 45 69 46 70 52 71 54 72 47 73 48 74 49 75
REMARK SMILES IDX 50 76 51 77 77 78 78 79 87 80 79 81 80 82 86 83 88 84 81 85
REMARK SMILES IDX 82 86 83 87 84 88 85 89 61 90 62 91 71 92 63 93 64 94 70 95
REMARK SMILES IDX 72 96 65 97 66 98 67 99 68 100 69 101
REMARK H PARENT 93 51 59 62
REMARK Flexibility Score: inf
ROOT
ATOM      1  C   UNL A   1      40.355  22.615  27.521  1.00  0.00     0.188 C 
ENDROOT
BRANCH   1   2
ATOM      2  O   UNL A   1      39.649  23.539  26.697  1.00  0.00    -0.376 OA
BRANCH   2   3
ATOM      3  C   UNL A   1      38.231  23.506  26.633  1.00  0.00     0.202 C 
BRANCH   3   4
ATOM      4  C   UNL A   1      37.597  22.849  25.408  1.00  0.00     0.261 C 
BRANCH   4   5
ATOM      5  O   UNL A   1      36.532  23.626  24.837  1.00  0.00    -0.460 OA
BRANCH   5   6
ATOM      6  C   UNL A   1      35.966  23.103  23.711  1.00  0.00     0.342 C 
ATOM      7  O   UNL A   1      36.565  22.926  22.658  1.00  0.00    -0.246 OA
BRANCH   6   8
ATOM      8  C   UNL A   1      34.586  22.694  23.890  1.00  0.00     0.109 A 
ATOM      9  C   UNL A   1      34.685  20.204  24.808  1.00  0.00     0.088 C 
ATOM     10  C   UNL A   1      34.099  21.498  24.399  1.00  0.00     0.116 A 
ATOM     11  O   UNL A   1      32.748  21.581  24.572  1.00  0.00    -0.460 OA
ATOM     12  C   UNL A   1      32.349  22.775  24.068  1.00  0.00     0.135 A 
ATOM     13  C   UNL A   1      33.428  23.460  23.533  1.00  0.00     0.039 A 
ATOM     14  C   UNL A   1      31.049  23.255  24.068  1.00  0.00     0.051 A 
ATOM     15  C   UNL A   1      33.167  24.647  22.809  1.00  0.00     0.059 A 
ATOM     16  C   UNL A   1      30.830  24.459  23.387  1.00  0.00     0.050 A 
ATOM     17  C   UNL A   1      31.844  25.112  22.690  1.00  0.00     0.120 A 
BRANCH  17  18
ATOM     18  O   UNL A   1      31.672  26.165  21.831  1.00  0.00    -0.489 OA
BRANCH  18  19
ATOM     19  C   UNL A   1      31.153  27.417  22.310  1.00  0.00     0.265 C 
BRANCH  19  20
ATOM     20  C   UNL A   1      31.872  27.980  23.524  1.00  0.00    -0.011 A 
ATOM     21  C   UNL A   1      31.161  28.563  24.585  1.00  0.00     0.008 A 
ATOM     22  C   UNL A   1      33.267  27.908  23.629  1.00  0.00     0.008 A 
ATOM     23  C   UNL A   1      31.826  29.148  25.665  1.00  0.00     0.016 A 
ATOM     24  C   UNL A   1      33.939  28.463  24.725  1.00  0.00     0.016 A 
ATOM     25  C   UNL A   1      33.214  29.103  25.726  1.00  0.00     0.017 A 
ATOM     26  Br  UNL A   1      34.109  29.905  27.185  1.00  0.00    -0.051 Br
ENDBRANCH  19  20
ENDBRANCH  18  19
ENDBRANCH  17  18
ENDBRANCH   6   8
ENDBRANCH   5   6
ENDBRANCH   4   5
ENDBRANCH   3   4
ENDBRANCH   2   3
ENDBRANCH   1   2
BRANCH   1  27
ATOM     27  C   UNL A   1      41.351  21.628  26.881  1.00  0.00     0.188 C 
BRANCH  27  28
ATOM     28  O   UNL A   1      42.708  22.028  27.006  1.00  0.00    -0.376 OA
BRANCH  28  29
ATOM     29  C   UNL A   1      43.414  22.246  25.794  1.00  0.00     0.202 C 
BRANCH  29  30
ATOM     30  C   UNL A   1      43.045  23.534  25.050  1.00  0.00     0.261 C 
BRANCH  30  31
ATOM     31  O   UNL A   1      42.613  24.626  25.876  1.00  0.00    -0.460 OA
BRANCH  31  32
ATOM     32  C   UNL A   1      43.473  25.656  26.045  1.00  0.00     0.338 C 
ATOM     33  O   UNL A   1      44.422  25.938  25.338  1.00  0.00    -0.246 OA
BRANCH  32  34
ATOM     34  C   UNL A   1      42.960  26.487  27.156  1.00  0.00     0.060 A 
ATOM     35  C   UNL A   1      43.405  27.807  27.281  1.00  0.00     0.016 A 
ATOM     36  C   UNL A   1      42.030  25.967  28.062  1.00  0.00     0.016 A 
ATOM     37  C   UNL A   1      42.939  28.601  28.333  1.00  0.00     0.010 A 
ATOM     38  C   UNL A   1      41.579  26.757  29.122  1.00  0.00     0.010 A 
ATOM     39  C   UNL A   1      42.051  28.069  29.281  1.00  0.00    -0.014 A 
BRANCH  39  40
ATOM     40  C   UNL A   1      41.743  28.814  30.527  1.00  0.00     0.031 A 
ATOM     41  C   UNL A   1      40.549  29.732  30.540  1.00  0.00     0.074 A 
ATOM     42  C   UNL A   1      42.495  28.678  31.634  1.00  0.00     0.049 A 
ATOM     43  N   UNL A   1      40.096  30.490  31.504  1.00  0.00    -0.248 NA
ATOM     44  C   UNL A   1      39.758  29.795  29.301  1.00  0.00     0.031 C 
ATOM     45  C   UNL A   1      43.642  27.785  31.774  1.00  0.00     0.029 A 
ATOM     46  N   UNL A   1      42.389  29.284  32.862  1.00  0.00    -0.354 N 
ATOM     47  C   UNL A   1      38.978  31.133  30.986  1.00  0.00     0.074 A 
ATOM     48  C   UNL A   1      38.826  30.681  29.619  1.00  0.00     0.031 C 
ATOM     49  C   UNL A   1      44.142  27.908  33.017  1.00  0.00     0.029 A 
ATOM     50  C   UNL A   1      43.367  28.908  33.751  1.00  0.00     0.049 A 
ATOM     51  H   UNL A   1      41.679  29.929  33.085  1.00  0.00     0.167 HD
ATOM     52  C   UNL A   1      38.151  32.020  31.588  1.00  0.00     0.037 A 
ATOM     53  C   UNL A   1      43.615  29.331  35.007  1.00  0.00     0.037 A 
ATOM     54  C   UNL A   1      38.302  32.482  32.942  1.00  0.00     0.049 A 
ATOM     55  C   UNL A   1      42.719  30.367  35.638  1.00  0.00     0.074 A 
ATOM     56  C   UNL A   1      37.501  33.365  33.646  1.00  0.00     0.029 A 
ATOM     57  N   UNL A   1      39.330  32.109  33.795  1.00  0.00    -0.354 N 
ATOM     58  N   UNL A   1      41.647  30.940  35.145  1.00  0.00    -0.248 NA
ATOM     59  C   UNL A   1      43.066  30.811  36.996  1.00  0.00     0.031 C 
ATOM     60  C   UNL A   1      38.069  33.559  34.910  1.00  0.00     0.029 A 
ATOM     61  C   UNL A   1      39.200  32.763  35.009  1.00  0.00     0.049 A 
ATOM     62  H   UNL A   1      40.047  31.474  33.570  1.00  0.00     0.167 HD
ATOM     63  C   UNL A   1      41.180  31.794  36.141  1.00  0.00     0.074 A 
ATOM     64  C   UNL A   1      42.081  31.658  37.266  1.00  0.00     0.031 C 
ATOM     65  C   UNL A   1      40.100  32.615  36.125  1.00  0.00     0.037 A 
BRANCH  52  66
ATOM     66  C   UNL A   1      37.022  32.574  30.766  1.00  0.00     0.058 A 
ATOM     67  C   UNL A   1      35.719  32.064  30.866  1.00  0.00     0.135 A 
ATOM     68  C   UNL A   1      37.248  33.635  29.874  1.00  0.00     0.135 A 
ATOM     69  F   UNL A   1      35.457  31.038  31.690  1.00  0.00    -0.206 F 
ATOM     70  C   UNL A   1      34.682  32.569  30.088  1.00  0.00     0.059 A 
ATOM     71  C   UNL A   1      36.221  34.169  29.102  1.00  0.00     0.059 A 
ATOM     72  F   UNL A   1      38.478  34.156  29.739  1.00  0.00    -0.206 F 
ATOM     73  C   UNL A   1      34.944  33.617  29.204  1.00  0.00     0.060 A 
BRANCH  73  74
ATOM     74  S   UNL A   1      33.594  34.253  28.188  1.00  0.00     0.124 S 
ATOM     75  O   UNL A   1      34.326  34.982  27.157  1.00  0.00    -0.237 OA
ATOM     76  O   UNL A   1      32.929  33.030  27.747  1.00  0.00    -0.237 OA
ATOM     77  O   UNL A   1      32.829  35.077  29.118  1.00  0.00    -0.744 OA
ENDBRANCH  73  74
ENDBRANCH  52  66
BRANCH  53  78
ATOM     78  C   UNL A   1      44.775  28.783  35.760  1.00  0.00     0.058 A 
ATOM     79  C   UNL A   1      44.631  27.670  36.601  1.00  0.00     0.135 A 
ATOM     80  C   UNL A   1      46.047  29.367  35.658  1.00  0.00     0.135 A 
ATOM     81  F   UNL A   1      43.430  27.087  36.740  1.00  0.00    -0.206 F 
ATOM     82  C   UNL A   1      45.705  27.160  37.324  1.00  0.00     0.059 A 
ATOM     83  C   UNL A   1      47.141  28.862  36.354  1.00  0.00     0.059 A 
ATOM     84  F   UNL A   1      46.236  30.432  34.864  1.00  0.00    -0.206 F 
ATOM     85  C   UNL A   1      46.957  27.763  37.191  1.00  0.00     0.060 A 
BRANCH  85  86
ATOM     86  S   UNL A   1      48.357  27.062  38.094  1.00  0.00     0.124 S 
ATOM     87  O   UNL A   1      47.775  25.838  38.633  1.00  0.00    -0.237 OA
ATOM     88  O   UNL A   1      49.348  26.886  37.037  1.00  0.00    -0.237 OA
ATOM     89  O   UNL A   1      48.673  28.096  39.075  1.00  0.00    -0.744 OA
ENDBRANCH  85  86
ENDBRANCH  53  78
BRANCH  65  90
ATOM     90  C   UNL A   1      39.807  33.409  37.368  1.00  0.00     0.058 A 
ATOM     91  C   UNL A   1      40.450  34.627  37.633  1.00  0.00     0.135 A 
ATOM     92  C   UNL A   1      38.824  32.976  38.273  1.00  0.00     0.135 A 
ATOM     93  F   UNL A   1      41.401  35.084  36.802  1.00  0.00    -0.206 F 
ATOM     94  C   UNL A   1      40.143  35.380  38.763  1.00  0.00     0.059 A 
ATOM     95  C   UNL A   1      38.484  33.724  39.396  1.00  0.00     0.059 A 
ATOM     96  F   UNL A   1      38.170  31.823  38.059  1.00  0.00    -0.206 F 
ATOM     97  C   UNL A   1      39.157  34.921  39.638  1.00  0.00     0.060 A 
BRANCH  97  98
ATOM     98  S   UNL A   1      38.737  35.924  41.080  1.00  0.00     0.124 S 
ATOM     99  O   UNL A   1      37.537  35.252  41.566  1.00  0.00    -0.237 OA
ATOM    100  O   UNL A   1      39.925  35.784  41.918  1.00  0.00    -0.237 OA
ATOM    101  O   UNL A   1      38.529  37.255  40.519  1.00  0.00    -0.744 OA
ENDBRANCH  97  98
ENDBRANCH  65  90
ENDBRANCH  39  40
ENDBRANCH  32  34
ENDBRANCH  31  32
ENDBRANCH  30  31
ENDBRANCH  29  30
ENDBRANCH  28  29
ENDBRANCH  27  28
ENDBRANCH   1  27
TORSDOF 23
ENDMDL
