MODEL 1
REMARK VINA RESULT:     -11.1      0.000      0.000
REMARK SMILES COc1ccccc1[C@@H]1C[N@@H+](Cc2cc3c(cc2C)OCO3)C[C@H]1C(=O)OCCOCCOCCOC(=O)c1ccc(-c2c3nc(c(-c4c(F)cc(S(=O)(=O)[O-])cc4F)c4ccc([nH]4)c(-c4c(F)cc(S(=O)(=O)[O-])cc4F)c4nc(c(-c5c(F)cc(S(=O)(=O)[O-])cc5F)c5ccc2[nH]5)C=C4)C=C3)cc1
REMARK SMILES IDX 32 1 31 2 30 3 29 4 28 5 27 6 25 7 26 8 24 9 9 10 10 11
REMARK SMILES IDX 11 12 23 13 8 15 3 16 4 17 5 18 7 19 6 20 2 21 1 22 12 23
REMARK SMILES IDX 13 24 14 25 18 26 15 27 17 28 19 29 16 30 22 31 20 32 21 33
REMARK SMILES IDX 33 34 34 35 35 36 36 37 37 38 38 39 39 40 40 41 104 42 41 43
REMARK SMILES IDX 103 44 42 45 43 46 44 47 97 48 45 49 102 50 96 51 98 52
REMARK SMILES IDX 46 53 101 54 95 55 94 56 47 58 81 59 60 60 80 61 61 62 64 63
REMARK SMILES IDX 79 64 99 65 62 66 63 67 78 69 100 70 65 71 48 72 49 73 58 74
REMARK SMILES IDX 50 75 51 76 57 77 59 78 52 79 53 80 54 81 55 82 56 83 82 84
REMARK SMILES IDX 83 85 92 86 84 87 85 88 91 89 93 90 86 91 87 92 88 93 89 94
REMARK SMILES IDX 90 95 66 96 67 97 76 98 68 99 69 100 75 101 77 102 70 103
REMARK SMILES IDX 71 104 72 105 73 106 74 107
REMARK H PARENT 11 14 98 57 64 68
REMARK Flexibility Score: inf
ROOT
ATOM      1  C   UNL A   1      41.185  21.410  26.727  1.00  0.00     0.188 C 
ENDROOT
BRANCH   1   2
ATOM      2  C   UNL A   1      39.766  21.907  26.406  1.00  0.00     0.188 C 
BRANCH   2   3
ATOM      3  O   UNL A   1      39.379  23.150  26.982  1.00  0.00    -0.376 OA
BRANCH   3   4
ATOM      4  C   UNL A   1      38.335  23.874  26.330  1.00  0.00     0.202 C 
BRANCH   4   5
ATOM      5  C   UNL A   1      37.283  23.042  25.579  1.00  0.00     0.261 C 
BRANCH   5   6
ATOM      6  O   UNL A   1      36.308  23.829  24.833  1.00  0.00    -0.463 OA
BRANCH   6   7
ATOM      7  C   UNL A   1      35.826  23.255  23.707  1.00  0.00     0.315 C 
ATOM      8  O   UNL A   1      36.486  23.189  22.670  1.00  0.00    -0.252 OA
BRANCH   7   9
ATOM      9  C   UNL A   1      34.405  22.685  23.729  1.00  0.00     0.167 C 
ATOM     10  C   UNL A   1      33.770  21.696  24.732  1.00  0.00     0.098 C 
ATOM     11  C   UNL A   1      32.332  22.221  24.895  1.00  0.00     0.272 C 
ATOM     12  N   UNL A   1      32.411  23.667  24.744  1.00  0.00    -0.330 N 
ATOM     13  C   UNL A   1      33.449  23.893  23.736  1.00  0.00     0.278 C 
ATOM     14  H   UNL A   1      31.537  24.069  24.409  1.00  0.00     0.348 HD
BRANCH  10  15
ATOM     15  C   UNL A   1      33.645  20.198  24.419  1.00  0.00     0.004 A 
ATOM     16  C   UNL A   1      34.655  19.238  24.631  1.00  0.00     0.122 A 
ATOM     17  C   UNL A   1      34.481  17.905  24.227  1.00  0.00     0.047 A 
ATOM     18  C   UNL A   1      33.311  17.510  23.573  1.00  0.00     0.004 A 
ATOM     19  C   UNL A   1      32.494  19.779  23.714  1.00  0.00     0.008 A 
ATOM     20  C   UNL A   1      32.326  18.453  23.299  1.00  0.00     0.001 A 
BRANCH  16  21
ATOM     21  O   UNL A   1      35.916  19.637  24.990  1.00  0.00    -0.496 OA
ATOM     22  C   UNL A   1      36.895  18.601  24.938  1.00  0.00     0.278 C 
ENDBRANCH  16  21
ENDBRANCH  10  15
BRANCH  12  23
ATOM     23  C   UNL A   1      32.498  24.416  26.000  1.00  0.00     0.299 C 
BRANCH  23  24
ATOM     24  C   UNL A   1      32.358  25.930  25.955  1.00  0.00     0.013 A 
ATOM     25  C   UNL A   1      33.496  26.714  26.265  1.00  0.00     0.060 A 
ATOM     26  C   UNL A   1      31.141  26.590  25.629  1.00  0.00    -0.038 A 
ATOM     27  C   UNL A   1      33.406  28.088  26.179  1.00  0.00     0.166 A 
ATOM     28  C   UNL A   1      31.128  27.988  25.448  1.00  0.00     0.054 A 
ATOM     29  C   UNL A   1      29.819  25.884  25.496  1.00  0.00     0.045 C 
ATOM     30  C   UNL A   1      32.262  28.704  25.743  1.00  0.00     0.166 A 
ATOM     31  O   UNL A   1      34.374  28.983  26.517  1.00  0.00    -0.454 OA
ATOM     32  O   UNL A   1      32.375  30.059  25.713  1.00  0.00    -0.454 OA
ATOM     33  C   UNL A   1      33.643  30.221  26.379  1.00  0.00     0.468 C 
ENDBRANCH  23  24
ENDBRANCH  12  23
ENDBRANCH   7   9
ENDBRANCH   6   7
ENDBRANCH   5   6
ENDBRANCH   4   5
ENDBRANCH   3   4
ENDBRANCH   2   3
ENDBRANCH   1   2
BRANCH   1  34
ATOM     34  O   UNL A   1      42.099  21.547  25.667  1.00  0.00    -0.376 OA
BRANCH  34  35
ATOM     35  C   UNL A   1      43.096  22.541  25.779  1.00  0.00     0.202 C 
BRANCH  35  36
ATOM     36  C   UNL A   1      42.830  23.994  25.339  1.00  0.00     0.261 C 
BRANCH  36  37
ATOM     37  O   UNL A   1      41.941  24.790  26.139  1.00  0.00    -0.460 OA
BRANCH  37  38
ATOM     38  C   UNL A   1      41.990  26.136  25.988  1.00  0.00     0.338 C 
ATOM     39  O   UNL A   1      41.946  26.758  24.948  1.00  0.00    -0.246 OA
BRANCH  38  40
ATOM     40  C   UNL A   1      41.919  26.733  27.344  1.00  0.00     0.060 A 
ATOM     41  C   UNL A   1      41.048  26.181  28.290  1.00  0.00     0.016 A 
ATOM     42  C   UNL A   1      42.701  27.831  27.683  1.00  0.00     0.016 A 
ATOM     43  C   UNL A   1      40.904  26.742  29.552  1.00  0.00     0.010 A 
ATOM     44  C   UNL A   1      42.566  28.395  28.957  1.00  0.00     0.010 A 
ATOM     45  C   UNL A   1      41.642  27.874  29.883  1.00  0.00    -0.014 A 
BRANCH  45  46
ATOM     46  C   UNL A   1      41.324  28.616  31.123  1.00  0.00     0.031 A 
ATOM     47  C   UNL A   1      40.146  29.547  31.100  1.00  0.00     0.074 A 
ATOM     48  C   UNL A   1      42.046  28.442  32.245  1.00  0.00     0.049 A 
ATOM     49  N   UNL A   1      39.793  30.457  31.965  1.00  0.00    -0.248 NA
ATOM     50  C   UNL A   1      39.253  29.444  29.932  1.00  0.00     0.031 C 
ATOM     51  C   UNL A   1      43.138  27.482  32.413  1.00  0.00     0.029 A 
ATOM     52  N   UNL A   1      41.978  29.085  33.455  1.00  0.00    -0.354 N 
ATOM     53  C   UNL A   1      38.676  31.078  31.418  1.00  0.00     0.074 A 
ATOM     54  C   UNL A   1      38.405  30.437  30.152  1.00  0.00     0.031 C 
ATOM     55  C   UNL A   1      43.654  27.617  33.647  1.00  0.00     0.029 A 
ATOM     56  C   UNL A   1      42.977  28.718  34.326  1.00  0.00     0.049 A 
ATOM     57  H   UNL A   1      41.282  29.745  33.678  1.00  0.00     0.167 HD
ATOM     58  C   UNL A   1      37.958  32.103  31.930  1.00  0.00     0.037 A 
ATOM     59  C   UNL A   1      43.337  29.256  35.508  1.00  0.00     0.037 A 
ATOM     60  C   UNL A   1      38.228  32.695  33.214  1.00  0.00     0.049 A 
ATOM     61  C   UNL A   1      42.562  30.441  36.028  1.00  0.00     0.074 A 
ATOM     62  C   UNL A   1      37.551  33.721  33.848  1.00  0.00     0.029 A 
ATOM     63  N   UNL A   1      39.259  32.311  34.060  1.00  0.00    -0.354 N 
ATOM     64  N   UNL A   1      41.526  31.049  35.494  1.00  0.00    -0.248 NA
ATOM     65  C   UNL A   1      43.008  31.023  37.300  1.00  0.00     0.031 C 
ATOM     66  C   UNL A   1      38.211  33.998  35.048  1.00  0.00     0.029 A 
ATOM     67  C   UNL A   1      39.256  33.099  35.196  1.00  0.00     0.049 A 
ATOM     68  H   UNL A   1      39.899  31.585  33.877  1.00  0.00     0.167 HD
ATOM     69  C   UNL A   1      41.178  32.060  36.383  1.00  0.00     0.074 A 
ATOM     70  C   UNL A   1      42.106  31.975  37.493  1.00  0.00     0.031 C 
ATOM     71  C   UNL A   1      40.183  32.978  36.294  1.00  0.00     0.037 A 
BRANCH  58  72
ATOM     72  C   UNL A   1      36.858  32.687  31.088  1.00  0.00     0.058 A 
ATOM     73  C   UNL A   1      35.504  32.389  31.303  1.00  0.00     0.135 A 
ATOM     74  C   UNL A   1      37.172  33.602  30.068  1.00  0.00     0.135 A 
ATOM     75  F   UNL A   1      35.147  31.501  32.244  1.00  0.00    -0.206 F 
ATOM     76  C   UNL A   1      34.501  32.970  30.530  1.00  0.00     0.059 A 
ATOM     77  C   UNL A   1      36.185  34.216  29.305  1.00  0.00     0.059 A 
ATOM     78  F   UNL A   1      38.453  33.913  29.810  1.00  0.00    -0.206 F 
ATOM     79  C   UNL A   1      34.853  33.887  29.539  1.00  0.00     0.060 A 
BRANCH  79  80
ATOM     80  S   UNL A   1      33.538  34.658  28.570  1.00  0.00     0.124 S 
ATOM     81  O   UNL A   1      32.558  34.972  29.606  1.00  0.00    -0.237 OA
ATOM     82  O   UNL A   1      34.222  35.802  27.976  1.00  0.00    -0.237 OA
ATOM     83  O   UNL A   1      33.144  33.609  27.633  1.00  0.00    -0.744 OA
ENDBRANCH  79  80
ENDBRANCH  58  72
BRANCH  59  84
ATOM     84  C   UNL A   1      44.512  28.725  36.255  1.00  0.00     0.058 A 
ATOM     85  C   UNL A   1      44.379  27.653  37.149  1.00  0.00     0.135 A 
ATOM     86  C   UNL A   1      45.788  29.295  36.111  1.00  0.00     0.135 A 
ATOM     87  F   UNL A   1      43.180  27.078  37.334  1.00  0.00    -0.206 F 
ATOM     88  C   UNL A   1      45.457  27.182  37.893  1.00  0.00     0.059 A 
ATOM     89  C   UNL A   1      46.889  28.820  36.817  1.00  0.00     0.059 A 
ATOM     90  F   UNL A   1      45.977  30.317  35.262  1.00  0.00    -0.206 F 
ATOM     91  C   UNL A   1      46.710  27.773  37.719  1.00  0.00     0.060 A 
BRANCH  91  92
ATOM     92  S   UNL A   1      48.106  27.142  38.675  1.00  0.00     0.124 S 
ATOM     93  O   UNL A   1      48.138  25.745  38.259  1.00  0.00    -0.237 OA
ATOM     94  O   UNL A   1      49.205  27.977  38.198  1.00  0.00    -0.237 OA
ATOM     95  O   UNL A   1      47.701  27.381  40.058  1.00  0.00    -0.744 OA
ENDBRANCH  91  92
ENDBRANCH  59  84
BRANCH  71  96
ATOM     96  C   UNL A   1      40.008  33.922  37.451  1.00  0.00     0.058 A 
ATOM     97  C   UNL A   1      40.603  35.193  37.470  1.00  0.00     0.135 A 
ATOM     98  C   UNL A   1      39.183  33.567  38.532  1.00  0.00     0.135 A 
ATOM     99  F   UNL A   1      41.405  35.579  36.466  1.00  0.00    -0.206 F 
ATOM    100  C   UNL A   1      40.408  36.068  38.533  1.00  0.00     0.059 A 
ATOM    101  C   UNL A   1      38.945  34.440  39.587  1.00  0.00     0.059 A 
ATOM    102  F   UNL A   1      38.578  32.368  38.556  1.00  0.00    -0.206 F 
ATOM    103  C   UNL A   1      39.573  35.683  39.585  1.00  0.00     0.060 A 
BRANCH 103 104
ATOM    104  S   UNL A   1      39.302  36.842  40.941  1.00  0.00     0.124 S 
ATOM    105  O   UNL A   1      38.494  36.043  41.855  1.00  0.00    -0.237 OA
ATOM    106  O   UNL A   1      40.663  37.129  41.383  1.00  0.00    -0.237 OA
ATOM    107  O   UNL A   1      38.609  37.958  40.302  1.00  0.00    -0.744 OA
ENDBRANCH 103 104
ENDBRANCH  71  96
ENDBRANCH  45  46
ENDBRANCH  38  40
ENDBRANCH  37  38
ENDBRANCH  36  37
ENDBRANCH  35  36
ENDBRANCH  34  35
ENDBRANCH   1  34
TORSDOF 24
ENDMDL
MODEL 2
REMARK VINA RESULT:      -9.7      1.738      9.038
REMARK SMILES COc1ccccc1[C@@H]1C[N@@H+](Cc2cc3c(cc2C)OCO3)C[C@H]1C(=O)OCCOCCOCCOC(=O)c1ccc(-c2c3nc(c(-c4c(F)cc(S(=O)(=O)[O-])cc4F)c4ccc([nH]4)c(-c4c(F)cc(S(=O)(=O)[O-])cc4F)c4nc(c(-c5c(F)cc(S(=O)(=O)[O-])cc5F)c5ccc2[nH]5)C=C4)C=C3)cc1
REMARK SMILES IDX 32 1 31 2 30 3 29 4 28 5 27 6 25 7 26 8 24 9 9 10 10 11
REMARK SMILES IDX 11 12 23 13 8 15 3 16 4 17 5 18 7 19 6 20 2 21 1 22 12 23
REMARK SMILES IDX 13 24 14 25 18 26 15 27 17 28 19 29 16 30 22 31 20 32 21 33
REMARK SMILES IDX 33 34 34 35 35 36 36 37 37 38 38 39 39 40 40 41 104 42 41 43
REMARK SMILES IDX 103 44 42 45 43 46 44 47 97 48 45 49 102 50 96 51 98 52
REMARK SMILES IDX 46 53 101 54 95 55 94 56 47 58 81 59 60 60 80 61 61 62 64 63
REMARK SMILES IDX 79 64 99 65 62 66 63 67 78 69 100 70 65 71 48 72 49 73 58 74
REMARK SMILES IDX 50 75 51 76 57 77 59 78 52 79 53 80 54 81 55 82 56 83 82 84
REMARK SMILES IDX 83 85 92 86 84 87 85 88 91 89 93 90 86 91 87 92 88 93 89 94
REMARK SMILES IDX 90 95 66 96 67 97 76 98 68 99 69 100 75 101 77 102 70 103
REMARK SMILES IDX 71 104 72 105 73 106 74 107
REMARK H PARENT 11 14 98 57 64 68
REMARK Flexibility Score: inf
ROOT
ATOM      1  C   UNL A   1      40.861  22.424  27.867  1.00  0.00     0.188 C 
ENDROOT
BRANCH   1   2
ATOM      2  C   UNL A   1      39.536  22.458  27.089  1.00  0.00     0.188 C 
BRANCH   2   3
ATOM      3  O   UNL A   1      39.372  21.482  26.065  1.00  0.00    -0.376 OA
BRANCH   3   4
ATOM      4  C   UNL A   1      38.134  21.485  25.354  1.00  0.00     0.202 C 
BRANCH   4   5
ATOM      5  C   UNL A   1      37.338  22.799  25.358  1.00  0.00     0.261 C 
BRANCH   5   6
ATOM      6  O   UNL A   1      35.909  22.643  25.111  1.00  0.00    -0.463 OA
BRANCH   6   7
ATOM      7  C   UNL A   1      35.095  22.977  26.139  1.00  0.00     0.315 C 
ATOM      8  O   UNL A   1      35.534  23.351  27.227  1.00  0.00    -0.252 OA
BRANCH   7   9
ATOM      9  C   UNL A   1      33.582  22.866  25.939  1.00  0.00     0.167 C 
ATOM     10  C   UNL A   1      32.734  23.258  24.707  1.00  0.00     0.098 C 
ATOM     11  C   UNL A   1      31.671  22.147  24.634  1.00  0.00     0.272 C 
ATOM     12  N   UNL A   1      32.313  20.940  25.132  1.00  0.00    -0.330 N 
ATOM     13  C   UNL A   1      33.213  21.393  26.195  1.00  0.00     0.278 C 
ATOM     14  H   UNL A   1      31.644  20.281  25.529  1.00  0.00     0.348 HD
BRANCH  10  15
ATOM     15  C   UNL A   1      31.968  24.587  24.646  1.00  0.00     0.004 A 
ATOM     16  C   UNL A   1      31.621  25.269  23.462  1.00  0.00     0.122 A 
ATOM     17  C   UNL A   1      31.000  26.527  23.507  1.00  0.00     0.047 A 
ATOM     18  C   UNL A   1      30.744  27.146  24.734  1.00  0.00     0.004 A 
ATOM     19  C   UNL A   1      31.738  25.259  25.868  1.00  0.00     0.008 A 
ATOM     20  C   UNL A   1      31.131  26.519  25.914  1.00  0.00     0.001 A 
BRANCH  16  21
ATOM     21  O   UNL A   1      32.116  24.846  22.256  1.00  0.00    -0.496 OA
ATOM     22  C   UNL A   1      32.392  25.897  21.334  1.00  0.00     0.278 C 
ENDBRANCH  16  21
ENDBRANCH  10  15
BRANCH  12  23
ATOM     23  C   UNL A   1      32.860  20.058  24.098  1.00  0.00     0.299 C 
BRANCH  23  24
ATOM     24  C   UNL A   1      33.295  18.656  24.494  1.00  0.00     0.013 A 
ATOM     25  C   UNL A   1      32.289  17.690  24.739  1.00  0.00     0.060 A 
ATOM     26  C   UNL A   1      34.658  18.275  24.640  1.00  0.00    -0.038 A 
ATOM     27  C   UNL A   1      32.661  16.399  25.049  1.00  0.00     0.166 A 
ATOM     28  C   UNL A   1      34.989  16.922  24.850  1.00  0.00     0.054 A 
ATOM     29  C   UNL A   1      35.803  19.251  24.623  1.00  0.00     0.045 C 
ATOM     30  C   UNL A   1      33.977  16.017  25.064  1.00  0.00     0.166 A 
ATOM     31  O   UNL A   1      31.828  15.377  25.388  1.00  0.00    -0.454 OA
ATOM     32  O   UNL A   1      34.140  14.703  25.375  1.00  0.00    -0.454 OA
ATOM     33  C   UNL A   1      32.792  14.367  25.756  1.00  0.00     0.468 C 
ENDBRANCH  23  24
ENDBRANCH  12  23
ENDBRANCH   7   9
ENDBRANCH   6   7
ENDBRANCH   5   6
ENDBRANCH   4   5
ENDBRANCH   3   4
ENDBRANCH   2   3
ENDBRANCH   1   2
BRANCH   1  34
ATOM     34  O   UNL A   1      41.828  21.558  27.325  1.00  0.00    -0.376 OA
BRANCH  34  35
ATOM     35  C   UNL A   1      42.944  22.135  26.682  1.00  0.00     0.202 C 
BRANCH  35  36
ATOM     36  C   UNL A   1      42.793  22.910  25.358  1.00  0.00     0.261 C 
BRANCH  36  37
ATOM     37  O   UNL A   1      42.348  24.274  25.421  1.00  0.00    -0.460 OA
BRANCH  37  38
ATOM     38  C   UNL A   1      43.281  25.233  25.641  1.00  0.00     0.338 C 
ATOM     39  O   UNL A   1      44.302  25.418  25.014  1.00  0.00    -0.246 OA
BRANCH  38  40
ATOM     40  C   UNL A   1      42.738  26.144  26.677  1.00  0.00     0.060 A 
ATOM     41  C   UNL A   1      43.150  27.481  26.697  1.00  0.00     0.016 A 
ATOM     42  C   UNL A   1      41.830  25.687  27.625  1.00  0.00     0.016 A 
ATOM     43  C   UNL A   1      42.714  28.357  27.683  1.00  0.00     0.010 A 
ATOM     44  C   UNL A   1      41.380  26.567  28.616  1.00  0.00     0.010 A 
ATOM     45  C   UNL A   1      41.847  27.895  28.669  1.00  0.00    -0.014 A 
BRANCH  45  46
ATOM     46  C   UNL A   1      41.568  28.742  29.850  1.00  0.00     0.031 A 
ATOM     47  C   UNL A   1      42.430  28.556  31.065  1.00  0.00     0.074 A 
ATOM     48  C   UNL A   1      40.594  29.670  29.828  1.00  0.00     0.049 A 
ATOM     49  N   UNL A   1      42.260  29.005  32.278  1.00  0.00    -0.248 NA
ATOM     50  C   UNL A   1      43.642  27.736  30.889  1.00  0.00     0.031 C 
ATOM     51  C   UNL A   1      39.772  30.013  28.667  1.00  0.00     0.029 A 
ATOM     52  N   UNL A   1      40.119  30.483  30.826  1.00  0.00    -0.354 N 
ATOM     53  C   UNL A   1      43.306  28.474  33.023  1.00  0.00     0.074 A 
ATOM     54  C   UNL A   1      44.110  27.675  32.126  1.00  0.00     0.031 C 
ATOM     55  C   UNL A   1      38.877  30.950  29.026  1.00  0.00     0.029 A 
ATOM     56  C   UNL A   1      39.017  31.217  30.454  1.00  0.00     0.049 A 
ATOM     57  H   UNL A   1      40.528  30.536  31.720  1.00  0.00     0.167 HD
ATOM     58  C   UNL A   1      43.556  28.633  34.342  1.00  0.00     0.037 A 
ATOM     59  C   UNL A   1      38.183  31.968  31.201  1.00  0.00     0.037 A 
ATOM     60  C   UNL A   1      42.759  29.469  35.203  1.00  0.00     0.049 A 
ATOM     61  C   UNL A   1      38.443  32.077  32.683  1.00  0.00     0.074 A 
ATOM     62  C   UNL A   1      42.932  29.728  36.550  1.00  0.00     0.029 A 
ATOM     63  N   UNL A   1      41.640  30.181  34.796  1.00  0.00    -0.354 N 
ATOM     64  N   UNL A   1      39.414  31.548  33.392  1.00  0.00    -0.248 NA
ATOM     65  C   UNL A   1      37.492  32.874  33.469  1.00  0.00     0.031 C 
ATOM     66  C   UNL A   1      41.880  30.547  36.971  1.00  0.00     0.029 A 
ATOM     67  C   UNL A   1      41.093  30.857  35.872  1.00  0.00     0.049 A 
ATOM     68  H   UNL A   1      41.287  30.202  33.877  1.00  0.00     0.167 HD
ATOM     69  C   UNL A   1      39.208  31.976  34.700  1.00  0.00     0.074 A 
ATOM     70  C   UNL A   1      38.028  32.816  34.680  1.00  0.00     0.031 C 
ATOM     71  C   UNL A   1      39.926  31.702  35.818  1.00  0.00     0.037 A 
BRANCH  58  72
ATOM     72  C   UNL A   1      44.688  27.853  34.949  1.00  0.00     0.058 A 
ATOM     73  C   UNL A   1      45.999  28.348  35.007  1.00  0.00     0.135 A 
ATOM     74  C   UNL A   1      44.438  26.595  35.523  1.00  0.00     0.135 A 
ATOM     75  F   UNL A   1      46.302  29.531  34.450  1.00  0.00    -0.206 F 
ATOM     76  C   UNL A   1      47.025  27.619  35.605  1.00  0.00     0.059 A 
ATOM     77  C   UNL A   1      45.440  25.863  36.151  1.00  0.00     0.059 A 
ATOM     78  F   UNL A   1      43.204  26.067  35.483  1.00  0.00    -0.206 F 
ATOM     79  C   UNL A   1      46.733  26.381  36.180  1.00  0.00     0.060 A 
BRANCH  79  80
ATOM     80  S   UNL A   1      48.066  25.466  36.982  1.00  0.00     0.124 S 
ATOM     81  O   UNL A   1      47.995  25.981  38.346  1.00  0.00    -0.237 OA
ATOM     82  O   UNL A   1      47.641  24.081  36.805  1.00  0.00    -0.237 OA
ATOM     83  O   UNL A   1      49.252  25.856  36.225  1.00  0.00    -0.744 OA
ENDBRANCH  79  80
ENDBRANCH  58  72
BRANCH  59  84
ATOM     84  C   UNL A   1      36.999  32.628  30.582  1.00  0.00     0.058 A 
ATOM     85  C   UNL A   1      35.717  32.071  30.695  1.00  0.00     0.135 A 
ATOM     86  C   UNL A   1      37.128  33.815  29.843  1.00  0.00     0.135 A 
ATOM     87  F   UNL A   1      35.539  30.930  31.381  1.00  0.00    -0.206 F 
ATOM     88  C   UNL A   1      34.611  32.648  30.077  1.00  0.00     0.059 A 
ATOM     89  C   UNL A   1      36.033  34.431  29.245  1.00  0.00     0.059 A 
ATOM     90  F   UNL A   1      38.330  34.398  29.708  1.00  0.00    -0.206 F 
ATOM     91  C   UNL A   1      34.780  33.830  29.353  1.00  0.00     0.060 A 
BRANCH  91  92
ATOM     92  S   UNL A   1      33.336  34.581  28.572  1.00  0.00     0.124 S 
ATOM     93  O   UNL A   1      33.940  35.689  27.841  1.00  0.00    -0.237 OA
ATOM     94  O   UNL A   1      32.823  33.483  27.759  1.00  0.00    -0.237 OA
ATOM     95  O   UNL A   1      32.497  34.956  29.707  1.00  0.00    -0.744 OA
ENDBRANCH  91  92
ENDBRANCH  59  84
BRANCH  71  96
ATOM     96  C   UNL A   1      39.493  32.361  37.097  1.00  0.00     0.058 A 
ATOM     97  C   UNL A   1      38.445  31.851  37.879  1.00  0.00     0.135 A 
ATOM     98  C   UNL A   1      40.179  33.492  37.574  1.00  0.00     0.135 A 
ATOM     99  F   UNL A   1      37.754  30.779  37.466  1.00  0.00    -0.206 F 
ATOM    100  C   UNL A   1      38.075  32.455  39.076  1.00  0.00     0.059 A 
ATOM    101  C   UNL A   1      39.849  34.089  38.785  1.00  0.00     0.059 A 
ATOM    102  F   UNL A   1      41.198  34.011  36.871  1.00  0.00    -0.206 F 
ATOM    103  C   UNL A   1      38.786  33.571  39.523  1.00  0.00     0.060 A 
BRANCH 103 104
ATOM    104  S   UNL A   1      38.316  34.323  41.094  1.00  0.00     0.124 S 
ATOM    105  O   UNL A   1      36.869  34.436  40.946  1.00  0.00    -0.237 OA
ATOM    106  O   UNL A   1      38.779  33.335  42.063  1.00  0.00    -0.237 OA
ATOM    107  O   UNL A   1      39.047  35.587  41.099  1.00  0.00    -0.744 OA
ENDBRANCH 103 104
ENDBRANCH  71  96
ENDBRANCH  45  46
ENDBRANCH  38  40
ENDBRANCH  37  38
ENDBRANCH  36  37
ENDBRANCH  35  36
ENDBRANCH  34  35
ENDBRANCH   1  34
TORSDOF 24
ENDMDL
MODEL 3
REMARK VINA RESULT:      -9.3      6.264     11.667
REMARK SMILES COc1ccccc1[C@@H]1C[N@@H+](Cc2cc3c(cc2C)OCO3)C[C@H]1C(=O)OCCOCCOCCOC(=O)c1ccc(-c2c3nc(c(-c4c(F)cc(S(=O)(=O)[O-])cc4F)c4ccc([nH]4)c(-c4c(F)cc(S(=O)(=O)[O-])cc4F)c4nc(c(-c5c(F)cc(S(=O)(=O)[O-])cc5F)c5ccc2[nH]5)C=C4)C=C3)cc1
REMARK SMILES IDX 32 1 31 2 30 3 29 4 28 5 27 6 25 7 26 8 24 9 9 10 10 11
REMARK SMILES IDX 11 12 23 13 8 15 3 16 4 17 5 18 7 19 6 20 2 21 1 22 12 23
REMARK SMILES IDX 13 24 14 25 18 26 15 27 17 28 19 29 16 30 22 31 20 32 21 33
REMARK SMILES IDX 33 34 34 35 35 36 36 37 37 38 38 39 39 40 40 41 104 42 41 43
REMARK SMILES IDX 103 44 42 45 43 46 44 47 97 48 45 49 102 50 96 51 98 52
REMARK SMILES IDX 46 53 101 54 95 55 94 56 47 58 81 59 60 60 80 61 61 62 64 63
REMARK SMILES IDX 79 64 99 65 62 66 63 67 78 69 100 70 65 71 48 72 49 73 58 74
REMARK SMILES IDX 50 75 51 76 57 77 59 78 52 79 53 80 54 81 55 82 56 83 82 84
REMARK SMILES IDX 83 85 92 86 84 87 85 88 91 89 93 90 86 91 87 92 88 93 89 94
REMARK SMILES IDX 90 95 66 96 67 97 76 98 68 99 69 100 75 101 77 102 70 103
REMARK SMILES IDX 71 104 72 105 73 106 74 107
REMARK H PARENT 11 14 98 57 64 68
REMARK Flexibility Score: inf
ROOT
ATOM      1  C   UNL A   1      40.709  21.210  27.348  1.00  0.00     0.188 C 
ENDROOT
BRANCH   1   2
ATOM      2  C   UNL A   1      40.696  22.739  27.508  1.00  0.00     0.188 C 
BRANCH   2   3
ATOM      3  O   UNL A   1      39.537  23.421  27.039  1.00  0.00    -0.376 OA
BRANCH   3   4
ATOM      4  C   UNL A   1      39.676  24.808  26.734  1.00  0.00     0.202 C 
BRANCH   4   5
ATOM      5  C   UNL A   1      41.087  25.405  26.858  1.00  0.00     0.261 C 
BRANCH   5   6
ATOM      6  O   UNL A   1      41.236  26.390  27.923  1.00  0.00    -0.463 OA
BRANCH   6   7
ATOM      7  C   UNL A   1      40.797  27.637  27.636  1.00  0.00     0.315 C 
ATOM      8  O   UNL A   1      40.873  28.115  26.504  1.00  0.00    -0.252 OA
BRANCH   7   9
ATOM      9  C   UNL A   1      40.204  28.481  28.767  1.00  0.00     0.167 C 
ATOM     10  C   UNL A   1      40.319  30.004  29.005  1.00  0.00     0.098 C 
ATOM     11  C   UNL A   1      38.925  30.393  29.529  1.00  0.00     0.272 C 
ATOM     12  N   UNL A   1      37.984  29.495  28.876  1.00  0.00    -0.330 N 
ATOM     13  C   UNL A   1      38.687  28.215  28.764  1.00  0.00     0.278 C 
ATOM     14  H   UNL A   1      37.137  29.355  29.427  1.00  0.00     0.348 HD
BRANCH  10  15
ATOM     15  C   UNL A   1      41.329  30.590  30.002  1.00  0.00     0.004 A 
ATOM     16  C   UNL A   1      42.633  31.018  29.679  1.00  0.00     0.122 A 
ATOM     17  C   UNL A   1      43.518  31.456  30.677  1.00  0.00     0.047 A 
ATOM     18  C   UNL A   1      43.133  31.443  32.020  1.00  0.00     0.004 A 
ATOM     19  C   UNL A   1      40.986  30.546  31.372  1.00  0.00     0.008 A 
ATOM     20  C   UNL A   1      41.872  30.969  32.369  1.00  0.00     0.001 A 
BRANCH  16  21
ATOM     21  O   UNL A   1      43.148  30.768  28.434  1.00  0.00    -0.496 OA
ATOM     22  C   UNL A   1      43.996  29.623  28.370  1.00  0.00     0.278 C 
ENDBRANCH  16  21
ENDBRANCH  10  15
BRANCH  12  23
ATOM     23  C   UNL A   1      37.344  30.036  27.674  1.00  0.00     0.299 C 
BRANCH  23  24
ATOM     24  C   UNL A   1      36.138  30.949  27.841  1.00  0.00     0.013 A 
ATOM     25  C   UNL A   1      36.366  32.292  28.227  1.00  0.00     0.060 A 
ATOM     26  C   UNL A   1      34.799  30.513  27.640  1.00  0.00    -0.038 A 
ATOM     27  C   UNL A   1      35.292  33.150  28.333  1.00  0.00     0.166 A 
ATOM     28  C   UNL A   1      33.747  31.451  27.654  1.00  0.00     0.054 A 
ATOM     29  C   UNL A   1      34.411  29.073  27.446  1.00  0.00     0.045 C 
ATOM     30  C   UNL A   1      34.021  32.748  28.015  1.00  0.00     0.166 A 
ATOM     31  O   UNL A   1      35.328  34.440  28.766  1.00  0.00    -0.454 OA
ATOM     32  O   UNL A   1      33.103  33.739  28.169  1.00  0.00    -0.454 OA
ATOM     33  C   UNL A   1      33.916  34.736  28.818  1.00  0.00     0.468 C 
ENDBRANCH  23  24
ENDBRANCH  12  23
ENDBRANCH   7   9
ENDBRANCH   6   7
ENDBRANCH   5   6
ENDBRANCH   4   5
ENDBRANCH   3   4
ENDBRANCH   2   3
ENDBRANCH   1   2
BRANCH   1  34
ATOM     34  O   UNL A   1      41.925  20.601  27.707  1.00  0.00    -0.376 OA
BRANCH  34  35
ATOM     35  C   UNL A   1      42.005  19.194  27.631  1.00  0.00     0.202 C 
BRANCH  35  36
ATOM     36  C   UNL A   1      42.164  18.473  26.277  1.00  0.00     0.261 C 
BRANCH  36  37
ATOM     37  O   UNL A   1      42.565  19.253  25.140  1.00  0.00    -0.460 OA
BRANCH  37  38
ATOM     38  C   UNL A   1      43.877  19.239  24.796  1.00  0.00     0.338 C 
ATOM     39  O   UNL A   1      44.470  18.357  24.214  1.00  0.00    -0.246 OA
BRANCH  38  40
ATOM     40  C   UNL A   1      44.423  20.586  25.092  1.00  0.00     0.060 A 
ATOM     41  C   UNL A   1      45.793  20.730  25.337  1.00  0.00     0.016 A 
ATOM     42  C   UNL A   1      43.593  21.700  25.129  1.00  0.00     0.016 A 
ATOM     43  C   UNL A   1      46.340  21.961  25.676  1.00  0.00     0.010 A 
ATOM     44  C   UNL A   1      44.140  22.945  25.461  1.00  0.00     0.010 A 
ATOM     45  C   UNL A   1      45.509  23.073  25.769  1.00  0.00    -0.014 A 
BRANCH  45  46
ATOM     46  C   UNL A   1      46.031  24.327  26.357  1.00  0.00     0.031 A 
ATOM     47  C   UNL A   1      47.077  25.079  25.587  1.00  0.00     0.074 A 
ATOM     48  C   UNL A   1      45.565  24.794  27.530  1.00  0.00     0.049 A 
ATOM     49  N   UNL A   1      47.839  26.065  25.971  1.00  0.00    -0.248 NA
ATOM     50  C   UNL A   1      47.301  24.649  24.195  1.00  0.00     0.031 C 
ATOM     51  C   UNL A   1      44.474  24.205  28.307  1.00  0.00     0.029 A 
ATOM     52  N   UNL A   1      45.969  25.868  28.282  1.00  0.00    -0.354 N 
ATOM     53  C   UNL A   1      48.676  26.332  24.894  1.00  0.00     0.074 A 
ATOM     54  C   UNL A   1      48.323  25.411  23.838  1.00  0.00     0.031 C 
ATOM     55  C   UNL A   1      44.311  24.913  29.439  1.00  0.00     0.029 A 
ATOM     56  C   UNL A   1      45.332  25.955  29.498  1.00  0.00     0.049 A 
ATOM     57  H   UNL A   1      46.649  26.514  27.981  1.00  0.00     0.167 HD
ATOM     58  C   UNL A   1      49.659  27.257  24.810  1.00  0.00     0.037 A 
ATOM     59  C   UNL A   1      45.589  26.746  30.557  1.00  0.00     0.037 A 
ATOM     60  C   UNL A   1      49.961  28.188  25.865  1.00  0.00     0.049 A 
ATOM     61  C   UNL A   1      46.734  27.725  30.465  1.00  0.00     0.074 A 
ATOM     62  C   UNL A   1      50.916  29.188  25.883  1.00  0.00     0.029 A 
ATOM     63  N   UNL A   1      49.307  28.234  27.089  1.00  0.00    -0.354 N 
ATOM     64  N   UNL A   1      47.545  27.954  29.458  1.00  0.00    -0.248 NA
ATOM     65  C   UNL A   1      47.007  28.544  31.653  1.00  0.00     0.031 C 
ATOM     66  C   UNL A   1      50.882  29.796  27.142  1.00  0.00     0.029 A 
ATOM     67  C   UNL A   1      49.859  29.224  27.882  1.00  0.00     0.049 A 
ATOM     68  H   UNL A   1      48.562  27.648  27.354  1.00  0.00     0.167 HD
ATOM     69  C   UNL A   1      48.401  28.966  29.880  1.00  0.00     0.074 A 
ATOM     70  C   UNL A   1      48.001  29.312  31.228  1.00  0.00     0.031 C 
ATOM     71  C   UNL A   1      49.426  29.558  29.216  1.00  0.00     0.037 A 
BRANCH  58  72
ATOM     72  C   UNL A   1      50.514  27.272  23.574  1.00  0.00     0.058 A 
ATOM     73  C   UNL A   1      50.085  27.843  22.367  1.00  0.00     0.135 A 
ATOM     74  C   UNL A   1      51.813  26.737  23.619  1.00  0.00     0.135 A 
ATOM     75  F   UNL A   1      48.844  28.344  22.258  1.00  0.00    -0.206 F 
ATOM     76  C   UNL A   1      50.910  27.875  21.245  1.00  0.00     0.059 A 
ATOM     77  C   UNL A   1      52.664  26.784  22.520  1.00  0.00     0.059 A 
ATOM     78  F   UNL A   1      52.270  26.165  24.744  1.00  0.00    -0.206 F 
ATOM     79  C   UNL A   1      52.199  27.349  21.334  1.00  0.00     0.060 A 
BRANCH  79  80
ATOM     80  S   UNL A   1      53.268  27.430  19.881  1.00  0.00     0.124 S 
ATOM     81  O   UNL A   1      53.453  28.871  19.735  1.00  0.00    -0.237 OA
ATOM     82  O   UNL A   1      54.442  26.681  20.318  1.00  0.00    -0.237 OA
ATOM     83  O   UNL A   1      52.472  26.791  18.836  1.00  0.00    -0.744 OA
ENDBRANCH  79  80
ENDBRANCH  58  72
BRANCH  59  84
ATOM     84  C   UNL A   1      44.796  26.616  31.811  1.00  0.00     0.058 A 
ATOM     85  C   UNL A   1      45.210  25.765  32.847  1.00  0.00     0.135 A 
ATOM     86  C   UNL A   1      43.593  27.318  31.991  1.00  0.00     0.135 A 
ATOM     87  F   UNL A   1      46.346  25.061  32.723  1.00  0.00    -0.206 F 
ATOM     88  C   UNL A   1      44.450  25.593  34.001  1.00  0.00     0.059 A 
ATOM     89  C   UNL A   1      42.833  27.191  33.150  1.00  0.00     0.059 A 
ATOM     90  F   UNL A   1      43.152  28.153  31.037  1.00  0.00    -0.206 F 
ATOM     91  C   UNL A   1      43.261  26.312  34.143  1.00  0.00     0.060 A 
BRANCH  91  92
ATOM     92  S   UNL A   1      42.294  26.096  35.651  1.00  0.00     0.124 S 
ATOM     93  O   UNL A   1      40.975  26.546  35.222  1.00  0.00    -0.237 OA
ATOM     94  O   UNL A   1      42.430  24.664  35.900  1.00  0.00    -0.237 OA
ATOM     95  O   UNL A   1      42.975  26.959  36.613  1.00  0.00    -0.744 OA
ENDBRANCH  91  92
ENDBRANCH  59  84
BRANCH  71  96
ATOM     96  C   UNL A   1      50.146  30.679  29.914  1.00  0.00     0.058 A 
ATOM     97  C   UNL A   1      49.710  32.010  29.828  1.00  0.00     0.135 A 
ATOM     98  C   UNL A   1      51.258  30.402  30.728  1.00  0.00     0.135 A 
ATOM     99  F   UNL A   1      48.658  32.328  29.060  1.00  0.00    -0.206 F 
ATOM    100  C   UNL A   1      50.368  33.032  30.504  1.00  0.00     0.059 A 
ATOM    101  C   UNL A   1      51.909  31.403  31.440  1.00  0.00     0.059 A 
ATOM    102  F   UNL A   1      51.708  29.143  30.854  1.00  0.00    -0.206 F 
ATOM    103  C   UNL A   1      51.464  32.718  31.311  1.00  0.00     0.060 A 
BRANCH 103 104
ATOM    104  S   UNL A   1      52.287  34.049  32.208  1.00  0.00     0.124 S 
ATOM    105  O   UNL A   1      52.470  33.448  33.524  1.00  0.00    -0.237 OA
ATOM    106  O   UNL A   1      53.503  34.247  31.426  1.00  0.00    -0.237 OA
ATOM    107  O   UNL A   1      51.324  35.146  32.147  1.00  0.00    -0.744 OA
ENDBRANCH 103 104
ENDBRANCH  71  96
ENDBRANCH  45  46
ENDBRANCH  38  40
ENDBRANCH  37  38
ENDBRANCH  36  37
ENDBRANCH  35  36
ENDBRANCH  34  35
ENDBRANCH   1  34
TORSDOF 24
ENDMDL
