MODEL 1
REMARK VINA RESULT:      -8.8      0.000      0.000
REMARK SMILES CCCSc1nc2n(n1)[C@@H](c1ccccc1C(=O)OCCOCCOCCOC(=O)c1ccc(-c3c4nc(c(-c5c(F)cc(S(=O)(=O)[O-])cc5F)c5ccc([nH]5)c(-c5c(F)cc(S(=O)(=O)[O-])cc5F)c5nc(c(-c6c(F)cc(S(=O)(=O)[O-])cc6F)c6ccc3[nH]6)C=C5)C=C4)cc1)C(C(=O)Nc1cccc(C)c1C)=C(C)N2
REMARK SMILES IDX 23 1 22 2 21 3 20 4 19 5 17 6 18 7 16 8 11 9 12 10 13 11
REMARK SMILES IDX 15 12 14 13 10 14 5 15 6 16 9 17 7 18 8 19 111 20 109 21
REMARK SMILES IDX 97 23 110 24 4 25 3 26 2 27 1 28 98 29 99 30 100 31 101 33
REMARK SMILES IDX 102 34 107 35 103 36 105 37 108 38 104 39 106 40 24 41 25 42
REMARK SMILES IDX 26 43 27 44 28 45 29 46 30 47 31 48 32 49 96 50 33 51 95 52
REMARK SMILES IDX 34 53 35 54 36 55 89 56 37 57 94 58 88 59 90 60 38 61 93 62
REMARK SMILES IDX 87 63 86 64 39 66 73 67 52 68 72 69 53 70 56 71 71 72 91 73
REMARK SMILES IDX 54 74 55 75 70 77 92 78 57 79 40 80 41 81 50 82 42 83 43 84
REMARK SMILES IDX 49 85 51 86 44 87 45 88 46 89 47 90 48 91 74 92 75 93 84 94
REMARK SMILES IDX 76 95 77 96 83 97 85 98 78 99 79 100 80 101 81 102 82 103
REMARK SMILES IDX 58 104 59 105 68 106 60 107 61 108 67 109 69 110 62 111
REMARK SMILES IDX 63 112 64 113 65 114 66 115
REMARK H PARENT 111 22 100 32 90 65 56 76
REMARK Flexibility Score: inf
ROOT
ATOM      1  C   UNL A   1      44.547  24.295  25.198  1.00  0.00     0.188 C 
ENDROOT
BRANCH   1   2
ATOM      2  O   UNL A   1      45.851  24.453  24.664  1.00  0.00    -0.376 OA
BRANCH   2   3
ATOM      3  C   UNL A   1      46.505  25.643  25.079  1.00  0.00     0.202 C 
BRANCH   3   4
ATOM      4  C   UNL A   1      47.991  25.761  24.712  1.00  0.00     0.261 C 
BRANCH   4   5
ATOM      5  O   UNL A   1      48.625  27.043  24.903  1.00  0.00    -0.460 OA
BRANCH   5   6
ATOM      6  C   UNL A   1      49.653  27.100  25.776  1.00  0.00     0.338 C 
ATOM      7  O   UNL A   1      49.557  27.500  26.929  1.00  0.00    -0.246 OA
BRANCH   6   8
ATOM      8  C   UNL A   1      50.901  26.500  25.192  1.00  0.00     0.065 A 
ATOM      9  C   UNL A   1      51.508  26.830  23.947  1.00  0.00    -0.004 A 
ATOM     10  C   UNL A   1      52.699  26.129  23.617  1.00  0.00     0.007 A 
ATOM     11  C   UNL A   1      53.246  25.143  24.439  1.00  0.00     0.000 A 
ATOM     12  C   UNL A   1      51.492  25.523  26.026  1.00  0.00     0.016 A 
ATOM     13  C   UNL A   1      52.647  24.844  25.650  1.00  0.00     0.001 A 
BRANCH   9  14
ATOM     14  C   UNL A   1      50.998  27.957  23.009  1.00  0.00     0.180 C 
ATOM     15  C   UNL A   1      50.146  26.166  20.085  1.00  0.00     0.210 A 
ATOM     16  N   UNL A   1      51.102  26.979  19.533  1.00  0.00    -0.185 NA
ATOM     17  N   UNL A   1      49.792  26.471  21.343  1.00  0.00    -0.141 NA
ATOM     18  C   UNL A   1      51.440  27.751  20.528  1.00  0.00     0.227 A 
ATOM     19  N   UNL A   1      50.687  27.451  21.638  1.00  0.00    -0.218 N 
ATOM     20  N   UNL A   1      52.426  28.656  20.611  1.00  0.00    -0.328 N 
ATOM     21  C   UNL A   1      52.734  29.340  21.772  1.00  0.00     0.026 C 
ATOM     22  H   UNL A   1      52.959  28.842  19.804  1.00  0.00     0.169 HD
ATOM     23  C   UNL A   1      52.022  29.100  22.899  1.00  0.00     0.065 C 
ATOM     24  C   UNL A   1      53.891  30.298  21.673  1.00  0.00     0.065 C 
BRANCH  15  25
ATOM     25  S   UNL A   1      49.752  24.657  19.301  1.00  0.00    -0.084 SA
BRANCH  25  26
ATOM     26  C   UNL A   1      51.339  24.077  18.661  1.00  0.00     0.078 C 
BRANCH  26  27
ATOM     27  C   UNL A   1      51.430  24.147  17.138  1.00  0.00     0.008 C 
ATOM     28  C   UNL A   1      51.546  22.786  16.472  1.00  0.00     0.005 C 
ENDBRANCH  26  27
ENDBRANCH  25  26
ENDBRANCH  15  25
BRANCH  23  29
ATOM     29  C   UNL A   1      52.320  29.875  24.112  1.00  0.00     0.255 C 
ATOM     30  O   UNL A   1      51.417  30.455  24.711  1.00  0.00    -0.269 OA
ATOM     31  N   UNL A   1      53.615  29.955  24.574  1.00  0.00    -0.322 N 
ATOM     32  H   UNL A   1      54.066  30.828  24.619  1.00  0.00     0.170 HD
BRANCH  31  33
ATOM     33  C   UNL A   1      54.296  28.787  24.979  1.00  0.00     0.044 A 
ATOM     34  C   UNL A   1      55.250  28.323  24.064  1.00  0.00     0.026 A 
ATOM     35  C   UNL A   1      54.187  28.230  26.262  1.00  0.00    -0.025 A 
ATOM     36  C   UNL A   1      56.222  27.423  24.473  1.00  0.00     0.002 A 
ATOM     37  C   UNL A   1      55.225  27.379  26.697  1.00  0.00    -0.046 A 
ATOM     38  C   UNL A   1      52.989  28.496  27.135  1.00  0.00     0.047 C 
ATOM     39  C   UNL A   1      56.237  26.996  25.795  1.00  0.00     0.004 A 
ATOM     40  C   UNL A   1      55.381  26.957  28.133  1.00  0.00     0.044 C 
ENDBRANCH  31  33
ENDBRANCH  23  29
ENDBRANCH   9  14
ENDBRANCH   6   8
ENDBRANCH   5   6
ENDBRANCH   4   5
ENDBRANCH   3   4
ENDBRANCH   2   3
ENDBRANCH   1   2
BRANCH   1  41
ATOM     41  C   UNL A   1      44.152  22.836  25.504  1.00  0.00     0.188 C 
BRANCH  41  42
ATOM     42  O   UNL A   1      42.865  22.317  25.176  1.00  0.00    -0.376 OA
BRANCH  42  43
ATOM     43  C   UNL A   1      42.211  21.357  26.000  1.00  0.00     0.202 C 
BRANCH  43  44
ATOM     44  C   UNL A   1      40.708  21.448  26.256  1.00  0.00     0.261 C 
BRANCH  44  45
ATOM     45  O   UNL A   1      40.374  22.436  27.215  1.00  0.00    -0.460 OA
BRANCH  45  46
ATOM     46  C   UNL A   1      39.675  23.473  26.710  1.00  0.00     0.338 C 
ATOM     47  O   UNL A   1      38.553  23.441  26.232  1.00  0.00    -0.246 OA
BRANCH  46  48
ATOM     48  C   UNL A   1      40.458  24.705  26.874  1.00  0.00     0.060 A 
ATOM     49  C   UNL A   1      41.438  24.693  27.869  1.00  0.00     0.016 A 
ATOM     50  C   UNL A   1      40.126  25.875  26.172  1.00  0.00     0.016 A 
ATOM     51  C   UNL A   1      41.893  25.897  28.346  1.00  0.00     0.010 A 
ATOM     52  C   UNL A   1      40.588  27.082  26.645  1.00  0.00     0.010 A 
ATOM     53  C   UNL A   1      41.360  27.069  27.803  1.00  0.00    -0.014 A 
BRANCH  53  54
ATOM     54  C   UNL A   1      41.451  28.252  28.630  1.00  0.00     0.031 A 
ATOM     55  C   UNL A   1      42.662  29.070  28.462  1.00  0.00     0.074 A 
ATOM     56  C   UNL A   1      40.449  28.557  29.477  1.00  0.00     0.049 A 
ATOM     57  N   UNL A   1      43.598  29.296  29.322  1.00  0.00    -0.248 NA
ATOM     58  C   UNL A   1      42.906  29.630  27.127  1.00  0.00     0.031 C 
ATOM     59  C   UNL A   1      39.099  27.980  29.513  1.00  0.00     0.029 A 
ATOM     60  N   UNL A   1      40.394  29.534  30.420  1.00  0.00    -0.354 N 
ATOM     61  C   UNL A   1      44.439  30.215  28.710  1.00  0.00     0.074 A 
ATOM     62  C   UNL A   1      44.065  30.259  27.317  1.00  0.00     0.031 C 
ATOM     63  C   UNL A   1      38.304  28.767  30.269  1.00  0.00     0.029 A 
ATOM     64  C   UNL A   1      39.110  29.822  30.858  1.00  0.00     0.049 A 
ATOM     65  H   UNL A   1      41.193  29.996  30.760  1.00  0.00     0.167 HD
ATOM     66  C   UNL A   1      45.210  31.070  29.431  1.00  0.00     0.037 A 
ATOM     67  C   UNL A   1      38.735  30.916  31.566  1.00  0.00     0.037 A 
ATOM     68  C   UNL A   1      45.418  30.619  30.781  1.00  0.00     0.049 A 
ATOM     69  C   UNL A   1      39.958  31.475  32.203  1.00  0.00     0.074 A 
ATOM     70  C   UNL A   1      45.937  29.466  31.341  1.00  0.00     0.029 A 
ATOM     71  N   UNL A   1      44.748  31.256  31.798  1.00  0.00    -0.354 N 
ATOM     72  N   UNL A   1      40.626  30.893  33.161  1.00  0.00    -0.248 NA
ATOM     73  C   UNL A   1      40.682  32.516  31.489  1.00  0.00     0.031 C 
ATOM     74  C   UNL A   1      45.170  29.241  32.520  1.00  0.00     0.029 A 
ATOM     75  C   UNL A   1      44.247  30.282  32.627  1.00  0.00     0.049 A 
ATOM     76  H   UNL A   1      44.647  32.228  31.911  1.00  0.00     0.167 HD
ATOM     77  C   UNL A   1      41.956  31.197  32.909  1.00  0.00     0.074 A 
ATOM     78  C   UNL A   1      41.918  32.285  31.938  1.00  0.00     0.031 C 
ATOM     79  C   UNL A   1      42.966  30.362  33.297  1.00  0.00     0.037 A 
BRANCH  66  80
ATOM     80  C   UNL A   1      45.475  32.478  28.976  1.00  0.00     0.058 A 
ATOM     81  C   UNL A   1      44.423  33.404  28.879  1.00  0.00     0.135 A 
ATOM     82  C   UNL A   1      46.704  32.874  28.396  1.00  0.00     0.135 A 
ATOM     83  F   UNL A   1      43.205  33.104  29.359  1.00  0.00    -0.206 F 
ATOM     84  C   UNL A   1      44.574  34.630  28.230  1.00  0.00     0.059 A 
ATOM     85  C   UNL A   1      46.894  34.113  27.802  1.00  0.00     0.059 A 
ATOM     86  F   UNL A   1      47.745  32.036  28.299  1.00  0.00    -0.206 F 
ATOM     87  C   UNL A   1      45.813  34.968  27.686  1.00  0.00     0.060 A 
BRANCH  87  88
ATOM     88  S   UNL A   1      45.994  36.503  26.763  1.00  0.00     0.124 S 
ATOM     89  O   UNL A   1      46.656  37.351  27.747  1.00  0.00    -0.237 OA
ATOM     90  O   UNL A   1      46.810  36.084  25.627  1.00  0.00    -0.237 OA
ATOM     91  O   UNL A   1      44.616  36.861  26.438  1.00  0.00    -0.744 OA
ENDBRANCH  87  88
ENDBRANCH  66  80
BRANCH  67  92
ATOM     92  C   UNL A   1      37.474  31.690  31.424  1.00  0.00     0.058 A 
ATOM     93  C   UNL A   1      36.483  31.635  32.418  1.00  0.00     0.135 A 
ATOM     94  C   UNL A   1      37.324  32.703  30.453  1.00  0.00     0.135 A 
ATOM     95  F   UNL A   1      36.557  30.719  33.395  1.00  0.00    -0.206 F 
ATOM     96  C   UNL A   1      35.437  32.562  32.480  1.00  0.00     0.059 A 
ATOM     97  C   UNL A   1      36.280  33.623  30.481  1.00  0.00     0.059 A 
ATOM     98  F   UNL A   1      38.243  32.898  29.496  1.00  0.00    -0.206 F 
ATOM     99  C   UNL A   1      35.356  33.566  31.515  1.00  0.00     0.060 A 
BRANCH  99 100
ATOM    100  S   UNL A   1      34.122  34.873  31.693  1.00  0.00     0.124 S 
ATOM    101  O   UNL A   1      33.770  35.145  30.304  1.00  0.00    -0.237 OA
ATOM    102  O   UNL A   1      33.095  34.220  32.498  1.00  0.00    -0.237 OA
ATOM    103  O   UNL A   1      34.854  35.940  32.372  1.00  0.00    -0.744 OA
ENDBRANCH  99 100
ENDBRANCH  67  92
BRANCH  79 104
ATOM    104  C   UNL A   1      42.649  29.278  34.296  1.00  0.00     0.058 A 
ATOM    105  C   UNL A   1      42.015  28.066  33.971  1.00  0.00     0.135 A 
ATOM    106  C   UNL A   1      43.135  29.412  35.607  1.00  0.00     0.135 A 
ATOM    107  F   UNL A   1      41.622  27.810  32.714  1.00  0.00    -0.206 F 
ATOM    108  C   UNL A   1      41.827  27.056  34.917  1.00  0.00     0.059 A 
ATOM    109  C   UNL A   1      42.986  28.404  36.558  1.00  0.00     0.059 A 
ATOM    110  F   UNL A   1      43.808  30.518  35.966  1.00  0.00    -0.206 F 
ATOM    111  C   UNL A   1      42.316  27.234  36.210  1.00  0.00     0.060 A 
BRANCH 111 112
ATOM    112  S   UNL A   1      42.145  25.893  37.409  1.00  0.00     0.124 S 
ATOM    113  O   UNL A   1      40.720  25.932  37.712  1.00  0.00    -0.237 OA
ATOM    114  O   UNL A   1      42.601  24.728  36.654  1.00  0.00    -0.237 OA
ATOM    115  O   UNL A   1      43.028  26.298  38.502  1.00  0.00    -0.744 OA
ENDBRANCH 111 112
ENDBRANCH  79 104
ENDBRANCH  53  54
ENDBRANCH  46  48
ENDBRANCH  45  46
ENDBRANCH  44  45
ENDBRANCH  43  44
ENDBRANCH  42  43
ENDBRANCH  41  42
ENDBRANCH   1  41
TORSDOF 26
ENDMDL
MODEL 2
REMARK VINA RESULT:      -8.6      5.527     14.472
REMARK SMILES CCCSc1nc2n(n1)[C@@H](c1ccccc1C(=O)OCCOCCOCCOC(=O)c1ccc(-c3c4nc(c(-c5c(F)cc(S(=O)(=O)[O-])cc5F)c5ccc([nH]5)c(-c5c(F)cc(S(=O)(=O)[O-])cc5F)c5nc(c(-c6c(F)cc(S(=O)(=O)[O-])cc6F)c6ccc3[nH]6)C=C5)C=C4)cc1)C(C(=O)Nc1cccc(C)c1C)=C(C)N2
REMARK SMILES IDX 23 1 22 2 21 3 20 4 19 5 17 6 18 7 16 8 11 9 12 10 13 11
REMARK SMILES IDX 15 12 14 13 10 14 5 15 6 16 9 17 7 18 8 19 111 20 109 21
REMARK SMILES IDX 97 23 110 24 4 25 3 26 2 27 1 28 98 29 99 30 100 31 101 33
REMARK SMILES IDX 102 34 107 35 103 36 105 37 108 38 104 39 106 40 24 41 25 42
REMARK SMILES IDX 26 43 27 44 28 45 29 46 30 47 31 48 32 49 96 50 33 51 95 52
REMARK SMILES IDX 34 53 35 54 36 55 89 56 37 57 94 58 88 59 90 60 38 61 93 62
REMARK SMILES IDX 87 63 86 64 39 66 73 67 52 68 72 69 53 70 56 71 71 72 91 73
REMARK SMILES IDX 54 74 55 75 70 77 92 78 57 79 40 80 41 81 50 82 42 83 43 84
REMARK SMILES IDX 49 85 51 86 44 87 45 88 46 89 47 90 48 91 74 92 75 93 84 94
REMARK SMILES IDX 76 95 77 96 83 97 85 98 78 99 79 100 80 101 81 102 82 103
REMARK SMILES IDX 58 104 59 105 68 106 60 107 61 108 67 109 69 110 62 111
REMARK SMILES IDX 63 112 64 113 65 114 66 115
REMARK H PARENT 111 22 100 32 90 65 56 76
REMARK Flexibility Score: inf
ROOT
ATOM      1  C   UNL A   1      34.483  30.342  27.618  1.00  0.00     0.188 C 
ENDROOT
BRANCH   1   2
ATOM      2  O   UNL A   1      33.701  29.163  27.521  1.00  0.00    -0.376 OA
BRANCH   2   3
ATOM      3  C   UNL A   1      33.137  28.947  26.236  1.00  0.00     0.202 C 
BRANCH   3   4
ATOM      4  C   UNL A   1      33.953  28.067  25.279  1.00  0.00     0.261 C 
BRANCH   4   5
ATOM      5  O   UNL A   1      33.270  26.972  24.634  1.00  0.00    -0.460 OA
BRANCH   5   6
ATOM      6  C   UNL A   1      33.338  25.763  25.232  1.00  0.00     0.338 C 
ATOM      7  O   UNL A   1      32.943  25.532  26.366  1.00  0.00    -0.246 OA
BRANCH   6   8
ATOM      8  C   UNL A   1      33.851  24.714  24.286  1.00  0.00     0.065 A 
ATOM      9  C   UNL A   1      33.104  23.654  23.696  1.00  0.00    -0.004 A 
ATOM     10  C   UNL A   1      33.813  22.791  22.819  1.00  0.00     0.007 A 
ATOM     11  C   UNL A   1      35.176  22.937  22.556  1.00  0.00     0.000 A 
ATOM     12  C   UNL A   1      35.222  24.864  23.979  1.00  0.00     0.016 A 
ATOM     13  C   UNL A   1      35.882  23.979  23.131  1.00  0.00     0.001 A 
BRANCH   9  14
ATOM     14  C   UNL A   1      31.575  23.464  23.888  1.00  0.00     0.180 C 
ATOM     15  C   UNL A   1      30.334  26.714  23.274  1.00  0.00     0.210 A 
ATOM     16  N   UNL A   1      29.893  26.587  24.566  1.00  0.00    -0.185 NA
ATOM     17  N   UNL A   1      30.834  25.595  22.728  1.00  0.00    -0.141 NA
ATOM     18  C   UNL A   1      30.238  25.369  24.875  1.00  0.00     0.227 A 
ATOM     19  N   UNL A   1      30.830  24.756  23.797  1.00  0.00    -0.218 N 
ATOM     20  N   UNL A   1      30.178  24.737  26.057  1.00  0.00    -0.328 N 
ATOM     21  C   UNL A   1      30.674  23.463  26.263  1.00  0.00     0.026 C 
ATOM     22  H   UNL A   1      29.760  25.204  26.815  1.00  0.00     0.169 HD
ATOM     23  C   UNL A   1      31.259  22.799  25.239  1.00  0.00     0.065 C 
ATOM     24  C   UNL A   1      30.534  22.933  27.665  1.00  0.00     0.065 C 
BRANCH  15  25
ATOM     25  S   UNL A   1      30.549  28.309  22.598  1.00  0.00    -0.084 SA
BRANCH  25  26
ATOM     26  C   UNL A   1      29.180  29.259  23.292  1.00  0.00     0.078 C 
BRANCH  26  27
ATOM     27  C   UNL A   1      28.423  30.071  22.242  1.00  0.00     0.008 C 
ATOM     28  C   UNL A   1      27.633  31.232  22.823  1.00  0.00     0.005 C 
ENDBRANCH  26  27
ENDBRANCH  25  26
ENDBRANCH  15  25
BRANCH  23  29
ATOM     29  C   UNL A   1      31.731  21.423  25.455  1.00  0.00     0.255 C 
ATOM     30  O   UNL A   1      31.234  20.494  24.821  1.00  0.00    -0.269 OA
ATOM     31  N   UNL A   1      32.726  21.176  26.373  1.00  0.00    -0.322 N 
ATOM     32  H   UNL A   1      32.543  20.606  27.153  1.00  0.00     0.170 HD
BRANCH  31  33
ATOM     33  C   UNL A   1      34.008  21.741  26.198  1.00  0.00     0.044 A 
ATOM     34  C   UNL A   1      34.237  22.906  26.942  1.00  0.00     0.026 A 
ATOM     35  C   UNL A   1      35.047  21.108  25.498  1.00  0.00    -0.025 A 
ATOM     36  C   UNL A   1      35.533  23.354  27.145  1.00  0.00     0.002 A 
ATOM     37  C   UNL A   1      36.368  21.519  25.774  1.00  0.00    -0.046 A 
ATOM     38  C   UNL A   1      34.766  20.053  24.461  1.00  0.00     0.047 C 
ATOM     39  C   UNL A   1      36.592  22.634  26.606  1.00  0.00     0.004 A 
ATOM     40  C   UNL A   1      37.572  20.737  25.325  1.00  0.00     0.044 C 
ENDBRANCH  31  33
ENDBRANCH  23  29
ENDBRANCH   9  14
ENDBRANCH   6   8
ENDBRANCH   5   6
ENDBRANCH   4   5
ENDBRANCH   3   4
ENDBRANCH   2   3
ENDBRANCH   1   2
BRANCH   1  41
ATOM     41  C   UNL A   1      33.668  31.652  27.634  1.00  0.00     0.188 C 
BRANCH  41  42
ATOM     42  O   UNL A   1      34.296  32.931  27.611  1.00  0.00    -0.376 OA
BRANCH  42  43
ATOM     43  C   UNL A   1      35.658  33.106  27.987  1.00  0.00     0.202 C 
BRANCH  43  44
ATOM     44  C   UNL A   1      36.018  33.785  29.307  1.00  0.00     0.261 C 
BRANCH  44  45
ATOM     45  O   UNL A   1      36.785  32.953  30.161  1.00  0.00    -0.460 OA
BRANCH  45  46
ATOM     46  C   UNL A   1      36.065  31.998  30.782  1.00  0.00     0.338 C 
ATOM     47  O   UNL A   1      34.883  32.045  31.082  1.00  0.00    -0.246 OA
BRANCH  46  48
ATOM     48  C   UNL A   1      36.917  30.823  31.006  1.00  0.00     0.060 A 
ATOM     49  C   UNL A   1      37.717  30.843  32.151  1.00  0.00     0.016 A 
ATOM     50  C   UNL A   1      37.031  29.812  30.038  1.00  0.00     0.016 A 
ATOM     51  C   UNL A   1      38.807  30.011  32.197  1.00  0.00     0.010 A 
ATOM     52  C   UNL A   1      38.120  28.973  30.086  1.00  0.00     0.010 A 
ATOM     53  C   UNL A   1      39.052  29.180  31.100  1.00  0.00    -0.014 A 
BRANCH  53  54
ATOM     54  C   UNL A   1      40.414  28.721  30.940  1.00  0.00     0.031 A 
ATOM     55  C   UNL A   1      41.234  28.684  32.161  1.00  0.00     0.074 A 
ATOM     56  C   UNL A   1      40.855  28.341  29.726  1.00  0.00     0.049 A 
ATOM     57  N   UNL A   1      42.283  29.383  32.439  1.00  0.00    -0.248 NA
ATOM     58  C   UNL A   1      40.763  27.821  33.252  1.00  0.00     0.031 C 
ATOM     59  C   UNL A   1      40.054  28.071  28.525  1.00  0.00     0.029 A 
ATOM     60  N   UNL A   1      42.114  28.006  29.340  1.00  0.00    -0.354 N 
ATOM     61  C   UNL A   1      42.740  28.884  33.651  1.00  0.00     0.074 A 
ATOM     62  C   UNL A   1      41.689  28.051  34.182  1.00  0.00     0.031 C 
ATOM     63  C   UNL A   1      40.815  27.407  27.629  1.00  0.00     0.029 A 
ATOM     64  C   UNL A   1      42.171  27.313  28.140  1.00  0.00     0.049 A 
ATOM     65  H   UNL A   1      42.914  28.234  29.865  1.00  0.00     0.167 HD
ATOM     66  C   UNL A   1      44.046  28.976  34.015  1.00  0.00     0.037 A 
ATOM     67  C   UNL A   1      43.237  26.623  27.666  1.00  0.00     0.037 A 
ATOM     68  C   UNL A   1      44.748  30.003  33.293  1.00  0.00     0.049 A 
ATOM     69  C   UNL A   1      44.445  27.132  28.370  1.00  0.00     0.074 A 
ATOM     70  C   UNL A   1      44.560  31.362  33.125  1.00  0.00     0.029 A 
ATOM     71  N   UNL A   1      45.632  29.627  32.310  1.00  0.00    -0.354 N 
ATOM     72  N   UNL A   1      44.949  28.325  28.209  1.00  0.00    -0.248 NA
ATOM     73  C   UNL A   1      44.872  26.439  29.576  1.00  0.00     0.031 C 
ATOM     74  C   UNL A   1      44.965  31.638  31.788  1.00  0.00     0.029 A 
ATOM     75  C   UNL A   1      45.402  30.438  31.225  1.00  0.00     0.049 A 
ATOM     76  H   UNL A   1      46.304  28.912  32.372  1.00  0.00     0.167 HD
ATOM     77  C   UNL A   1      45.419  28.690  29.462  1.00  0.00     0.074 A 
ATOM     78  C   UNL A   1      45.445  27.451  30.232  1.00  0.00     0.031 C 
ATOM     79  C   UNL A   1      45.484  29.999  29.847  1.00  0.00     0.037 A 
BRANCH  66  80
ATOM     80  C   UNL A   1      44.733  27.886  34.789  1.00  0.00     0.058 A 
ATOM     81  C   UNL A   1      44.772  26.574  34.288  1.00  0.00     0.135 A 
ATOM     82  C   UNL A   1      45.146  28.049  36.133  1.00  0.00     0.135 A 
ATOM     83  F   UNL A   1      44.359  26.310  33.038  1.00  0.00    -0.206 F 
ATOM     84  C   UNL A   1      45.171  25.494  35.076  1.00  0.00     0.059 A 
ATOM     85  C   UNL A   1      45.606  26.999  36.914  1.00  0.00     0.059 A 
ATOM     86  F   UNL A   1      45.030  29.220  36.775  1.00  0.00    -0.206 F 
ATOM     87  C   UNL A   1      45.576  25.718  36.391  1.00  0.00     0.060 A 
BRANCH  87  88
ATOM     88  S   UNL A   1      46.000  24.322  37.446  1.00  0.00     0.124 S 
ATOM     89  O   UNL A   1      47.241  24.790  38.052  1.00  0.00    -0.237 OA
ATOM     90  O   UNL A   1      44.844  24.244  38.333  1.00  0.00    -0.237 OA
ATOM     91  O   UNL A   1      46.131  23.217  36.500  1.00  0.00    -0.744 OA
ENDBRANCH  87  88
ENDBRANCH  66  80
BRANCH  67  92
ATOM     92  C   UNL A   1      43.217  25.333  26.927  1.00  0.00     0.058 A 
ATOM     93  C   UNL A   1      43.640  25.267  25.589  1.00  0.00     0.135 A 
ATOM     94  C   UNL A   1      43.044  24.097  27.585  1.00  0.00     0.135 A 
ATOM     95  F   UNL A   1      43.853  26.393  24.892  1.00  0.00    -0.206 F 
ATOM     96  C   UNL A   1      43.928  24.052  24.957  1.00  0.00     0.059 A 
ATOM     97  C   UNL A   1      43.303  22.875  26.971  1.00  0.00     0.059 A 
ATOM     98  F   UNL A   1      42.711  24.035  28.883  1.00  0.00    -0.206 F 
ATOM     99  C   UNL A   1      43.773  22.861  25.666  1.00  0.00     0.060 A 
BRANCH  99 100
ATOM    100  S   UNL A   1      44.317  21.307  24.922  1.00  0.00     0.124 S 
ATOM    101  O   UNL A   1      45.542  21.031  25.664  1.00  0.00    -0.237 OA
ATOM    102  O   UNL A   1      43.190  20.423  25.197  1.00  0.00    -0.237 OA
ATOM    103  O   UNL A   1      44.505  21.652  23.515  1.00  0.00    -0.744 OA
ENDBRANCH  99 100
ENDBRANCH  67  92
BRANCH  79 104
ATOM    104  C   UNL A   1      45.361  31.061  28.784  1.00  0.00     0.058 A 
ATOM    105  C   UNL A   1      46.454  31.629  28.106  1.00  0.00     0.135 A 
ATOM    106  C   UNL A   1      44.078  31.415  28.335  1.00  0.00     0.135 A 
ATOM    107  F   UNL A   1      47.711  31.260  28.396  1.00  0.00    -0.206 F 
ATOM    108  C   UNL A   1      46.281  32.543  27.064  1.00  0.00     0.059 A 
ATOM    109  C   UNL A   1      43.882  32.301  27.277  1.00  0.00     0.059 A 
ATOM    110  F   UNL A   1      42.992  30.859  28.896  1.00  0.00    -0.206 F 
ATOM    111  C   UNL A   1      44.989  32.874  26.657  1.00  0.00     0.060 A 
BRANCH 111 112
ATOM    112  S   UNL A   1      44.768  33.994  25.255  1.00  0.00     0.124 S 
ATOM    113  O   UNL A   1      46.125  34.478  25.033  1.00  0.00    -0.237 OA
ATOM    114  O   UNL A   1      44.233  33.111  24.221  1.00  0.00    -0.237 OA
ATOM    115  O   UNL A   1      43.824  34.989  25.760  1.00  0.00    -0.744 OA
ENDBRANCH 111 112
ENDBRANCH  79 104
ENDBRANCH  53  54
ENDBRANCH  46  48
ENDBRANCH  45  46
ENDBRANCH  44  45
ENDBRANCH  43  44
ENDBRANCH  42  43
ENDBRANCH  41  42
ENDBRANCH   1  41
TORSDOF 26
ENDMDL
MODEL 3
REMARK VINA RESULT:      -8.6      1.771      3.132
REMARK SMILES CCCSc1nc2n(n1)[C@@H](c1ccccc1C(=O)OCCOCCOCCOC(=O)c1ccc(-c3c4nc(c(-c5c(F)cc(S(=O)(=O)[O-])cc5F)c5ccc([nH]5)c(-c5c(F)cc(S(=O)(=O)[O-])cc5F)c5nc(c(-c6c(F)cc(S(=O)(=O)[O-])cc6F)c6ccc3[nH]6)C=C5)C=C4)cc1)C(C(=O)Nc1cccc(C)c1C)=C(C)N2
REMARK SMILES IDX 23 1 22 2 21 3 20 4 19 5 17 6 18 7 16 8 11 9 12 10 13 11
REMARK SMILES IDX 15 12 14 13 10 14 5 15 6 16 9 17 7 18 8 19 111 20 109 21
REMARK SMILES IDX 97 23 110 24 4 25 3 26 2 27 1 28 98 29 99 30 100 31 101 33
REMARK SMILES IDX 102 34 107 35 103 36 105 37 108 38 104 39 106 40 24 41 25 42
REMARK SMILES IDX 26 43 27 44 28 45 29 46 30 47 31 48 32 49 96 50 33 51 95 52
REMARK SMILES IDX 34 53 35 54 36 55 89 56 37 57 94 58 88 59 90 60 38 61 93 62
REMARK SMILES IDX 87 63 86 64 39 66 73 67 52 68 72 69 53 70 56 71 71 72 91 73
REMARK SMILES IDX 54 74 55 75 70 77 92 78 57 79 40 80 41 81 50 82 42 83 43 84
REMARK SMILES IDX 49 85 51 86 44 87 45 88 46 89 47 90 48 91 74 92 75 93 84 94
REMARK SMILES IDX 76 95 77 96 83 97 85 98 78 99 79 100 80 101 81 102 82 103
REMARK SMILES IDX 58 104 59 105 68 106 60 107 61 108 67 109 69 110 62 111
REMARK SMILES IDX 63 112 64 113 65 114 66 115
REMARK H PARENT 111 22 100 32 90 65 56 76
REMARK Flexibility Score: inf
ROOT
ATOM      1  C   UNL A   1      44.850  24.770  25.352  1.00  0.00     0.188 C 
ENDROOT
BRANCH   1   2
ATOM      2  O   UNL A   1      45.985  25.052  24.549  1.00  0.00    -0.376 OA
BRANCH   2   3
ATOM      3  C   UNL A   1      46.584  26.311  24.818  1.00  0.00     0.202 C 
BRANCH   3   4
ATOM      4  C   UNL A   1      48.030  26.489  24.334  1.00  0.00     0.261 C 
BRANCH   4   5
ATOM      5  O   UNL A   1      48.736  27.672  24.761  1.00  0.00    -0.460 OA
BRANCH   5   6
ATOM      6  C   UNL A   1      49.491  27.573  25.876  1.00  0.00     0.338 C 
ATOM      7  O   UNL A   1      49.072  27.759  27.011  1.00  0.00    -0.246 OA
BRANCH   6   8
ATOM      8  C   UNL A   1      50.877  27.091  25.557  1.00  0.00     0.065 A 
ATOM      9  C   UNL A   1      51.932  27.845  24.968  1.00  0.00    -0.004 A 
ATOM     10  C   UNL A   1      53.165  27.166  24.775  1.00  0.00     0.007 A 
ATOM     11  C   UNL A   1      53.348  25.824  25.109  1.00  0.00     0.000 A 
ATOM     12  C   UNL A   1      51.094  25.742  25.920  1.00  0.00     0.016 A 
ATOM     13  C   UNL A   1      52.314  25.111  25.690  1.00  0.00     0.001 A 
BRANCH   9  14
ATOM     14  C   UNL A   1      51.829  29.356  24.628  1.00  0.00     0.180 C 
ATOM     15  C   UNL A   1      52.981  29.452  21.290  1.00  0.00     0.210 A 
ATOM     16  N   UNL A   1      53.936  30.267  21.840  1.00  0.00    -0.185 NA
ATOM     17  N   UNL A   1      51.965  29.132  22.105  1.00  0.00    -0.141 NA
ATOM     18  C   UNL A   1      53.557  30.365  23.084  1.00  0.00     0.227 A 
ATOM     19  N   UNL A   1      52.387  29.670  23.279  1.00  0.00    -0.218 N 
ATOM     20  N   UNL A   1      54.183  30.932  24.126  1.00  0.00    -0.328 N 
ATOM     21  C   UNL A   1      53.703  30.875  25.421  1.00  0.00     0.026 C 
ATOM     22  H   UNL A   1      55.025  31.412  23.960  1.00  0.00     0.169 HD
ATOM     23  C   UNL A   1      52.550  30.217  25.680  1.00  0.00     0.065 C 
ATOM     24  C   UNL A   1      54.559  31.553  26.459  1.00  0.00     0.065 C 
BRANCH  15  25
ATOM     25  S   UNL A   1      53.321  28.633  19.787  1.00  0.00    -0.084 SA
BRANCH  25  26
ATOM     26  C   UNL A   1      54.289  29.836  18.850  1.00  0.00     0.078 C 
BRANCH  26  27
ATOM     27  C   UNL A   1      53.743  30.077  17.444  1.00  0.00     0.008 C 
ATOM     28  C   UNL A   1      52.680  31.163  17.381  1.00  0.00     0.005 C 
ENDBRANCH  26  27
ENDBRANCH  25  26
ENDBRANCH  15  25
BRANCH  23  29
ATOM     29  C   UNL A   1      52.020  30.212  27.052  1.00  0.00     0.255 C 
ATOM     30  O   UNL A   1      52.571  29.545  27.924  1.00  0.00    -0.269 OA
ATOM     31  N   UNL A   1      50.899  30.952  27.356  1.00  0.00    -0.322 N 
ATOM     32  H   UNL A   1      50.084  30.501  27.671  1.00  0.00     0.170 HD
BRANCH  31  33
ATOM     33  C   UNL A   1      50.917  32.356  27.214  1.00  0.00     0.044 A 
ATOM     34  C   UNL A   1      50.414  32.825  25.993  1.00  0.00     0.026 A 
ATOM     35  C   UNL A   1      51.226  33.239  28.260  1.00  0.00    -0.025 A 
ATOM     36  C   UNL A   1      50.044  34.154  25.860  1.00  0.00     0.002 A 
ATOM     37  C   UNL A   1      50.773  34.570  28.149  1.00  0.00    -0.046 A 
ATOM     38  C   UNL A   1      52.044  32.797  29.445  1.00  0.00     0.047 C 
ATOM     39  C   UNL A   1      50.176  35.007  26.950  1.00  0.00     0.004 A 
ATOM     40  C   UNL A   1      50.775  35.529  29.310  1.00  0.00     0.044 C 
ENDBRANCH  31  33
ENDBRANCH  23  29
ENDBRANCH   9  14
ENDBRANCH   6   8
ENDBRANCH   5   6
ENDBRANCH   4   5
ENDBRANCH   3   4
ENDBRANCH   2   3
ENDBRANCH   1   2
BRANCH   1  41
ATOM     41  C   UNL A   1      44.622  23.271  25.635  1.00  0.00     0.188 C 
BRANCH  41  42
ATOM     42  O   UNL A   1      43.438  22.596  25.220  1.00  0.00    -0.376 OA
BRANCH  42  43
ATOM     43  C   UNL A   1      42.952  21.445  25.903  1.00  0.00     0.202 C 
BRANCH  43  44
ATOM     44  C   UNL A   1      41.464  21.300  26.219  1.00  0.00     0.261 C 
BRANCH  44  45
ATOM     45  O   UNL A   1      41.052  22.114  27.302  1.00  0.00    -0.460 OA
BRANCH  45  46
ATOM     46  C   UNL A   1      40.179  23.082  26.956  1.00  0.00     0.338 C 
ATOM     47  O   UNL A   1      38.998  22.944  26.681  1.00  0.00    -0.246 OA
BRANCH  46  48
ATOM     48  C   UNL A   1      40.856  24.384  27.015  1.00  0.00     0.060 A 
ATOM     49  C   UNL A   1      41.931  24.487  27.901  1.00  0.00     0.016 A 
ATOM     50  C   UNL A   1      40.346  25.500  26.332  1.00  0.00     0.016 A 
ATOM     51  C   UNL A   1      42.319  25.740  28.307  1.00  0.00     0.010 A 
ATOM     52  C   UNL A   1      40.740  26.756  26.733  1.00  0.00     0.010 A 
ATOM     53  C   UNL A   1      41.627  26.844  27.803  1.00  0.00    -0.014 A 
BRANCH  53  54
ATOM     54  C   UNL A   1      41.693  28.053  28.595  1.00  0.00     0.031 A 
ATOM     55  C   UNL A   1      42.813  28.959  28.303  1.00  0.00     0.074 A 
ATOM     56  C   UNL A   1      40.747  28.299  29.521  1.00  0.00     0.049 A 
ATOM     57  N   UNL A   1      43.799  29.282  29.071  1.00  0.00    -0.248 NA
ATOM     58  C   UNL A   1      42.893  29.501  26.940  1.00  0.00     0.031 C 
ATOM     59  C   UNL A   1      39.456  27.618  29.689  1.00  0.00     0.029 A 
ATOM     60  N   UNL A   1      40.694  29.293  30.446  1.00  0.00    -0.354 N 
ATOM     61  C   UNL A   1      44.505  30.249  28.368  1.00  0.00     0.074 A 
ATOM     62  C   UNL A   1      44.009  30.224  27.014  1.00  0.00     0.031 C 
ATOM     63  C   UNL A   1      38.669  28.359  30.497  1.00  0.00     0.029 A 
ATOM     64  C   UNL A   1      39.434  29.491  30.991  1.00  0.00     0.049 A 
ATOM     65  H   UNL A   1      41.479  29.827  30.704  1.00  0.00     0.167 HD
ATOM     66  C   UNL A   1      45.264  31.181  29.001  1.00  0.00     0.037 A 
ATOM     67  C   UNL A   1      39.034  30.569  31.707  1.00  0.00     0.037 A 
ATOM     68  C   UNL A   1      45.625  30.784  30.335  1.00  0.00     0.049 A 
ATOM     69  C   UNL A   1      40.258  31.241  32.222  1.00  0.00     0.074 A 
ATOM     70  C   UNL A   1      46.283  29.692  30.870  1.00  0.00     0.029 A 
ATOM     71  N   UNL A   1      44.997  31.393  31.395  1.00  0.00    -0.354 N 
ATOM     72  N   UNL A   1      41.053  30.740  33.128  1.00  0.00    -0.248 NA
ATOM     73  C   UNL A   1      40.830  32.317  31.426  1.00  0.00     0.031 C 
ATOM     74  C   UNL A   1      45.643  29.438  32.117  1.00  0.00     0.029 A 
ATOM     75  C   UNL A   1      44.651  30.405  32.285  1.00  0.00     0.049 A 
ATOM     76  H   UNL A   1      44.827  32.357  31.497  1.00  0.00     0.167 HD
ATOM     77  C   UNL A   1      42.327  31.142  32.753  1.00  0.00     0.074 A 
ATOM     78  C   UNL A   1      42.115  32.197  31.767  1.00  0.00     0.031 C 
ATOM     79  C   UNL A   1      43.431  30.401  33.065  1.00  0.00     0.037 A 
BRANCH  66  80
ATOM     80  C   UNL A   1      45.372  32.593  28.496  1.00  0.00     0.058 A 
ATOM     81  C   UNL A   1      46.631  33.168  28.257  1.00  0.00     0.135 A 
ATOM     82  C   UNL A   1      44.271  33.481  28.473  1.00  0.00     0.135 A 
ATOM     83  F   UNL A   1      47.743  32.416  28.302  1.00  0.00    -0.206 F 
ATOM     84  C   UNL A   1      46.788  34.536  28.033  1.00  0.00     0.059 A 
ATOM     85  C   UNL A   1      44.397  34.833  28.190  1.00  0.00     0.059 A 
ATOM     86  F   UNL A   1      43.036  33.090  28.817  1.00  0.00    -0.206 F 
ATOM     87  C   UNL A   1      45.664  35.360  28.012  1.00  0.00     0.060 A 
BRANCH  87  88
ATOM     88  S   UNL A   1      45.863  37.139  27.822  1.00  0.00     0.124 S 
ATOM     89  O   UNL A   1      46.726  37.205  26.648  1.00  0.00    -0.237 OA
ATOM     90  O   UNL A   1      44.486  37.584  27.631  1.00  0.00    -0.237 OA
ATOM     91  O   UNL A   1      46.475  37.543  29.085  1.00  0.00    -0.744 OA
ENDBRANCH  87  88
ENDBRANCH  66  80
BRANCH  67  92
ATOM     92  C   UNL A   1      37.707  31.236  31.663  1.00  0.00     0.058 A 
ATOM     93  C   UNL A   1      36.954  31.414  32.836  1.00  0.00     0.135 A 
ATOM     94  C   UNL A   1      37.267  31.952  30.529  1.00  0.00     0.135 A 
ATOM     95  F   UNL A   1      37.312  30.792  33.969  1.00  0.00    -0.206 F 
ATOM     96  C   UNL A   1      35.865  32.290  32.897  1.00  0.00     0.059 A 
ATOM     97  C   UNL A   1      36.173  32.812  30.560  1.00  0.00     0.059 A 
ATOM     98  F   UNL A   1      37.945  31.917  29.372  1.00  0.00    -0.206 F 
ATOM     99  C   UNL A   1      35.494  32.999  31.755  1.00  0.00     0.060 A 
BRANCH  99 100
ATOM    100  S   UNL A   1      34.211  34.266  31.872  1.00  0.00     0.124 S 
ATOM    101  O   UNL A   1      33.748  34.354  30.492  1.00  0.00    -0.237 OA
ATOM    102  O   UNL A   1      33.278  33.671  32.824  1.00  0.00    -0.237 OA
ATOM    103  O   UNL A   1      34.934  35.436  32.364  1.00  0.00    -0.744 OA
ENDBRANCH  99 100
ENDBRANCH  67  92
BRANCH  79 104
ATOM    104  C   UNL A   1      43.293  29.323  34.110  1.00  0.00     0.058 A 
ATOM    105  C   UNL A   1      43.507  29.524  35.485  1.00  0.00     0.135 A 
ATOM    106  C   UNL A   1      42.785  28.073  33.720  1.00  0.00     0.135 A 
ATOM    107  F   UNL A   1      43.884  30.723  35.955  1.00  0.00    -0.206 F 
ATOM    108  C   UNL A   1      43.277  28.515  36.423  1.00  0.00     0.059 A 
ATOM    109  C   UNL A   1      42.517  27.062  34.642  1.00  0.00     0.059 A 
ATOM    110  F   UNL A   1      42.495  27.837  32.430  1.00  0.00    -0.206 F 
ATOM    111  C   UNL A   1      42.781  27.285  35.991  1.00  0.00     0.060 A 
BRANCH 111 112
ATOM    112  S   UNL A   1      42.405  26.009  37.214  1.00  0.00     0.124 S 
ATOM    113  O   UNL A   1      43.171  26.458  38.370  1.00  0.00    -0.237 OA
ATOM    114  O   UNL A   1      40.953  26.104  37.340  1.00  0.00    -0.237 OA
ATOM    115  O   UNL A   1      42.886  24.781  36.584  1.00  0.00    -0.744 OA
ENDBRANCH 111 112
ENDBRANCH  79 104
ENDBRANCH  53  54
ENDBRANCH  46  48
ENDBRANCH  45  46
ENDBRANCH  44  45
ENDBRANCH  43  44
ENDBRANCH  42  43
ENDBRANCH  41  42
ENDBRANCH   1  41
TORSDOF 26
ENDMDL
