MODEL 1
REMARK VINA RESULT:     -11.1      0.000      0.000
REMARK SMILES CCC(=O)Nc1ccc(NC(=O)[C@@H]2CC=CC[C@@H]2C(=O)OCCOCCOCCOC(=O)c2ccc(-c3c4nc(c(-c5c(F)cc(S(=O)(=O)[O-])cc5F)c5ccc([nH]5)c(-c5c(F)cc(S(=O)(=O)[O-])cc5F)c5nc(c(-c6c(F)cc(S(=O)(=O)[O-])cc6F)c6ccc3[nH]6)C=C5)C=C4)cc2)cc1
REMARK SMILES IDX 25 1 24 2 23 3 22 4 21 5 19 6 20 7 18 8 13 9 14 10 15 11
REMARK SMILES IDX 17 12 16 13 11 14 10 15 12 17 9 18 6 19 7 20 100 21 8 22
REMARK SMILES IDX 99 23 5 24 3 25 4 26 2 28 1 29 26 30 27 31 28 32 29 33 30 34
REMARK SMILES IDX 31 35 32 36 33 37 34 38 98 39 35 40 97 41 36 42 37 43 38 44
REMARK SMILES IDX 91 45 39 46 96 47 90 48 92 49 40 50 95 51 89 52 88 53 41 55
REMARK SMILES IDX 75 56 54 57 74 58 55 59 58 60 73 61 93 62 56 63 57 64 72 66
REMARK SMILES IDX 94 67 59 68 42 69 43 70 52 71 44 72 45 73 51 74 53 75 46 76
REMARK SMILES IDX 47 77 48 78 49 79 50 80 76 81 77 82 86 83 78 84 79 85 85 86
REMARK SMILES IDX 87 87 80 88 81 89 82 90 83 91 84 92 60 93 61 94 70 95 62 96
REMARK SMILES IDX 63 97 69 98 71 99 64 100 65 101 66 102 67 103 68 104
REMARK H PARENT 10 16 5 27 92 54 58 65
REMARK Flexibility Score: inf
ROOT
ATOM      1  C   UNL A   1      39.134  21.700  26.002  1.00  0.00     0.188 C 
ENDROOT
BRANCH   1   2
ATOM      2  O   UNL A   1      37.998  21.283  25.260  1.00  0.00    -0.376 OA
BRANCH   2   3
ATOM      3  C   UNL A   1      36.765  21.878  25.650  1.00  0.00     0.202 C 
BRANCH   3   4
ATOM      4  C   UNL A   1      36.861  23.391  25.872  1.00  0.00     0.261 C 
BRANCH   4   5
ATOM      5  O   UNL A   1      35.704  24.128  25.440  1.00  0.00    -0.463 OA
BRANCH   5   6
ATOM      6  C   UNL A   1      34.506  23.764  25.979  1.00  0.00     0.310 C 
ATOM      7  O   UNL A   1      34.383  23.255  27.080  1.00  0.00    -0.252 OA
BRANCH   6   8
ATOM      8  C   UNL A   1      33.400  24.021  24.957  1.00  0.00     0.116 C 
ATOM      9  C   UNL A   1      31.996  23.524  25.352  1.00  0.00     0.097 C 
ATOM     10  C   UNL A   1      31.994  22.011  25.617  1.00  0.00     0.041 C 
ATOM     11  C   UNL A   1      32.730  21.272  24.527  1.00  0.00    -0.030 C 
ATOM     12  C   UNL A   1      33.827  23.348  23.645  1.00  0.00     0.043 C 
ATOM     13  C   UNL A   1      33.525  21.875  23.626  1.00  0.00    -0.030 C 
BRANCH   9  14
ATOM     14  C   UNL A   1      31.372  24.321  26.478  1.00  0.00     0.228 C 
ATOM     15  N   UNL A   1      30.839  25.566  26.302  1.00  0.00    -0.326 N 
ATOM     16  H   UNL A   1      30.382  25.884  27.113  1.00  0.00     0.169 HD
ATOM     17  O   UNL A   1      31.341  23.872  27.628  1.00  0.00    -0.274 OA
BRANCH  15  18
ATOM     18  C   UNL A   1      30.773  26.512  25.260  1.00  0.00     0.041 A 
ATOM     19  C   UNL A   1      30.199  28.371  23.201  1.00  0.00     0.041 A 
ATOM     20  C   UNL A   1      31.139  28.665  24.184  1.00  0.00     0.028 A 
ATOM     21  C   UNL A   1      29.645  27.100  23.171  1.00  0.00     0.028 A 
ATOM     22  C   UNL A   1      31.406  27.750  25.215  1.00  0.00     0.028 A 
ATOM     23  C   UNL A   1      29.943  26.179  24.181  1.00  0.00     0.028 A 
BRANCH  19  24
ATOM     24  N   UNL A   1      29.913  29.343  22.239  1.00  0.00    -0.326 N 
ATOM     25  C   UNL A   1      28.738  29.991  21.969  1.00  0.00     0.224 C 
ATOM     26  O   UNL A   1      28.658  30.668  20.940  1.00  0.00    -0.275 OA
ATOM     27  H   UNL A   1      30.673  29.603  21.669  1.00  0.00     0.169 HD
BRANCH  25  28
ATOM     28  C   UNL A   1      27.620  30.007  22.997  1.00  0.00     0.097 C 
ATOM     29  C   UNL A   1      27.431  31.339  23.694  1.00  0.00     0.014 C 
ENDBRANCH  25  28
ENDBRANCH  19  24
ENDBRANCH  15  18
ENDBRANCH   9  14
ENDBRANCH   6   8
ENDBRANCH   5   6
ENDBRANCH   4   5
ENDBRANCH   3   4
ENDBRANCH   2   3
ENDBRANCH   1   2
BRANCH   1  30
ATOM     30  C   UNL A   1      40.243  20.636  26.143  1.00  0.00     0.188 C 
BRANCH  30  31
ATOM     31  O   UNL A   1      41.144  20.665  27.243  1.00  0.00    -0.376 OA
BRANCH  31  32
ATOM     32  C   UNL A   1      42.525  20.905  27.004  1.00  0.00     0.202 C 
BRANCH  32  33
ATOM     33  C   UNL A   1      43.075  22.321  27.223  1.00  0.00     0.261 C 
BRANCH  33  34
ATOM     34  O   UNL A   1      42.079  23.300  27.570  1.00  0.00    -0.460 OA
BRANCH  34  35
ATOM     35  C   UNL A   1      42.105  24.429  26.821  1.00  0.00     0.338 C 
ATOM     36  O   UNL A   1      42.442  24.528  25.653  1.00  0.00    -0.246 OA
BRANCH  35  37
ATOM     37  C   UNL A   1      41.471  25.551  27.542  1.00  0.00     0.060 A 
ATOM     38  C   UNL A   1      42.146  26.777  27.520  1.00  0.00     0.016 A 
ATOM     39  C   UNL A   1      40.328  25.390  28.328  1.00  0.00     0.016 A 
ATOM     40  C   UNL A   1      41.714  27.831  28.319  1.00  0.00     0.010 A 
ATOM     41  C   UNL A   1      39.910  26.445  29.155  1.00  0.00     0.010 A 
ATOM     42  C   UNL A   1      40.629  27.655  29.185  1.00  0.00    -0.014 A 
BRANCH  42  43
ATOM     43  C   UNL A   1      40.455  28.647  30.276  1.00  0.00     0.031 A 
ATOM     44  C   UNL A   1      41.413  28.592  31.440  1.00  0.00     0.074 A 
ATOM     45  C   UNL A   1      39.567  29.653  30.184  1.00  0.00     0.049 A 
ATOM     46  N   UNL A   1      41.502  29.377  32.483  1.00  0.00    -0.248 NA
ATOM     47  C   UNL A   1      42.423  27.520  31.408  1.00  0.00     0.031 C 
ATOM     48  C   UNL A   1      38.642  29.871  29.073  1.00  0.00     0.029 A 
ATOM     49  N   UNL A   1      39.312  30.693  31.045  1.00  0.00    -0.354 N 
ATOM     50  C   UNL A   1      42.579  28.902  33.222  1.00  0.00     0.074 A 
ATOM     51  C   UNL A   1      43.097  27.745  32.524  1.00  0.00     0.031 C 
ATOM     52  C   UNL A   1      37.906  30.968  29.330  1.00  0.00     0.029 A 
ATOM     53  C   UNL A   1      38.293  31.517  30.630  1.00  0.00     0.049 A 
ATOM     54  H   UNL A   1      39.810  30.833  31.882  1.00  0.00     0.167 HD
ATOM     55  C   UNL A   1      43.099  29.386  34.375  1.00  0.00     0.037 A 
ATOM     56  C   UNL A   1      37.730  32.580  31.239  1.00  0.00     0.037 A 
ATOM     57  C   UNL A   1      42.575  30.519  35.088  1.00  0.00     0.049 A 
ATOM     58  C   UNL A   1      38.262  33.043  32.574  1.00  0.00     0.074 A 
ATOM     59  C   UNL A   1      43.000  31.052  36.292  1.00  0.00     0.029 A 
ATOM     60  N   UNL A   1      41.506  31.294  34.662  1.00  0.00    -0.354 N 
ATOM     61  N   UNL A   1      39.267  32.569  33.273  1.00  0.00    -0.248 NA
ATOM     62  C   UNL A   1      37.586  34.189  33.201  1.00  0.00     0.031 C 
ATOM     63  C   UNL A   1      42.166  32.129  36.612  1.00  0.00     0.029 A 
ATOM     64  C   UNL A   1      41.251  32.294  35.585  1.00  0.00     0.049 A 
ATOM     65  H   UNL A   1      41.003  31.153  33.828  1.00  0.00     0.167 HD
ATOM     66  C   UNL A   1      39.355  33.372  34.408  1.00  0.00     0.074 A 
ATOM     67  C   UNL A   1      38.316  34.372  34.293  1.00  0.00     0.031 C 
ATOM     68  C   UNL A   1      40.217  33.289  35.452  1.00  0.00     0.037 A 
BRANCH  55  69
ATOM     69  C   UNL A   1      44.283  28.663  34.950  1.00  0.00     0.058 A 
ATOM     70  C   UNL A   1      44.126  27.579  35.828  1.00  0.00     0.135 A 
ATOM     71  C   UNL A   1      45.588  29.052  34.611  1.00  0.00     0.135 A 
ATOM     72  F   UNL A   1      42.899  27.187  36.204  1.00  0.00    -0.206 F 
ATOM     73  C   UNL A   1      45.225  26.918  36.367  1.00  0.00     0.059 A 
ATOM     74  C   UNL A   1      46.701  28.391  35.121  1.00  0.00     0.059 A 
ATOM     75  F   UNL A   1      45.791  30.088  33.782  1.00  0.00    -0.206 F 
ATOM     76  C   UNL A   1      46.508  27.334  36.009  1.00  0.00     0.060 A 
BRANCH  76  77
ATOM     77  S   UNL A   1      47.926  26.467  36.716  1.00  0.00     0.124 S 
ATOM     78  O   UNL A   1      48.960  26.745  35.726  1.00  0.00    -0.237 OA
ATOM     79  O   UNL A   1      48.087  27.134  38.004  1.00  0.00    -0.237 OA
ATOM     80  O   UNL A   1      47.477  25.080  36.783  1.00  0.00    -0.744 OA
ENDBRANCH  76  77
ENDBRANCH  55  69
BRANCH  56  81
ATOM     81  C   UNL A   1      36.563  33.269  30.621  1.00  0.00     0.058 A 
ATOM     82  C   UNL A   1      36.714  34.120  29.517  1.00  0.00     0.135 A 
ATOM     83  C   UNL A   1      35.276  33.127  31.164  1.00  0.00     0.135 A 
ATOM     84  F   UNL A   1      37.927  34.302  28.972  1.00  0.00    -0.206 F 
ATOM     85  C   UNL A   1      35.638  34.827  28.988  1.00  0.00     0.059 A 
ATOM     86  C   UNL A   1      34.179  33.803  30.637  1.00  0.00     0.059 A 
ATOM     87  F   UNL A   1      35.076  32.323  32.220  1.00  0.00    -0.206 F 
ATOM     88  C   UNL A   1      34.374  34.664  29.559  1.00  0.00     0.060 A 
BRANCH  88  89
ATOM     89  S   UNL A   1      32.979  35.575  28.861  1.00  0.00     0.124 S 
ATOM     90  O   UNL A   1      33.656  36.678  28.188  1.00  0.00    -0.237 OA
ATOM     91  O   UNL A   1      32.364  34.578  27.992  1.00  0.00    -0.237 OA
ATOM     92  O   UNL A   1      32.195  35.938  30.038  1.00  0.00    -0.744 OA
ENDBRANCH  88  89
ENDBRANCH  56  81
BRANCH  68  93
ATOM     93  C   UNL A   1      40.097  34.325  36.536  1.00  0.00     0.058 A 
ATOM     94  C   UNL A   1      39.298  34.118  37.671  1.00  0.00     0.135 A 
ATOM     95  C   UNL A   1      40.821  35.526  36.456  1.00  0.00     0.135 A 
ATOM     96  F   UNL A   1      38.585  32.988  37.797  1.00  0.00    -0.206 F 
ATOM     97  C   UNL A   1      39.194  35.078  38.673  1.00  0.00     0.059 A 
ATOM     98  C   UNL A   1      40.753  36.489  37.458  1.00  0.00     0.059 A 
ATOM     99  F   UNL A   1      41.613  35.769  35.399  1.00  0.00    -0.206 F 
ATOM    100  C   UNL A   1      39.922  36.263  38.555  1.00  0.00     0.060 A 
BRANCH 100 101
ATOM    101  S   UNL A   1      39.792  37.499  39.865  1.00  0.00     0.124 S 
ATOM    102  O   UNL A   1      38.501  38.110  39.565  1.00  0.00    -0.237 OA
ATOM    103  O   UNL A   1      39.841  36.683  41.075  1.00  0.00    -0.237 OA
ATOM    104  O   UNL A   1      40.957  38.351  39.645  1.00  0.00    -0.744 OA
ENDBRANCH 100 101
ENDBRANCH  68  93
ENDBRANCH  42  43
ENDBRANCH  35  37
ENDBRANCH  34  35
ENDBRANCH  33  34
ENDBRANCH  32  33
ENDBRANCH  31  32
ENDBRANCH  30  31
ENDBRANCH   1  30
TORSDOF 24
ENDMDL
MODEL 2
REMARK VINA RESULT:     -10.4      1.590      2.345
REMARK SMILES CCC(=O)Nc1ccc(NC(=O)[C@@H]2CC=CC[C@@H]2C(=O)OCCOCCOCCOC(=O)c2ccc(-c3c4nc(c(-c5c(F)cc(S(=O)(=O)[O-])cc5F)c5ccc([nH]5)c(-c5c(F)cc(S(=O)(=O)[O-])cc5F)c5nc(c(-c6c(F)cc(S(=O)(=O)[O-])cc6F)c6ccc3[nH]6)C=C5)C=C4)cc2)cc1
REMARK SMILES IDX 25 1 24 2 23 3 22 4 21 5 19 6 20 7 18 8 13 9 14 10 15 11
REMARK SMILES IDX 17 12 16 13 11 14 10 15 12 17 9 18 6 19 7 20 100 21 8 22
REMARK SMILES IDX 99 23 5 24 3 25 4 26 2 28 1 29 26 30 27 31 28 32 29 33 30 34
REMARK SMILES IDX 31 35 32 36 33 37 34 38 98 39 35 40 97 41 36 42 37 43 38 44
REMARK SMILES IDX 91 45 39 46 96 47 90 48 92 49 40 50 95 51 89 52 88 53 41 55
REMARK SMILES IDX 75 56 54 57 74 58 55 59 58 60 73 61 93 62 56 63 57 64 72 66
REMARK SMILES IDX 94 67 59 68 42 69 43 70 52 71 44 72 45 73 51 74 53 75 46 76
REMARK SMILES IDX 47 77 48 78 49 79 50 80 76 81 77 82 86 83 78 84 79 85 85 86
REMARK SMILES IDX 87 87 80 88 81 89 82 90 83 91 84 92 60 93 61 94 70 95 62 96
REMARK SMILES IDX 63 97 69 98 71 99 64 100 65 101 66 102 67 103 68 104
REMARK H PARENT 10 16 5 27 92 54 58 65
REMARK Flexibility Score: inf
ROOT
ATOM      1  C   UNL A   1      39.817  21.109  26.131  1.00  0.00     0.188 C 
ENDROOT
BRANCH   1   2
ATOM      2  O   UNL A   1      38.615  21.843  25.951  1.00  0.00    -0.376 OA
BRANCH   2   3
ATOM      3  C   UNL A   1      37.696  21.283  25.020  1.00  0.00     0.202 C 
BRANCH   3   4
ATOM      4  C   UNL A   1      36.989  22.331  24.154  1.00  0.00     0.261 C 
BRANCH   4   5
ATOM      5  O   UNL A   1      35.555  22.218  24.136  1.00  0.00    -0.463 OA
BRANCH   5   6
ATOM      6  C   UNL A   1      34.893  22.619  25.258  1.00  0.00     0.310 C 
ATOM      7  O   UNL A   1      34.939  23.753  25.705  1.00  0.00    -0.252 OA
BRANCH   6   8
ATOM      8  C   UNL A   1      34.181  21.416  25.875  1.00  0.00     0.116 C 
ATOM      9  C   UNL A   1      32.695  21.256  25.502  1.00  0.00     0.097 C 
ATOM     10  C   UNL A   1      31.882  22.494  25.910  1.00  0.00     0.041 C 
ATOM     11  C   UNL A   1      32.221  22.922  27.316  1.00  0.00    -0.030 C 
ATOM     12  C   UNL A   1      34.314  21.542  27.399  1.00  0.00     0.043 C 
ATOM     13  C   UNL A   1      33.292  22.472  27.993  1.00  0.00    -0.030 C 
BRANCH   9  14
ATOM     14  C   UNL A   1      32.477  20.857  24.058  1.00  0.00     0.228 C 
ATOM     15  N   UNL A   1      32.197  21.757  23.072  1.00  0.00    -0.326 N 
ATOM     16  H   UNL A   1      32.198  21.336  22.182  1.00  0.00     0.169 HD
ATOM     17  O   UNL A   1      32.525  19.671  23.716  1.00  0.00    -0.274 OA
BRANCH  15  18
ATOM     18  C   UNL A   1      31.910  23.135  22.996  1.00  0.00     0.041 A 
ATOM     19  C   UNL A   1      31.526  25.887  22.444  1.00  0.00     0.041 A 
ATOM     20  C   UNL A   1      30.489  25.112  22.955  1.00  0.00     0.028 A 
ATOM     21  C   UNL A   1      32.787  25.320  22.334  1.00  0.00     0.028 A 
ATOM     22  C   UNL A   1      30.677  23.744  23.208  1.00  0.00     0.028 A 
ATOM     23  C   UNL A   1      32.976  23.965  22.623  1.00  0.00     0.028 A 
BRANCH  19  24
ATOM     24  N   UNL A   1      31.269  27.226  22.138  1.00  0.00    -0.326 N 
ATOM     25  C   UNL A   1      31.185  28.314  22.964  1.00  0.00     0.224 C 
ATOM     26  O   UNL A   1      30.748  29.373  22.506  1.00  0.00    -0.275 OA
ATOM     27  H   UNL A   1      31.127  27.416  21.182  1.00  0.00     0.169 HD
BRANCH  25  28
ATOM     28  C   UNL A   1      31.773  28.259  24.363  1.00  0.00     0.097 C 
ATOM     29  C   UNL A   1      31.961  29.614  25.016  1.00  0.00     0.014 C 
ENDBRANCH  25  28
ENDBRANCH  19  24
ENDBRANCH  15  18
ENDBRANCH   9  14
ENDBRANCH   6   8
ENDBRANCH   5   6
ENDBRANCH   4   5
ENDBRANCH   3   4
ENDBRANCH   2   3
ENDBRANCH   1   2
BRANCH   1  30
ATOM     30  C   UNL A   1      40.616  21.475  27.401  1.00  0.00     0.188 C 
BRANCH  30  31
ATOM     31  O   UNL A   1      42.022  21.269  27.460  1.00  0.00    -0.376 OA
BRANCH  31  32
ATOM     32  C   UNL A   1      42.768  21.214  26.251  1.00  0.00     0.202 C 
BRANCH  32  33
ATOM     33  C   UNL A   1      43.504  22.475  25.783  1.00  0.00     0.261 C 
BRANCH  33  34
ATOM     34  O   UNL A   1      42.646  23.590  25.484  1.00  0.00    -0.460 OA
BRANCH  34  35
ATOM     35  C   UNL A   1      43.238  24.806  25.574  1.00  0.00     0.338 C 
ATOM     36  O   UNL A   1      44.172  25.219  24.907  1.00  0.00    -0.246 OA
BRANCH  35  37
ATOM     37  C   UNL A   1      42.476  25.694  26.476  1.00  0.00     0.060 A 
ATOM     38  C   UNL A   1      42.920  27.018  26.578  1.00  0.00     0.016 A 
ATOM     39  C   UNL A   1      41.449  25.229  27.298  1.00  0.00     0.016 A 
ATOM     40  C   UNL A   1      42.375  27.868  27.536  1.00  0.00     0.010 A 
ATOM     41  C   UNL A   1      40.919  26.080  28.283  1.00  0.00     0.010 A 
ATOM     42  C   UNL A   1      41.413  27.389  28.432  1.00  0.00    -0.014 A 
BRANCH  42  43
ATOM     43  C   UNL A   1      41.157  28.192  29.656  1.00  0.00     0.031 A 
ATOM     44  C   UNL A   1      42.075  27.995  30.835  1.00  0.00     0.074 A 
ATOM     45  C   UNL A   1      40.227  29.163  29.683  1.00  0.00     0.049 A 
ATOM     46  N   UNL A   1      42.093  28.611  31.989  1.00  0.00    -0.248 NA
ATOM     47  C   UNL A   1      43.135  26.983  30.679  1.00  0.00     0.031 C 
ATOM     48  C   UNL A   1      39.330  29.514  28.582  1.00  0.00     0.029 A 
ATOM     49  N   UNL A   1      39.894  30.045  30.682  1.00  0.00    -0.354 N 
ATOM     50  C   UNL A   1      43.164  28.071  32.690  1.00  0.00     0.074 A 
ATOM     51  C   UNL A   1      43.758  27.059  31.844  1.00  0.00     0.031 C 
ATOM     52  C   UNL A   1      38.536  30.527  28.974  1.00  0.00     0.029 A 
ATOM     53  C   UNL A   1      38.854  30.882  30.357  1.00  0.00     0.049 A 
ATOM     54  H   UNL A   1      40.357  30.074  31.550  1.00  0.00     0.167 HD
ATOM     55  C   UNL A   1      43.621  28.390  33.924  1.00  0.00     0.037 A 
ATOM     56  C   UNL A   1      38.221  31.814  31.100  1.00  0.00     0.037 A 
ATOM     57  C   UNL A   1      43.022  29.377  34.780  1.00  0.00     0.049 A 
ATOM     58  C   UNL A   1      38.686  32.085  32.511  1.00  0.00     0.074 A 
ATOM     59  C   UNL A   1      43.380  29.733  36.069  1.00  0.00     0.029 A 
ATOM     60  N   UNL A   1      41.934  30.165  34.436  1.00  0.00    -0.354 N 
ATOM     61  N   UNL A   1      39.687  31.549  33.169  1.00  0.00    -0.248 NA
ATOM     62  C   UNL A   1      37.936  33.091  33.278  1.00  0.00     0.031 C 
ATOM     63  C   UNL A   1      42.487  30.712  36.517  1.00  0.00     0.029 A 
ATOM     64  C   UNL A   1      41.601  30.998  35.490  1.00  0.00     0.049 A 
ATOM     65  H   UNL A   1      41.467  30.135  33.570  1.00  0.00     0.167 HD
ATOM     66  C   UNL A   1      39.699  32.168  34.416  1.00  0.00     0.074 A 
ATOM     67  C   UNL A   1      38.619  33.132  34.414  1.00  0.00     0.031 C 
ATOM     68  C   UNL A   1      40.527  31.959  35.470  1.00  0.00     0.037 A 
BRANCH  55  69
ATOM     69  C   UNL A   1      44.817  27.635  34.428  1.00  0.00     0.058 A 
ATOM     70  C   UNL A   1      44.686  26.386  35.056  1.00  0.00     0.135 A 
ATOM     71  C   UNL A   1      46.109  28.161  34.274  1.00  0.00     0.135 A 
ATOM     72  F   UNL A   1      43.470  25.853  35.251  1.00  0.00    -0.206 F 
ATOM     73  C   UNL A   1      45.794  25.694  35.531  1.00  0.00     0.059 A 
ATOM     74  C   UNL A   1      47.233  27.476  34.723  1.00  0.00     0.059 A 
ATOM     75  F   UNL A   1      46.287  29.356  33.689  1.00  0.00    -0.206 F 
ATOM     76  C   UNL A   1      47.064  26.249  35.362  1.00  0.00     0.060 A 
BRANCH  76  77
ATOM     77  S   UNL A   1      48.494  25.340  35.985  1.00  0.00     0.124 S 
ATOM     78  O   UNL A   1      48.055  23.958  35.818  1.00  0.00    -0.237 OA
ATOM     79  O   UNL A   1      49.558  25.779  35.088  1.00  0.00    -0.237 OA
ATOM     80  O   UNL A   1      48.613  25.798  37.365  1.00  0.00    -0.744 OA
ENDBRANCH  76  77
ENDBRANCH  55  69
BRANCH  56  81
ATOM     81  C   UNL A   1      37.046  32.544  30.548  1.00  0.00     0.058 A 
ATOM     82  C   UNL A   1      35.733  32.152  30.848  1.00  0.00     0.135 A 
ATOM     83  C   UNL A   1      37.219  33.619  29.664  1.00  0.00     0.135 A 
ATOM     84  F   UNL A   1      35.514  31.119  31.676  1.00  0.00    -0.206 F 
ATOM     85  C   UNL A   1      34.634  32.781  30.270  1.00  0.00     0.059 A 
ATOM     86  C   UNL A   1      36.137  34.283  29.093  1.00  0.00     0.059 A 
ATOM     87  F   UNL A   1      38.455  34.036  29.345  1.00  0.00    -0.206 F 
ATOM     88  C   UNL A   1      34.848  33.844  29.389  1.00  0.00     0.060 A 
BRANCH  88  89
ATOM     89  S   UNL A   1      33.418  34.666  28.652  1.00  0.00     0.124 S 
ATOM     90  O   UNL A   1      34.032  35.851  28.065  1.00  0.00    -0.237 OA
ATOM     91  O   UNL A   1      32.937  33.661  27.709  1.00  0.00    -0.237 OA
ATOM     92  O   UNL A   1      32.544  34.908  29.797  1.00  0.00    -0.744 OA
ENDBRANCH  88  89
ENDBRANCH  56  81
BRANCH  68  93
ATOM     93  C   UNL A   1      40.323  32.808  36.694  1.00  0.00     0.058 A 
ATOM     94  C   UNL A   1      39.280  32.560  37.600  1.00  0.00     0.135 A 
ATOM     95  C   UNL A   1      41.205  33.862  36.985  1.00  0.00     0.135 A 
ATOM     96  F   UNL A   1      38.408  31.565  37.369  1.00  0.00    -0.206 F 
ATOM     97  C   UNL A   1      39.097  33.346  38.734  1.00  0.00     0.059 A 
ATOM     98  C   UNL A   1      41.058  34.645  38.126  1.00  0.00     0.059 A 
ATOM     99  F   UNL A   1      42.229  34.133  36.161  1.00  0.00    -0.206 F 
ATOM    100  C   UNL A   1      39.990  34.390  38.986  1.00  0.00     0.060 A 
BRANCH 100 101
ATOM    101  S   UNL A   1      39.754  35.397  40.466  1.00  0.00     0.124 S 
ATOM    102  O   UNL A   1      39.294  36.658  39.892  1.00  0.00    -0.237 OA
ATOM    103  O   UNL A   1      38.755  34.637  41.209  1.00  0.00    -0.237 OA
ATOM    104  O   UNL A   1      41.083  35.430  41.069  1.00  0.00    -0.744 OA
ENDBRANCH 100 101
ENDBRANCH  68  93
ENDBRANCH  42  43
ENDBRANCH  35  37
ENDBRANCH  34  35
ENDBRANCH  33  34
ENDBRANCH  32  33
ENDBRANCH  31  32
ENDBRANCH  30  31
ENDBRANCH   1  30
TORSDOF 24
ENDMDL
MODEL 3
REMARK VINA RESULT:     -10.4      1.602      2.323
REMARK SMILES CCC(=O)Nc1ccc(NC(=O)[C@@H]2CC=CC[C@@H]2C(=O)OCCOCCOCCOC(=O)c2ccc(-c3c4nc(c(-c5c(F)cc(S(=O)(=O)[O-])cc5F)c5ccc([nH]5)c(-c5c(F)cc(S(=O)(=O)[O-])cc5F)c5nc(c(-c6c(F)cc(S(=O)(=O)[O-])cc6F)c6ccc3[nH]6)C=C5)C=C4)cc2)cc1
REMARK SMILES IDX 25 1 24 2 23 3 22 4 21 5 19 6 20 7 18 8 13 9 14 10 15 11
REMARK SMILES IDX 17 12 16 13 11 14 10 15 12 17 9 18 6 19 7 20 100 21 8 22
REMARK SMILES IDX 99 23 5 24 3 25 4 26 2 28 1 29 26 30 27 31 28 32 29 33 30 34
REMARK SMILES IDX 31 35 32 36 33 37 34 38 98 39 35 40 97 41 36 42 37 43 38 44
REMARK SMILES IDX 91 45 39 46 96 47 90 48 92 49 40 50 95 51 89 52 88 53 41 55
REMARK SMILES IDX 75 56 54 57 74 58 55 59 58 60 73 61 93 62 56 63 57 64 72 66
REMARK SMILES IDX 94 67 59 68 42 69 43 70 52 71 44 72 45 73 51 74 53 75 46 76
REMARK SMILES IDX 47 77 48 78 49 79 50 80 76 81 77 82 86 83 78 84 79 85 85 86
REMARK SMILES IDX 87 87 80 88 81 89 82 90 83 91 84 92 60 93 61 94 70 95 62 96
REMARK SMILES IDX 63 97 69 98 71 99 64 100 65 101 66 102 67 103 68 104
REMARK H PARENT 10 16 5 27 92 54 58 65
REMARK Flexibility Score: inf
ROOT
ATOM      1  C   UNL A   1      39.064  21.114  25.540  1.00  0.00     0.188 C 
ENDROOT
BRANCH   1   2
ATOM      2  O   UNL A   1      37.725  21.389  25.156  1.00  0.00    -0.376 OA
BRANCH   2   3
ATOM      3  C   UNL A   1      37.322  22.747  25.289  1.00  0.00     0.202 C 
BRANCH   3   4
ATOM      4  C   UNL A   1      35.866  22.912  25.738  1.00  0.00     0.261 C 
BRANCH   4   5
ATOM      5  O   UNL A   1      34.906  22.870  24.667  1.00  0.00    -0.463 OA
BRANCH   5   6
ATOM      6  C   UNL A   1      34.054  21.805  24.648  1.00  0.00     0.310 C 
ATOM      7  O   UNL A   1      34.404  20.652  24.832  1.00  0.00    -0.252 OA
BRANCH   6   8
ATOM      8  C   UNL A   1      32.653  22.294  24.283  1.00  0.00     0.116 C 
ATOM      9  C   UNL A   1      32.529  23.799  23.976  1.00  0.00     0.097 C 
ATOM     10  C   UNL A   1      32.987  24.651  25.170  1.00  0.00     0.041 C 
ATOM     11  C   UNL A   1      32.393  24.136  26.458  1.00  0.00    -0.030 C 
ATOM     12  C   UNL A   1      31.728  21.936  25.454  1.00  0.00     0.043 C 
ATOM     13  C   UNL A   1      31.802  22.935  26.577  1.00  0.00    -0.030 C 
BRANCH   9  14
ATOM     14  C   UNL A   1      33.191  24.203  22.676  1.00  0.00     0.228 C 
ATOM     15  N   UNL A   1      33.417  25.503  22.328  1.00  0.00    -0.326 N 
ATOM     16  H   UNL A   1      33.953  25.574  21.506  1.00  0.00     0.169 HD
ATOM     17  O   UNL A   1      33.540  23.350  21.852  1.00  0.00    -0.274 OA
BRANCH  15  18
ATOM     18  C   UNL A   1      33.083  26.772  22.843  1.00  0.00     0.041 A 
ATOM     19  C   UNL A   1      32.157  29.098  24.168  1.00  0.00     0.041 A 
ATOM     20  C   UNL A   1      33.507  28.937  23.872  1.00  0.00     0.028 A 
ATOM     21  C   UNL A   1      31.255  28.161  23.686  1.00  0.00     0.028 A 
ATOM     22  C   UNL A   1      33.965  27.774  23.234  1.00  0.00     0.028 A 
ATOM     23  C   UNL A   1      31.715  27.022  23.018  1.00  0.00     0.028 A 
BRANCH  19  24
ATOM     24  N   UNL A   1      31.759  30.238  24.872  1.00  0.00    -0.326 N 
ATOM     25  C   UNL A   1      31.656  30.446  26.220  1.00  0.00     0.224 C 
ATOM     26  O   UNL A   1      31.090  31.467  26.621  1.00  0.00    -0.275 OA
ATOM     27  H   UNL A   1      31.516  31.011  24.311  1.00  0.00     0.169 HD
BRANCH  25  28
ATOM     28  C   UNL A   1      32.369  29.522  27.193  1.00  0.00     0.097 C 
ATOM     29  C   UNL A   1      31.595  28.267  27.545  1.00  0.00     0.014 C 
ENDBRANCH  25  28
ENDBRANCH  19  24
ENDBRANCH  15  18
ENDBRANCH   9  14
ENDBRANCH   6   8
ENDBRANCH   5   6
ENDBRANCH   4   5
ENDBRANCH   3   4
ENDBRANCH   2   3
ENDBRANCH   1   2
BRANCH   1  30
ATOM     30  C   UNL A   1      39.642  22.070  26.606  1.00  0.00     0.188 C 
BRANCH  30  31
ATOM     31  O   UNL A   1      40.947  21.868  27.133  1.00  0.00    -0.376 OA
BRANCH  31  32
ATOM     32  C   UNL A   1      41.988  21.436  26.267  1.00  0.00     0.202 C 
BRANCH  32  33
ATOM     33  C   UNL A   1      43.009  22.469  25.771  1.00  0.00     0.261 C 
BRANCH  33  34
ATOM     34  O   UNL A   1      42.525  23.823  25.753  1.00  0.00    -0.460 OA
BRANCH  34  35
ATOM     35  C   UNL A   1      43.341  24.728  26.347  1.00  0.00     0.338 C 
ATOM     36  O   UNL A   1      44.537  24.875  26.156  1.00  0.00    -0.246 OA
BRANCH  35  37
ATOM     37  C   UNL A   1      42.559  25.693  27.147  1.00  0.00     0.060 A 
ATOM     38  C   UNL A   1      43.073  26.991  27.246  1.00  0.00     0.016 A 
ATOM     39  C   UNL A   1      41.436  25.321  27.888  1.00  0.00     0.016 A 
ATOM     40  C   UNL A   1      42.500  27.908  28.122  1.00  0.00     0.010 A 
ATOM     41  C   UNL A   1      40.876  26.238  28.792  1.00  0.00     0.010 A 
ATOM     42  C   UNL A   1      41.434  27.521  28.942  1.00  0.00    -0.014 A 
BRANCH  42  43
ATOM     43  C   UNL A   1      41.121  28.383  30.111  1.00  0.00     0.031 A 
ATOM     44  C   UNL A   1      41.999  28.266  31.331  1.00  0.00     0.074 A 
ATOM     45  C   UNL A   1      40.176  29.338  30.053  1.00  0.00     0.049 A 
ATOM     46  N   UNL A   1      41.965  28.943  32.450  1.00  0.00    -0.248 NA
ATOM     47  C   UNL A   1      43.079  27.265  31.268  1.00  0.00     0.031 C 
ATOM     48  C   UNL A   1      39.315  29.613  28.903  1.00  0.00     0.029 A 
ATOM     49  N   UNL A   1      39.793  30.267  30.990  1.00  0.00    -0.354 N 
ATOM     50  C   UNL A   1      43.018  28.460  33.217  1.00  0.00     0.074 A 
ATOM     51  C   UNL A   1      43.659  27.414  32.449  1.00  0.00     0.031 C 
ATOM     52  C   UNL A   1      38.491  30.633  29.211  1.00  0.00     0.029 A 
ATOM     53  C   UNL A   1      38.752  31.067  30.584  1.00  0.00     0.049 A 
ATOM     54  H   UNL A   1      40.224  30.349  31.872  1.00  0.00     0.167 HD
ATOM     55  C   UNL A   1      43.425  28.852  34.447  1.00  0.00     0.037 A 
ATOM     56  C   UNL A   1      38.079  32.026  31.252  1.00  0.00     0.037 A 
ATOM     57  C   UNL A   1      42.779  29.873  35.227  1.00  0.00     0.049 A 
ATOM     58  C   UNL A   1      38.488  32.380  32.662  1.00  0.00     0.074 A 
ATOM     59  C   UNL A   1      43.085  30.303  36.506  1.00  0.00     0.029 A 
ATOM     60  N   UNL A   1      41.693  30.622  34.802  1.00  0.00    -0.354 N 
ATOM     61  N   UNL A   1      39.472  31.897  33.383  1.00  0.00    -0.248 NA
ATOM     62  C   UNL A   1      37.695  33.412  33.347  1.00  0.00     0.031 C 
ATOM     63  C   UNL A   1      42.161  31.290  36.868  1.00  0.00     0.029 A 
ATOM     64  C   UNL A   1      41.309  31.505  35.797  1.00  0.00     0.049 A 
ATOM     65  H   UNL A   1      41.258  30.538  33.923  1.00  0.00     0.167 HD
ATOM     66  C   UNL A   1      39.429  32.583  34.595  1.00  0.00     0.074 A 
ATOM     67  C   UNL A   1      38.335  33.526  34.502  1.00  0.00     0.031 C 
ATOM     68  C   UNL A   1      40.222  32.444  35.687  1.00  0.00     0.037 A 
BRANCH  55  69
ATOM     69  C   UNL A   1      44.613  28.146  35.034  1.00  0.00     0.058 A 
ATOM     70  C   UNL A   1      45.920  28.619  34.836  1.00  0.00     0.135 A 
ATOM     71  C   UNL A   1      44.443  26.989  35.810  1.00  0.00     0.135 A 
ATOM     72  F   UNL A   1      46.137  29.706  34.079  1.00  0.00    -0.206 F 
ATOM     73  C   UNL A   1      47.020  27.958  35.372  1.00  0.00     0.059 A 
ATOM     74  C   UNL A   1      45.527  26.324  36.373  1.00  0.00     0.059 A 
ATOM     75  F   UNL A   1      43.215  26.492  36.021  1.00  0.00    -0.206 F 
ATOM     76  C   UNL A   1      46.812  26.809  36.137  1.00  0.00     0.060 A 
BRANCH  76  77
ATOM     77  S   UNL A   1      48.249  25.959  36.826  1.00  0.00     0.124 S 
ATOM     78  O   UNL A   1      48.556  25.003  35.767  1.00  0.00    -0.237 OA
ATOM     79  O   UNL A   1      49.206  27.048  36.992  1.00  0.00    -0.237 OA
ATOM     80  O   UNL A   1      47.740  25.380  38.065  1.00  0.00    -0.744 OA
ENDBRANCH  76  77
ENDBRANCH  55  69
BRANCH  56  81
ATOM     81  C   UNL A   1      36.913  32.704  30.620  1.00  0.00     0.058 A 
ATOM     82  C   UNL A   1      37.081  33.771  29.725  1.00  0.00     0.135 A 
ATOM     83  C   UNL A   1      35.601  32.326  30.945  1.00  0.00     0.135 A 
ATOM     84  F   UNL A   1      38.315  34.180  29.395  1.00  0.00    -0.206 F 
ATOM     85  C   UNL A   1      35.993  34.457  29.196  1.00  0.00     0.059 A 
ATOM     86  C   UNL A   1      34.495  32.979  30.409  1.00  0.00     0.059 A 
ATOM     87  F   UNL A   1      35.384  31.309  31.794  1.00  0.00    -0.206 F 
ATOM     88  C   UNL A   1      34.702  34.056  29.548  1.00  0.00     0.060 A 
BRANCH  88  89
ATOM     89  S   UNL A   1      33.292  34.943  28.849  1.00  0.00     0.124 S 
ATOM     90  O   UNL A   1      32.465  35.156  30.030  1.00  0.00    -0.237 OA
ATOM     91  O   UNL A   1      33.924  36.132  28.288  1.00  0.00    -0.237 OA
ATOM     92  O   UNL A   1      32.760  34.003  27.866  1.00  0.00    -0.744 OA
ENDBRANCH  88  89
ENDBRANCH  56  81
BRANCH  68  93
ATOM     93  C   UNL A   1      39.960  33.354  36.856  1.00  0.00     0.058 A 
ATOM     94  C   UNL A   1      38.998  33.046  37.831  1.00  0.00     0.135 A 
ATOM     95  C   UNL A   1      40.707  34.532  37.022  1.00  0.00     0.135 A 
ATOM     96  F   UNL A   1      38.256  31.933  37.719  1.00  0.00    -0.206 F 
ATOM     97  C   UNL A   1      38.763  33.889  38.912  1.00  0.00     0.059 A 
ATOM     98  C   UNL A   1      40.507  35.377  38.110  1.00  0.00     0.059 A 
ATOM     99  F   UNL A   1      41.650  34.867  36.128  1.00  0.00    -0.206 F 
ATOM    100  C   UNL A   1      39.519  35.056  39.041  1.00  0.00     0.060 A 
BRANCH 100 101
ATOM    101  S   UNL A   1      39.216  36.138  40.454  1.00  0.00     0.124 S 
ATOM    102  O   UNL A   1      40.549  36.234  41.041  1.00  0.00    -0.237 OA
ATOM    103  O   UNL A   1      38.713  37.352  39.820  1.00  0.00    -0.237 OA
ATOM    104  O   UNL A   1      38.235  35.399  41.243  1.00  0.00    -0.744 OA
ENDBRANCH 100 101
ENDBRANCH  68  93
ENDBRANCH  42  43
ENDBRANCH  35  37
ENDBRANCH  34  35
ENDBRANCH  33  34
ENDBRANCH  32  33
ENDBRANCH  31  32
ENDBRANCH  30  31
ENDBRANCH   1  30
TORSDOF 24
ENDMDL
