MODEL 1
REMARK VINA RESULT:      -9.3      0.000      0.000
REMARK SMILES Cc1nc(C[N@H+](C)[C@H](C)c2ccc(C(=O)OCCOCCOCCOC(=O)c3ccc(-c4c5nc(c(-c6c(F)cc(S(=O)(=O)[O-])cc6F)c6ccc([nH]6)c(-c6c(F)cc(S(=O)(=O)[O-])cc6F)c6nc(c(-c7c(F)cc(S(=O)(=O)[O-])cc7F)c7ccc4[nH]7)C=C6)C=C5)cc3)o2)cs1
REMARK SMILES IDX 20 1 19 2 18 3 17 4 16 5 14 6 15 7 13 8 10 9 11 10 94 11
REMARK SMILES IDX 12 12 8 13 9 14 6 15 7 16 5 18 4 19 1 20 2 21 3 22 96 23
REMARK SMILES IDX 95 24 21 25 22 26 23 27 24 28 25 29 26 30 27 31 28 32 29 33
REMARK SMILES IDX 93 34 30 35 92 36 31 37 32 38 33 39 86 40 34 41 91 42 85 43
REMARK SMILES IDX 87 44 35 45 90 46 84 47 83 48 36 50 70 51 49 52 69 53 50 54
REMARK SMILES IDX 53 55 68 56 88 57 51 58 52 59 67 61 89 62 54 63 37 64 38 65
REMARK SMILES IDX 47 66 39 67 40 68 46 69 48 70 41 71 42 72 43 73 44 74 45 75
REMARK SMILES IDX 71 76 72 77 81 78 73 79 74 80 80 81 82 82 75 83 76 84 77 85
REMARK SMILES IDX 78 86 79 87 55 88 56 89 65 90 57 91 58 92 64 93 66 94 59 95
REMARK SMILES IDX 60 96 61 97 62 98 63 99
REMARK H PARENT 6 17 87 49 53 60
REMARK Flexibility Score: inf
ROOT
ATOM      1  C   UNL A   1      40.374  23.463  26.784  1.00  0.00     0.188 C 
ENDROOT
BRANCH   1   2
ATOM      2  O   UNL A   1      38.994  23.755  26.982  1.00  0.00    -0.376 OA
BRANCH   2   3
ATOM      3  C   UNL A   1      38.007  23.223  26.118  1.00  0.00     0.202 C 
BRANCH   3   4
ATOM      4  C   UNL A   1      38.175  21.768  25.677  1.00  0.00     0.261 C 
BRANCH   4   5
ATOM      5  O   UNL A   1      37.358  21.392  24.561  1.00  0.00    -0.457 OA
BRANCH   5   6
ATOM      6  C   UNL A   1      36.407  20.447  24.827  1.00  0.00     0.374 C 
ATOM      7  O   UNL A   1      36.633  19.257  25.001  1.00  0.00    -0.242 OA
BRANCH   6   8
ATOM      8  C   UNL A   1      35.118  21.083  24.936  1.00  0.00     0.212 A 
ATOM      9  C   UNL A   1      33.574  22.567  24.387  1.00  0.00     0.162 A 
ATOM     10  C   UNL A   1      33.066  21.824  25.434  1.00  0.00     0.053 A 
ATOM     11  O   UNL A   1      34.844  22.142  24.112  1.00  0.00    -0.448 OA
ATOM     12  C   UNL A   1      34.022  20.828  25.737  1.00  0.00     0.059 A 
BRANCH   9  13
ATOM     13  C   UNL A   1      33.063  23.759  23.613  1.00  0.00     0.248 C 
ATOM     14  C   UNL A   1      31.627  23.573  23.097  1.00  0.00     0.084 C 
BRANCH  13  15
ATOM     15  N   UNL A   1      33.320  25.039  24.328  1.00  0.00    -0.324 N 
ATOM     16  C   UNL A   1      34.474  24.889  25.224  1.00  0.00     0.333 C 
ATOM     17  H   UNL A   1      32.447  25.206  24.829  1.00  0.00     0.348 HD
BRANCH  15  18
ATOM     18  C   UNL A   1      33.521  26.249  23.500  1.00  0.00     0.320 C 
BRANCH  18  19
ATOM     19  C   UNL A   1      32.595  27.393  23.821  1.00  0.00     0.106 A 
ATOM     20  C   UNL A   1      32.015  30.321  25.938  1.00  0.00     0.079 C 
ATOM     21  C   UNL A   1      31.999  29.227  24.929  1.00  0.00     0.090 A 
ATOM     22  N   UNL A   1      32.961  28.341  24.777  1.00  0.00    -0.241 NA
ATOM     23  S   UNL A   1      30.644  29.036  23.893  1.00  0.00    -0.127 S 
ATOM     24  C   UNL A   1      31.387  27.661  23.201  1.00  0.00     0.096 A 
ENDBRANCH  18  19
ENDBRANCH  15  18
ENDBRANCH  13  15
ENDBRANCH   9  13
ENDBRANCH   6   8
ENDBRANCH   5   6
ENDBRANCH   4   5
ENDBRANCH   3   4
ENDBRANCH   2   3
ENDBRANCH   1   2
BRANCH   1  25
ATOM     25  C   UNL A   1      41.073  22.345  27.582  1.00  0.00     0.188 C 
BRANCH  25  26
ATOM     26  O   UNL A   1      42.491  22.333  27.461  1.00  0.00    -0.376 OA
BRANCH  26  27
ATOM     27  C   UNL A   1      43.004  22.275  26.138  1.00  0.00     0.202 C 
BRANCH  27  28
ATOM     28  C   UNL A   1      43.869  23.487  25.778  1.00  0.00     0.261 C 
BRANCH  28  29
ATOM     29  O   UNL A   1      43.722  24.612  26.659  1.00  0.00    -0.460 OA
BRANCH  29  30
ATOM     30  C   UNL A   1      43.139  25.719  26.148  1.00  0.00     0.338 C 
ATOM     31  O   UNL A   1      42.914  25.958  24.976  1.00  0.00    -0.246 OA
BRANCH  30  32
ATOM     32  C   UNL A   1      42.664  26.542  27.277  1.00  0.00     0.060 A 
ATOM     33  C   UNL A   1      43.133  27.855  27.399  1.00  0.00     0.016 A 
ATOM     34  C   UNL A   1      41.757  26.021  28.204  1.00  0.00     0.016 A 
ATOM     35  C   UNL A   1      42.712  28.645  28.471  1.00  0.00     0.010 A 
ATOM     36  C   UNL A   1      41.347  26.808  29.281  1.00  0.00     0.010 A 
ATOM     37  C   UNL A   1      41.841  28.115  29.434  1.00  0.00    -0.014 A 
BRANCH  37  38
ATOM     38  C   UNL A   1      41.561  28.865  30.683  1.00  0.00     0.031 A 
ATOM     39  C   UNL A   1      40.416  29.840  30.697  1.00  0.00     0.074 A 
ATOM     40  C   UNL A   1      42.314  28.691  31.784  1.00  0.00     0.049 A 
ATOM     41  N   UNL A   1      40.009  30.628  31.658  1.00  0.00    -0.248 NA
ATOM     42  C   UNL A   1      39.628  29.942  29.458  1.00  0.00     0.031 C 
ATOM     43  C   UNL A   1      43.440  27.768  31.902  1.00  0.00     0.029 A 
ATOM     44  N   UNL A   1      42.247  29.302  33.011  1.00  0.00    -0.354 N 
ATOM     45  C   UNL A   1      38.915  31.315  31.144  1.00  0.00     0.074 A 
ATOM     46  C   UNL A   1      38.744  30.875  29.776  1.00  0.00     0.031 C 
ATOM     47  C   UNL A   1      43.971  27.886  33.132  1.00  0.00     0.029 A 
ATOM     48  C   UNL A   1      43.237  28.907  33.879  1.00  0.00     0.049 A 
ATOM     49  H   UNL A   1      41.555  29.961  33.248  1.00  0.00     0.167 HD
ATOM     50  C   UNL A   1      38.120  32.223  31.758  1.00  0.00     0.037 A 
ATOM     51  C   UNL A   1      43.528  29.335  35.123  1.00  0.00     0.037 A 
ATOM     52  C   UNL A   1      38.302  32.676  33.111  1.00  0.00     0.049 A 
ATOM     53  C   UNL A   1      42.668  30.393  35.766  1.00  0.00     0.074 A 
ATOM     54  C   UNL A   1      37.542  33.586  33.824  1.00  0.00     0.029 A 
ATOM     55  N   UNL A   1      39.324  32.263  33.953  1.00  0.00    -0.354 N 
ATOM     56  N   UNL A   1      41.614  31.007  35.283  1.00  0.00    -0.248 NA
ATOM     57  C   UNL A   1      43.034  30.814  37.128  1.00  0.00     0.031 C 
ATOM     58  C   UNL A   1      38.127  33.753  35.085  1.00  0.00     0.029 A 
ATOM     59  C   UNL A   1      39.226  32.914  35.172  1.00  0.00     0.049 A 
ATOM     60  H   UNL A   1      40.017  31.604  33.719  1.00  0.00     0.167 HD
ATOM     61  C   UNL A   1      41.178  31.867  36.288  1.00  0.00     0.074 A 
ATOM     62  C   UNL A   1      42.078  31.690  37.409  1.00  0.00     0.031 C 
ATOM     63  C   UNL A   1      40.127  32.723  36.283  1.00  0.00     0.037 A 
BRANCH  50  64
ATOM     64  C   UNL A   1      36.992  32.800  30.952  1.00  0.00     0.058 A 
ATOM     65  C   UNL A   1      37.219  33.767  29.960  1.00  0.00     0.135 A 
ATOM     66  C   UNL A   1      35.670  32.381  31.173  1.00  0.00     0.135 A 
ATOM     67  F   UNL A   1      38.462  34.215  29.725  1.00  0.00    -0.206 F 
ATOM     68  C   UNL A   1      36.170  34.323  29.236  1.00  0.00     0.059 A 
ATOM     69  C   UNL A   1      34.609  32.908  30.443  1.00  0.00     0.059 A 
ATOM     70  F   UNL A   1      35.400  31.462  32.112  1.00  0.00    -0.206 F 
ATOM     71  C   UNL A   1      34.868  33.892  29.489  1.00  0.00     0.060 A 
BRANCH  71  72
ATOM     72  S   UNL A   1      33.514  34.637  28.556  1.00  0.00     0.124 S 
ATOM     73  O   UNL A   1      34.178  35.789  27.952  1.00  0.00    -0.237 OA
ATOM     74  O   UNL A   1      33.140  33.568  27.635  1.00  0.00    -0.237 OA
ATOM     75  O   UNL A   1      32.525  34.950  29.583  1.00  0.00    -0.744 OA
ENDBRANCH  71  72
ENDBRANCH  50  64
BRANCH  51  76
ATOM     76  C   UNL A   1      44.695  28.766  35.848  1.00  0.00     0.058 A 
ATOM     77  C   UNL A   1      44.539  27.716  36.763  1.00  0.00     0.135 A 
ATOM     78  C   UNL A   1      45.991  29.262  35.635  1.00  0.00     0.135 A 
ATOM     79  F   UNL A   1      43.317  27.219  37.010  1.00  0.00    -0.206 F 
ATOM     80  C   UNL A   1      45.624  27.181  37.450  1.00  0.00     0.059 A 
ATOM     81  C   UNL A   1      47.095  28.730  36.295  1.00  0.00     0.059 A 
ATOM     82  F   UNL A   1      46.193  30.265  34.766  1.00  0.00    -0.206 F 
ATOM     83  C   UNL A   1      46.899  27.694  37.208  1.00  0.00     0.060 A 
BRANCH  83  84
ATOM     84  S   UNL A   1      48.309  26.960  38.068  1.00  0.00     0.124 S 
ATOM     85  O   UNL A   1      47.784  25.647  38.424  1.00  0.00    -0.237 OA
ATOM     86  O   UNL A   1      49.341  26.976  37.037  1.00  0.00    -0.237 OA
ATOM     87  O   UNL A   1      48.533  27.875  39.183  1.00  0.00    -0.744 OA
ENDBRANCH  83  84
ENDBRANCH  51  76
BRANCH  63  88
ATOM     88  C   UNL A   1      39.865  33.514  37.534  1.00  0.00     0.058 A 
ATOM     89  C   UNL A   1      40.536  34.718  37.801  1.00  0.00     0.135 A 
ATOM     90  C   UNL A   1      38.884  33.095  38.449  1.00  0.00     0.135 A 
ATOM     91  F   UNL A   1      41.484  35.162  36.962  1.00  0.00    -0.206 F 
ATOM     92  C   UNL A   1      40.257  35.469  38.938  1.00  0.00     0.059 A 
ATOM     93  C   UNL A   1      38.572  33.841  39.581  1.00  0.00     0.059 A 
ATOM     94  F   UNL A   1      38.204  31.956  38.235  1.00  0.00    -0.206 F 
ATOM     95  C   UNL A   1      39.272  35.023  39.823  1.00  0.00     0.060 A 
BRANCH  95  96
ATOM     96  S   UNL A   1      38.888  36.025  41.275  1.00  0.00     0.124 S 
ATOM     97  O   UNL A   1      40.141  35.955  42.020  1.00  0.00    -0.237 OA
ATOM     98  O   UNL A   1      38.571  37.323  40.688  1.00  0.00    -0.237 OA
ATOM     99  O   UNL A   1      37.758  35.327  41.880  1.00  0.00    -0.744 OA
ENDBRANCH  95  96
ENDBRANCH  63  88
ENDBRANCH  37  38
ENDBRANCH  30  32
ENDBRANCH  29  30
ENDBRANCH  28  29
ENDBRANCH  27  28
ENDBRANCH  26  27
ENDBRANCH  25  26
ENDBRANCH   1  25
TORSDOF 24
ENDMDL
MODEL 2
REMARK VINA RESULT:      -8.7      5.234     12.565
REMARK SMILES Cc1nc(C[N@H+](C)[C@H](C)c2ccc(C(=O)OCCOCCOCCOC(=O)c3ccc(-c4c5nc(c(-c6c(F)cc(S(=O)(=O)[O-])cc6F)c6ccc([nH]6)c(-c6c(F)cc(S(=O)(=O)[O-])cc6F)c6nc(c(-c7c(F)cc(S(=O)(=O)[O-])cc7F)c7ccc4[nH]7)C=C6)C=C5)cc3)o2)cs1
REMARK SMILES IDX 20 1 19 2 18 3 17 4 16 5 14 6 15 7 13 8 10 9 11 10 94 11
REMARK SMILES IDX 12 12 8 13 9 14 6 15 7 16 5 18 4 19 1 20 2 21 3 22 96 23
REMARK SMILES IDX 95 24 21 25 22 26 23 27 24 28 25 29 26 30 27 31 28 32 29 33
REMARK SMILES IDX 93 34 30 35 92 36 31 37 32 38 33 39 86 40 34 41 91 42 85 43
REMARK SMILES IDX 87 44 35 45 90 46 84 47 83 48 36 50 70 51 49 52 69 53 50 54
REMARK SMILES IDX 53 55 68 56 88 57 51 58 52 59 67 61 89 62 54 63 37 64 38 65
REMARK SMILES IDX 47 66 39 67 40 68 46 69 48 70 41 71 42 72 43 73 44 74 45 75
REMARK SMILES IDX 71 76 72 77 81 78 73 79 74 80 80 81 82 82 75 83 76 84 77 85
REMARK SMILES IDX 78 86 79 87 55 88 56 89 65 90 57 91 58 92 64 93 66 94 59 95
REMARK SMILES IDX 60 96 61 97 62 98 63 99
REMARK H PARENT 6 17 87 49 53 60
REMARK Flexibility Score: inf
ROOT
ATOM      1  C   UNL A   1      36.549  34.476  33.267  1.00  0.00     0.188 C 
ENDROOT
BRANCH   1   2
ATOM      2  O   UNL A   1      37.712  33.985  33.926  1.00  0.00    -0.376 OA
BRANCH   2   3
ATOM      3  C   UNL A   1      38.969  34.611  33.748  1.00  0.00     0.202 C 
BRANCH   3   4
ATOM      4  C   UNL A   1      40.053  33.811  33.025  1.00  0.00     0.261 C 
BRANCH   4   5
ATOM      5  O   UNL A   1      40.562  32.699  33.772  1.00  0.00    -0.457 OA
BRANCH   5   6
ATOM      6  C   UNL A   1      39.928  31.508  33.549  1.00  0.00     0.374 C 
ATOM      7  O   UNL A   1      38.950  31.361  32.828  1.00  0.00    -0.242 OA
BRANCH   6   8
ATOM      8  C   UNL A   1      40.630  30.456  34.239  1.00  0.00     0.212 A 
ATOM      9  C   UNL A   1      42.028  28.748  34.377  1.00  0.00     0.162 A 
ATOM     10  C   UNL A   1      41.484  28.928  35.634  1.00  0.00     0.053 A 
ATOM     11  O   UNL A   1      41.474  29.654  33.517  1.00  0.00    -0.448 OA
ATOM     12  C   UNL A   1      40.648  30.064  35.564  1.00  0.00     0.059 A 
BRANCH   9  13
ATOM     13  C   UNL A   1      42.977  27.730  33.790  1.00  0.00     0.248 C 
ATOM     14  C   UNL A   1      42.971  27.717  32.253  1.00  0.00     0.084 C 
BRANCH  13  15
ATOM     15  N   UNL A   1      44.323  27.796  34.418  1.00  0.00    -0.324 N 
ATOM     16  C   UNL A   1      44.849  26.439  34.623  1.00  0.00     0.333 C 
ATOM     17  H   UNL A   1      44.149  28.291  35.294  1.00  0.00     0.348 HD
BRANCH  15  18
ATOM     18  C   UNL A   1      45.356  28.600  33.727  1.00  0.00     0.320 C 
BRANCH  18  19
ATOM     19  C   UNL A   1      46.641  28.770  34.495  1.00  0.00     0.106 A 
ATOM     20  C   UNL A   1      50.294  28.849  34.308  1.00  0.00     0.079 C 
ATOM     21  C   UNL A   1      48.854  28.901  34.677  1.00  0.00     0.090 A 
ATOM     22  N   UNL A   1      47.862  28.779  33.820  1.00  0.00    -0.241 NA
ATOM     23  S   UNL A   1      48.395  29.096  36.319  1.00  0.00    -0.127 S 
ATOM     24  C   UNL A   1      46.752  28.992  35.856  1.00  0.00     0.096 A 
ENDBRANCH  18  19
ENDBRANCH  15  18
ENDBRANCH  13  15
ENDBRANCH   9  13
ENDBRANCH   6   8
ENDBRANCH   5   6
ENDBRANCH   4   5
ENDBRANCH   3   4
ENDBRANCH   2   3
ENDBRANCH   1   2
BRANCH   1  25
ATOM     25  C   UNL A   1      36.387  34.350  31.740  1.00  0.00     0.188 C 
BRANCH  25  26
ATOM     26  O   UNL A   1      35.260  33.585  31.328  1.00  0.00    -0.376 OA
BRANCH  26  27
ATOM     27  C   UNL A   1      34.565  34.065  30.185  1.00  0.00     0.202 C 
BRANCH  27  28
ATOM     28  C   UNL A   1      34.551  33.061  29.028  1.00  0.00     0.261 C 
BRANCH  28  29
ATOM     29  O   UNL A   1      34.433  31.687  29.428  1.00  0.00    -0.460 OA
BRANCH  29  30
ATOM     30  C   UNL A   1      34.590  30.753  28.464  1.00  0.00     0.338 C 
ATOM     31  O   UNL A   1      33.809  30.480  27.570  1.00  0.00    -0.246 OA
BRANCH  30  32
ATOM     32  C   UNL A   1      35.958  30.211  28.575  1.00  0.00     0.060 A 
ATOM     33  C   UNL A   1      36.407  29.763  29.822  1.00  0.00     0.016 A 
ATOM     34  C   UNL A   1      36.788  30.142  27.452  1.00  0.00     0.016 A 
ATOM     35  C   UNL A   1      37.706  29.267  29.954  1.00  0.00     0.010 A 
ATOM     36  C   UNL A   1      38.089  29.656  27.589  1.00  0.00     0.010 A 
ATOM     37  C   UNL A   1      38.563  29.239  28.844  1.00  0.00    -0.014 A 
BRANCH  37  38
ATOM     38  C   UNL A   1      40.001  28.920  29.017  1.00  0.00     0.031 A 
ATOM     39  C   UNL A   1      40.923  29.994  29.524  1.00  0.00     0.074 A 
ATOM     40  C   UNL A   1      40.484  27.700  28.719  1.00  0.00     0.049 A 
ATOM     41  N   UNL A   1      42.216  29.955  29.718  1.00  0.00    -0.248 NA
ATOM     42  C   UNL A   1      40.302  31.287  29.853  1.00  0.00     0.031 C 
ATOM     43  C   UNL A   1      39.693  26.571  28.233  1.00  0.00     0.029 A 
ATOM     44  N   UNL A   1      41.768  27.216  28.771  1.00  0.00    -0.354 N 
ATOM     45  C   UNL A   1      42.564  31.212  30.196  1.00  0.00     0.074 A 
ATOM     46  C   UNL A   1      41.351  32.002  30.231  1.00  0.00     0.031 C 
ATOM     47  C   UNL A   1      40.513  25.528  28.015  1.00  0.00     0.029 A 
ATOM     48  C   UNL A   1      41.888  25.922  28.324  1.00  0.00     0.049 A 
ATOM     49  H   UNL A   1      42.530  27.746  29.098  1.00  0.00     0.167 HD
ATOM     50  C   UNL A   1      43.780  31.667  30.580  1.00  0.00     0.037 A 
ATOM     51  C   UNL A   1      42.982  25.152  28.165  1.00  0.00     0.037 A 
ATOM     52  C   UNL A   1      44.990  30.889  30.527  1.00  0.00     0.049 A 
ATOM     53  C   UNL A   1      44.337  25.698  28.539  1.00  0.00     0.074 A 
ATOM     54  C   UNL A   1      46.268  31.259  30.904  1.00  0.00     0.029 A 
ATOM     55  N   UNL A   1      45.073  29.588  30.055  1.00  0.00    -0.354 N 
ATOM     56  N   UNL A   1      44.647  26.877  29.026  1.00  0.00    -0.248 NA
ATOM     57  C   UNL A   1      45.492  24.808  28.347  1.00  0.00     0.031 C 
ATOM     58  C   UNL A   1      47.132  30.195  30.623  1.00  0.00     0.029 A 
ATOM     59  C   UNL A   1      46.384  29.146  30.113  1.00  0.00     0.049 A 
ATOM     60  H   UNL A   1      44.312  29.056  29.727  1.00  0.00     0.167 HD
ATOM     61  C   UNL A   1      46.025  26.860  29.220  1.00  0.00     0.074 A 
ATOM     62  C   UNL A   1      46.490  25.553  28.805  1.00  0.00     0.031 C 
ATOM     63  C   UNL A   1      46.832  27.838  29.701  1.00  0.00     0.037 A 
BRANCH  50  64
ATOM     64  C   UNL A   1      43.857  33.083  31.072  1.00  0.00     0.058 A 
ATOM     65  C   UNL A   1      44.059  34.156  30.189  1.00  0.00     0.135 A 
ATOM     66  C   UNL A   1      43.728  33.373  32.439  1.00  0.00     0.135 A 
ATOM     67  F   UNL A   1      44.209  33.931  28.874  1.00  0.00    -0.206 F 
ATOM     68  C   UNL A   1      44.161  35.465  30.648  1.00  0.00     0.059 A 
ATOM     69  C   UNL A   1      43.804  34.677  32.918  1.00  0.00     0.059 A 
ATOM     70  F   UNL A   1      43.537  32.382  33.325  1.00  0.00    -0.206 F 
ATOM     71  C   UNL A   1      44.039  35.714  32.016  1.00  0.00     0.060 A 
BRANCH  71  72
ATOM     72  S   UNL A   1      44.194  37.415  32.602  1.00  0.00     0.124 S 
ATOM     73  O   UNL A   1      44.029  38.164  31.359  1.00  0.00    -0.237 OA
ATOM     74  O   UNL A   1      43.094  37.521  33.555  1.00  0.00    -0.237 OA
ATOM     75  O   UNL A   1      45.531  37.454  33.185  1.00  0.00    -0.744 OA
ENDBRANCH  71  72
ENDBRANCH  50  64
BRANCH  51  76
ATOM     76  C   UNL A   1      42.847  23.777  27.618  1.00  0.00     0.058 A 
ATOM     77  C   UNL A   1      42.958  23.529  26.243  1.00  0.00     0.135 A 
ATOM     78  C   UNL A   1      42.605  22.682  28.462  1.00  0.00     0.135 A 
ATOM     79  F   UNL A   1      43.173  24.547  25.394  1.00  0.00    -0.206 F 
ATOM     80  C   UNL A   1      42.826  22.247  25.719  1.00  0.00     0.059 A 
ATOM     81  C   UNL A   1      42.491  21.386  27.965  1.00  0.00     0.059 A 
ATOM     82  F   UNL A   1      42.494  22.865  29.787  1.00  0.00    -0.206 F 
ATOM     83  C   UNL A   1      42.595  21.180  26.590  1.00  0.00     0.060 A 
BRANCH  83  84
ATOM     84  S   UNL A   1      42.475  19.512  25.907  1.00  0.00     0.124 S 
ATOM     85  O   UNL A   1      43.025  18.710  26.994  1.00  0.00    -0.237 OA
ATOM     86  O   UNL A   1      41.039  19.376  25.679  1.00  0.00    -0.237 OA
ATOM     87  O   UNL A   1      43.290  19.585  24.699  1.00  0.00    -0.744 OA
ENDBRANCH  83  84
ENDBRANCH  51  76
BRANCH  63  88
ATOM     88  C   UNL A   1      48.297  27.529  29.839  1.00  0.00     0.058 A 
ATOM     89  C   UNL A   1      48.797  26.789  30.922  1.00  0.00     0.135 A 
ATOM     90  C   UNL A   1      49.204  27.925  28.841  1.00  0.00     0.135 A 
ATOM     91  F   UNL A   1      47.974  26.390  31.903  1.00  0.00    -0.206 F 
ATOM     92  C   UNL A   1      50.148  26.467  31.020  1.00  0.00     0.059 A 
ATOM     93  C   UNL A   1      50.554  27.594  28.908  1.00  0.00     0.059 A 
ATOM     94  F   UNL A   1      48.776  28.625  27.778  1.00  0.00    -0.206 F 
ATOM     95  C   UNL A   1      51.019  26.874  30.008  1.00  0.00     0.060 A 
BRANCH  95  96
ATOM     96  S   UNL A   1      52.762  26.417  30.124  1.00  0.00     0.124 S 
ATOM     97  O   UNL A   1      53.379  27.696  30.456  1.00  0.00    -0.237 OA
ATOM     98  O   UNL A   1      52.755  25.419  31.190  1.00  0.00    -0.237 OA
ATOM     99  O   UNL A   1      53.067  25.898  28.794  1.00  0.00    -0.744 OA
ENDBRANCH  95  96
ENDBRANCH  63  88
ENDBRANCH  37  38
ENDBRANCH  30  32
ENDBRANCH  29  30
ENDBRANCH  28  29
ENDBRANCH  27  28
ENDBRANCH  26  27
ENDBRANCH  25  26
ENDBRANCH   1  25
TORSDOF 24
ENDMDL
MODEL 3
REMARK VINA RESULT:      -8.1      1.742      2.249
REMARK SMILES Cc1nc(C[N@H+](C)[C@H](C)c2ccc(C(=O)OCCOCCOCCOC(=O)c3ccc(-c4c5nc(c(-c6c(F)cc(S(=O)(=O)[O-])cc6F)c6ccc([nH]6)c(-c6c(F)cc(S(=O)(=O)[O-])cc6F)c6nc(c(-c7c(F)cc(S(=O)(=O)[O-])cc7F)c7ccc4[nH]7)C=C6)C=C5)cc3)o2)cs1
REMARK SMILES IDX 20 1 19 2 18 3 17 4 16 5 14 6 15 7 13 8 10 9 11 10 94 11
REMARK SMILES IDX 12 12 8 13 9 14 6 15 7 16 5 18 4 19 1 20 2 21 3 22 96 23
REMARK SMILES IDX 95 24 21 25 22 26 23 27 24 28 25 29 26 30 27 31 28 32 29 33
REMARK SMILES IDX 93 34 30 35 92 36 31 37 32 38 33 39 86 40 34 41 91 42 85 43
REMARK SMILES IDX 87 44 35 45 90 46 84 47 83 48 36 50 70 51 49 52 69 53 50 54
REMARK SMILES IDX 53 55 68 56 88 57 51 58 52 59 67 61 89 62 54 63 37 64 38 65
REMARK SMILES IDX 47 66 39 67 40 68 46 69 48 70 41 71 42 72 43 73 44 74 45 75
REMARK SMILES IDX 71 76 72 77 81 78 73 79 74 80 80 81 82 82 75 83 76 84 77 85
REMARK SMILES IDX 78 86 79 87 55 88 56 89 65 90 57 91 58 92 64 93 66 94 59 95
REMARK SMILES IDX 60 96 61 97 62 98 63 99
REMARK H PARENT 6 17 87 49 53 60
REMARK Flexibility Score: inf
ROOT
ATOM      1  C   UNL A   1      41.224  24.529  27.859  1.00  0.00     0.188 C 
ENDROOT
BRANCH   1   2
ATOM      2  O   UNL A   1      39.813  24.694  27.961  1.00  0.00    -0.376 OA
BRANCH   2   3
ATOM      3  C   UNL A   1      38.972  24.468  26.845  1.00  0.00     0.202 C 
BRANCH   3   4
ATOM      4  C   UNL A   1      38.804  23.022  26.378  1.00  0.00     0.261 C 
BRANCH   4   5
ATOM      5  O   UNL A   1      37.907  22.859  25.272  1.00  0.00    -0.457 OA
BRANCH   5   6
ATOM      6  C   UNL A   1      37.419  21.594  25.099  1.00  0.00     0.374 C 
ATOM      7  O   UNL A   1      38.101  20.579  25.072  1.00  0.00    -0.242 OA
BRANCH   6   8
ATOM      8  C   UNL A   1      35.981  21.644  25.021  1.00  0.00     0.212 A 
ATOM      9  C   UNL A   1      34.051  22.159  24.072  1.00  0.00     0.162 A 
ATOM     10  C   UNL A   1      33.760  21.568  25.286  1.00  0.00     0.053 A 
ATOM     11  O   UNL A   1      35.408  22.243  23.931  1.00  0.00    -0.448 OA
ATOM     12  C   UNL A   1      34.989  21.173  25.859  1.00  0.00     0.059 A 
BRANCH   9  13
ATOM     13  C   UNL A   1      33.205  22.789  22.991  1.00  0.00     0.248 C 
ATOM     14  C   UNL A   1      31.886  22.040  22.743  1.00  0.00     0.084 C 
BRANCH  13  15
ATOM     15  N   UNL A   1      33.074  24.260  23.174  1.00  0.00    -0.324 N 
ATOM     16  C   UNL A   1      32.990  24.923  21.865  1.00  0.00     0.333 C 
ATOM     17  H   UNL A   1      33.918  24.507  23.691  1.00  0.00     0.348 HD
BRANCH  15  18
ATOM     18  C   UNL A   1      31.956  24.742  24.016  1.00  0.00     0.320 C 
BRANCH  18  19
ATOM     19  C   UNL A   1      32.261  25.980  24.818  1.00  0.00     0.106 A 
ATOM     20  C   UNL A   1      31.535  29.534  25.297  1.00  0.00     0.079 C 
ATOM     21  C   UNL A   1      31.999  28.122  25.358  1.00  0.00     0.090 A 
ATOM     22  N   UNL A   1      31.553  27.158  24.580  1.00  0.00    -0.241 NA
ATOM     23  S   UNL A   1      33.222  27.668  26.473  1.00  0.00    -0.127 S 
ATOM     24  C   UNL A   1      33.166  26.073  25.861  1.00  0.00     0.096 A 
ENDBRANCH  18  19
ENDBRANCH  15  18
ENDBRANCH  13  15
ENDBRANCH   9  13
ENDBRANCH   6   8
ENDBRANCH   5   6
ENDBRANCH   4   5
ENDBRANCH   3   4
ENDBRANCH   2   3
ENDBRANCH   1   2
BRANCH   1  25
ATOM     25  C   UNL A   1      41.911  23.234  28.332  1.00  0.00     0.188 C 
BRANCH  25  26
ATOM     26  O   UNL A   1      43.248  23.073  27.873  1.00  0.00    -0.376 OA
BRANCH  26  27
ATOM     27  C   UNL A   1      43.419  23.002  26.464  1.00  0.00     0.202 C 
BRANCH  27  28
ATOM     28  C   UNL A   1      44.505  23.950  25.945  1.00  0.00     0.261 C 
BRANCH  28  29
ATOM     29  O   UNL A   1      45.007  24.877  26.919  1.00  0.00    -0.460 OA
BRANCH  29  30
ATOM     30  C   UNL A   1      45.133  26.166  26.532  1.00  0.00     0.338 C 
ATOM     31  O   UNL A   1      45.518  26.575  25.452  1.00  0.00    -0.246 OA
BRANCH  30  32
ATOM     32  C   UNL A   1      44.566  27.016  27.597  1.00  0.00     0.060 A 
ATOM     33  C   UNL A   1      44.662  28.406  27.472  1.00  0.00     0.016 A 
ATOM     34  C   UNL A   1      43.940  26.442  28.707  1.00  0.00     0.016 A 
ATOM     35  C   UNL A   1      44.150  29.229  28.478  1.00  0.00     0.010 A 
ATOM     36  C   UNL A   1      43.440  27.266  29.716  1.00  0.00     0.010 A 
ATOM     37  C   UNL A   1      43.565  28.662  29.619  1.00  0.00    -0.014 A 
BRANCH  37  38
ATOM     38  C   UNL A   1      43.216  29.513  30.783  1.00  0.00     0.031 A 
ATOM     39  C   UNL A   1      41.923  30.281  30.754  1.00  0.00     0.074 A 
ATOM     40  C   UNL A   1      44.037  29.612  31.845  1.00  0.00     0.049 A 
ATOM     41  N   UNL A   1      41.430  31.110  31.638  1.00  0.00    -0.248 NA
ATOM     42  C   UNL A   1      41.074  30.088  29.568  1.00  0.00     0.031 C 
ATOM     43  C   UNL A   1      45.309  28.909  31.999  1.00  0.00     0.029 A 
ATOM     44  N   UNL A   1      43.921  30.359  32.990  1.00  0.00    -0.354 N 
ATOM     45  C   UNL A   1      40.214  31.535  31.118  1.00  0.00     0.074 A 
ATOM     46  C   UNL A   1      40.059  30.897  29.828  1.00  0.00     0.031 C 
ATOM     47  C   UNL A   1      45.866  29.273  33.168  1.00  0.00     0.029 A 
ATOM     48  C   UNL A   1      45.002  30.250  33.831  1.00  0.00     0.049 A 
ATOM     49  H   UNL A   1      43.138  30.921  33.190  1.00  0.00     0.167 HD
ATOM     50  C   UNL A   1      39.303  32.373  31.668  1.00  0.00     0.037 A 
ATOM     51  C   UNL A   1      45.272  30.879  34.993  1.00  0.00     0.037 A 
ATOM     52  C   UNL A   1      39.466  33.024  32.941  1.00  0.00     0.049 A 
ATOM     53  C   UNL A   1      44.273  31.857  35.558  1.00  0.00     0.074 A 
ATOM     54  C   UNL A   1      38.593  33.882  33.587  1.00  0.00     0.029 A 
ATOM     55  N   UNL A   1      40.580  32.898  33.757  1.00  0.00    -0.354 N 
ATOM     56  N   UNL A   1      43.109  32.221  35.075  1.00  0.00    -0.248 NA
ATOM     57  C   UNL A   1      44.622  32.507  36.830  1.00  0.00     0.031 C 
ATOM     58  C   UNL A   1      39.198  34.306  34.775  1.00  0.00     0.029 A 
ATOM     59  C   UNL A   1      40.427  33.678  34.891  1.00  0.00     0.049 A 
ATOM     60  H   UNL A   1      41.364  32.337  33.559  1.00  0.00     0.167 HD
ATOM     61  C   UNL A   1      42.578  33.121  35.994  1.00  0.00     0.074 A 
ATOM     62  C   UNL A   1      43.544  33.243  37.065  1.00  0.00     0.031 C 
ATOM     63  C   UNL A   1      41.396  33.785  35.954  1.00  0.00     0.037 A 
BRANCH  50  64
ATOM     64  C   UNL A   1      38.058  32.646  30.875  1.00  0.00     0.058 A 
ATOM     65  C   UNL A   1      38.031  33.620  29.864  1.00  0.00     0.135 A 
ATOM     66  C   UNL A   1      36.879  31.926  31.126  1.00  0.00     0.135 A 
ATOM     67  F   UNL A   1      39.126  34.350  29.599  1.00  0.00    -0.206 F 
ATOM     68  C   UNL A   1      36.869  33.894  29.151  1.00  0.00     0.059 A 
ATOM     69  C   UNL A   1      35.711  32.168  30.409  1.00  0.00     0.059 A 
ATOM     70  F   UNL A   1      36.852  30.987  32.084  1.00  0.00    -0.206 F 
ATOM     71  C   UNL A   1      35.712  33.167  29.435  1.00  0.00     0.060 A 
BRANCH  71  72
ATOM     72  S   UNL A   1      34.205  33.546  28.517  1.00  0.00     0.124 S 
ATOM     73  O   UNL A   1      33.391  34.184  29.549  1.00  0.00    -0.237 OA
ATOM     74  O   UNL A   1      34.693  34.428  27.461  1.00  0.00    -0.237 OA
ATOM     75  O   UNL A   1      33.740  32.237  28.071  1.00  0.00    -0.744 OA
ENDBRANCH  71  72
ENDBRANCH  50  64
BRANCH  51  76
ATOM     76  C   UNL A   1      46.550  30.609  35.701  1.00  0.00     0.058 A 
ATOM     77  C   UNL A   1      47.705  31.354  35.424  1.00  0.00     0.135 A 
ATOM     78  C   UNL A   1      46.641  29.601  36.673  1.00  0.00     0.135 A 
ATOM     79  F   UNL A   1      47.671  32.319  34.491  1.00  0.00    -0.206 F 
ATOM     80  C   UNL A   1      48.907  31.106  36.076  1.00  0.00     0.059 A 
ATOM     81  C   UNL A   1      47.827  29.347  37.356  1.00  0.00     0.059 A 
ATOM     82  F   UNL A   1      45.563  28.862  36.978  1.00  0.00    -0.206 F 
ATOM     83  C   UNL A   1      48.958  30.100  37.044  1.00  0.00     0.060 A 
BRANCH  83  84
ATOM     84  S   UNL A   1      50.511  29.817  37.922  1.00  0.00     0.124 S 
ATOM     85  O   UNL A   1      50.820  28.445  37.538  1.00  0.00    -0.237 OA
ATOM     86  O   UNL A   1      51.377  30.848  37.357  1.00  0.00    -0.237 OA
ATOM     87  O   UNL A   1      50.145  30.015  39.322  1.00  0.00    -0.744 OA
ENDBRANCH  83  84
ENDBRANCH  51  76
BRANCH  63  88
ATOM     88  C   UNL A   1      41.059  34.680  37.115  1.00  0.00     0.058 A 
ATOM     89  C   UNL A   1      41.386  36.045  37.114  1.00  0.00     0.135 A 
ATOM     90  C   UNL A   1      40.344  34.178  38.215  1.00  0.00     0.135 A 
ATOM     91  F   UNL A   1      42.072  36.574  36.088  1.00  0.00    -0.206 F 
ATOM     92  C   UNL A   1      41.031  36.878  38.171  1.00  0.00     0.059 A 
ATOM     93  C   UNL A   1      39.959  34.998  39.272  1.00  0.00     0.059 A 
ATOM     94  F   UNL A   1      39.997  32.882  38.261  1.00  0.00    -0.206 F 
ATOM     95  C   UNL A   1      40.317  36.345  39.246  1.00  0.00     0.060 A 
BRANCH  95  96
ATOM     96  S   UNL A   1      39.827  37.442  40.594  1.00  0.00     0.124 S 
ATOM     97  O   UNL A   1      38.437  37.052  40.799  1.00  0.00    -0.237 OA
ATOM     98  O   UNL A   1      40.755  37.069  41.657  1.00  0.00    -0.237 OA
ATOM     99  O   UNL A   1      40.029  38.776  40.037  1.00  0.00    -0.744 OA
ENDBRANCH  95  96
ENDBRANCH  63  88
ENDBRANCH  37  38
ENDBRANCH  30  32
ENDBRANCH  29  30
ENDBRANCH  28  29
ENDBRANCH  27  28
ENDBRANCH  26  27
ENDBRANCH  25  26
ENDBRANCH   1  25
TORSDOF 24
ENDMDL
