MODEL 1
REMARK VINA RESULT:     -11.6      0.000      0.000
REMARK SMILES COC(=O)c1ccc(C)c2c1[C@H]1C=CC[C@H]1[C@@H](c1ccc(C(=O)OCCOCCOCCOC(=O)c3ccc(-c4c5nc(c(-c6c(F)cc(S(=O)(=O)[O-])cc6F)c6ccc([nH]6)c(-c6c(F)cc(S(=O)(=O)[O-])cc6F)c6nc(c(-c7c(F)cc(S(=O)(=O)[O-])cc7F)c7ccc4[nH]7)C=C6)C=C5)cc3)cc1)N2
REMARK SMILES IDX 28 1 27 2 26 3 25 4 24 5 22 6 23 7 21 8 18 9 19 10 103 11
REMARK SMILES IDX 20 12 102 13 17 14 5 15 6 16 11 17 7 18 10 19 12 20 8 21
REMARK SMILES IDX 104 22 13 23 16 24 9 25 14 27 15 28 3 29 4 30 2 31 1 32
REMARK SMILES IDX 29 33 30 34 31 35 32 36 33 37 34 38 35 39 36 40 37 41 101 42
REMARK SMILES IDX 38 43 100 44 39 45 40 46 41 47 94 48 42 49 99 50 93 51 95 52
REMARK SMILES IDX 43 53 98 54 92 55 91 56 44 58 78 59 57 60 77 61 58 62 61 63
REMARK SMILES IDX 76 64 96 65 59 66 60 67 75 69 97 70 62 71 45 72 46 73 55 74
REMARK SMILES IDX 47 75 48 76 54 77 56 78 49 79 50 80 51 81 52 82 53 83 79 84
REMARK SMILES IDX 80 85 89 86 81 87 82 88 88 89 90 90 83 91 84 92 85 93 86 94
REMARK SMILES IDX 87 95 63 96 64 97 73 98 65 99 66 100 72 101 74 102 67 103
REMARK SMILES IDX 68 104 69 105 70 106 71 107
REMARK H PARENT 104 26 95 57 61 68
REMARK Flexibility Score: inf
ROOT
ATOM      1  C   UNL A   1      41.534  20.211  27.435  1.00  0.00     0.188 C 
ENDROOT
BRANCH   1   2
ATOM      2  O   UNL A   1      40.385  21.021  27.388  1.00  0.00    -0.376 OA
BRANCH   2   3
ATOM      3  C   UNL A   1      39.728  21.252  26.155  1.00  0.00     0.202 C 
BRANCH   3   4
ATOM      4  C   UNL A   1      38.686  22.359  25.886  1.00  0.00     0.261 C 
BRANCH   4   5
ATOM      5  O   UNL A   1      37.341  21.965  25.607  1.00  0.00    -0.460 OA
BRANCH   5   6
ATOM      6  C   UNL A   1      36.717  22.654  24.618  1.00  0.00     0.338 C 
ATOM      7  O   UNL A   1      36.979  22.626  23.428  1.00  0.00    -0.246 OA
BRANCH   6   8
ATOM      8  C   UNL A   1      35.512  23.309  25.168  1.00  0.00     0.060 A 
ATOM      9  C   UNL A   1      33.182  24.450  26.295  1.00  0.00    -0.025 A 
ATOM     10  C   UNL A   1      33.562  23.125  26.578  1.00  0.00     0.007 A 
ATOM     11  C   UNL A   1      34.037  25.206  25.470  1.00  0.00     0.007 A 
ATOM     12  C   UNL A   1      34.697  22.550  26.007  1.00  0.00     0.016 A 
ATOM     13  C   UNL A   1      35.200  24.647  24.918  1.00  0.00     0.016 A 
BRANCH   9  14
ATOM     14  C   UNL A   1      31.858  25.053  26.786  1.00  0.00     0.114 C 
ATOM     15  C   UNL A   1      31.229  28.123  23.894  1.00  0.00     0.065 A 
ATOM     16  C   UNL A   1      31.958  29.309  24.015  1.00  0.00     0.016 A 
ATOM     17  C   UNL A   1      31.241  27.156  24.925  1.00  0.00    -0.003 A 
ATOM     18  C   UNL A   1      32.677  29.563  25.174  1.00  0.00     0.006 A 
ATOM     19  C   UNL A   1      31.966  27.427  26.114  1.00  0.00     0.042 A 
ATOM     20  C   UNL A   1      30.496  25.845  24.764  1.00  0.00     0.050 C 
ATOM     21  C   UNL A   1      32.679  28.644  26.236  1.00  0.00    -0.028 A 
ATOM     22  N   UNL A   1      32.040  26.461  27.114  1.00  0.00    -0.377 N 
ATOM     23  C   UNL A   1      30.971  24.924  23.664  1.00  0.00    -0.023 C 
ATOM     24  C   UNL A   1      30.559  24.900  25.977  1.00  0.00     0.031 C 
ATOM     25  C   UNL A   1      33.518  29.019  27.430  1.00  0.00     0.046 C 
ATOM     26  H   UNL A   1      32.216  26.731  28.045  1.00  0.00     0.161 HD
ATOM     27  C   UNL A   1      30.861  23.635  24.013  1.00  0.00    -0.030 C 
ATOM     28  C   UNL A   1      30.334  23.497  25.402  1.00  0.00     0.034 C 
BRANCH  15  29
ATOM     29  C   UNL A   1      30.426  27.938  22.665  1.00  0.00     0.338 C 
ATOM     30  O   UNL A   1      30.802  27.320  21.682  1.00  0.00    -0.246 OA
BRANCH  29  31
ATOM     31  O   UNL A   1      29.259  28.602  22.816  1.00  0.00    -0.465 OA
ATOM     32  C   UNL A   1      29.049  29.637  21.856  1.00  0.00     0.282 C 
ENDBRANCH  29  31
ENDBRANCH  15  29
ENDBRANCH   9  14
ENDBRANCH   6   8
ENDBRANCH   5   6
ENDBRANCH   4   5
ENDBRANCH   3   4
ENDBRANCH   2   3
ENDBRANCH   1   2
BRANCH   1  33
ATOM     33  C   UNL A   1      42.307  20.125  26.099  1.00  0.00     0.188 C 
BRANCH  33  34
ATOM     34  O   UNL A   1      43.447  20.944  25.882  1.00  0.00    -0.376 OA
BRANCH  34  35
ATOM     35  C   UNL A   1      43.265  22.265  25.389  1.00  0.00     0.202 C 
BRANCH  35  36
ATOM     36  C   UNL A   1      43.092  23.470  26.333  1.00  0.00     0.261 C 
BRANCH  36  37
ATOM     37  O   UNL A   1      41.816  24.124  26.309  1.00  0.00    -0.460 OA
BRANCH  37  38
ATOM     38  C   UNL A   1      41.847  25.458  26.061  1.00  0.00     0.338 C 
ATOM     39  O   UNL A   1      41.836  26.010  24.976  1.00  0.00    -0.246 OA
BRANCH  38  40
ATOM     40  C   UNL A   1      41.751  26.184  27.340  1.00  0.00     0.060 A 
ATOM     41  C   UNL A   1      40.656  25.949  28.182  1.00  0.00     0.016 A 
ATOM     42  C   UNL A   1      42.714  27.137  27.671  1.00  0.00     0.016 A 
ATOM     43  C   UNL A   1      40.520  26.670  29.366  1.00  0.00     0.010 A 
ATOM     44  C   UNL A   1      42.559  27.883  28.841  1.00  0.00     0.010 A 
ATOM     45  C   UNL A   1      41.449  27.670  29.677  1.00  0.00    -0.014 A 
BRANCH  45  46
ATOM     46  C   UNL A   1      41.146  28.628  30.764  1.00  0.00     0.031 A 
ATOM     47  C   UNL A   1      41.962  28.554  32.021  1.00  0.00     0.074 A 
ATOM     48  C   UNL A   1      40.201  29.572  30.618  1.00  0.00     0.049 A 
ATOM     49  N   UNL A   1      41.906  29.308  33.088  1.00  0.00    -0.248 NA
ATOM     50  C   UNL A   1      43.010  27.520  32.067  1.00  0.00     0.031 C 
ATOM     51  C   UNL A   1      39.383  29.771  29.424  1.00  0.00     0.029 A 
ATOM     52  N   UNL A   1      39.766  30.536  31.493  1.00  0.00    -0.354 N 
ATOM     53  C   UNL A   1      42.933  28.867  33.913  1.00  0.00     0.074 A 
ATOM     54  C   UNL A   1      43.561  27.745  33.249  1.00  0.00     0.031 C 
ATOM     55  C   UNL A   1      38.522  30.779  29.653  1.00  0.00     0.029 A 
ATOM     56  C   UNL A   1      38.715  31.279  31.014  1.00  0.00     0.049 A 
ATOM     57  H   UNL A   1      40.170  30.681  32.379  1.00  0.00     0.167 HD
ATOM     58  C   UNL A   1      43.335  29.376  35.100  1.00  0.00     0.037 A 
ATOM     59  C   UNL A   1      37.979  32.236  31.615  1.00  0.00     0.037 A 
ATOM     60  C   UNL A   1      42.684  30.469  35.770  1.00  0.00     0.049 A 
ATOM     61  C   UNL A   1      38.329  32.666  33.016  1.00  0.00     0.074 A 
ATOM     62  C   UNL A   1      43.006  31.045  36.986  1.00  0.00     0.029 A 
ATOM     63  N   UNL A   1      41.559  31.131  35.299  1.00  0.00    -0.354 N 
ATOM     64  N   UNL A   1      39.317  32.261  33.780  1.00  0.00    -0.248 NA
ATOM     65  C   UNL A   1      37.469  33.684  33.636  1.00  0.00     0.031 C 
ATOM     66  C   UNL A   1      42.036  32.007  37.281  1.00  0.00     0.029 A 
ATOM     67  C   UNL A   1      41.147  32.080  36.220  1.00  0.00     0.049 A 
ATOM     68  H   UNL A   1      41.120  30.955  34.436  1.00  0.00     0.167 HD
ATOM     69  C   UNL A   1      39.211  32.990  34.961  1.00  0.00     0.074 A 
ATOM     70  C   UNL A   1      38.068  33.866  34.807  1.00  0.00     0.031 C 
ATOM     71  C   UNL A   1      39.996  32.939  36.067  1.00  0.00     0.037 A 
BRANCH  58  72
ATOM     72  C   UNL A   1      44.516  28.723  35.760  1.00  0.00     0.058 A 
ATOM     73  C   UNL A   1      44.361  27.660  36.666  1.00  0.00     0.135 A 
ATOM     74  C   UNL A   1      45.818  29.166  35.484  1.00  0.00     0.135 A 
ATOM     75  F   UNL A   1      43.133  27.214  36.979  1.00  0.00    -0.206 F 
ATOM     76  C   UNL A   1      45.455  27.081  37.301  1.00  0.00     0.059 A 
ATOM     77  C   UNL A   1      46.929  28.584  36.086  1.00  0.00     0.059 A 
ATOM     78  F   UNL A   1      46.020  30.180  34.631  1.00  0.00    -0.206 F 
ATOM     79  C   UNL A   1      46.736  27.553  37.007  1.00  0.00     0.060 A 
BRANCH  79  80
ATOM     80  S   UNL A   1      48.144  26.815  37.860  1.00  0.00     0.124 S 
ATOM     81  O   UNL A   1      49.174  26.873  36.826  1.00  0.00    -0.237 OA
ATOM     82  O   UNL A   1      48.329  27.718  38.991  1.00  0.00    -0.237 OA
ATOM     83  O   UNL A   1      47.674  25.476  38.199  1.00  0.00    -0.744 OA
ENDBRANCH  79  80
ENDBRANCH  58  72
BRANCH  59  84
ATOM     84  C   UNL A   1      36.835  32.840  30.881  1.00  0.00     0.058 A 
ATOM     85  C   UNL A   1      35.513  32.482  31.177  1.00  0.00     0.135 A 
ATOM     86  C   UNL A   1      37.043  33.832  29.910  1.00  0.00     0.135 A 
ATOM     87  F   UNL A   1      35.263  31.525  32.083  1.00  0.00    -0.206 F 
ATOM     88  C   UNL A   1      34.434  33.102  30.553  1.00  0.00     0.059 A 
ATOM     89  C   UNL A   1      35.981  34.482  29.289  1.00  0.00     0.059 A 
ATOM     90  F   UNL A   1      38.291  34.209  29.589  1.00  0.00    -0.206 F 
ATOM     91  C   UNL A   1      34.680  34.114  29.623  1.00  0.00     0.060 A 
BRANCH  91  92
ATOM     92  S   UNL A   1      33.269  34.985  28.904  1.00  0.00     0.124 S 
ATOM     93  O   UNL A   1      32.434  35.216  30.076  1.00  0.00    -0.237 OA
ATOM     94  O   UNL A   1      33.906  36.167  28.331  1.00  0.00    -0.237 OA
ATOM     95  O   UNL A   1      32.742  34.032  27.931  1.00  0.00    -0.744 OA
ENDBRANCH  91  92
ENDBRANCH  59  84
BRANCH  71  96
ATOM     96  C   UNL A   1      39.661  33.859  37.213  1.00  0.00     0.058 A 
ATOM     97  C   UNL A   1      38.966  33.404  38.342  1.00  0.00     0.135 A 
ATOM     98  C   UNL A   1      40.121  35.188  37.219  1.00  0.00     0.135 A 
ATOM     99  F   UNL A   1      38.499  32.147  38.388  1.00  0.00    -0.206 F 
ATOM    100  C   UNL A   1      38.727  34.235  39.434  1.00  0.00     0.059 A 
ATOM    101  C   UNL A   1      39.922  36.027  38.312  1.00  0.00     0.059 A 
ATOM    102  F   UNL A   1      40.802  35.673  36.169  1.00  0.00    -0.206 F 
ATOM    103  C   UNL A   1      39.216  35.543  39.412  1.00  0.00     0.060 A 
BRANCH 103 104
ATOM    104  S   UNL A   1      38.939  36.591  40.856  1.00  0.00     0.124 S 
ATOM    105  O   UNL A   1      37.872  35.871  41.542  1.00  0.00    -0.237 OA
ATOM    106  O   UNL A   1      40.243  36.568  41.511  1.00  0.00    -0.237 OA
ATOM    107  O   UNL A   1      38.557  37.876  40.277  1.00  0.00    -0.744 OA
ENDBRANCH 103 104
ENDBRANCH  71  96
ENDBRANCH  45  46
ENDBRANCH  38  40
ENDBRANCH  37  38
ENDBRANCH  36  37
ENDBRANCH  35  36
ENDBRANCH  34  35
ENDBRANCH  33  34
ENDBRANCH   1  33
TORSDOF 23
ENDMDL
MODEL 2
REMARK VINA RESULT:     -11.3      0.535      7.823
REMARK SMILES COC(=O)c1ccc(C)c2c1[C@H]1C=CC[C@H]1[C@@H](c1ccc(C(=O)OCCOCCOCCOC(=O)c3ccc(-c4c5nc(c(-c6c(F)cc(S(=O)(=O)[O-])cc6F)c6ccc([nH]6)c(-c6c(F)cc(S(=O)(=O)[O-])cc6F)c6nc(c(-c7c(F)cc(S(=O)(=O)[O-])cc7F)c7ccc4[nH]7)C=C6)C=C5)cc3)cc1)N2
REMARK SMILES IDX 28 1 27 2 26 3 25 4 24 5 22 6 23 7 21 8 18 9 19 10 103 11
REMARK SMILES IDX 20 12 102 13 17 14 5 15 6 16 11 17 7 18 10 19 12 20 8 21
REMARK SMILES IDX 104 22 13 23 16 24 9 25 14 27 15 28 3 29 4 30 2 31 1 32
REMARK SMILES IDX 29 33 30 34 31 35 32 36 33 37 34 38 35 39 36 40 37 41 101 42
REMARK SMILES IDX 38 43 100 44 39 45 40 46 41 47 94 48 42 49 99 50 93 51 95 52
REMARK SMILES IDX 43 53 98 54 92 55 91 56 44 58 78 59 57 60 77 61 58 62 61 63
REMARK SMILES IDX 76 64 96 65 59 66 60 67 75 69 97 70 62 71 45 72 46 73 55 74
REMARK SMILES IDX 47 75 48 76 54 77 56 78 49 79 50 80 51 81 52 82 53 83 79 84
REMARK SMILES IDX 80 85 89 86 81 87 82 88 88 89 90 90 83 91 84 92 85 93 86 94
REMARK SMILES IDX 87 95 63 96 64 97 73 98 65 99 66 100 72 101 74 102 67 103
REMARK SMILES IDX 68 104 69 105 70 106 71 107
REMARK H PARENT 104 26 95 57 61 68
REMARK Flexibility Score: inf
ROOT
ATOM      1  C   UNL A   1      41.177  20.725  27.574  1.00  0.00     0.188 C 
ENDROOT
BRANCH   1   2
ATOM      2  O   UNL A   1      40.051  21.542  27.360  1.00  0.00    -0.376 OA
BRANCH   2   3
ATOM      3  C   UNL A   1      39.404  21.545  26.101  1.00  0.00     0.202 C 
BRANCH   3   4
ATOM      4  C   UNL A   1      38.170  22.395  25.728  1.00  0.00     0.261 C 
BRANCH   4   5
ATOM      5  O   UNL A   1      37.231  21.848  24.799  1.00  0.00    -0.460 OA
BRANCH   5   6
ATOM      6  C   UNL A   1      36.623  22.742  23.979  1.00  0.00     0.338 C 
ATOM      7  O   UNL A   1      36.869  22.940  22.802  1.00  0.00    -0.246 OA
BRANCH   6   8
ATOM      8  C   UNL A   1      35.452  23.319  24.671  1.00  0.00     0.060 A 
ATOM      9  C   UNL A   1      33.183  24.299  26.046  1.00  0.00    -0.025 A 
ATOM     10  C   UNL A   1      33.503  22.929  26.039  1.00  0.00     0.007 A 
ATOM     11  C   UNL A   1      34.068  25.174  25.386  1.00  0.00     0.007 A 
ATOM     12  C   UNL A   1      34.607  22.438  25.343  1.00  0.00     0.016 A 
ATOM     13  C   UNL A   1      35.201  24.692  24.712  1.00  0.00     0.016 A 
BRANCH   9  14
ATOM     14  C   UNL A   1      31.891  24.843  26.672  1.00  0.00     0.114 C 
ATOM     15  C   UNL A   1      31.010  28.090  24.050  1.00  0.00     0.065 A 
ATOM     16  C   UNL A   1      31.730  29.278  24.199  1.00  0.00     0.016 A 
ATOM     17  C   UNL A   1      31.110  27.055  25.009  1.00  0.00    -0.003 A 
ATOM     18  C   UNL A   1      32.529  29.466  25.318  1.00  0.00     0.006 A 
ATOM     19  C   UNL A   1      31.917  27.259  26.159  1.00  0.00     0.042 A 
ATOM     20  C   UNL A   1      30.374  25.745  24.812  1.00  0.00     0.050 C 
ATOM     21  C   UNL A   1      32.621  28.478  26.312  1.00  0.00    -0.028 A 
ATOM     22  N   UNL A   1      32.077  26.229  27.081  1.00  0.00    -0.377 N 
ATOM     23  C   UNL A   1      30.779  24.910  23.620  1.00  0.00    -0.023 C 
ATOM     24  C   UNL A   1      30.538  24.722  25.950  1.00  0.00     0.031 C 
ATOM     25  C   UNL A   1      33.540  28.787  27.465  1.00  0.00     0.046 C 
ATOM     26  H   UNL A   1      32.317  26.438  28.014  1.00  0.00     0.161 HD
ATOM     27  C   UNL A   1      30.712  23.598  23.887  1.00  0.00    -0.030 C 
ATOM     28  C   UNL A   1      30.290  23.356  25.298  1.00  0.00     0.034 C 
BRANCH  15  29
ATOM     29  C   UNL A   1      30.121  27.973  22.873  1.00  0.00     0.338 C 
ATOM     30  O   UNL A   1      30.498  27.666  21.753  1.00  0.00    -0.246 OA
BRANCH  29  31
ATOM     31  O   UNL A   1      28.869  28.310  23.251  1.00  0.00    -0.465 OA
ATOM     32  C   UNL A   1      28.295  29.372  22.490  1.00  0.00     0.282 C 
ENDBRANCH  29  31
ENDBRANCH  15  29
ENDBRANCH   9  14
ENDBRANCH   6   8
ENDBRANCH   5   6
ENDBRANCH   4   5
ENDBRANCH   3   4
ENDBRANCH   2   3
ENDBRANCH   1   2
BRANCH   1  33
ATOM     33  C   UNL A   1      41.818  20.175  26.279  1.00  0.00     0.188 C 
BRANCH  33  34
ATOM     34  O   UNL A   1      43.070  20.679  25.834  1.00  0.00    -0.376 OA
BRANCH  34  35
ATOM     35  C   UNL A   1      43.142  22.012  25.343  1.00  0.00     0.202 C 
BRANCH  35  36
ATOM     36  C   UNL A   1      43.381  23.213  26.278  1.00  0.00     0.261 C 
BRANCH  36  37
ATOM     37  O   UNL A   1      42.233  24.009  26.604  1.00  0.00    -0.460 OA
BRANCH  37  38
ATOM     38  C   UNL A   1      42.224  25.262  26.085  1.00  0.00     0.338 C 
ATOM     39  O   UNL A   1      42.397  25.584  24.924  1.00  0.00    -0.246 OA
BRANCH  38  40
ATOM     40  C   UNL A   1      41.822  26.212  27.138  1.00  0.00     0.060 A 
ATOM     41  C   UNL A   1      42.466  27.454  27.222  1.00  0.00     0.016 A 
ATOM     42  C   UNL A   1      40.855  25.845  28.072  1.00  0.00     0.016 A 
ATOM     43  C   UNL A   1      42.140  28.339  28.247  1.00  0.00     0.010 A 
ATOM     44  C   UNL A   1      40.553  26.719  29.119  1.00  0.00     0.010 A 
ATOM     45  C   UNL A   1      41.213  27.955  29.224  1.00  0.00    -0.014 A 
BRANCH  45  46
ATOM     46  C   UNL A   1      41.090  28.758  30.461  1.00  0.00     0.031 A 
ATOM     47  C   UNL A   1      40.067  29.856  30.496  1.00  0.00     0.074 A 
ATOM     48  C   UNL A   1      41.834  28.485  31.546  1.00  0.00     0.049 A 
ATOM     49  N   UNL A   1      39.752  30.661  31.475  1.00  0.00    -0.248 NA
ATOM     50  C   UNL A   1      39.261  30.043  29.276  1.00  0.00     0.031 C 
ATOM     51  C   UNL A   1      42.821  27.413  31.646  1.00  0.00     0.029 A 
ATOM     52  N   UNL A   1      41.880  29.104  32.771  1.00  0.00    -0.354 N 
ATOM     53  C   UNL A   1      38.689  31.423  31.008  1.00  0.00     0.074 A 
ATOM     54  C   UNL A   1      38.447  31.023  29.639  1.00  0.00     0.031 C 
ATOM     55  C   UNL A   1      43.397  27.465  32.859  1.00  0.00     0.029 A 
ATOM     56  C   UNL A   1      42.835  28.587  33.612  1.00  0.00     0.049 A 
ATOM     57  H   UNL A   1      41.284  29.845  33.022  1.00  0.00     0.167 HD
ATOM     58  C   UNL A   1      37.960  32.348  31.674  1.00  0.00     0.037 A 
ATOM     59  C   UNL A   1      43.226  28.990  34.838  1.00  0.00     0.037 A 
ATOM     60  C   UNL A   1      38.228  32.765  33.023  1.00  0.00     0.049 A 
ATOM     61  C   UNL A   1      42.519  30.147  35.495  1.00  0.00     0.074 A 
ATOM     62  C   UNL A   1      37.556  33.710  33.779  1.00  0.00     0.029 A 
ATOM     63  N   UNL A   1      39.268  32.290  33.809  1.00  0.00    -0.354 N 
ATOM     64  N   UNL A   1      41.498  30.846  35.056  1.00  0.00    -0.248 NA
ATOM     65  C   UNL A   1      43.012  30.569  36.814  1.00  0.00     0.031 C 
ATOM     66  C   UNL A   1      38.232  33.855  34.994  1.00  0.00     0.029 A 
ATOM     67  C   UNL A   1      39.285  32.953  35.026  1.00  0.00     0.049 A 
ATOM     68  H   UNL A   1      39.900  31.584  33.543  1.00  0.00     0.167 HD
ATOM     69  C   UNL A   1      41.213  31.775  36.053  1.00  0.00     0.074 A 
ATOM     70  C   UNL A   1      42.164  31.543  37.121  1.00  0.00     0.031 C 
ATOM     71  C   UNL A   1      40.246  32.727  36.080  1.00  0.00     0.037 A 
BRANCH  58  72
ATOM     72  C   UNL A   1      36.826  32.992  30.929  1.00  0.00     0.058 A 
ATOM     73  C   UNL A   1      37.040  34.047  30.027  1.00  0.00     0.135 A 
ATOM     74  C   UNL A   1      35.508  32.549  31.120  1.00  0.00     0.135 A 
ATOM     75  F   UNL A   1      38.281  34.521  29.825  1.00  0.00    -0.206 F 
ATOM     76  C   UNL A   1      35.983  34.663  29.365  1.00  0.00     0.059 A 
ATOM     77  C   UNL A   1      34.438  33.132  30.449  1.00  0.00     0.059 A 
ATOM     78  F   UNL A   1      35.250  31.548  31.974  1.00  0.00    -0.206 F 
ATOM     79  C   UNL A   1      34.684  34.200  29.586  1.00  0.00     0.060 A 
BRANCH  79  80
ATOM     80  S   UNL A   1      33.318  35.027  28.746  1.00  0.00     0.124 S 
ATOM     81  O   UNL A   1      32.553  35.548  29.876  1.00  0.00    -0.237 OA
ATOM     82  O   UNL A   1      34.011  36.023  27.935  1.00  0.00    -0.237 OA
ATOM     83  O   UNL A   1      32.674  33.951  27.999  1.00  0.00    -0.744 OA
ENDBRANCH  79  80
ENDBRANCH  58  72
BRANCH  59  84
ATOM     84  C   UNL A   1      44.349  28.285  35.510  1.00  0.00     0.058 A 
ATOM     85  C   UNL A   1      45.667  28.749  35.398  1.00  0.00     0.135 A 
ATOM     86  C   UNL A   1      44.116  27.167  36.327  1.00  0.00     0.135 A 
ATOM     87  F   UNL A   1      45.945  29.801  34.615  1.00  0.00    -0.206 F 
ATOM     88  C   UNL A   1      46.712  28.143  36.091  1.00  0.00     0.059 A 
ATOM     89  C   UNL A   1      45.139  26.558  37.045  1.00  0.00     0.059 A 
ATOM     90  F   UNL A   1      42.871  26.683  36.465  1.00  0.00    -0.206 F 
ATOM     91  C   UNL A   1      46.434  27.059  36.926  1.00  0.00     0.060 A 
BRANCH  91  92
ATOM     92  S   UNL A   1      47.782  26.355  37.902  1.00  0.00     0.124 S 
ATOM     93  O   UNL A   1      47.206  26.345  39.240  1.00  0.00    -0.237 OA
ATOM     94  O   UNL A   1      47.958  25.050  37.273  1.00  0.00    -0.237 OA
ATOM     95  O   UNL A   1      48.879  27.296  37.693  1.00  0.00    -0.744 OA
ENDBRANCH  91  92
ENDBRANCH  59  84
BRANCH  71  96
ATOM     96  C   UNL A   1      40.149  33.600  37.304  1.00  0.00     0.058 A 
ATOM     97  C   UNL A   1      40.950  34.741  37.460  1.00  0.00     0.135 A 
ATOM     98  C   UNL A   1      39.180  33.343  38.290  1.00  0.00     0.135 A 
ATOM     99  F   UNL A   1      41.895  35.033  36.553  1.00  0.00    -0.206 F 
ATOM    100  C   UNL A   1      40.804  35.590  38.553  1.00  0.00     0.059 A 
ATOM    101  C   UNL A   1      38.994  34.194  39.375  1.00  0.00     0.059 A 
ATOM    102  F   UNL A   1      38.378  32.271  38.186  1.00  0.00    -0.206 F 
ATOM    103  C   UNL A   1      39.817  35.312  39.502  1.00  0.00     0.060 A 
BRANCH 103 104
ATOM    104  S   UNL A   1      39.609  36.450  40.888  1.00  0.00     0.124 S 
ATOM    105  O   UNL A   1      39.315  35.532  41.983  1.00  0.00    -0.237 OA
ATOM    106  O   UNL A   1      40.910  37.109  40.946  1.00  0.00    -0.237 OA
ATOM    107  O   UNL A   1      38.500  37.301  40.468  1.00  0.00    -0.744 OA
ENDBRANCH 103 104
ENDBRANCH  71  96
ENDBRANCH  45  46
ENDBRANCH  38  40
ENDBRANCH  37  38
ENDBRANCH  36  37
ENDBRANCH  35  36
ENDBRANCH  34  35
ENDBRANCH  33  34
ENDBRANCH   1  33
TORSDOF 23
ENDMDL
MODEL 3
REMARK VINA RESULT:     -10.4      6.032     11.752
REMARK SMILES COC(=O)c1ccc(C)c2c1[C@H]1C=CC[C@H]1[C@@H](c1ccc(C(=O)OCCOCCOCCOC(=O)c3ccc(-c4c5nc(c(-c6c(F)cc(S(=O)(=O)[O-])cc6F)c6ccc([nH]6)c(-c6c(F)cc(S(=O)(=O)[O-])cc6F)c6nc(c(-c7c(F)cc(S(=O)(=O)[O-])cc7F)c7ccc4[nH]7)C=C6)C=C5)cc3)cc1)N2
REMARK SMILES IDX 28 1 27 2 26 3 25 4 24 5 22 6 23 7 21 8 18 9 19 10 103 11
REMARK SMILES IDX 20 12 102 13 17 14 5 15 6 16 11 17 7 18 10 19 12 20 8 21
REMARK SMILES IDX 104 22 13 23 16 24 9 25 14 27 15 28 3 29 4 30 2 31 1 32
REMARK SMILES IDX 29 33 30 34 31 35 32 36 33 37 34 38 35 39 36 40 37 41 101 42
REMARK SMILES IDX 38 43 100 44 39 45 40 46 41 47 94 48 42 49 99 50 93 51 95 52
REMARK SMILES IDX 43 53 98 54 92 55 91 56 44 58 78 59 57 60 77 61 58 62 61 63
REMARK SMILES IDX 76 64 96 65 59 66 60 67 75 69 97 70 62 71 45 72 46 73 55 74
REMARK SMILES IDX 47 75 48 76 54 77 56 78 49 79 50 80 51 81 52 82 53 83 79 84
REMARK SMILES IDX 80 85 89 86 81 87 82 88 88 89 90 90 83 91 84 92 85 93 86 94
REMARK SMILES IDX 87 95 63 96 64 97 73 98 65 99 66 100 72 101 74 102 67 103
REMARK SMILES IDX 68 104 69 105 70 106 71 107
REMARK H PARENT 104 26 95 57 61 68
REMARK Flexibility Score: inf
ROOT
ATOM      1  C   UNL A   1      36.875  34.238  29.688  1.00  0.00     0.188 C 
ENDROOT
BRANCH   1   2
ATOM      2  O   UNL A   1      36.598  33.058  28.973  1.00  0.00    -0.376 OA
BRANCH   2   3
ATOM      3  C   UNL A   1      35.309  32.475  29.035  1.00  0.00     0.202 C 
BRANCH   3   4
ATOM      4  C   UNL A   1      34.458  32.046  27.820  1.00  0.00     0.261 C 
BRANCH   4   5
ATOM      5  O   UNL A   1      34.123  30.663  27.688  1.00  0.00    -0.460 OA
BRANCH   5   6
ATOM      6  C   UNL A   1      32.986  30.396  26.996  1.00  0.00     0.338 C 
ATOM      7  O   UNL A   1      31.988  31.091  26.932  1.00  0.00    -0.246 OA
BRANCH   6   8
ATOM      8  C   UNL A   1      33.204  29.209  26.143  1.00  0.00     0.060 A 
ATOM      9  C   UNL A   1      33.610  27.018  24.400  1.00  0.00    -0.025 A 
ATOM     10  C   UNL A   1      33.309  28.302  23.909  1.00  0.00     0.007 A 
ATOM     11  C   UNL A   1      33.756  26.876  25.794  1.00  0.00     0.007 A 
ATOM     12  C   UNL A   1      33.085  29.380  24.765  1.00  0.00     0.016 A 
ATOM     13  C   UNL A   1      33.566  27.964  26.661  1.00  0.00     0.016 A 
BRANCH   9  14
ATOM     14  C   UNL A   1      33.707  25.786  23.489  1.00  0.00     0.114 C 
ATOM     15  C   UNL A   1      32.563  22.681  26.179  1.00  0.00     0.065 A 
ATOM     16  C   UNL A   1      33.504  22.224  27.106  1.00  0.00     0.016 A 
ATOM     17  C   UNL A   1      32.938  23.558  25.135  1.00  0.00    -0.003 A 
ATOM     18  C   UNL A   1      34.833  22.605  26.985  1.00  0.00     0.006 A 
ATOM     19  C   UNL A   1      34.301  23.931  25.008  1.00  0.00     0.042 A 
ATOM     20  C   UNL A   1      31.903  24.097  24.169  1.00  0.00     0.050 C 
ATOM     21  C   UNL A   1      35.251  23.441  25.937  1.00  0.00    -0.028 A 
ATOM     22  N   UNL A   1      34.679  24.842  24.025  1.00  0.00    -0.377 N 
ATOM     23  C   UNL A   1      30.825  24.981  24.751  1.00  0.00    -0.023 C 
ATOM     24  C   UNL A   1      32.452  25.008  23.057  1.00  0.00     0.031 C 
ATOM     25  C   UNL A   1      36.713  23.805  25.927  1.00  0.00     0.046 C 
ATOM     26  H   UNL A   1      35.606  24.847  23.691  1.00  0.00     0.161 HD
ATOM     27  C   UNL A   1      30.467  25.954  23.902  1.00  0.00    -0.030 C 
ATOM     28  C   UNL A   1      31.270  25.894  22.645  1.00  0.00     0.034 C 
BRANCH  15  29
ATOM     29  C   UNL A   1      31.175  22.188  26.317  1.00  0.00     0.338 C 
ATOM     30  O   UNL A   1      30.622  21.453  25.515  1.00  0.00    -0.246 OA
BRANCH  29  31
ATOM     31  O   UNL A   1      30.641  22.729  27.434  1.00  0.00    -0.465 OA
ATOM     32  C   UNL A   1      29.307  23.211  27.268  1.00  0.00     0.282 C 
ENDBRANCH  29  31
ENDBRANCH  15  29
ENDBRANCH   9  14
ENDBRANCH   6   8
ENDBRANCH   5   6
ENDBRANCH   4   5
ENDBRANCH   3   4
ENDBRANCH   2   3
ENDBRANCH   1   2
BRANCH   1  33
ATOM     33  C   UNL A   1      38.306  34.307  30.270  1.00  0.00     0.188 C 
BRANCH  33  34
ATOM     34  O   UNL A   1      38.507  34.702  31.620  1.00  0.00    -0.376 OA
BRANCH  34  35
ATOM     35  C   UNL A   1      39.068  33.770  32.536  1.00  0.00     0.202 C 
BRANCH  35  36
ATOM     36  C   UNL A   1      38.310  32.502  32.975  1.00  0.00     0.261 C 
BRANCH  36  37
ATOM     37  O   UNL A   1      37.425  31.918  32.008  1.00  0.00    -0.460 OA
BRANCH  37  38
ATOM     38  C   UNL A   1      37.369  30.563  32.012  1.00  0.00     0.338 C 
ATOM     39  O   UNL A   1      36.469  29.860  32.437  1.00  0.00    -0.246 OA
BRANCH  38  40
ATOM     40  C   UNL A   1      38.530  30.034  31.275  1.00  0.00     0.060 A 
ATOM     41  C   UNL A   1      39.487  29.271  31.959  1.00  0.00     0.016 A 
ATOM     42  C   UNL A   1      38.698  30.345  29.927  1.00  0.00     0.016 A 
ATOM     43  C   UNL A   1      40.621  28.815  31.291  1.00  0.00     0.010 A 
ATOM     44  C   UNL A   1      39.851  29.916  29.267  1.00  0.00     0.010 A 
ATOM     45  C   UNL A   1      40.827  29.173  29.954  1.00  0.00    -0.014 A 
BRANCH  45  46
ATOM     46  C   UNL A   1      42.154  28.946  29.339  1.00  0.00     0.031 A 
ATOM     47  C   UNL A   1      42.478  27.569  28.840  1.00  0.00     0.074 A 
ATOM     48  C   UNL A   1      43.031  29.952  29.183  1.00  0.00     0.049 A 
ATOM     49  N   UNL A   1      43.554  27.141  28.234  1.00  0.00    -0.248 NA
ATOM     50  C   UNL A   1      41.432  26.544  29.006  1.00  0.00     0.031 C 
ATOM     51  C   UNL A   1      42.806  31.339  29.583  1.00  0.00     0.029 A 
ATOM     52  N   UNL A   1      44.298  29.952  28.654  1.00  0.00    -0.354 N 
ATOM     53  C   UNL A   1      43.302  25.813  27.913  1.00  0.00     0.074 A 
ATOM     54  C   UNL A   1      41.994  25.489  28.438  1.00  0.00     0.031 C 
ATOM     55  C   UNL A   1      43.912  32.053  29.310  1.00  0.00     0.029 A 
ATOM     56  C   UNL A   1      44.928  31.170  28.738  1.00  0.00     0.049 A 
ATOM     57  H   UNL A   1      44.714  29.156  28.253  1.00  0.00     0.167 HD
ATOM     58  C   UNL A   1      44.079  24.955  27.213  1.00  0.00     0.037 A 
ATOM     59  C   UNL A   1      46.188  31.523  28.412  1.00  0.00     0.037 A 
ATOM     60  C   UNL A   1      45.394  25.274  26.724  1.00  0.00     0.049 A 
ATOM     61  C   UNL A   1      47.106  30.499  27.796  1.00  0.00     0.074 A 
ATOM     62  C   UNL A   1      46.267  24.465  26.019  1.00  0.00     0.029 A 
ATOM     63  N   UNL A   1      46.039  26.488  26.915  1.00  0.00    -0.354 N 
ATOM     64  N   UNL A   1      46.852  29.252  27.473  1.00  0.00    -0.248 NA
ATOM     65  C   UNL A   1      48.480  30.928  27.497  1.00  0.00     0.031 C 
ATOM     66  C   UNL A   1      47.464  25.166  25.846  1.00  0.00     0.029 A 
ATOM     67  C   UNL A   1      47.316  26.436  26.382  1.00  0.00     0.049 A 
ATOM     68  H   UNL A   1      45.646  27.272  27.363  1.00  0.00     0.167 HD
ATOM     69  C   UNL A   1      48.025  28.754  26.913  1.00  0.00     0.074 A 
ATOM     70  C   UNL A   1      48.987  29.838  26.934  1.00  0.00     0.031 C 
ATOM     71  C   UNL A   1      48.275  27.515  26.421  1.00  0.00     0.037 A 
BRANCH  58  72
ATOM     72  C   UNL A   1      43.532  23.577  26.971  1.00  0.00     0.058 A 
ATOM     73  C   UNL A   1      43.505  22.606  27.985  1.00  0.00     0.135 A 
ATOM     74  C   UNL A   1      43.030  23.224  25.710  1.00  0.00     0.135 A 
ATOM     75  F   UNL A   1      43.993  22.889  29.204  1.00  0.00    -0.206 F 
ATOM     76  C   UNL A   1      43.028  21.321  27.747  1.00  0.00     0.059 A 
ATOM     77  C   UNL A   1      42.524  21.954  25.456  1.00  0.00     0.059 A 
ATOM     78  F   UNL A   1      43.039  24.114  24.706  1.00  0.00    -0.206 F 
ATOM     79  C   UNL A   1      42.543  21.003  26.476  1.00  0.00     0.060 A 
BRANCH  79  80
ATOM     80  S   UNL A   1      41.957  19.324  26.172  1.00  0.00     0.124 S 
ATOM     81  O   UNL A   1      42.284  18.668  27.435  1.00  0.00    -0.237 OA
ATOM     82  O   UNL A   1      40.537  19.534  25.914  1.00  0.00    -0.237 OA
ATOM     83  O   UNL A   1      42.744  18.891  25.022  1.00  0.00    -0.744 OA
ENDBRANCH  79  80
ENDBRANCH  58  72
BRANCH  59  84
ATOM     84  C   UNL A   1      46.642  32.914  28.672  1.00  0.00     0.058 A 
ATOM     85  C   UNL A   1      47.228  33.270  29.895  1.00  0.00     0.135 A 
ATOM     86  C   UNL A   1      46.553  33.902  27.678  1.00  0.00     0.135 A 
ATOM     87  F   UNL A   1      47.318  32.368  30.883  1.00  0.00    -0.206 F 
ATOM     88  C   UNL A   1      47.731  34.549  30.116  1.00  0.00     0.059 A 
ATOM     89  C   UNL A   1      47.067  35.181  27.867  1.00  0.00     0.059 A 
ATOM     90  F   UNL A   1      45.999  33.613  26.490  1.00  0.00    -0.206 F 
ATOM     91  C   UNL A   1      47.661  35.492  29.089  1.00  0.00     0.060 A 
BRANCH  91  92
ATOM     92  S   UNL A   1      48.416  37.112  29.354  1.00  0.00     0.124 S 
ATOM     93  O   UNL A   1      47.522  37.699  30.343  1.00  0.00    -0.237 OA
ATOM     94  O   UNL A   1      49.747  36.748  29.831  1.00  0.00    -0.237 OA
ATOM     95  O   UNL A   1      48.380  37.723  28.027  1.00  0.00    -0.744 OA
ENDBRANCH  91  92
ENDBRANCH  59  84
BRANCH  71  96
ATOM     96  C   UNL A   1      49.645  27.244  25.853  1.00  0.00     0.058 A 
ATOM     97  C   UNL A   1      50.717  26.857  26.670  1.00  0.00     0.135 A 
ATOM     98  C   UNL A   1      49.863  27.286  24.464  1.00  0.00     0.135 A 
ATOM     99  F   UNL A   1      50.568  26.806  28.002  1.00  0.00    -0.206 F 
ATOM    100  C   UNL A   1      51.960  26.531  26.134  1.00  0.00     0.059 A 
ATOM    101  C   UNL A   1      51.087  26.934  23.904  1.00  0.00     0.059 A 
ATOM    102  F   UNL A   1      48.868  27.638  23.634  1.00  0.00    -0.206 F 
ATOM    103  C   UNL A   1      52.133  26.565  24.748  1.00  0.00     0.060 A 
BRANCH 103 104
ATOM    104  S   UNL A   1      53.737  26.093  24.068  1.00  0.00     0.124 S 
ATOM    105  O   UNL A   1      53.481  26.161  22.634  1.00  0.00    -0.237 OA
ATOM    106  O   UNL A   1      54.617  27.127  24.605  1.00  0.00    -0.237 OA
ATOM    107  O   UNL A   1      53.954  24.752  24.604  1.00  0.00    -0.744 OA
ENDBRANCH 103 104
ENDBRANCH  71  96
ENDBRANCH  45  46
ENDBRANCH  38  40
ENDBRANCH  37  38
ENDBRANCH  36  37
ENDBRANCH  35  36
ENDBRANCH  34  35
ENDBRANCH  33  34
ENDBRANCH   1  33
TORSDOF 23
ENDMDL
