MODEL 1
REMARK VINA RESULT:      -9.8      0.000      0.000
REMARK SMILES CC(C)N(CCCC(=O)OCCOCCOCCOC(=O)c1ccc(-c2c3nc(c(-c4c(F)cc(S(=O)(=O)[O-])cc4F)c4ccc([nH]4)c(-c4c(F)cc(S(=O)(=O)[O-])cc4F)c4nc(c(-c5c(F)cc(S(=O)(=O)[O-])cc5F)c5ccc2[nH]5)C=C4)C=C3)cc1)C(=O)N[C@@H]1CCCC1(C)C
REMARK SMILES IDX 14 1 13 2 12 3 11 4 10 5 8 6 9 7 7 8 6 9 5 10 4 11 2 12 1 13
REMARK SMILES IDX 3 14 88 15 89 16 90 17 91 19 92 20 95 21 93 22 94 23 96 24
REMARK SMILES IDX 97 25 15 26 16 27 17 28 18 29 19 30 20 31 21 32 22 33 23 34
REMARK SMILES IDX 87 35 24 36 86 37 25 38 26 39 27 40 80 41 28 42 85 43 79 44
REMARK SMILES IDX 81 45 29 46 84 47 78 48 77 49 30 51 64 52 43 53 63 54 44 55
REMARK SMILES IDX 47 56 62 57 82 58 45 59 46 60 61 62 83 63 48 64 31 65 32 66
REMARK SMILES IDX 41 67 33 68 34 69 40 70 42 71 35 72 36 73 37 74 38 75 39 76
REMARK SMILES IDX 65 77 66 78 75 79 67 80 68 81 74 82 76 83 69 84 70 85 71 86
REMARK SMILES IDX 72 87 73 88 49 89 50 90 59 91 51 92 52 93 58 94 60 95 53 96
REMARK SMILES IDX 54 97 55 98 56 99 57 100
REMARK H PARENT 90 18 81 50 47 61
REMARK Flexibility Score: inf
ROOT
ATOM      1  C   UNL A   1      36.634  21.512  24.296  1.00  0.00     0.188 C 
ENDROOT
BRANCH   1   2
ATOM      2  O   UNL A   1      35.556  20.682  24.694  1.00  0.00    -0.376 OA
BRANCH   2   3
ATOM      3  C   UNL A   1      34.454  21.435  25.213  1.00  0.00     0.202 C 
BRANCH   3   4
ATOM      4  C   UNL A   1      33.063  20.794  24.961  1.00  0.00     0.261 C 
BRANCH   4   5
ATOM      5  O   UNL A   1      32.081  21.538  24.174  1.00  0.00    -0.463 OA
BRANCH   5   6
ATOM      6  C   UNL A   1      31.490  22.690  24.635  1.00  0.00     0.305 C 
ATOM      7  O   UNL A   1      31.259  22.913  25.815  1.00  0.00    -0.252 OA
BRANCH   6   8
ATOM      8  C   UNL A   1      31.022  23.604  23.471  1.00  0.00     0.124 C 
BRANCH   8   9
ATOM      9  C   UNL A   1      30.548  25.083  23.611  1.00  0.00     0.033 C 
BRANCH   9  10
ATOM     10  C   UNL A   1      31.397  26.330  24.064  1.00  0.00     0.122 C 
BRANCH  10  11
ATOM     11  N   UNL A   1      32.851  26.261  24.077  1.00  0.00    -0.322 N 
BRANCH  11  12
ATOM     12  C   UNL A   1      33.607  26.658  22.851  1.00  0.00     0.080 C 
ATOM     13  C   UNL A   1      33.099  26.083  21.513  1.00  0.00     0.031 C 
ATOM     14  C   UNL A   1      33.752  28.171  22.675  1.00  0.00     0.031 C 
ENDBRANCH  11  12
BRANCH  11  15
ATOM     15  C   UNL A   1      33.504  26.020  25.241  1.00  0.00     0.317 C 
ATOM     16  O   UNL A   1      33.953  24.908  25.526  1.00  0.00    -0.249 OA
ATOM     17  N   UNL A   1      33.626  26.996  26.164  1.00  0.00    -0.335 N 
ATOM     18  H   UNL A   1      33.657  26.613  27.070  1.00  0.00     0.165 HD
BRANCH  17  19
ATOM     19  C   UNL A   1      33.729  28.460  26.219  1.00  0.00     0.089 C 
ATOM     20  C   UNL A   1      34.891  29.229  26.869  1.00  0.00     0.025 C 
ATOM     21  C   UNL A   1      32.428  29.213  26.565  1.00  0.00    -0.015 C 
ATOM     22  C   UNL A   1      34.263  30.304  27.728  1.00  0.00     0.003 C 
ATOM     23  C   UNL A   1      32.932  30.584  27.046  1.00  0.00     0.008 C 
ATOM     24  C   UNL A   1      31.549  29.313  25.307  1.00  0.00     0.013 C 
ATOM     25  C   UNL A   1      31.604  28.564  27.671  1.00  0.00     0.013 C 
ENDBRANCH  17  19
ENDBRANCH  11  15
ENDBRANCH  10  11
ENDBRANCH   9  10
ENDBRANCH   8   9
ENDBRANCH   6   8
ENDBRANCH   5   6
ENDBRANCH   4   5
ENDBRANCH   3   4
ENDBRANCH   2   3
ENDBRANCH   1   2
BRANCH   1  26
ATOM     26  C   UNL A   1      36.561  22.932  24.858  1.00  0.00     0.188 C 
BRANCH  26  27
ATOM     27  O   UNL A   1      37.194  23.118  26.125  1.00  0.00    -0.376 OA
BRANCH  27  28
ATOM     28  C   UNL A   1      38.593  23.447  26.033  1.00  0.00     0.202 C 
BRANCH  28  29
ATOM     29  C   UNL A   1      39.630  22.390  26.474  1.00  0.00     0.261 C 
BRANCH  29  30
ATOM     30  O   UNL A   1      40.477  22.857  27.536  1.00  0.00    -0.460 OA
BRANCH  30  31
ATOM     31  C   UNL A   1      41.367  23.827  27.180  1.00  0.00     0.338 C 
ATOM     32  O   UNL A   1      42.203  23.758  26.305  1.00  0.00    -0.246 OA
BRANCH  31  33
ATOM     33  C   UNL A   1      41.018  25.094  27.875  1.00  0.00     0.060 A 
ATOM     34  C   UNL A   1      41.956  26.137  27.837  1.00  0.00     0.016 A 
ATOM     35  C   UNL A   1      39.795  25.275  28.522  1.00  0.00     0.016 A 
ATOM     36  C   UNL A   1      41.709  27.334  28.511  1.00  0.00     0.010 A 
ATOM     37  C   UNL A   1      39.549  26.472  29.203  1.00  0.00     0.010 A 
ATOM     38  C   UNL A   1      40.527  27.483  29.245  1.00  0.00    -0.014 A 
BRANCH  38  39
ATOM     39  C   UNL A   1      40.425  28.547  30.275  1.00  0.00     0.031 A 
ATOM     40  C   UNL A   1      41.354  28.449  31.458  1.00  0.00     0.074 A 
ATOM     41  C   UNL A   1      39.567  29.577  30.167  1.00  0.00     0.049 A 
ATOM     42  N   UNL A   1      41.371  29.140  32.566  1.00  0.00    -0.248 NA
ATOM     43  C   UNL A   1      42.406  27.417  31.380  1.00  0.00     0.031 C 
ATOM     44  C   UNL A   1      38.676  29.829  29.035  1.00  0.00     0.029 A 
ATOM     45  N   UNL A   1      39.296  30.603  31.040  1.00  0.00    -0.354 N 
ATOM     46  C   UNL A   1      42.420  28.620  33.317  1.00  0.00     0.074 A 
ATOM     47  C   UNL A   1      42.995  27.534  32.559  1.00  0.00     0.031 C 
ATOM     48  C   UNL A   1      37.939  30.925  29.295  1.00  0.00     0.029 A 
ATOM     49  C   UNL A   1      38.271  31.424  30.628  1.00  0.00     0.049 A 
ATOM     50  H   UNL A   1      39.788  30.737  31.882  1.00  0.00     0.167 HD
ATOM     51  C   UNL A   1      42.872  29.022  34.528  1.00  0.00     0.037 A 
ATOM     52  C   UNL A   1      37.654  32.435  31.274  1.00  0.00     0.037 A 
ATOM     53  C   UNL A   1      42.300  30.110  35.273  1.00  0.00     0.049 A 
ATOM     54  C   UNL A   1      38.117  32.803  32.667  1.00  0.00     0.074 A 
ATOM     55  C   UNL A   1      42.656  30.579  36.524  1.00  0.00     0.029 A 
ATOM     56  N   UNL A   1      41.255  30.907  34.827  1.00  0.00    -0.354 N 
ATOM     57  N   UNL A   1      39.085  32.282  33.385  1.00  0.00    -0.248 NA
ATOM     58  C   UNL A   1      37.402  33.899  33.338  1.00  0.00     0.031 C 
ATOM     59  C   UNL A   1      41.801  31.635  36.853  1.00  0.00     0.029 A 
ATOM     60  C   UNL A   1      40.954  31.862  35.781  1.00  0.00     0.049 A 
ATOM     61  H   UNL A   1      40.797  30.806  33.961  1.00  0.00     0.167 HD
ATOM     62  C   UNL A   1      39.126  33.019  34.566  1.00  0.00     0.074 A 
ATOM     63  C   UNL A   1      38.090  34.025  34.464  1.00  0.00     0.031 C 
ATOM     64  C   UNL A   1      39.945  32.881  35.639  1.00  0.00     0.037 A 
BRANCH  51  65
ATOM     65  C   UNL A   1      44.032  28.277  35.127  1.00  0.00     0.058 A 
ATOM     66  C   UNL A   1      43.842  27.149  35.940  1.00  0.00     0.135 A 
ATOM     67  C   UNL A   1      45.352  28.664  34.841  1.00  0.00     0.135 A 
ATOM     68  F   UNL A   1      42.602  26.753  36.269  1.00  0.00    -0.206 F 
ATOM     69  C   UNL A   1      44.919  26.433  36.452  1.00  0.00     0.059 A 
ATOM     70  C   UNL A   1      46.444  27.945  35.319  1.00  0.00     0.059 A 
ATOM     71  F   UNL A   1      45.590  29.744  34.080  1.00  0.00    -0.206 F 
ATOM     72  C   UNL A   1      46.216  26.833  36.128  1.00  0.00     0.060 A 
BRANCH  72  73
ATOM     73  S   UNL A   1      47.598  25.864  36.765  1.00  0.00     0.124 S 
ATOM     74  O   UNL A   1      48.719  26.422  36.014  1.00  0.00    -0.237 OA
ATOM     75  O   UNL A   1      47.569  26.181  38.189  1.00  0.00    -0.237 OA
ATOM     76  O   UNL A   1      47.239  24.490  36.424  1.00  0.00    -0.744 OA
ENDBRANCH  72  73
ENDBRANCH  51  65
BRANCH  52  77
ATOM     77  C   UNL A   1      36.505  33.155  30.652  1.00  0.00     0.058 A 
ATOM     78  C   UNL A   1      36.700  34.096  29.629  1.00  0.00     0.135 A 
ATOM     79  C   UNL A   1      35.194  32.971  31.121  1.00  0.00     0.135 A 
ATOM     80  F   UNL A   1      37.933  34.320  29.150  1.00  0.00    -0.206 F 
ATOM     81  C   UNL A   1      35.651  34.862  29.128  1.00  0.00     0.059 A 
ATOM     82  C   UNL A   1      34.122  33.699  30.611  1.00  0.00     0.059 A 
ATOM     83  F   UNL A   1      34.944  32.079  32.091  1.00  0.00    -0.206 F 
ATOM     84  C   UNL A   1      34.365  34.661  29.631  1.00  0.00     0.060 A 
BRANCH  84  85
ATOM     85  S   UNL A   1      33.012  35.671  28.989  1.00  0.00     0.124 S 
ATOM     86  O   UNL A   1      33.739  36.771  28.366  1.00  0.00    -0.237 OA
ATOM     87  O   UNL A   1      32.346  34.748  28.076  1.00  0.00    -0.237 OA
ATOM     88  O   UNL A   1      32.252  36.015  30.186  1.00  0.00    -0.744 OA
ENDBRANCH  84  85
ENDBRANCH  52  77
BRANCH  64  89
ATOM     89  C   UNL A   1      39.821  33.890  36.749  1.00  0.00     0.058 A 
ATOM     90  C   UNL A   1      40.468  35.133  36.709  1.00  0.00     0.135 A 
ATOM     91  C   UNL A   1      38.985  33.623  37.848  1.00  0.00     0.135 A 
ATOM     92  F   UNL A   1      41.277  35.441  35.683  1.00  0.00    -0.206 F 
ATOM     93  C   UNL A   1      40.320  36.063  37.733  1.00  0.00     0.059 A 
ATOM     94  C   UNL A   1      38.795  34.550  38.866  1.00  0.00     0.059 A 
ATOM     95  F   UNL A   1      38.327  32.455  37.929  1.00  0.00    -0.206 F 
ATOM     96  C   UNL A   1      39.479  35.763  38.807  1.00  0.00     0.060 A 
BRANCH  96  97
ATOM     97  S   UNL A   1      39.273  36.989  40.115  1.00  0.00     0.124 S 
ATOM     98  O   UNL A   1      40.640  37.131  40.603  1.00  0.00    -0.237 OA
ATOM     99  O   UNL A   1      38.737  38.136  39.386  1.00  0.00    -0.237 OA
ATOM    100  O   UNL A   1      38.340  36.351  41.038  1.00  0.00    -0.744 OA
ENDBRANCH  96  97
ENDBRANCH  64  89
ENDBRANCH  38  39
ENDBRANCH  31  33
ENDBRANCH  30  31
ENDBRANCH  29  30
ENDBRANCH  28  29
ENDBRANCH  27  28
ENDBRANCH  26  27
ENDBRANCH   1  26
TORSDOF 26
ENDMDL
MODEL 2
REMARK VINA RESULT:      -9.6      6.230     10.652
REMARK SMILES CC(C)N(CCCC(=O)OCCOCCOCCOC(=O)c1ccc(-c2c3nc(c(-c4c(F)cc(S(=O)(=O)[O-])cc4F)c4ccc([nH]4)c(-c4c(F)cc(S(=O)(=O)[O-])cc4F)c4nc(c(-c5c(F)cc(S(=O)(=O)[O-])cc5F)c5ccc2[nH]5)C=C4)C=C3)cc1)C(=O)N[C@@H]1CCCC1(C)C
REMARK SMILES IDX 14 1 13 2 12 3 11 4 10 5 8 6 9 7 7 8 6 9 5 10 4 11 2 12 1 13
REMARK SMILES IDX 3 14 88 15 89 16 90 17 91 19 92 20 95 21 93 22 94 23 96 24
REMARK SMILES IDX 97 25 15 26 16 27 17 28 18 29 19 30 20 31 21 32 22 33 23 34
REMARK SMILES IDX 87 35 24 36 86 37 25 38 26 39 27 40 80 41 28 42 85 43 79 44
REMARK SMILES IDX 81 45 29 46 84 47 78 48 77 49 30 51 64 52 43 53 63 54 44 55
REMARK SMILES IDX 47 56 62 57 82 58 45 59 46 60 61 62 83 63 48 64 31 65 32 66
REMARK SMILES IDX 41 67 33 68 34 69 40 70 42 71 35 72 36 73 37 74 38 75 39 76
REMARK SMILES IDX 65 77 66 78 75 79 67 80 68 81 74 82 76 83 69 84 70 85 71 86
REMARK SMILES IDX 72 87 73 88 49 89 50 90 59 91 51 92 52 93 58 94 60 95 53 96
REMARK SMILES IDX 54 97 55 98 56 99 57 100
REMARK H PARENT 90 18 81 50 47 61
REMARK Flexibility Score: inf
ROOT
ATOM      1  C   UNL A   1      36.798  23.247  23.649  1.00  0.00     0.188 C 
ENDROOT
BRANCH   1   2
ATOM      2  O   UNL A   1      35.580  23.159  22.928  1.00  0.00    -0.376 OA
BRANCH   2   3
ATOM      3  C   UNL A   1      34.438  23.377  23.765  1.00  0.00     0.202 C 
BRANCH   3   4
ATOM      4  C   UNL A   1      33.395  22.229  23.739  1.00  0.00     0.261 C 
BRANCH   4   5
ATOM      5  O   UNL A   1      31.984  22.569  23.568  1.00  0.00    -0.463 OA
BRANCH   5   6
ATOM      6  C   UNL A   1      31.316  23.396  24.438  1.00  0.00     0.305 C 
ATOM      7  O   UNL A   1      30.913  23.047  25.539  1.00  0.00    -0.252 OA
BRANCH   6   8
ATOM      8  C   UNL A   1      31.009  24.778  23.799  1.00  0.00     0.124 C 
BRANCH   8   9
ATOM      9  C   UNL A   1      29.590  25.321  23.447  1.00  0.00     0.033 C 
BRANCH   9  10
ATOM     10  C   UNL A   1      28.949  26.695  23.872  1.00  0.00     0.122 C 
BRANCH  10  11
ATOM     11  N   UNL A   1      29.233  27.904  23.112  1.00  0.00    -0.322 N 
BRANCH  11  12
ATOM     12  C   UNL A   1      28.125  28.869  22.846  1.00  0.00     0.080 C 
ATOM     13  C   UNL A   1      26.764  28.554  23.500  1.00  0.00     0.031 C 
ATOM     14  C   UNL A   1      28.473  30.320  23.188  1.00  0.00     0.031 C 
ENDBRANCH  11  12
BRANCH  11  15
ATOM     15  C   UNL A   1      30.515  28.227  22.815  1.00  0.00     0.317 C 
ATOM     16  O   UNL A   1      30.928  28.288  21.655  1.00  0.00    -0.249 OA
ATOM     17  N   UNL A   1      31.408  28.436  23.805  1.00  0.00    -0.335 N 
ATOM     18  H   UNL A   1      32.314  28.184  23.512  1.00  0.00     0.165 HD
BRANCH  17  19
ATOM     19  C   UNL A   1      31.430  28.927  25.189  1.00  0.00     0.089 C 
ATOM     20  C   UNL A   1      31.561  30.406  25.587  1.00  0.00     0.025 C 
ATOM     21  C   UNL A   1      32.281  28.107  26.180  1.00  0.00    -0.015 C 
ATOM     22  C   UNL A   1      32.610  30.463  26.674  1.00  0.00     0.003 C 
ATOM     23  C   UNL A   1      32.529  29.094  27.333  1.00  0.00     0.008 C 
ATOM     24  C   UNL A   1      31.488  26.866  26.624  1.00  0.00     0.013 C 
ATOM     25  C   UNL A   1      33.619  27.640  25.620  1.00  0.00     0.013 C 
ENDBRANCH  17  19
ENDBRANCH  11  15
ENDBRANCH  10  11
ENDBRANCH   9  10
ENDBRANCH   8   9
ENDBRANCH   6   8
ENDBRANCH   5   6
ENDBRANCH   4   5
ENDBRANCH   3   4
ENDBRANCH   2   3
ENDBRANCH   1   2
BRANCH   1  26
ATOM     26  C   UNL A   1      36.628  23.704  25.097  1.00  0.00     0.188 C 
BRANCH  26  27
ATOM     27  O   UNL A   1      37.037  22.757  26.086  1.00  0.00    -0.376 OA
BRANCH  27  28
ATOM     28  C   UNL A   1      38.454  22.499  26.092  1.00  0.00     0.202 C 
BRANCH  28  29
ATOM     29  C   UNL A   1      38.946  21.080  25.725  1.00  0.00     0.261 C 
BRANCH  29  30
ATOM     30  O   UNL A   1      39.765  20.498  26.752  1.00  0.00    -0.460 OA
BRANCH  30  31
ATOM     31  C   UNL A   1      40.995  20.078  26.340  1.00  0.00     0.338 C 
ATOM     32  O   UNL A   1      41.251  19.051  25.749  1.00  0.00    -0.246 OA
BRANCH  31  33
ATOM     33  C   UNL A   1      41.975  21.182  26.517  1.00  0.00     0.060 A 
ATOM     34  C   UNL A   1      42.365  21.503  27.826  1.00  0.00     0.016 A 
ATOM     35  C   UNL A   1      42.527  21.869  25.434  1.00  0.00     0.016 A 
ATOM     36  C   UNL A   1      43.244  22.560  28.062  1.00  0.00     0.010 A 
ATOM     37  C   UNL A   1      43.404  22.932  25.670  1.00  0.00     0.010 A 
ATOM     38  C   UNL A   1      43.722  23.316  26.987  1.00  0.00    -0.014 A 
BRANCH  38  39
ATOM     39  C   UNL A   1      44.310  24.658  27.227  1.00  0.00     0.031 A 
ATOM     40  C   UNL A   1      43.369  25.753  27.661  1.00  0.00     0.074 A 
ATOM     41  C   UNL A   1      45.626  24.904  27.096  1.00  0.00     0.049 A 
ATOM     42  N   UNL A   1      43.580  27.035  27.784  1.00  0.00    -0.248 NA
ATOM     43  C   UNL A   1      41.993  25.338  27.993  1.00  0.00     0.031 C 
ATOM     44  C   UNL A   1      46.649  23.914  26.762  1.00  0.00     0.029 A 
ATOM     45  N   UNL A   1      46.325  26.081  27.214  1.00  0.00    -0.354 N 
ATOM     46  C   UNL A   1      42.367  27.579  28.193  1.00  0.00     0.074 A 
ATOM     47  C   UNL A   1      41.413  26.496  28.263  1.00  0.00     0.031 C 
ATOM     48  C   UNL A   1      47.842  24.530  26.679  1.00  0.00     0.029 A 
ATOM     49  C   UNL A   1      47.662  25.963  26.906  1.00  0.00     0.049 A 
ATOM     50  H   UNL A   1      45.910  26.928  27.492  1.00  0.00     0.167 HD
ATOM     51  C   UNL A   1      42.076  28.866  28.495  1.00  0.00     0.037 A 
ATOM     52  C   UNL A   1      48.613  26.912  26.787  1.00  0.00     0.037 A 
ATOM     53  C   UNL A   1      43.033  29.936  28.430  1.00  0.00     0.049 A 
ATOM     54  C   UNL A   1      48.240  28.357  27.038  1.00  0.00     0.074 A 
ATOM     55  C   UNL A   1      42.838  31.282  28.680  1.00  0.00     0.029 A 
ATOM     56  N   UNL A   1      44.371  29.778  28.100  1.00  0.00    -0.354 N 
ATOM     57  N   UNL A   1      47.081  28.867  27.388  1.00  0.00    -0.248 NA
ATOM     58  C   UNL A   1      49.306  29.358  26.878  1.00  0.00     0.031 C 
ATOM     59  C   UNL A   1      44.049  31.945  28.463  1.00  0.00     0.029 A 
ATOM     60  C   UNL A   1      45.012  31.003  28.139  1.00  0.00     0.049 A 
ATOM     61  H   UNL A   1      44.800  28.921  27.873  1.00  0.00     0.167 HD
ATOM     62  C   UNL A   1      47.294  30.235  27.538  1.00  0.00     0.074 A 
ATOM     63  C   UNL A   1      48.691  30.473  27.247  1.00  0.00     0.031 C 
ATOM     64  C   UNL A   1      46.416  31.209  27.886  1.00  0.00     0.037 A 
BRANCH  51  65
ATOM     65  C   UNL A   1      40.668  29.189  28.911  1.00  0.00     0.058 A 
ATOM     66  C   UNL A   1      40.309  29.312  30.262  1.00  0.00     0.135 A 
ATOM     67  C   UNL A   1      39.677  29.431  27.945  1.00  0.00     0.135 A 
ATOM     68  F   UNL A   1      41.209  29.062  31.227  1.00  0.00    -0.206 F 
ATOM     69  C   UNL A   1      39.017  29.660  30.642  1.00  0.00     0.059 A 
ATOM     70  C   UNL A   1      38.386  29.809  28.302  1.00  0.00     0.059 A 
ATOM     71  F   UNL A   1      39.963  29.314  26.639  1.00  0.00    -0.206 F 
ATOM     72  C   UNL A   1      38.065  29.916  29.654  1.00  0.00     0.060 A 
BRANCH  72  73
ATOM     73  S   UNL A   1      36.407  30.410  30.166  1.00  0.00     0.124 S 
ATOM     74  O   UNL A   1      36.269  29.703  31.436  1.00  0.00    -0.237 OA
ATOM     75  O   UNL A   1      36.532  31.861  30.259  1.00  0.00    -0.237 OA
ATOM     76  O   UNL A   1      35.556  29.925  29.084  1.00  0.00    -0.744 OA
ENDBRANCH  72  73
ENDBRANCH  51  65
BRANCH  52  77
ATOM     77  C   UNL A   1      50.002  26.559  26.373  1.00  0.00     0.058 A 
ATOM     78  C   UNL A   1      50.998  26.277  27.320  1.00  0.00     0.135 A 
ATOM     79  C   UNL A   1      50.380  26.570  25.020  1.00  0.00     0.135 A 
ATOM     80  F   UNL A   1      50.695  26.263  28.628  1.00  0.00    -0.206 F 
ATOM     81  C   UNL A   1      52.323  26.068  26.951  1.00  0.00     0.059 A 
ATOM     82  C   UNL A   1      51.693  26.328  24.622  1.00  0.00     0.059 A 
ATOM     83  F   UNL A   1      49.471  26.824  24.068  1.00  0.00    -0.206 F 
ATOM     84  C   UNL A   1      52.663  26.102  25.598  1.00  0.00     0.060 A 
BRANCH  84  85
ATOM     85  S   UNL A   1      54.388  25.847  25.127  1.00  0.00     0.124 S 
ATOM     86  O   UNL A   1      55.080  26.715  26.073  1.00  0.00    -0.237 OA
ATOM     87  O   UNL A   1      54.555  24.413  25.336  1.00  0.00    -0.237 OA
ATOM     88  O   UNL A   1      54.423  26.279  23.733  1.00  0.00    -0.744 OA
ENDBRANCH  84  85
ENDBRANCH  52  77
BRANCH  64  89
ATOM     89  C   UNL A   1      46.952  32.605  28.061  1.00  0.00     0.058 A 
ATOM     90  C   UNL A   1      46.865  33.573  27.051  1.00  0.00     0.135 A 
ATOM     91  C   UNL A   1      47.510  32.992  29.292  1.00  0.00     0.135 A 
ATOM     92  F   UNL A   1      46.341  33.258  25.855  1.00  0.00    -0.206 F 
ATOM     93  C   UNL A   1      47.343  34.866  27.240  1.00  0.00     0.059 A 
ATOM     94  C   UNL A   1      47.962  34.288  29.516  1.00  0.00     0.059 A 
ATOM     95  F   UNL A   1      47.602  32.110  30.300  1.00  0.00    -0.206 F 
ATOM     96  C   UNL A   1      47.888  35.215  28.478  1.00  0.00     0.060 A 
BRANCH  96  97
ATOM     97  S   UNL A   1      48.478  36.903  28.720  1.00  0.00     0.124 S 
ATOM     98  O   UNL A   1      48.795  36.902  30.144  1.00  0.00    -0.237 OA
ATOM     99  O   UNL A   1      49.622  36.967  27.815  1.00  0.00    -0.237 OA
ATOM    100  O   UNL A   1      47.334  37.723  28.333  1.00  0.00    -0.744 OA
ENDBRANCH  96  97
ENDBRANCH  64  89
ENDBRANCH  38  39
ENDBRANCH  31  33
ENDBRANCH  30  31
ENDBRANCH  29  30
ENDBRANCH  28  29
ENDBRANCH  27  28
ENDBRANCH  26  27
ENDBRANCH   1  26
TORSDOF 26
ENDMDL
MODEL 3
REMARK VINA RESULT:      -9.6      1.774      2.572
REMARK SMILES CC(C)N(CCCC(=O)OCCOCCOCCOC(=O)c1ccc(-c2c3nc(c(-c4c(F)cc(S(=O)(=O)[O-])cc4F)c4ccc([nH]4)c(-c4c(F)cc(S(=O)(=O)[O-])cc4F)c4nc(c(-c5c(F)cc(S(=O)(=O)[O-])cc5F)c5ccc2[nH]5)C=C4)C=C3)cc1)C(=O)N[C@@H]1CCCC1(C)C
REMARK SMILES IDX 14 1 13 2 12 3 11 4 10 5 8 6 9 7 7 8 6 9 5 10 4 11 2 12 1 13
REMARK SMILES IDX 3 14 88 15 89 16 90 17 91 19 92 20 95 21 93 22 94 23 96 24
REMARK SMILES IDX 97 25 15 26 16 27 17 28 18 29 19 30 20 31 21 32 22 33 23 34
REMARK SMILES IDX 87 35 24 36 86 37 25 38 26 39 27 40 80 41 28 42 85 43 79 44
REMARK SMILES IDX 81 45 29 46 84 47 78 48 77 49 30 51 64 52 43 53 63 54 44 55
REMARK SMILES IDX 47 56 62 57 82 58 45 59 46 60 61 62 83 63 48 64 31 65 32 66
REMARK SMILES IDX 41 67 33 68 34 69 40 70 42 71 35 72 36 73 37 74 38 75 39 76
REMARK SMILES IDX 65 77 66 78 75 79 67 80 68 81 74 82 76 83 69 84 70 85 71 86
REMARK SMILES IDX 72 87 73 88 49 89 50 90 59 91 51 92 52 93 58 94 60 95 53 96
REMARK SMILES IDX 54 97 55 98 56 99 57 100
REMARK H PARENT 90 18 81 50 47 61
REMARK Flexibility Score: inf
ROOT
ATOM      1  C   UNL A   1      36.986  23.284  25.098  1.00  0.00     0.188 C 
ENDROOT
BRANCH   1   2
ATOM      2  O   UNL A   1      35.658  23.779  25.172  1.00  0.00    -0.376 OA
BRANCH   2   3
ATOM      3  C   UNL A   1      34.763  22.840  25.779  1.00  0.00     0.202 C 
BRANCH   3   4
ATOM      4  C   UNL A   1      33.294  22.945  25.289  1.00  0.00     0.261 C 
BRANCH   4   5
ATOM      5  O   UNL A   1      32.544  24.164  25.583  1.00  0.00    -0.463 OA
BRANCH   5   6
ATOM      6  C   UNL A   1      31.544  24.204  26.524  1.00  0.00     0.305 C 
ATOM      7  O   UNL A   1      31.578  23.589  27.581  1.00  0.00    -0.252 OA
BRANCH   6   8
ATOM      8  C   UNL A   1      30.310  25.002  26.023  1.00  0.00     0.124 C 
BRANCH   8   9
ATOM      9  C   UNL A   1      30.297  25.994  24.819  1.00  0.00     0.033 C 
BRANCH   9  10
ATOM     10  C   UNL A   1      30.609  27.537  24.837  1.00  0.00     0.122 C 
BRANCH  10  11
ATOM     11  N   UNL A   1      31.364  28.145  23.750  1.00  0.00    -0.322 N 
BRANCH  11  12
ATOM     12  C   UNL A   1      32.762  28.604  24.007  1.00  0.00     0.080 C 
ATOM     13  C   UNL A   1      32.974  29.512  25.235  1.00  0.00     0.031 C 
ATOM     14  C   UNL A   1      33.780  27.466  24.096  1.00  0.00     0.031 C 
ENDBRANCH  11  12
BRANCH  11  15
ATOM     15  C   UNL A   1      30.867  28.122  22.489  1.00  0.00     0.317 C 
ATOM     16  O   UNL A   1      30.905  27.112  21.784  1.00  0.00    -0.249 OA
ATOM     17  N   UNL A   1      30.362  29.246  21.939  1.00  0.00    -0.335 N 
ATOM     18  H   UNL A   1      30.491  29.241  20.963  1.00  0.00     0.165 HD
BRANCH  17  19
ATOM     19  C   UNL A   1      29.677  30.474  22.364  1.00  0.00     0.089 C 
ATOM     20  C   UNL A   1      29.962  31.221  23.677  1.00  0.00     0.025 C 
ATOM     21  C   UNL A   1      28.153  30.508  22.136  1.00  0.00    -0.015 C 
ATOM     22  C   UNL A   1      28.616  31.525  24.294  1.00  0.00     0.003 C 
ATOM     23  C   UNL A   1      27.677  31.608  23.100  1.00  0.00     0.008 C 
ATOM     24  C   UNL A   1      27.866  30.847  20.664  1.00  0.00     0.013 C 
ATOM     25  C   UNL A   1      27.441  29.203  22.471  1.00  0.00     0.013 C 
ENDBRANCH  17  19
ENDBRANCH  11  15
ENDBRANCH  10  11
ENDBRANCH   9  10
ENDBRANCH   8   9
ENDBRANCH   6   8
ENDBRANCH   5   6
ENDBRANCH   4   5
ENDBRANCH   3   4
ENDBRANCH   2   3
ENDBRANCH   1   2
BRANCH   1  26
ATOM     26  C   UNL A   1      37.085  21.763  25.210  1.00  0.00     0.188 C 
BRANCH  26  27
ATOM     27  O   UNL A   1      38.414  21.246  25.300  1.00  0.00    -0.376 OA
BRANCH  27  28
ATOM     28  C   UNL A   1      39.257  21.966  26.218  1.00  0.00     0.202 C 
BRANCH  28  29
ATOM     29  C   UNL A   1      40.786  21.752  26.139  1.00  0.00     0.261 C 
BRANCH  29  30
ATOM     30  O   UNL A   1      41.510  22.603  27.042  1.00  0.00    -0.460 OA
BRANCH  30  31
ATOM     31  C   UNL A   1      42.050  23.719  26.473  1.00  0.00     0.338 C 
ATOM     32  O   UNL A   1      42.630  23.784  25.411  1.00  0.00    -0.246 OA
BRANCH  31  33
ATOM     33  C   UNL A   1      41.626  24.917  27.244  1.00  0.00     0.060 A 
ATOM     34  C   UNL A   1      42.390  26.087  27.103  1.00  0.00     0.016 A 
ATOM     35  C   UNL A   1      40.494  24.915  28.062  1.00  0.00     0.016 A 
ATOM     36  C   UNL A   1      42.072  27.230  27.837  1.00  0.00     0.010 A 
ATOM     37  C   UNL A   1      40.179  26.059  28.802  1.00  0.00     0.010 A 
ATOM     38  C   UNL A   1      40.999  27.202  28.733  1.00  0.00    -0.014 A 
BRANCH  38  39
ATOM     39  C   UNL A   1      40.893  28.233  29.796  1.00  0.00     0.031 A 
ATOM     40  C   UNL A   1      41.865  28.138  30.944  1.00  0.00     0.074 A 
ATOM     41  C   UNL A   1      39.996  29.233  29.745  1.00  0.00     0.049 A 
ATOM     42  N   UNL A   1      41.895  28.798  32.070  1.00  0.00    -0.248 NA
ATOM     43  C   UNL A   1      42.950  27.148  30.802  1.00  0.00     0.031 C 
ATOM     44  C   UNL A   1      39.058  29.482  28.651  1.00  0.00     0.029 A 
ATOM     45  N   UNL A   1      39.718  30.224  30.655  1.00  0.00    -0.354 N 
ATOM     46  C   UNL A   1      42.987  28.298  32.771  1.00  0.00     0.074 A 
ATOM     47  C   UNL A   1      43.574  27.254  31.964  1.00  0.00     0.031 C 
ATOM     48  C   UNL A   1      38.291  30.542  28.966  1.00  0.00     0.029 A 
ATOM     49  C   UNL A   1      38.651  31.018  30.301  1.00  0.00     0.049 A 
ATOM     50  H   UNL A   1      40.233  30.353  31.484  1.00  0.00     0.167 HD
ATOM     51  C   UNL A   1      43.466  28.683  33.977  1.00  0.00     0.037 A 
ATOM     52  C   UNL A   1      38.020  31.987  30.995  1.00  0.00     0.037 A 
ATOM     53  C   UNL A   1      42.880  29.728  34.771  1.00  0.00     0.049 A 
ATOM     54  C   UNL A   1      38.516  32.334  32.382  1.00  0.00     0.074 A 
ATOM     55  C   UNL A   1      43.262  30.177  36.022  1.00  0.00     0.029 A 
ATOM     56  N   UNL A   1      41.793  30.498  34.383  1.00  0.00    -0.354 N 
ATOM     57  N   UNL A   1      39.527  31.831  33.053  1.00  0.00    -0.248 NA
ATOM     58  C   UNL A   1      37.786  33.385  33.108  1.00  0.00     0.031 C 
ATOM     59  C   UNL A   1      42.381  31.191  36.409  1.00  0.00     0.029 A 
ATOM     60  C   UNL A   1      41.490  31.416  35.372  1.00  0.00     0.049 A 
ATOM     61  H   UNL A   1      41.309  30.404  33.530  1.00  0.00     0.167 HD
ATOM     62  C   UNL A   1      39.581  32.537  34.252  1.00  0.00     0.074 A 
ATOM     63  C   UNL A   1      38.507  33.506  34.213  1.00  0.00     0.031 C 
ATOM     64  C   UNL A   1      40.441  32.400  35.292  1.00  0.00     0.037 A 
BRANCH  51  65
ATOM     65  C   UNL A   1      44.672  27.966  34.516  1.00  0.00     0.058 A 
ATOM     66  C   UNL A   1      44.553  26.783  35.262  1.00  0.00     0.135 A 
ATOM     67  C   UNL A   1      45.966  28.437  34.238  1.00  0.00     0.135 A 
ATOM     68  F   UNL A   1      43.340  26.304  35.582  1.00  0.00    -0.206 F 
ATOM     69  C   UNL A   1      45.672  26.095  35.717  1.00  0.00     0.059 A 
ATOM     70  C   UNL A   1      47.100  27.750  34.659  1.00  0.00     0.059 A 
ATOM     71  F   UNL A   1      46.136  29.572  33.541  1.00  0.00    -0.206 F 
ATOM     72  C   UNL A   1      46.942  26.581  35.402  1.00  0.00     0.060 A 
BRANCH  72  73
ATOM     73  S   UNL A   1      48.382  25.650  35.962  1.00  0.00     0.124 S 
ATOM     74  O   UNL A   1      48.820  26.446  37.105  1.00  0.00    -0.237 OA
ATOM     75  O   UNL A   1      47.804  24.348  36.281  1.00  0.00    -0.237 OA
ATOM     76  O   UNL A   1      49.274  25.670  34.806  1.00  0.00    -0.744 OA
ENDBRANCH  72  73
ENDBRANCH  51  65
BRANCH  52  77
ATOM     77  C   UNL A   1      36.825  32.680  30.432  1.00  0.00     0.058 A 
ATOM     78  C   UNL A   1      36.952  33.673  29.449  1.00  0.00     0.135 A 
ATOM     79  C   UNL A   1      35.535  32.416  30.921  1.00  0.00     0.135 A 
ATOM     80  F   UNL A   1      38.163  33.974  28.953  1.00  0.00    -0.206 F 
ATOM     81  C   UNL A   1      35.859  34.412  29.007  1.00  0.00     0.059 A 
ATOM     82  C   UNL A   1      34.420  33.117  30.469  1.00  0.00     0.059 A 
ATOM     83  F   UNL A   1      35.349  31.472  31.856  1.00  0.00    -0.206 F 
ATOM     84  C   UNL A   1      34.595  34.131  29.528  1.00  0.00     0.060 A 
BRANCH  84  85
ATOM     85  S   UNL A   1      33.184  35.105  28.963  1.00  0.00     0.124 S 
ATOM     86  O   UNL A   1      32.446  35.301  30.206  1.00  0.00    -0.237 OA
ATOM     87  O   UNL A   1      33.830  36.291  28.411  1.00  0.00    -0.237 OA
ATOM     88  O   UNL A   1      32.545  34.234  27.982  1.00  0.00    -0.744 OA
ENDBRANCH  84  85
ENDBRANCH  52  77
BRANCH  64  89
ATOM     89  C   UNL A   1      40.318  33.373  36.435  1.00  0.00     0.058 A 
ATOM     90  C   UNL A   1      39.447  33.159  37.512  1.00  0.00     0.135 A 
ATOM     91  C   UNL A   1      41.138  34.515  36.474  1.00  0.00     0.135 A 
ATOM     92  F   UNL A   1      38.641  32.085  37.526  1.00  0.00    -0.206 F 
ATOM     93  C   UNL A   1      39.366  34.057  38.571  1.00  0.00     0.059 A 
ATOM     94  C   UNL A   1      41.100  35.408  37.538  1.00  0.00     0.059 A 
ATOM     95  F   UNL A   1      42.004  34.760  35.477  1.00  0.00    -0.206 F 
ATOM     96  C   UNL A   1      40.199  35.178  38.577  1.00  0.00     0.060 A 
BRANCH  96  97
ATOM     97  S   UNL A   1      40.106  36.320  39.971  1.00  0.00     0.124 S 
ATOM     98  O   UNL A   1      38.890  35.869  40.639  1.00  0.00    -0.237 OA
ATOM     99  O   UNL A   1      41.355  36.053  40.678  1.00  0.00    -0.237 OA
ATOM    100  O   UNL A   1      40.022  37.631  39.334  1.00  0.00    -0.744 OA
ENDBRANCH  96  97
ENDBRANCH  64  89
ENDBRANCH  38  39
ENDBRANCH  31  33
ENDBRANCH  30  31
ENDBRANCH  29  30
ENDBRANCH  28  29
ENDBRANCH  27  28
ENDBRANCH  26  27
ENDBRANCH   1  26
TORSDOF 26
ENDMDL
