MODEL 1
REMARK VINA RESULT:     -12.1      0.000      0.000
REMARK SMILES Cc1cccc(CS[C@@H]2CC[C@]([NH3+])(C(=O)OCCOCCOCCOC(=O)c3ccc(-c4c5nc(c(-c6c(F)cc(S(=O)(=O)[O-])cc6F)c6ccc([nH]6)c(-c6c(F)cc(S(=O)(=O)[O-])cc6F)c6nc(c(-c7c(F)cc(S(=O)(=O)[O-])cc7F)c7ccc4[nH]7)C=C6)C=C5)cc3)C2)c1
REMARK SMILES IDX 20 1 19 2 18 3 17 4 16 5 14 6 15 7 12 8 9 9 10 10 94 11
REMARK SMILES IDX 11 12 8 13 7 14 6 15 1 16 2 17 3 18 95 19 4 20 5 21 13 22
REMARK SMILES IDX 21 26 22 27 23 28 24 29 25 30 26 31 27 32 28 33 29 34 93 35
REMARK SMILES IDX 30 36 92 37 31 38 32 39 33 40 86 41 34 42 91 43 85 44 87 45
REMARK SMILES IDX 35 46 90 47 84 48 83 49 36 51 70 52 49 53 69 54 50 55 53 56
REMARK SMILES IDX 68 57 88 58 51 59 52 60 67 62 89 63 54 64 37 65 38 66 47 67
REMARK SMILES IDX 39 68 40 69 46 70 48 71 41 72 42 73 43 74 44 75 45 76 71 77
REMARK SMILES IDX 72 78 81 79 73 80 74 81 80 82 82 83 75 84 76 85 77 86 78 87
REMARK SMILES IDX 79 88 55 89 56 90 65 91 57 92 58 93 64 94 66 95 59 96 60 97
REMARK SMILES IDX 61 98 62 99 63 100
REMARK H PARENT 13 23 13 24 13 25 87 50 53 61
REMARK Flexibility Score: inf
ROOT
ATOM      1  C   UNL A   1      42.898  18.921  26.105  1.00  0.00     0.188 C 
ENDROOT
BRANCH   1   2
ATOM      2  O   UNL A   1      41.641  19.083  25.420  1.00  0.00    -0.376 OA
BRANCH   2   3
ATOM      3  C   UNL A   1      40.341  19.290  26.025  1.00  0.00     0.202 C 
BRANCH   3   4
ATOM      4  C   UNL A   1      38.693  19.541  25.448  1.00  0.00     0.261 C 
BRANCH   4   5
ATOM      5  O   UNL A   1      37.667  20.970  24.836  1.00  0.00    -0.459 OA
BRANCH   5   6
ATOM      6  C   UNL A   1      36.325  21.633  25.011  1.00  0.00     0.368 C 
ATOM      7  O   UNL A   1      35.515  21.410  25.924  1.00  0.00    -0.245 OA
BRANCH   6   8
ATOM      8  C   UNL A   1      35.758  22.751  24.123  1.00  0.00     0.193 C 
ATOM      9  C   UNL A   1      34.474  24.890  24.360  1.00  0.00     0.054 C 
ATOM     10  C   UNL A   1      33.779  23.983  23.342  1.00  0.00     0.022 C 
ATOM     11  C   UNL A   1      35.358  23.949  25.139  1.00  0.00     0.095 C 
ATOM     12  C   UNL A   1      34.384  22.566  23.502  1.00  0.00     0.082 C 
BRANCH   9  13
ATOM     13  S   UNL A   1      33.463  26.099  25.324  1.00  0.00    -0.154 SA
BRANCH  13  14
ATOM     14  C   UNL A   1      32.804  27.312  24.099  1.00  0.00     0.105 C 
BRANCH  14  15
ATOM     15  C   UNL A   1      31.307  27.313  23.892  1.00  0.00    -0.038 A 
ATOM     16  C   UNL A   1      28.603  29.532  22.323  1.00  0.00     0.044 C 
ATOM     17  C   UNL A   1      29.293  28.447  23.094  1.00  0.00    -0.051 A 
ATOM     18  C   UNL A   1      28.519  27.375  23.539  1.00  0.00     0.003 A 
ATOM     19  C   UNL A   1      30.683  28.422  23.295  1.00  0.00     0.008 A 
ATOM     20  C   UNL A   1      29.131  26.239  24.048  1.00  0.00     0.001 A 
ATOM     21  C   UNL A   1      30.518  26.190  24.167  1.00  0.00     0.004 A 
ENDBRANCH  14  15
ENDBRANCH  13  14
ENDBRANCH   9  13
BRANCH   8  22
ATOM     22  N   UNL A   1      36.807  23.265  23.220  1.00  0.00    -0.343 N 
ATOM     23  H   UNL A   1      37.648  23.475  23.759  1.00  0.00     0.345 HD
ATOM     24  H   UNL A   1      36.476  24.113  22.761  1.00  0.00     0.345 HD
ATOM     25  H   UNL A   1      37.024  22.560  22.515  1.00  0.00     0.345 HD
ENDBRANCH   8  22
ENDBRANCH   6   8
ENDBRANCH   5   6
ENDBRANCH   4   5
ENDBRANCH   3   4
ENDBRANCH   2   3
ENDBRANCH   1   2
BRANCH   1  26
ATOM     26  C   UNL A   1      44.183  18.792  25.326  1.00  0.00     0.188 C 
BRANCH  26  27
ATOM     27  O   UNL A   1      44.406  20.016  24.668  1.00  0.00    -0.376 OA
BRANCH  27  28
ATOM     28  C   UNL A   1      45.350  20.871  25.250  1.00  0.00     0.202 C 
BRANCH  28  29
ATOM     29  C   UNL A   1      44.838  22.307  25.316  1.00  0.00     0.261 C 
BRANCH  29  30
ATOM     30  O   UNL A   1      43.808  22.508  26.318  1.00  0.00    -0.460 OA
BRANCH  30  31
ATOM     31  C   UNL A   1      42.502  22.766  25.906  1.00  0.00     0.338 C 
ATOM     32  O   UNL A   1      41.888  22.019  25.204  1.00  0.00    -0.246 OA
BRANCH  31  33
ATOM     33  C   UNL A   1      41.905  23.878  26.717  1.00  0.00     0.060 A 
ATOM     34  C   UNL A   1      41.086  24.947  26.332  1.00  0.00     0.016 A 
ATOM     35  C   UNL A   1      42.264  23.868  28.009  1.00  0.00     0.016 A 
ATOM     36  C   UNL A   1      40.938  26.183  27.118  1.00  0.00     0.010 A 
ATOM     37  C   UNL A   1      42.186  25.077  28.676  1.00  0.00     0.010 A 
ATOM     38  C   UNL A   1      41.646  26.398  28.303  1.00  0.00    -0.014 A 
BRANCH  38  39
ATOM     39  C   UNL A   1      41.777  27.984  29.217  1.00  0.00     0.031 A 
ATOM     40  C   UNL A   1      40.568  29.348  29.418  1.00  0.00     0.074 A 
ATOM     41  C   UNL A   1      42.962  28.390  29.729  1.00  0.00     0.049 A 
ATOM     42  N   UNL A   1      40.847  30.634  29.484  1.00  0.00    -0.248 NA
ATOM     43  C   UNL A   1      39.007  29.328  29.376  1.00  0.00     0.031 C 
ATOM     44  C   UNL A   1      43.153  29.444  30.729  1.00  0.00     0.029 A 
ATOM     45  N   UNL A   1      44.255  27.915  29.497  1.00  0.00    -0.354 N 
ATOM     46  C   UNL A   1      39.639  31.343  29.711  1.00  0.00     0.074 A 
ATOM     47  C   UNL A   1      38.583  30.556  29.253  1.00  0.00     0.031 C 
ATOM     48  C   UNL A   1      44.465  29.693  30.850  1.00  0.00     0.029 A 
ATOM     49  C   UNL A   1      45.128  28.969  29.782  1.00  0.00     0.049 A 
ATOM     50  H   UNL A   1      44.503  27.011  29.193  1.00  0.00     0.167 HD
ATOM     51  C   UNL A   1      39.510  32.395  30.566  1.00  0.00     0.037 A 
ATOM     52  C   UNL A   1      45.953  29.484  28.828  1.00  0.00     0.037 A 
ATOM     53  C   UNL A   1      40.828  32.829  30.956  1.00  0.00     0.049 A 
ATOM     54  C   UNL A   1      45.787  30.972  28.697  1.00  0.00     0.074 A 
ATOM     55  C   UNL A   1      41.598  32.807  32.099  1.00  0.00     0.029 A 
ATOM     56  N   UNL A   1      41.701  33.093  29.916  1.00  0.00    -0.354 N 
ATOM     57  N   UNL A   1      44.784  31.614  29.230  1.00  0.00    -0.248 NA
ATOM     58  C   UNL A   1      46.713  31.876  28.022  1.00  0.00     0.031 C 
ATOM     59  C   UNL A   1      42.941  33.123  31.721  1.00  0.00     0.029 A 
ATOM     60  C   UNL A   1      42.965  33.344  30.355  1.00  0.00     0.049 A 
ATOM     61  H   UNL A   1      41.438  33.099  28.967  1.00  0.00     0.167 HD
ATOM     62  C   UNL A   1      44.883  32.943  28.973  1.00  0.00     0.074 A 
ATOM     63  C   UNL A   1      46.118  33.067  28.224  1.00  0.00     0.031 C 
ATOM     64  C   UNL A   1      43.912  33.811  29.361  1.00  0.00     0.037 A 
BRANCH  51  65
ATOM     65  C   UNL A   1      38.153  32.847  31.160  1.00  0.00     0.058 A 
ATOM     66  C   UNL A   1      37.296  33.700  30.440  1.00  0.00     0.135 A 
ATOM     67  C   UNL A   1      37.624  32.469  32.429  1.00  0.00     0.135 A 
ATOM     68  F   UNL A   1      37.610  34.108  29.204  1.00  0.00    -0.206 F 
ATOM     69  C   UNL A   1      36.065  34.164  30.938  1.00  0.00     0.059 A 
ATOM     70  C   UNL A   1      36.454  33.001  32.991  1.00  0.00     0.059 A 
ATOM     71  F   UNL A   1      38.159  31.473  33.149  1.00  0.00    -0.206 F 
ATOM     72  C   UNL A   1      35.657  33.826  32.222  1.00  0.00     0.060 A 
BRANCH  72  73
ATOM     73  S   UNL A   1      34.051  34.382  32.833  1.00  0.00     0.124 S 
ATOM     74  O   UNL A   1      33.476  33.154  33.372  1.00  0.00    -0.237 OA
ATOM     75  O   UNL A   1      34.437  35.388  33.816  1.00  0.00    -0.237 OA
ATOM     76  O   UNL A   1      33.389  34.898  31.637  1.00  0.00    -0.744 OA
ENDBRANCH  72  73
ENDBRANCH  51  65
BRANCH  52  77
ATOM     77  C   UNL A   1      46.365  28.465  27.815  1.00  0.00     0.058 A 
ATOM     78  C   UNL A   1      45.602  28.421  26.626  1.00  0.00     0.135 A 
ATOM     79  C   UNL A   1      47.659  27.921  27.755  1.00  0.00     0.135 A 
ATOM     80  F   UNL A   1      44.359  28.933  26.611  1.00  0.00    -0.206 F 
ATOM     81  C   UNL A   1      46.137  28.011  25.410  1.00  0.00     0.059 A 
ATOM     82  C   UNL A   1      48.209  27.469  26.541  1.00  0.00     0.059 A 
ATOM     83  F   UNL A   1      48.448  27.939  28.838  1.00  0.00    -0.206 F 
ATOM     84  C   UNL A   1      47.458  27.578  25.366  1.00  0.00     0.060 A 
BRANCH  84  85
ATOM     85  S   UNL A   1      48.190  27.353  23.724  1.00  0.00     0.124 S 
ATOM     86  O   UNL A   1      48.120  25.909  23.542  1.00  0.00    -0.237 OA
ATOM     87  O   UNL A   1      47.276  28.131  22.885  1.00  0.00    -0.237 OA
ATOM     88  O   UNL A   1      49.531  27.905  23.873  1.00  0.00    -0.744 OA
ENDBRANCH  84  85
ENDBRANCH  52  77
BRANCH  64  89
ATOM     89  C   UNL A   1      43.675  35.163  28.739  1.00  0.00     0.058 A 
ATOM     90  C   UNL A   1      43.330  35.333  27.389  1.00  0.00     0.135 A 
ATOM     91  C   UNL A   1      43.566  36.316  29.553  1.00  0.00     0.135 A 
ATOM     92  F   UNL A   1      43.234  34.289  26.553  1.00  0.00    -0.206 F 
ATOM     93  C   UNL A   1      43.009  36.576  26.855  1.00  0.00     0.059 A 
ATOM     94  C   UNL A   1      43.180  37.555  29.053  1.00  0.00     0.059 A 
ATOM     95  F   UNL A   1      43.793  36.267  30.875  1.00  0.00    -0.206 F 
ATOM     96  C   UNL A   1      42.950  37.684  27.692  1.00  0.00     0.060 A 
BRANCH  96  97
ATOM     97  S   UNL A   1      42.568  39.302  27.007  1.00  0.00     0.124 S 
ATOM     98  O   UNL A   1      41.322  39.020  26.301  1.00  0.00    -0.237 OA
ATOM     99  O   UNL A   1      42.442  40.142  28.193  1.00  0.00    -0.237 OA
ATOM    100  O   UNL A   1      43.724  39.584  26.163  1.00  0.00    -0.744 OA
ENDBRANCH  96  97
ENDBRANCH  64  89
ENDBRANCH  38  39
ENDBRANCH  31  33
ENDBRANCH  30  31
ENDBRANCH  29  30
ENDBRANCH  28  29
ENDBRANCH  27  28
ENDBRANCH  26  27
ENDBRANCH   1  26
TORSDOF 24
ENDMDL
MODEL 2
REMARK VINA RESULT:     -11.8      2.459      3.509
REMARK SMILES Cc1cccc(CS[C@@H]2CC[C@]([NH3+])(C(=O)OCCOCCOCCOC(=O)c3ccc(-c4c5nc(c(-c6c(F)cc(S(=O)(=O)[O-])cc6F)c6ccc([nH]6)c(-c6c(F)cc(S(=O)(=O)[O-])cc6F)c6nc(c(-c7c(F)cc(S(=O)(=O)[O-])cc7F)c7ccc4[nH]7)C=C6)C=C5)cc3)C2)c1
REMARK SMILES IDX 20 1 19 2 18 3 17 4 16 5 14 6 15 7 12 8 9 9 10 10 94 11
REMARK SMILES IDX 11 12 8 13 7 14 6 15 1 16 2 17 3 18 95 19 4 20 5 21 13 22
REMARK SMILES IDX 21 26 22 27 23 28 24 29 25 30 26 31 27 32 28 33 29 34 93 35
REMARK SMILES IDX 30 36 92 37 31 38 32 39 33 40 86 41 34 42 91 43 85 44 87 45
REMARK SMILES IDX 35 46 90 47 84 48 83 49 36 51 70 52 49 53 69 54 50 55 53 56
REMARK SMILES IDX 68 57 88 58 51 59 52 60 67 62 89 63 54 64 37 65 38 66 47 67
REMARK SMILES IDX 39 68 40 69 46 70 48 71 41 72 42 73 43 74 44 75 45 76 71 77
REMARK SMILES IDX 72 78 81 79 73 80 74 81 80 82 82 83 75 84 76 85 77 86 78 87
REMARK SMILES IDX 79 88 55 89 56 90 65 91 57 92 58 93 64 94 66 95 59 96 60 97
REMARK SMILES IDX 61 98 62 99 63 100
REMARK H PARENT 13 23 13 24 13 25 87 50 53 61
REMARK Flexibility Score: inf
ROOT
ATOM      1  C   UNL A   1      44.165  18.589  24.795  1.00  0.00     0.188 C 
ENDROOT
BRANCH   1   2
ATOM      2  O   UNL A   1      43.125  18.340  25.759  1.00  0.00    -0.376 OA
BRANCH   2   3
ATOM      3  C   UNL A   1      42.013  19.211  26.085  1.00  0.00     0.202 C 
BRANCH   3   4
ATOM      4  C   UNL A   1      40.269  19.202  25.825  1.00  0.00     0.261 C 
BRANCH   4   5
ATOM      5  O   UNL A   1      38.939  20.454  25.457  1.00  0.00    -0.459 OA
BRANCH   5   6
ATOM      6  C   UNL A   1      38.487  21.847  25.809  1.00  0.00     0.368 C 
ATOM      7  O   UNL A   1      38.981  22.575  26.685  1.00  0.00    -0.245 OA
BRANCH   6   8
ATOM      8  C   UNL A   1      37.378  22.634  25.094  1.00  0.00     0.193 C 
ATOM      9  C   UNL A   1      34.877  22.687  24.963  1.00  0.00     0.054 C 
ATOM     10  C   UNL A   1      35.464  22.593  23.552  1.00  0.00     0.022 C 
ATOM     11  C   UNL A   1      36.005  22.235  25.855  1.00  0.00     0.095 C 
ATOM     12  C   UNL A   1      36.954  22.199  23.702  1.00  0.00     0.082 C 
BRANCH   9  13
ATOM     13  S   UNL A   1      33.200  21.980  25.287  1.00  0.00    -0.154 SA
BRANCH  13  14
ATOM     14  C   UNL A   1      33.475  20.256  25.884  1.00  0.00     0.105 C 
BRANCH  14  15
ATOM     15  C   UNL A   1      33.494  19.175  24.827  1.00  0.00    -0.038 A 
ATOM     16  C   UNL A   1      31.946  18.456  21.395  1.00  0.00     0.044 C 
ATOM     17  C   UNL A   1      32.675  18.302  22.695  1.00  0.00    -0.051 A 
ATOM     18  C   UNL A   1      33.460  17.161  22.866  1.00  0.00     0.003 A 
ATOM     19  C   UNL A   1      32.677  19.294  23.689  1.00  0.00     0.008 A 
ATOM     20  C   UNL A   1      34.336  17.074  23.939  1.00  0.00     0.001 A 
ATOM     21  C   UNL A   1      34.391  18.101  24.877  1.00  0.00     0.004 A 
ENDBRANCH  14  15
ENDBRANCH  13  14
ENDBRANCH   9  13
BRANCH   8  22
ATOM     22  N   UNL A   1      37.584  24.085  25.278  1.00  0.00    -0.343 N 
ATOM     23  H   UNL A   1      38.037  24.253  26.178  1.00  0.00     0.345 HD
ATOM     24  H   UNL A   1      36.684  24.562  25.256  1.00  0.00     0.345 HD
ATOM     25  H   UNL A   1      38.177  24.442  24.529  1.00  0.00     0.345 HD
ENDBRANCH   8  22
ENDBRANCH   6   8
ENDBRANCH   5   6
ENDBRANCH   4   5
ENDBRANCH   3   4
ENDBRANCH   2   3
ENDBRANCH   1   2
BRANCH   1  26
ATOM     26  C   UNL A   1      45.099  19.762  24.961  1.00  0.00     0.188 C 
BRANCH  26  27
ATOM     27  O   UNL A   1      44.601  20.816  24.172  1.00  0.00    -0.376 OA
BRANCH  27  28
ATOM     28  C   UNL A   1      44.772  22.108  24.683  1.00  0.00     0.202 C 
BRANCH  28  29
ATOM     29  C   UNL A   1      43.500  22.939  24.542  1.00  0.00     0.261 C 
BRANCH  29  30
ATOM     30  O   UNL A   1      42.453  22.556  25.471  1.00  0.00    -0.460 OA
BRANCH  30  31
ATOM     31  C   UNL A   1      42.593  22.875  26.820  1.00  0.00     0.338 C 
ATOM     32  O   UNL A   1      43.282  22.242  27.565  1.00  0.00    -0.246 OA
BRANCH  31  33
ATOM     33  C   UNL A   1      42.063  24.251  27.093  1.00  0.00     0.060 A 
ATOM     34  C   UNL A   1      42.168  25.432  26.346  1.00  0.00     0.016 A 
ATOM     35  C   UNL A   1      41.434  24.373  28.271  1.00  0.00     0.016 A 
ATOM     36  C   UNL A   1      41.993  26.776  26.921  1.00  0.00     0.010 A 
ATOM     37  C   UNL A   1      41.374  25.647  28.804  1.00  0.00     0.010 A 
ATOM     38  C   UNL A   1      41.745  26.976  28.281  1.00  0.00    -0.014 A 
BRANCH  38  39
ATOM     39  C   UNL A   1      41.793  28.580  29.170  1.00  0.00     0.031 A 
ATOM     40  C   UNL A   1      40.517  29.885  29.347  1.00  0.00     0.074 A 
ATOM     41  C   UNL A   1      42.955  29.053  29.679  1.00  0.00     0.049 A 
ATOM     42  N   UNL A   1      40.731  31.185  29.393  1.00  0.00    -0.248 NA
ATOM     43  C   UNL A   1      38.959  29.786  29.300  1.00  0.00     0.031 C 
ATOM     44  C   UNL A   1      43.090  30.131  30.663  1.00  0.00     0.029 A 
ATOM     45  N   UNL A   1      44.271  28.640  29.459  1.00  0.00    -0.354 N 
ATOM     46  C   UNL A   1      39.488  31.835  29.606  1.00  0.00     0.074 A 
ATOM     47  C   UNL A   1      38.475  30.990  29.158  1.00  0.00     0.031 C 
ATOM     48  C   UNL A   1      44.388  30.448  30.783  1.00  0.00     0.029 A 
ATOM     49  C   UNL A   1      45.089  29.741  29.729  1.00  0.00     0.049 A 
ATOM     50  H   UNL A   1      44.565  27.745  29.169  1.00  0.00     0.167 HD
ATOM     51  C   UNL A   1      39.304  32.893  30.443  1.00  0.00     0.037 A 
ATOM     52  C   UNL A   1      45.890  30.281  28.769  1.00  0.00     0.037 A 
ATOM     53  C   UNL A   1      40.597  33.398  30.830  1.00  0.00     0.049 A 
ATOM     54  C   UNL A   1      45.651  31.757  28.613  1.00  0.00     0.074 A 
ATOM     55  C   UNL A   1      41.364  33.433  31.975  1.00  0.00     0.029 A 
ATOM     56  N   UNL A   1      41.460  33.689  29.788  1.00  0.00    -0.354 N 
ATOM     57  N   UNL A   1      44.615  32.356  29.134  1.00  0.00    -0.248 NA
ATOM     58  C   UNL A   1      46.532  32.695  27.927  1.00  0.00     0.031 C 
ATOM     59  C   UNL A   1      42.691  33.810  31.596  1.00  0.00     0.029 A 
ATOM     60  C   UNL A   1      42.708  34.011  30.226  1.00  0.00     0.049 A 
ATOM     61  H   UNL A   1      41.200  33.668  28.838  1.00  0.00     0.167 HD
ATOM     62  C   UNL A   1      44.648  33.684  28.856  1.00  0.00     0.074 A 
ATOM     63  C   UNL A   1      45.878  33.858  28.108  1.00  0.00     0.031 C 
ATOM     64  C   UNL A   1      43.634  34.509  29.228  1.00  0.00     0.037 A 
BRANCH  51  65
ATOM     65  C   UNL A   1      37.924  33.286  31.026  1.00  0.00     0.058 A 
ATOM     66  C   UNL A   1      37.629  33.082  32.387  1.00  0.00     0.135 A 
ATOM     67  C   UNL A   1      36.847  33.882  30.306  1.00  0.00     0.135 A 
ATOM     68  F   UNL A   1      38.547  32.583  33.224  1.00  0.00    -0.206 F 
ATOM     69  C   UNL A   1      36.386  33.395  32.966  1.00  0.00     0.059 A 
ATOM     70  C   UNL A   1      35.566  34.105  30.834  1.00  0.00     0.059 A 
ATOM     71  F   UNL A   1      37.014  34.388  29.076  1.00  0.00    -0.206 F 
ATOM     72  C   UNL A   1      35.352  33.890  32.181  1.00  0.00     0.060 A 
BRANCH  72  73
ATOM     73  S   UNL A   1      33.777  34.339  32.944  1.00  0.00     0.124 S 
ATOM     74  O   UNL A   1      34.193  35.233  34.021  1.00  0.00    -0.237 OA
ATOM     75  O   UNL A   1      33.075  34.967  31.832  1.00  0.00    -0.237 OA
ATOM     76  O   UNL A   1      33.232  33.057  33.386  1.00  0.00    -0.744 OA
ENDBRANCH  72  73
ENDBRANCH  51  65
BRANCH  52  77
ATOM     77  C   UNL A   1      46.357  29.269  27.773  1.00  0.00     0.058 A 
ATOM     78  C   UNL A   1      47.508  28.528  28.128  1.00  0.00     0.135 A 
ATOM     79  C   UNL A   1      45.515  28.701  26.803  1.00  0.00     0.135 A 
ATOM     80  F   UNL A   1      48.351  29.009  29.057  1.00  0.00    -0.206 F 
ATOM     81  C   UNL A   1      47.733  27.234  27.670  1.00  0.00     0.059 A 
ATOM     82  C   UNL A   1      45.742  27.406  26.301  1.00  0.00     0.059 A 
ATOM     83  F   UNL A   1      44.397  29.337  26.425  1.00  0.00    -0.206 F 
ATOM     84  C   UNL A   1      46.821  26.661  26.790  1.00  0.00     0.060 A 
BRANCH  84  85
ATOM     85  S   UNL A   1      46.995  24.886  26.475  1.00  0.00     0.124 S 
ATOM     86  O   UNL A   1      48.254  24.570  27.138  1.00  0.00    -0.237 OA
ATOM     87  O   UNL A   1      45.798  24.351  27.126  1.00  0.00    -0.237 OA
ATOM     88  O   UNL A   1      47.011  24.800  25.020  1.00  0.00    -0.744 OA
ENDBRANCH  84  85
ENDBRANCH  52  77
BRANCH  64  89
ATOM     89  C   UNL A   1      43.332  35.837  28.583  1.00  0.00     0.058 A 
ATOM     90  C   UNL A   1      42.736  35.954  27.318  1.00  0.00     0.135 A 
ATOM     91  C   UNL A   1      43.429  37.034  29.333  1.00  0.00     0.135 A 
ATOM     92  F   UNL A   1      42.438  34.876  26.580  1.00  0.00    -0.206 F 
ATOM     93  C   UNL A   1      42.364  37.183  26.783  1.00  0.00     0.059 A 
ATOM     94  C   UNL A   1      43.000  38.263  28.844  1.00  0.00     0.059 A 
ATOM     95  F   UNL A   1      43.908  37.041  30.587  1.00  0.00    -0.206 F 
ATOM     96  C   UNL A   1      42.513  38.333  27.548  1.00  0.00     0.060 A 
BRANCH  96  97
ATOM     97  S   UNL A   1      42.066  39.931  26.854  1.00  0.00     0.124 S 
ATOM     98  O   UNL A   1      41.793  40.697  28.066  1.00  0.00    -0.237 OA
ATOM     99  O   UNL A   1      43.267  40.321  26.123  1.00  0.00    -0.237 OA
ATOM    100  O   UNL A   1      40.907  39.619  26.026  1.00  0.00    -0.744 OA
ENDBRANCH  96  97
ENDBRANCH  64  89
ENDBRANCH  38  39
ENDBRANCH  31  33
ENDBRANCH  30  31
ENDBRANCH  29  30
ENDBRANCH  28  29
ENDBRANCH  27  28
ENDBRANCH  26  27
ENDBRANCH   1  26
TORSDOF 24
ENDMDL
MODEL 3
REMARK VINA RESULT:     -11.8      1.736      2.537
REMARK SMILES Cc1cccc(CS[C@@H]2CC[C@]([NH3+])(C(=O)OCCOCCOCCOC(=O)c3ccc(-c4c5nc(c(-c6c(F)cc(S(=O)(=O)[O-])cc6F)c6ccc([nH]6)c(-c6c(F)cc(S(=O)(=O)[O-])cc6F)c6nc(c(-c7c(F)cc(S(=O)(=O)[O-])cc7F)c7ccc4[nH]7)C=C6)C=C5)cc3)C2)c1
REMARK SMILES IDX 20 1 19 2 18 3 17 4 16 5 14 6 15 7 12 8 9 9 10 10 94 11
REMARK SMILES IDX 11 12 8 13 7 14 6 15 1 16 2 17 3 18 95 19 4 20 5 21 13 22
REMARK SMILES IDX 21 26 22 27 23 28 24 29 25 30 26 31 27 32 28 33 29 34 93 35
REMARK SMILES IDX 30 36 92 37 31 38 32 39 33 40 86 41 34 42 91 43 85 44 87 45
REMARK SMILES IDX 35 46 90 47 84 48 83 49 36 51 70 52 49 53 69 54 50 55 53 56
REMARK SMILES IDX 68 57 88 58 51 59 52 60 67 62 89 63 54 64 37 65 38 66 47 67
REMARK SMILES IDX 39 68 40 69 46 70 48 71 41 72 42 73 43 74 44 75 45 76 71 77
REMARK SMILES IDX 72 78 81 79 73 80 74 81 80 82 82 83 75 84 76 85 77 86 78 87
REMARK SMILES IDX 79 88 55 89 56 90 65 91 57 92 58 93 64 94 66 95 59 96 60 97
REMARK SMILES IDX 61 98 62 99 63 100
REMARK H PARENT 13 23 13 24 13 25 87 50 53 61
REMARK Flexibility Score: inf
ROOT
ATOM      1  C   UNL A   1      42.005  19.462  26.366  1.00  0.00     0.188 C 
ENDROOT
BRANCH   1   2
ATOM      2  O   UNL A   1      40.933  19.171  25.450  1.00  0.00    -0.376 OA
BRANCH   2   3
ATOM      3  C   UNL A   1      39.512  19.210  25.732  1.00  0.00     0.202 C 
BRANCH   3   4
ATOM      4  C   UNL A   1      38.085  19.935  24.991  1.00  0.00     0.261 C 
BRANCH   4   5
ATOM      5  O   UNL A   1      36.887  21.304  25.393  1.00  0.00    -0.459 OA
BRANCH   5   6
ATOM      6  C   UNL A   1      35.523  21.834  25.034  1.00  0.00     0.368 C 
ATOM      7  O   UNL A   1      35.225  22.430  23.987  1.00  0.00    -0.245 OA
BRANCH   6   8
ATOM      8  C   UNL A   1      34.249  21.667  25.876  1.00  0.00     0.193 C 
ATOM      9  C   UNL A   1      32.270  23.019  26.606  1.00  0.00     0.054 C 
ATOM     10  C   UNL A   1      32.939  22.385  27.829  1.00  0.00     0.022 C 
ATOM     11  C   UNL A   1      33.335  22.962  25.541  1.00  0.00     0.095 C 
ATOM     12  C   UNL A   1      34.332  21.880  27.378  1.00  0.00     0.082 C 
BRANCH   9  13
ATOM     13  S   UNL A   1      31.353  24.611  26.809  1.00  0.00    -0.154 SA
BRANCH  13  14
ATOM     14  C   UNL A   1      32.359  25.897  25.949  1.00  0.00     0.105 C 
BRANCH  14  15
ATOM     15  C   UNL A   1      31.857  26.351  24.598  1.00  0.00    -0.038 A 
ATOM     16  C   UNL A   1      32.536  25.687  20.884  1.00  0.00     0.044 C 
ATOM     17  C   UNL A   1      32.022  26.284  22.159  1.00  0.00    -0.051 A 
ATOM     18  C   UNL A   1      30.985  27.213  22.068  1.00  0.00     0.003 A 
ATOM     19  C   UNL A   1      32.470  25.875  23.426  1.00  0.00     0.008 A 
ATOM     20  C   UNL A   1      30.314  27.621  23.211  1.00  0.00     0.001 A 
ATOM     21  C   UNL A   1      30.713  27.147  24.458  1.00  0.00     0.004 A 
ENDBRANCH  14  15
ENDBRANCH  13  14
ENDBRANCH   9  13
BRANCH   8  22
ATOM     22  N   UNL A   1      33.503  20.470  25.438  1.00  0.00    -0.343 N 
ATOM     23  H   UNL A   1      34.139  19.673  25.385  1.00  0.00     0.345 HD
ATOM     24  H   UNL A   1      33.095  20.640  24.520  1.00  0.00     0.345 HD
ATOM     25  H   UNL A   1      32.761  20.267  26.108  1.00  0.00     0.345 HD
ENDBRANCH   8  22
ENDBRANCH   6   8
ENDBRANCH   5   6
ENDBRANCH   4   5
ENDBRANCH   3   4
ENDBRANCH   2   3
ENDBRANCH   1   2
BRANCH   1  26
ATOM     26  C   UNL A   1      43.403  19.705  25.856  1.00  0.00     0.188 C 
BRANCH  26  27
ATOM     27  O   UNL A   1      43.357  20.825  25.006  1.00  0.00    -0.376 OA
BRANCH  27  28
ATOM     28  C   UNL A   1      43.649  22.063  25.594  1.00  0.00     0.202 C 
BRANCH  28  29
ATOM     29  C   UNL A   1      42.443  22.997  25.562  1.00  0.00     0.261 C 
BRANCH  29  30
ATOM     30  O   UNL A   1      41.835  23.201  26.864  1.00  0.00    -0.460 OA
BRANCH  30  31
ATOM     31  C   UNL A   1      40.454  23.358  26.952  1.00  0.00     0.338 C 
ATOM     32  O   UNL A   1      39.709  22.435  27.105  1.00  0.00    -0.246 OA
BRANCH  31  33
ATOM     33  C   UNL A   1      40.101  24.799  27.168  1.00  0.00     0.060 A 
ATOM     34  C   UNL A   1      40.491  25.947  26.467  1.00  0.00     0.016 A 
ATOM     35  C   UNL A   1      39.328  25.019  28.242  1.00  0.00     0.016 A 
ATOM     36  C   UNL A   1      40.434  27.305  27.034  1.00  0.00     0.010 A 
ATOM     37  C   UNL A   1      39.379  26.290  28.783  1.00  0.00     0.010 A 
ATOM     38  C   UNL A   1      40.018  27.545  28.345  1.00  0.00    -0.014 A 
BRANCH  38  39
ATOM     39  C   UNL A   1      40.171  29.128  29.260  1.00  0.00     0.031 A 
ATOM     40  C   UNL A   1      39.054  30.582  29.326  1.00  0.00     0.074 A 
ATOM     41  C   UNL A   1      41.323  29.451  29.894  1.00  0.00     0.049 A 
ATOM     42  N   UNL A   1      39.422  31.844  29.415  1.00  0.00    -0.248 NA
ATOM     43  C   UNL A   1      37.510  30.678  29.117  1.00  0.00     0.031 C 
ATOM     44  C   UNL A   1      41.486  30.500  30.904  1.00  0.00     0.029 A 
ATOM     45  N   UNL A   1      42.593  28.878  29.804  1.00  0.00    -0.354 N 
ATOM     46  C   UNL A   1      38.254  32.644  29.509  1.00  0.00     0.074 A 
ATOM     47  C   UNL A   1      37.196  31.933  28.945  1.00  0.00     0.031 C 
ATOM     48  C   UNL A   1      42.794  30.652  31.163  1.00  0.00     0.029 A 
ATOM     49  C   UNL A   1      43.509  29.867  30.175  1.00  0.00     0.049 A 
ATOM     50  H   UNL A   1      42.803  27.954  29.532  1.00  0.00     0.167 HD
ATOM     51  C   UNL A   1      38.115  33.713  30.340  1.00  0.00     0.037 A 
ATOM     52  C   UNL A   1      44.466  30.306  29.312  1.00  0.00     0.037 A 
ATOM     53  C   UNL A   1      39.413  34.052  30.866  1.00  0.00     0.049 A 
ATOM     54  C   UNL A   1      44.429  31.801  29.157  1.00  0.00     0.074 A 
ATOM     55  C   UNL A   1      40.054  33.987  32.085  1.00  0.00     0.029 A 
ATOM     56  N   UNL A   1      40.409  34.237  29.924  1.00  0.00    -0.354 N 
ATOM     57  N   UNL A   1      43.426  32.523  29.577  1.00  0.00    -0.248 NA
ATOM     58  C   UNL A   1      45.486  32.624  28.580  1.00  0.00     0.031 C 
ATOM     59  C   UNL A   1      41.450  34.197  31.851  1.00  0.00     0.029 A 
ATOM     60  C   UNL A   1      41.635  34.399  30.494  1.00  0.00     0.049 A 
ATOM     61  H   UNL A   1      40.249  34.251  28.952  1.00  0.00     0.167 HD
ATOM     62  C   UNL A   1      43.653  33.838  29.326  1.00  0.00     0.074 A 
ATOM     63  C   UNL A   1      44.965  33.859  28.712  1.00  0.00     0.031 C 
ATOM     64  C   UNL A   1      42.714  34.781  29.604  1.00  0.00     0.037 A 
BRANCH  51  65
ATOM     65  C   UNL A   1      36.741  34.273  30.784  1.00  0.00     0.058 A 
ATOM     66  C   UNL A   1      36.477  34.555  32.137  1.00  0.00     0.135 A 
ATOM     67  C   UNL A   1      35.640  34.573  29.928  1.00  0.00     0.135 A 
ATOM     68  F   UNL A   1      37.420  34.386  33.072  1.00  0.00    -0.206 F 
ATOM     69  C   UNL A   1      35.241  35.039  32.602  1.00  0.00     0.059 A 
ATOM     70  C   UNL A   1      34.367  34.954  30.378  1.00  0.00     0.059 A 
ATOM     71  F   UNL A   1      35.773  34.619  28.595  1.00  0.00    -0.206 F 
ATOM     72  C   UNL A   1      34.183  35.220  31.720  1.00  0.00     0.060 A 
BRANCH  72  73
ATOM     73  S   UNL A   1      32.617  35.894  32.318  1.00  0.00     0.124 S 
ATOM     74  O   UNL A   1      32.039  36.470  31.108  1.00  0.00    -0.237 OA
ATOM     75  O   UNL A   1      31.956  34.701  32.833  1.00  0.00    -0.237 OA
ATOM     76  O   UNL A   1      33.026  36.868  33.327  1.00  0.00    -0.744 OA
ENDBRANCH  72  73
ENDBRANCH  51  65
BRANCH  52  77
ATOM     77  C   UNL A   1      44.905  29.247  28.354  1.00  0.00     0.058 A 
ATOM     78  C   UNL A   1      44.637  29.490  26.987  1.00  0.00     0.135 A 
ATOM     79  C   UNL A   1      45.925  28.324  28.642  1.00  0.00     0.135 A 
ATOM     80  F   UNL A   1      43.680  30.368  26.641  1.00  0.00    -0.206 F 
ATOM     81  C   UNL A   1      45.430  28.975  25.967  1.00  0.00     0.059 A 
ATOM     82  C   UNL A   1      46.719  27.766  27.623  1.00  0.00     0.059 A 
ATOM     83  F   UNL A   1      46.247  28.052  29.914  1.00  0.00    -0.206 F 
ATOM     84  C   UNL A   1      46.499  28.149  26.296  1.00  0.00     0.060 A 
BRANCH  84  85
ATOM     85  S   UNL A   1      47.672  27.764  24.970  1.00  0.00     0.124 S 
ATOM     86  O   UNL A   1      47.006  28.309  23.793  1.00  0.00    -0.237 OA
ATOM     87  O   UNL A   1      48.862  28.496  25.406  1.00  0.00    -0.237 OA
ATOM     88  O   UNL A   1      47.774  26.311  25.019  1.00  0.00    -0.744 OA
ENDBRANCH  84  85
ENDBRANCH  52  77
BRANCH  64  89
ATOM     89  C   UNL A   1      42.648  36.138  28.954  1.00  0.00     0.058 A 
ATOM     90  C   UNL A   1      43.194  37.293  29.538  1.00  0.00     0.135 A 
ATOM     91  C   UNL A   1      42.228  36.267  27.608  1.00  0.00     0.135 A 
ATOM     92  F   UNL A   1      43.775  37.260  30.745  1.00  0.00    -0.206 F 
ATOM     93  C   UNL A   1      43.221  38.517  28.878  1.00  0.00     0.059 A 
ATOM     94  C   UNL A   1      42.310  37.465  26.907  1.00  0.00     0.059 A 
ATOM     95  F   UNL A   1      41.761  35.218  26.914  1.00  0.00    -0.206 F 
ATOM     96  C   UNL A   1      42.764  38.596  27.568  1.00  0.00     0.060 A 
BRANCH  96  97
ATOM     97  S   UNL A   1      42.764  40.180  26.717  1.00  0.00     0.124 S 
ATOM     98  O   UNL A   1      42.721  41.105  27.846  1.00  0.00    -0.237 OA
ATOM     99  O   UNL A   1      44.019  40.156  25.973  1.00  0.00    -0.237 OA
ATOM    100  O   UNL A   1      41.555  40.118  25.903  1.00  0.00    -0.744 OA
ENDBRANCH  96  97
ENDBRANCH  64  89
ENDBRANCH  38  39
ENDBRANCH  31  33
ENDBRANCH  30  31
ENDBRANCH  29  30
ENDBRANCH  28  29
ENDBRANCH  27  28
ENDBRANCH  26  27
ENDBRANCH   1  26
TORSDOF 24
ENDMDL
