MODEL 1
REMARK VINA RESULT:      -9.5      0.000      0.000
REMARK SMILES O=C(OCCOCCOCCOC(=O)c1ccc(-c2c3nc(c(-c4c(F)cc(S(=O)(=O)[O-])cc4F)c4ccc([nH]4)c(-c4c(F)cc(S(=O)(=O)[O-])cc4F)c4nc(c(-c5c(F)cc(S(=O)(=O)[O-])cc5F)c5ccc2[nH]5)C=C4)C=C3)cc1)C1=Cc2cc(Cl)cc(C#Cc3ccccc3)c2O[C@@H]1C(F)(F)F
REMARK SMILES IDX 8 1 7 2 6 3 5 4 4 5 3 6 2 7 1 8 81 9 82 10 99 11 83 12 98 13
REMARK SMILES IDX 84 14 97 15 85 16 88 17 86 18 87 19 100 20 101 21 102 22
REMARK SMILES IDX 103 23 89 24 90 25 91 26 92 27 96 28 93 29 95 30 94 31 9 32
REMARK SMILES IDX 10 33 11 34 12 35 13 36 14 37 15 38 16 39 80 40 17 41 79 42
REMARK SMILES IDX 18 43 19 44 20 45 73 46 21 47 78 48 72 49 74 50 22 51 77 52
REMARK SMILES IDX 71 53 70 54 23 56 57 57 36 58 56 59 37 60 40 61 55 62 75 63
REMARK SMILES IDX 38 64 39 65 54 67 76 68 41 69 24 70 25 71 34 72 26 73 27 74
REMARK SMILES IDX 33 75 35 76 28 77 29 78 30 79 31 80 32 81 58 82 59 83 68 84
REMARK SMILES IDX 60 85 61 86 67 87 69 88 62 89 63 90 64 91 65 92 66 93 42 94
REMARK SMILES IDX 43 95 52 96 44 97 45 98 51 99 53 100 46 101 47 102 48 103
REMARK SMILES IDX 49 104 50 105
REMARK H PARENT 74 55 40 66
REMARK Flexibility Score: inf
ROOT
ATOM      1  C   UNL A   1      38.270  30.797  35.967  1.00  0.00     0.188 C 
ENDROOT
BRANCH   1   2
ATOM      2  C   UNL A   1      37.848  32.041  36.756  1.00  0.00     0.188 C 
BRANCH   2   3
ATOM      3  O   UNL A   1      36.971  33.101  36.207  1.00  0.00    -0.376 OA
BRANCH   3   4
ATOM      4  C   UNL A   1      36.850  33.674  34.604  1.00  0.00     0.202 C 
BRANCH   4   5
ATOM      5  C   UNL A   1      35.226  34.887  33.808  1.00  0.00     0.261 C 
BRANCH   5   6
ATOM      6  O   UNL A   1      34.929  35.138  32.331  1.00  0.00    -0.460 OA
BRANCH   6   7
ATOM      7  C   UNL A   1      34.415  34.059  31.724  1.00  0.00     0.338 C 
ATOM      8  O   UNL A   1      33.935  33.073  32.224  1.00  0.00    -0.246 OA
BRANCH   7   9
ATOM      9  C   UNL A   1      35.074  34.268  30.449  1.00  0.00     0.087 C 
ATOM     10  C   UNL A   1      36.204  33.383  30.175  1.00  0.00     0.027 C 
ATOM     11  C   UNL A   1      33.431  34.295  29.453  1.00  0.00     0.316 C 
ATOM     12  C   UNL A   1      36.127  31.976  29.054  1.00  0.00     0.020 A 
ATOM     13  O   UNL A   1      33.263  32.695  28.345  1.00  0.00    -0.474 OA
ATOM     14  C   UNL A   1      37.218  31.153  28.976  1.00  0.00     0.032 A 
ATOM     15  C   UNL A   1      34.685  31.555  28.178  1.00  0.00     0.143 A 
ATOM     16  C   UNL A   1      37.059  30.043  28.137  1.00  0.00     0.043 A 
ATOM     17  C   UNL A   1      34.632  30.442  27.372  1.00  0.00     0.069 A 
ATOM     18  Cl  UNL A   1      38.412  28.964  28.001  1.00  0.00    -0.084 Cl
ATOM     19  C   UNL A   1      35.860  29.717  27.381  1.00  0.00     0.041 A 
BRANCH  11  20
ATOM     20  C   UNL A   1      33.580  35.925  29.083  1.00  0.00     0.430 C 
ATOM     21  F   UNL A   1      33.763  36.848  30.025  1.00  0.00    -0.167 F 
ATOM     22  F   UNL A   1      34.625  36.064  28.224  1.00  0.00    -0.167 F 
ATOM     23  F   UNL A   1      32.495  36.382  28.387  1.00  0.00    -0.167 F 
ENDBRANCH  11  20
BRANCH  17  24
ATOM     24  C   UNL A   1      33.586  29.963  26.535  1.00  0.00    -0.058 C 
ATOM     25  C   UNL A   1      32.782  29.358  25.864  1.00  0.00    -0.062 C 
BRANCH  25  26
ATOM     26  C   UNL A   1      31.906  28.572  25.043  1.00  0.00     0.025 A 
ATOM     27  C   UNL A   1      31.173  27.525  25.607  1.00  0.00     0.017 A 
ATOM     28  C   UNL A   1      31.756  28.850  23.682  1.00  0.00     0.017 A 
ATOM     29  C   UNL A   1      30.312  26.753  24.826  1.00  0.00     0.001 A 
ATOM     30  C   UNL A   1      30.900  28.069  22.894  1.00  0.00     0.001 A 
ATOM     31  C   UNL A   1      30.181  27.019  23.467  1.00  0.00     0.000 A 
ENDBRANCH  25  26
ENDBRANCH  17  24
ENDBRANCH   7   9
ENDBRANCH   6   7
ENDBRANCH   5   6
ENDBRANCH   4   5
ENDBRANCH   3   4
ENDBRANCH   2   3
ENDBRANCH   1   2
BRANCH   1  32
ATOM     32  O   UNL A   1      39.492  30.171  36.239  1.00  0.00    -0.376 OA
BRANCH  32  33
ATOM     33  C   UNL A   1      40.445  30.118  35.191  1.00  0.00     0.202 C 
BRANCH  33  34
ATOM     34  C   UNL A   1      39.938  29.851  33.774  1.00  0.00     0.261 C 
BRANCH  34  35
ATOM     35  O   UNL A   1      40.955  29.966  32.767  1.00  0.00    -0.460 OA
BRANCH  35  36
ATOM     36  C   UNL A   1      40.763  30.903  31.810  1.00  0.00     0.338 C 
ATOM     37  O   UNL A   1      40.162  30.779  30.757  1.00  0.00    -0.246 OA
BRANCH  36  38
ATOM     38  C   UNL A   1      41.293  32.186  32.302  1.00  0.00     0.060 A 
ATOM     39  C   UNL A   1      42.658  32.301  32.609  1.00  0.00     0.016 A 
ATOM     40  C   UNL A   1      40.426  33.263  32.482  1.00  0.00     0.016 A 
ATOM     41  C   UNL A   1      43.162  33.510  33.084  1.00  0.00     0.010 A 
ATOM     42  C   UNL A   1      40.921  34.455  33.003  1.00  0.00     0.010 A 
ATOM     43  C   UNL A   1      42.285  34.574  33.326  1.00  0.00    -0.014 A 
BRANCH  43  44
ATOM     44  C   UNL A   1      42.724  35.710  34.165  1.00  0.00     0.031 A 
ATOM     45  C   UNL A   1      42.582  35.556  35.653  1.00  0.00     0.074 A 
ATOM     46  C   UNL A   1      43.204  36.842  33.625  1.00  0.00     0.049 A 
ATOM     47  N   UNL A   1      42.815  36.420  36.603  1.00  0.00    -0.248 NA
ATOM     48  C   UNL A   1      42.100  34.248  36.133  1.00  0.00     0.031 C 
ATOM     49  C   UNL A   1      43.409  37.080  32.197  1.00  0.00     0.029 A 
ATOM     50  N   UNL A   1      43.591  38.015  34.223  1.00  0.00    -0.354 N 
ATOM     51  C   UNL A   1      42.505  35.764  37.788  1.00  0.00     0.074 A 
ATOM     52  C   UNL A   1      42.037  34.443  37.440  1.00  0.00     0.031 C 
ATOM     53  C   UNL A   1      43.867  38.333  32.027  1.00  0.00     0.029 A 
ATOM     54  C   UNL A   1      43.956  38.995  33.329  1.00  0.00     0.049 A 
ATOM     55  H   UNL A   1      43.606  38.144  35.199  1.00  0.00     0.167 HD
ATOM     56  C   UNL A   1      42.608  36.225  39.055  1.00  0.00     0.037 A 
ATOM     57  C   UNL A   1      44.295  40.282  33.546  1.00  0.00     0.037 A 
ATOM     58  C   UNL A   1      43.053  37.553  39.383  1.00  0.00     0.049 A 
ATOM     59  C   UNL A   1      44.329  40.797  34.965  1.00  0.00     0.074 A 
ATOM     60  C   UNL A   1      43.206  38.123  40.633  1.00  0.00     0.029 A 
ATOM     61  N   UNL A   1      43.399  38.523  38.453  1.00  0.00    -0.354 N 
ATOM     62  N   UNL A   1      44.072  40.158  36.084  1.00  0.00    -0.248 NA
ATOM     63  C   UNL A   1      44.704  42.205  35.155  1.00  0.00     0.031 C 
ATOM     64  C   UNL A   1      43.576  39.459  40.457  1.00  0.00     0.029 A 
ATOM     65  C   UNL A   1      43.735  39.699  39.100  1.00  0.00     0.049 A 
ATOM     66  H   UNL A   1      43.404  38.394  37.477  1.00  0.00     0.167 HD
ATOM     67  C   UNL A   1      44.293  41.075  37.109  1.00  0.00     0.074 A 
ATOM     68  C   UNL A   1      44.712  42.308  36.477  1.00  0.00     0.031 C 
ATOM     69  C   UNL A   1      44.164  40.913  38.451  1.00  0.00     0.037 A 
BRANCH  56  70
ATOM     70  C   UNL A   1      42.200  35.303  40.171  1.00  0.00     0.058 A 
ATOM     71  C   UNL A   1      40.884  35.269  40.662  1.00  0.00     0.135 A 
ATOM     72  C   UNL A   1      43.130  34.415  40.733  1.00  0.00     0.135 A 
ATOM     73  F   UNL A   1      39.959  36.115  40.180  1.00  0.00    -0.206 F 
ATOM     74  C   UNL A   1      40.511  34.400  41.681  1.00  0.00     0.059 A 
ATOM     75  C   UNL A   1      42.770  33.512  41.729  1.00  0.00     0.059 A 
ATOM     76  F   UNL A   1      44.405  34.414  40.311  1.00  0.00    -0.206 F 
ATOM     77  C   UNL A   1      41.460  33.519  42.202  1.00  0.00     0.060 A 
BRANCH  77  78
ATOM     78  S   UNL A   1      40.948  32.373  43.499  1.00  0.00     0.124 S 
ATOM     79  O   UNL A   1      41.661  31.159  43.117  1.00  0.00    -0.237 OA
ATOM     80  O   UNL A   1      41.430  33.039  44.705  1.00  0.00    -0.237 OA
ATOM     81  O   UNL A   1      39.496  32.319  43.353  1.00  0.00    -0.744 OA
ENDBRANCH  77  78
ENDBRANCH  56  70
BRANCH  57  82
ATOM     82  C   UNL A   1      44.614  41.181  32.401  1.00  0.00     0.058 A 
ATOM     83  C   UNL A   1      43.646  42.036  31.853  1.00  0.00     0.135 A 
ATOM     84  C   UNL A   1      45.891  41.188  31.815  1.00  0.00     0.135 A 
ATOM     85  F   UNL A   1      42.405  42.059  32.364  1.00  0.00    -0.206 F 
ATOM     86  C   UNL A   1      43.921  42.846  30.755  1.00  0.00     0.059 A 
ATOM     87  C   UNL A   1      46.201  42.014  30.739  1.00  0.00     0.059 A 
ATOM     88  F   UNL A   1      46.859  40.396  32.300  1.00  0.00    -0.206 F 
ATOM     89  C   UNL A   1      45.204  42.831  30.206  1.00  0.00     0.060 A 
BRANCH  89  90
ATOM     90  S   UNL A   1      45.559  43.909  28.801  1.00  0.00     0.124 S 
ATOM     91  O   UNL A   1      44.898  43.201  27.711  1.00  0.00    -0.237 OA
ATOM     92  O   UNL A   1      44.940  45.164  29.217  1.00  0.00    -0.237 OA
ATOM     93  O   UNL A   1      47.018  43.924  28.748  1.00  0.00    -0.744 OA
ENDBRANCH  89  90
ENDBRANCH  57  82
BRANCH  69  94
ATOM     94  C   UNL A   1      44.535  42.074  39.336  1.00  0.00     0.058 A 
ATOM     95  C   UNL A   1      45.870  42.396  39.625  1.00  0.00     0.135 A 
ATOM     96  C   UNL A   1      43.534  42.920  39.845  1.00  0.00     0.135 A 
ATOM     97  F   UNL A   1      46.868  41.623  39.167  1.00  0.00    -0.206 F 
ATOM     98  C   UNL A   1      46.199  43.497  40.411  1.00  0.00     0.059 A 
ATOM     99  C   UNL A   1      43.841  44.047  40.600  1.00  0.00     0.059 A 
ATOM    100  F   UNL A   1      42.241  42.668  39.588  1.00  0.00    -0.206 F 
ATOM    101  C   UNL A   1      45.177  44.320  40.889  1.00  0.00     0.060 A 
BRANCH 101 102
ATOM    102  S   UNL A   1      45.620  45.765  41.874  1.00  0.00     0.124 S 
ATOM    103  O   UNL A   1      44.524  45.815  42.835  1.00  0.00    -0.237 OA
ATOM    104  O   UNL A   1      46.922  45.383  42.415  1.00  0.00    -0.237 OA
ATOM    105  O   UNL A   1      45.648  46.850  40.897  1.00  0.00    -0.744 OA
ENDBRANCH 101 102
ENDBRANCH  69  94
ENDBRANCH  43  44
ENDBRANCH  36  38
ENDBRANCH  35  36
ENDBRANCH  34  35
ENDBRANCH  33  34
ENDBRANCH  32  33
ENDBRANCH   1  32
TORSDOF 23
ENDMDL
MODEL 2
REMARK VINA RESULT:      -9.3      8.456     16.031
REMARK SMILES O=C(OCCOCCOCCOC(=O)c1ccc(-c2c3nc(c(-c4c(F)cc(S(=O)(=O)[O-])cc4F)c4ccc([nH]4)c(-c4c(F)cc(S(=O)(=O)[O-])cc4F)c4nc(c(-c5c(F)cc(S(=O)(=O)[O-])cc5F)c5ccc2[nH]5)C=C4)C=C3)cc1)C1=Cc2cc(Cl)cc(C#Cc3ccccc3)c2O[C@@H]1C(F)(F)F
REMARK SMILES IDX 8 1 7 2 6 3 5 4 4 5 3 6 2 7 1 8 81 9 82 10 99 11 83 12 98 13
REMARK SMILES IDX 84 14 97 15 85 16 88 17 86 18 87 19 100 20 101 21 102 22
REMARK SMILES IDX 103 23 89 24 90 25 91 26 92 27 96 28 93 29 95 30 94 31 9 32
REMARK SMILES IDX 10 33 11 34 12 35 13 36 14 37 15 38 16 39 80 40 17 41 79 42
REMARK SMILES IDX 18 43 19 44 20 45 73 46 21 47 78 48 72 49 74 50 22 51 77 52
REMARK SMILES IDX 71 53 70 54 23 56 57 57 36 58 56 59 37 60 40 61 55 62 75 63
REMARK SMILES IDX 38 64 39 65 54 67 76 68 41 69 24 70 25 71 34 72 26 73 27 74
REMARK SMILES IDX 33 75 35 76 28 77 29 78 30 79 31 80 32 81 58 82 59 83 68 84
REMARK SMILES IDX 60 85 61 86 67 87 69 88 62 89 63 90 64 91 65 92 66 93 42 94
REMARK SMILES IDX 43 95 52 96 44 97 45 98 51 99 53 100 46 101 47 102 48 103
REMARK SMILES IDX 49 104 50 105
REMARK H PARENT 74 55 40 66
REMARK Flexibility Score: inf
ROOT
ATOM      1  C   UNL A   1      44.518  37.518  35.398  1.00  0.00     0.188 C 
ENDROOT
BRANCH   1   2
ATOM      2  C   UNL A   1      45.418  38.653  35.898  1.00  0.00     0.188 C 
BRANCH   2   3
ATOM      3  O   UNL A   1      45.654  39.905  35.142  1.00  0.00    -0.376 OA
BRANCH   3   4
ATOM      4  C   UNL A   1      46.660  40.170  33.789  1.00  0.00     0.202 C 
BRANCH   4   5
ATOM      5  C   UNL A   1      47.317  42.112  33.057  1.00  0.00     0.261 C 
BRANCH   5   6
ATOM      6  O   UNL A   1      46.422  43.212  32.489  1.00  0.00    -0.460 OA
BRANCH   6   7
ATOM      7  C   UNL A   1      45.729  43.849  33.445  1.00  0.00     0.338 C 
ATOM      8  O   UNL A   1      45.916  43.846  34.635  1.00  0.00    -0.246 OA
BRANCH   7   9
ATOM      9  C   UNL A   1      44.528  44.051  32.658  1.00  0.00     0.087 C 
ATOM     10  C   UNL A   1      44.724  44.732  31.380  1.00  0.00     0.027 C 
ATOM     11  C   UNL A   1      43.931  42.236  32.857  1.00  0.00     0.316 C 
ATOM     12  C   UNL A   1      44.725  43.892  29.786  1.00  0.00     0.020 A 
ATOM     13  O   UNL A   1      44.072  41.268  31.166  1.00  0.00    -0.474 OA
ATOM     14  C   UNL A   1      45.041  44.623  28.673  1.00  0.00     0.032 A 
ATOM     15  C   UNL A   1      44.473  42.179  29.631  1.00  0.00     0.143 A 
ATOM     16  C   UNL A   1      45.088  43.889  27.481  1.00  0.00     0.043 A 
ATOM     17  C   UNL A   1      44.535  41.551  28.409  1.00  0.00     0.069 A 
ATOM     18  Cl  UNL A   1      45.484  44.766  26.036  1.00  0.00    -0.084 Cl
ATOM     19  C   UNL A   1      44.842  42.461  27.355  1.00  0.00     0.041 A 
BRANCH  11  20
ATOM     20  C   UNL A   1      42.623  42.678  33.810  1.00  0.00     0.430 C 
ATOM     21  F   UNL A   1      41.585  41.868  34.001  1.00  0.00    -0.167 F 
ATOM     22  F   UNL A   1      43.092  42.973  35.052  1.00  0.00    -0.167 F 
ATOM     23  F   UNL A   1      42.051  43.840  33.370  1.00  0.00    -0.167 F 
ENDBRANCH  11  20
BRANCH  17  24
ATOM     24  C   UNL A   1      44.302  40.191  28.063  1.00  0.00    -0.058 C 
ATOM     25  C   UNL A   1      43.938  39.047  27.915  1.00  0.00    -0.062 C 
BRANCH  25  26
ATOM     26  C   UNL A   1      43.483  37.688  27.842  1.00  0.00     0.025 A 
ATOM     27  C   UNL A   1      43.679  36.948  26.673  1.00  0.00     0.017 A 
ATOM     28  C   UNL A   1      42.860  37.079  28.935  1.00  0.00     0.017 A 
ATOM     29  C   UNL A   1      43.248  35.623  26.585  1.00  0.00     0.001 A 
ATOM     30  C   UNL A   1      42.417  35.753  28.844  1.00  0.00     0.001 A 
ATOM     31  C   UNL A   1      42.609  35.028  27.668  1.00  0.00     0.000 A 
ENDBRANCH  25  26
ENDBRANCH  17  24
ENDBRANCH   7   9
ENDBRANCH   6   7
ENDBRANCH   5   6
ENDBRANCH   4   5
ENDBRANCH   3   4
ENDBRANCH   2   3
ENDBRANCH   1   2
BRANCH   1  32
ATOM     32  O   UNL A   1      44.228  37.399  34.034  1.00  0.00    -0.376 OA
BRANCH  32  33
ATOM     33  C   UNL A   1      45.261  36.926  33.186  1.00  0.00     0.202 C 
BRANCH  33  34
ATOM     34  C   UNL A   1      44.894  36.549  31.751  1.00  0.00     0.261 C 
BRANCH  34  35
ATOM     35  O   UNL A   1      45.701  37.202  30.759  1.00  0.00    -0.460 OA
BRANCH  35  36
ATOM     36  C   UNL A   1      46.951  36.718  30.574  1.00  0.00     0.338 C 
ATOM     37  O   UNL A   1      48.005  37.236  30.899  1.00  0.00    -0.246 OA
BRANCH  36  38
ATOM     38  C   UNL A   1      46.845  35.358  30.019  1.00  0.00     0.060 A 
ATOM     39  C   UNL A   1      46.270  35.167  28.754  1.00  0.00     0.016 A 
ATOM     40  C   UNL A   1      47.295  34.273  30.771  1.00  0.00     0.016 A 
ATOM     41  C   UNL A   1      46.159  33.881  28.228  1.00  0.00     0.010 A 
ATOM     42  C   UNL A   1      47.140  32.985  30.267  1.00  0.00     0.010 A 
ATOM     43  C   UNL A   1      46.551  32.784  29.006  1.00  0.00    -0.014 A 
BRANCH  43  44
ATOM     44  C   UNL A   1      46.103  31.425  28.634  1.00  0.00     0.031 A 
ATOM     45  C   UNL A   1      44.673  31.071  28.930  1.00  0.00     0.074 A 
ATOM     46  C   UNL A   1      46.942  30.533  28.080  1.00  0.00     0.049 A 
ATOM     47  N   UNL A   1      44.052  29.933  28.779  1.00  0.00    -0.248 NA
ATOM     48  C   UNL A   1      43.833  32.149  29.482  1.00  0.00     0.031 C 
ATOM     49  C   UNL A   1      48.337  30.787  27.726  1.00  0.00     0.029 A 
ATOM     50  N   UNL A   1      46.738  29.221  27.734  1.00  0.00    -0.354 N 
ATOM     51  C   UNL A   1      42.753  30.156  29.220  1.00  0.00     0.074 A 
ATOM     52  C   UNL A   1      42.682  31.526  29.674  1.00  0.00     0.031 C 
ATOM     53  C   UNL A   1      48.871  29.657  27.229  1.00  0.00     0.029 A 
ATOM     54  C   UNL A   1      47.867  28.594  27.262  1.00  0.00     0.049 A 
ATOM     55  H   UNL A   1      45.866  28.771  27.816  1.00  0.00     0.167 HD
ATOM     56  C   UNL A   1      41.712  29.293  29.239  1.00  0.00     0.037 A 
ATOM     57  C   UNL A   1      48.063  27.304  26.923  1.00  0.00     0.037 A 
ATOM     58  C   UNL A   1      41.808  27.925  28.806  1.00  0.00     0.049 A 
ATOM     59  C   UNL A   1      46.905  26.340  27.025  1.00  0.00     0.074 A 
ATOM     60  C   UNL A   1      40.814  26.965  28.770  1.00  0.00     0.029 A 
ATOM     61  N   UNL A   1      42.970  27.320  28.348  1.00  0.00    -0.354 N 
ATOM     62  N   UNL A   1      45.669  26.568  27.406  1.00  0.00    -0.248 NA
ATOM     63  C   UNL A   1      47.164  24.943  26.645  1.00  0.00     0.031 C 
ATOM     64  C   UNL A   1      41.391  25.760  28.359  1.00  0.00     0.029 A 
ATOM     65  C   UNL A   1      42.726  25.989  28.058  1.00  0.00     0.049 A 
ATOM     66  H   UNL A   1      43.839  27.770  28.246  1.00  0.00     0.167 HD
ATOM     67  C   UNL A   1      44.996  25.355  27.275  1.00  0.00     0.074 A 
ATOM     68  C   UNL A   1      45.961  24.401  26.770  1.00  0.00     0.031 C 
ATOM     69  C   UNL A   1      43.699  25.058  27.543  1.00  0.00     0.037 A 
BRANCH  56  70
ATOM     70  C   UNL A   1      40.400  29.792  29.776  1.00  0.00     0.058 A 
ATOM     71  C   UNL A   1      40.196  30.018  31.147  1.00  0.00     0.135 A 
ATOM     72  C   UNL A   1      39.340  30.082  28.902  1.00  0.00     0.135 A 
ATOM     73  F   UNL A   1      41.166  29.733  32.032  1.00  0.00    -0.206 F 
ATOM     74  C   UNL A   1      38.985  30.497  31.633  1.00  0.00     0.059 A 
ATOM     75  C   UNL A   1      38.132  30.595  29.362  1.00  0.00     0.059 A 
ATOM     76  F   UNL A   1      39.475  29.872  27.583  1.00  0.00    -0.206 F 
ATOM     77  C   UNL A   1      37.961  30.792  30.731  1.00  0.00     0.060 A 
BRANCH  77  78
ATOM     78  S   UNL A   1      36.409  31.446  31.377  1.00  0.00     0.124 S 
ATOM     79  O   UNL A   1      35.978  30.366  32.258  1.00  0.00    -0.237 OA
ATOM     80  O   UNL A   1      36.844  32.671  32.041  1.00  0.00    -0.237 OA
ATOM     81  O   UNL A   1      35.595  31.640  30.180  1.00  0.00    -0.744 OA
ENDBRANCH  77  78
ENDBRANCH  56  70
BRANCH  57  82
ATOM     82  C   UNL A   1      49.405  26.837  26.472  1.00  0.00     0.058 A 
ATOM     83  C   UNL A   1      49.890  27.141  25.191  1.00  0.00     0.135 A 
ATOM     84  C   UNL A   1      50.223  26.057  27.306  1.00  0.00     0.135 A 
ATOM     85  F   UNL A   1      49.144  27.871  24.347  1.00  0.00    -0.206 F 
ATOM     86  C   UNL A   1      51.121  26.671  24.743  1.00  0.00     0.059 A 
ATOM     87  C   UNL A   1      51.473  25.604  26.894  1.00  0.00     0.059 A 
ATOM     88  F   UNL A   1      49.814  25.739  28.544  1.00  0.00    -0.206 F 
ATOM     89  C   UNL A   1      51.909  25.906  25.605  1.00  0.00     0.060 A 
BRANCH  89  90
ATOM     90  S   UNL A   1      53.518  25.328  25.025  1.00  0.00     0.124 S 
ATOM     91  O   UNL A   1      53.445  25.629  23.600  1.00  0.00    -0.237 OA
ATOM     92  O   UNL A   1      54.437  26.151  25.806  1.00  0.00    -0.237 OA
ATOM     93  O   UNL A   1      53.511  23.909  25.370  1.00  0.00    -0.744 OA
ENDBRANCH  89  90
ENDBRANCH  57  82
BRANCH  69  94
ATOM     94  C   UNL A   1      43.224  23.660  27.242  1.00  0.00     0.058 A 
ATOM     95  C   UNL A   1      43.128  22.674  28.236  1.00  0.00     0.135 A 
ATOM     96  C   UNL A   1      42.791  23.327  25.947  1.00  0.00     0.135 A 
ATOM     97  F   UNL A   1      43.529  22.935  29.490  1.00  0.00    -0.206 F 
ATOM     98  C   UNL A   1      42.648  21.398  27.951  1.00  0.00     0.059 A 
ATOM     99  C   UNL A   1      42.272  22.072  25.648  1.00  0.00     0.059 A 
ATOM    100  F   UNL A   1      42.846  24.236  24.961  1.00  0.00    -0.206 F 
ATOM    101  C   UNL A   1      42.216  21.109  26.654  1.00  0.00     0.060 A 
BRANCH 101 102
ATOM    102  S   UNL A   1      41.560  19.464  26.309  1.00  0.00     0.124 S 
ATOM    103  O   UNL A   1      42.316  19.089  25.119  1.00  0.00    -0.237 OA
ATOM    104  O   UNL A   1      41.895  18.735  27.529  1.00  0.00    -0.237 OA
ATOM    105  O   UNL A   1      40.135  19.701  26.098  1.00  0.00    -0.744 OA
ENDBRANCH 101 102
ENDBRANCH  69  94
ENDBRANCH  43  44
ENDBRANCH  36  38
ENDBRANCH  35  36
ENDBRANCH  34  35
ENDBRANCH  33  34
ENDBRANCH  32  33
ENDBRANCH   1  32
TORSDOF 23
ENDMDL
MODEL 3
REMARK VINA RESULT:      -9.3      8.035     14.120
REMARK SMILES O=C(OCCOCCOCCOC(=O)c1ccc(-c2c3nc(c(-c4c(F)cc(S(=O)(=O)[O-])cc4F)c4ccc([nH]4)c(-c4c(F)cc(S(=O)(=O)[O-])cc4F)c4nc(c(-c5c(F)cc(S(=O)(=O)[O-])cc5F)c5ccc2[nH]5)C=C4)C=C3)cc1)C1=Cc2cc(Cl)cc(C#Cc3ccccc3)c2O[C@@H]1C(F)(F)F
REMARK SMILES IDX 8 1 7 2 6 3 5 4 4 5 3 6 2 7 1 8 81 9 82 10 99 11 83 12 98 13
REMARK SMILES IDX 84 14 97 15 85 16 88 17 86 18 87 19 100 20 101 21 102 22
REMARK SMILES IDX 103 23 89 24 90 25 91 26 92 27 96 28 93 29 95 30 94 31 9 32
REMARK SMILES IDX 10 33 11 34 12 35 13 36 14 37 15 38 16 39 80 40 17 41 79 42
REMARK SMILES IDX 18 43 19 44 20 45 73 46 21 47 78 48 72 49 74 50 22 51 77 52
REMARK SMILES IDX 71 53 70 54 23 56 57 57 36 58 56 59 37 60 40 61 55 62 75 63
REMARK SMILES IDX 38 64 39 65 54 67 76 68 41 69 24 70 25 71 34 72 26 73 27 74
REMARK SMILES IDX 33 75 35 76 28 77 29 78 30 79 31 80 32 81 58 82 59 83 68 84
REMARK SMILES IDX 60 85 61 86 67 87 69 88 62 89 63 90 64 91 65 92 66 93 42 94
REMARK SMILES IDX 43 95 52 96 44 97 45 98 51 99 53 100 46 101 47 102 48 103
REMARK SMILES IDX 49 104 50 105
REMARK H PARENT 74 55 40 66
REMARK Flexibility Score: inf
ROOT
ATOM      1  C   UNL A   1      50.666  30.609  27.157  1.00  0.00     0.188 C 
ENDROOT
BRANCH   1   2
ATOM      2  C   UNL A   1      49.306  30.816  26.481  1.00  0.00     0.188 C 
BRANCH   2   3
ATOM      3  O   UNL A   1      48.441  29.703  26.024  1.00  0.00    -0.376 OA
BRANCH   3   4
ATOM      4  C   UNL A   1      46.749  29.679  25.800  1.00  0.00     0.202 C 
BRANCH   4   5
ATOM      5  C   UNL A   1      45.442  27.980  26.182  1.00  0.00     0.261 C 
BRANCH   5   6
ATOM      6  O   UNL A   1      44.786  27.630  27.516  1.00  0.00    -0.460 OA
BRANCH   6   7
ATOM      7  C   UNL A   1      45.317  26.532  28.074  1.00  0.00     0.338 C 
ATOM      8  O   UNL A   1      46.064  25.726  27.579  1.00  0.00    -0.246 OA
BRANCH   7   9
ATOM      9  C   UNL A   1      44.348  26.417  29.146  1.00  0.00     0.087 C 
ATOM     10  C   UNL A   1      43.395  27.520  29.251  1.00  0.00     0.027 C 
ATOM     11  C   UNL A   1      43.888  24.602  28.716  1.00  0.00     0.316 C 
ATOM     12  C   UNL A   1      41.682  27.420  28.702  1.00  0.00     0.020 A 
ATOM     13  O   UNL A   1      42.083  24.499  27.974  1.00  0.00    -0.474 OA
ATOM     14  C   UNL A   1      40.925  28.559  28.742  1.00  0.00     0.032 A 
ATOM     15  C   UNL A   1      41.004  25.977  28.008  1.00  0.00     0.143 A 
ATOM     16  C   UNL A   1      39.626  28.421  28.237  1.00  0.00     0.043 A 
ATOM     17  C   UNL A   1      39.710  25.942  27.543  1.00  0.00     0.069 A 
ATOM     18  Cl  UNL A   1      38.621  29.836  28.262  1.00  0.00    -0.084 Cl
ATOM     19  C   UNL A   1      39.056  27.200  27.688  1.00  0.00     0.041 A 
BRANCH  11  20
ATOM     20  C   UNL A   1      44.577  24.001  30.123  1.00  0.00     0.430 C 
ATOM     21  F   UNL A   1      44.114  24.324  31.327  1.00  0.00    -0.167 F 
ATOM     22  F   UNL A   1      44.528  22.643  30.063  1.00  0.00    -0.167 F 
ATOM     23  F   UNL A   1      45.909  24.298  30.196  1.00  0.00    -0.167 F 
ENDBRANCH  11  20
BRANCH  17  24
ATOM     24  C   UNL A   1      38.957  24.862  27.005  1.00  0.00    -0.058 C 
ATOM     25  C   UNL A   1      38.184  24.101  26.471  1.00  0.00    -0.062 C 
BRANCH  25  26
ATOM     26  C   UNL A   1      37.188  23.265  25.863  1.00  0.00     0.025 A 
ATOM     27  C   UNL A   1      37.480  21.930  25.573  1.00  0.00     0.017 A 
ATOM     28  C   UNL A   1      35.914  23.761  25.571  1.00  0.00     0.017 A 
ATOM     29  C   UNL A   1      36.523  21.100  24.986  1.00  0.00     0.001 A 
ATOM     30  C   UNL A   1      34.957  22.933  24.972  1.00  0.00     0.001 A 
ATOM     31  C   UNL A   1      35.263  21.604  24.678  1.00  0.00     0.000 A 
ENDBRANCH  25  26
ENDBRANCH  17  24
ENDBRANCH   7   9
ENDBRANCH   6   7
ENDBRANCH   5   6
ENDBRANCH   4   5
ENDBRANCH   3   4
ENDBRANCH   2   3
ENDBRANCH   1   2
BRANCH   1  32
ATOM     32  O   UNL A   1      51.265  29.344  27.161  1.00  0.00    -0.376 OA
BRANCH  32  33
ATOM     33  C   UNL A   1      52.682  29.295  27.185  1.00  0.00     0.202 C 
BRANCH  33  34
ATOM     34  C   UNL A   1      53.361  28.006  26.723  1.00  0.00     0.261 C 
BRANCH  34  35
ATOM     35  O   UNL A   1      53.436  26.997  27.743  1.00  0.00    -0.460 OA
BRANCH  35  36
ATOM     36  C   UNL A   1      52.613  25.931  27.608  1.00  0.00     0.338 C 
ATOM     37  O   UNL A   1      52.785  24.941  26.918  1.00  0.00    -0.246 OA
BRANCH  36  38
ATOM     38  C   UNL A   1      51.496  26.083  28.556  1.00  0.00     0.060 A 
ATOM     39  C   UNL A   1      50.261  25.480  28.276  1.00  0.00     0.016 A 
ATOM     40  C   UNL A   1      51.675  26.846  29.709  1.00  0.00     0.016 A 
ATOM     41  C   UNL A   1      49.198  25.629  29.165  1.00  0.00     0.010 A 
ATOM     42  C   UNL A   1      50.600  27.035  30.573  1.00  0.00     0.010 A 
ATOM     43  C   UNL A   1      49.353  26.447  30.292  1.00  0.00    -0.014 A 
BRANCH  43  44
ATOM     44  C   UNL A   1      48.160  26.914  31.028  1.00  0.00     0.031 A 
ATOM     45  C   UNL A   1      47.450  28.122  30.485  1.00  0.00     0.074 A 
ATOM     46  C   UNL A   1      47.740  26.305  32.150  1.00  0.00     0.049 A 
ATOM     47  N   UNL A   1      46.435  28.779  30.976  1.00  0.00    -0.248 NA
ATOM     48  C   UNL A   1      47.966  28.668  29.216  1.00  0.00     0.031 C 
ATOM     49  C   UNL A   1      48.340  25.112  32.742  1.00  0.00     0.029 A 
ATOM     50  N   UNL A   1      46.712  26.626  33.001  1.00  0.00    -0.354 N 
ATOM     51  C   UNL A   1      46.194  29.816  30.083  1.00  0.00     0.074 A 
ATOM     52  C   UNL A   1      47.186  29.721  29.036  1.00  0.00     0.031 C 
ATOM     53  C   UNL A   1      47.679  24.810  33.875  1.00  0.00     0.029 A 
ATOM     54  C   UNL A   1      46.635  25.808  34.104  1.00  0.00     0.049 A 
ATOM     55  H   UNL A   1      46.090  27.371  32.839  1.00  0.00     0.167 HD
ATOM     56  C   UNL A   1      45.226  30.758  30.130  1.00  0.00     0.037 A 
ATOM     57  C   UNL A   1      45.827  25.881  35.181  1.00  0.00     0.037 A 
ATOM     58  C   UNL A   1      44.262  30.852  31.193  1.00  0.00     0.049 A 
ATOM     59  C   UNL A   1      44.802  26.989  35.249  1.00  0.00     0.074 A 
ATOM     60  C   UNL A   1      43.230  31.760  31.338  1.00  0.00     0.029 A 
ATOM     61  N   UNL A   1      44.222  30.017  32.300  1.00  0.00    -0.354 N 
ATOM     62  N   UNL A   1      44.555  27.943  34.381  1.00  0.00    -0.248 NA
ATOM     63  C   UNL A   1      43.943  27.030  36.441  1.00  0.00     0.031 C 
ATOM     64  C   UNL A   1      42.610  31.519  32.568  1.00  0.00     0.029 A 
ATOM     65  C   UNL A   1      43.203  30.409  33.151  1.00  0.00     0.049 A 
ATOM     66  H   UNL A   1      44.830  29.259  32.459  1.00  0.00     0.167 HD
ATOM     67  C   UNL A   1      43.488  28.670  34.902  1.00  0.00     0.074 A 
ATOM     68  C   UNL A   1      43.133  28.040  36.157  1.00  0.00     0.031 C 
ATOM     69  C   UNL A   1      42.857  29.758  34.390  1.00  0.00     0.037 A 
BRANCH  56  70
ATOM     70  C   UNL A   1      45.188  31.779  29.027  1.00  0.00     0.058 A 
ATOM     71  C   UNL A   1      44.360  31.626  27.902  1.00  0.00     0.135 A 
ATOM     72  C   UNL A   1      45.966  32.944  29.112  1.00  0.00     0.135 A 
ATOM     73  F   UNL A   1      43.615  30.518  27.755  1.00  0.00    -0.206 F 
ATOM     74  C   UNL A   1      44.317  32.585  26.896  1.00  0.00     0.059 A 
ATOM     75  C   UNL A   1      45.912  33.933  28.135  1.00  0.00     0.059 A 
ATOM     76  F   UNL A   1      46.785  33.136  30.159  1.00  0.00    -0.206 F 
ATOM     77  C   UNL A   1      45.091  33.739  27.026  1.00  0.00     0.060 A 
BRANCH  77  78
ATOM     78  S   UNL A   1      44.995  34.988  25.727  1.00  0.00     0.124 S 
ATOM     79  O   UNL A   1      43.735  35.649  26.047  1.00  0.00    -0.237 OA
ATOM     80  O   UNL A   1      46.202  35.773  25.965  1.00  0.00    -0.237 OA
ATOM     81  O   UNL A   1      44.995  34.202  24.496  1.00  0.00    -0.744 OA
ENDBRANCH  77  78
ENDBRANCH  56  70
BRANCH  57  82
ATOM     82  C   UNL A   1      45.955  24.893  36.289  1.00  0.00     0.058 A 
ATOM     83  C   UNL A   1      45.378  23.618  36.200  1.00  0.00     0.135 A 
ATOM     84  C   UNL A   1      46.640  25.213  37.474  1.00  0.00     0.135 A 
ATOM     85  F   UNL A   1      44.700  23.264  35.098  1.00  0.00    -0.206 F 
ATOM     86  C   UNL A   1      45.453  22.704  37.248  1.00  0.00     0.059 A 
ATOM     87  C   UNL A   1      46.759  24.305  38.522  1.00  0.00     0.059 A 
ATOM     88  F   UNL A   1      47.217  26.416  37.614  1.00  0.00    -0.206 F 
ATOM     89  C   UNL A   1      46.150  23.056  38.405  1.00  0.00     0.060 A 
BRANCH  89  90
ATOM     90  S   UNL A   1      46.267  21.853  39.747  1.00  0.00     0.124 S 
ATOM     91  O   UNL A   1      47.668  21.975  40.131  1.00  0.00    -0.237 OA
ATOM     92  O   UNL A   1      45.295  22.369  40.705  1.00  0.00    -0.237 OA
ATOM     93  O   UNL A   1      45.897  20.595  39.104  1.00  0.00    -0.744 OA
ENDBRANCH  89  90
ENDBRANCH  57  82
BRANCH  69  94
ATOM     94  C   UNL A   1      41.677  30.306  35.151  1.00  0.00     0.058 A 
ATOM     95  C   UNL A   1      41.814  31.323  36.109  1.00  0.00     0.135 A 
ATOM     96  C   UNL A   1      40.379  29.851  34.862  1.00  0.00     0.135 A 
ATOM     97  F   UNL A   1      43.029  31.795  36.427  1.00  0.00    -0.206 F 
ATOM     98  C   UNL A   1      40.709  31.848  36.774  1.00  0.00     0.059 A 
ATOM     99  C   UNL A   1      39.258  30.387  35.486  1.00  0.00     0.059 A 
ATOM    100  F   UNL A   1      40.189  28.890  33.944  1.00  0.00    -0.206 F 
ATOM    101  C   UNL A   1      39.434  31.377  36.450  1.00  0.00     0.060 A 
BRANCH 101 102
ATOM    102  S   UNL A   1      38.009  32.095  37.293  1.00  0.00     0.124 S 
ATOM    103  O   UNL A   1      38.653  32.968  38.269  1.00  0.00    -0.237 OA
ATOM    104  O   UNL A   1      37.311  32.768  36.201  1.00  0.00    -0.237 OA
ATOM    105  O   UNL A   1      37.320  30.934  37.848  1.00  0.00    -0.744 OA
ENDBRANCH 101 102
ENDBRANCH  69  94
ENDBRANCH  43  44
ENDBRANCH  36  38
ENDBRANCH  35  36
ENDBRANCH  34  35
ENDBRANCH  33  34
ENDBRANCH  32  33
ENDBRANCH   1  32
TORSDOF 23
ENDMDL
