MODEL 1
REMARK VINA RESULT:     -10.7      0.000      0.000
REMARK SMILES CC1(C)CCC[C@@H]1Nc1nc2c(cc1C(=O)OCCOCCOCCOC(=O)c1ccc(-c3c4nc(c(-c5c(F)cc(S(=O)(=O)[O-])cc5F)c5ccc([nH]5)c(-c5c(F)cc(S(=O)(=O)[O-])cc5F)c5nc(c(-c6c(F)cc(S(=O)(=O)[O-])cc6F)c6ccc3[nH]6)C=C5)C=C4)cc1)CCC2
REMARK SMILES IDX 22 1 21 2 20 3 19 4 18 5 17 6 15 7 16 8 14 9 9 10 10 11
REMARK SMILES IDX 11 12 13 13 12 14 97 15 95 16 96 17 8 18 7 20 1 21 2 22 3 23
REMARK SMILES IDX 4 24 5 25 6 26 23 27 24 28 25 29 26 30 27 31 28 32 29 33
REMARK SMILES IDX 30 34 94 35 31 36 93 37 32 38 33 39 34 40 87 41 35 42 92 43
REMARK SMILES IDX 86 44 88 45 36 46 91 47 85 48 84 49 37 51 71 52 50 53 70 54
REMARK SMILES IDX 51 55 54 56 69 57 89 58 52 59 53 60 68 62 90 63 55 64 38 65
REMARK SMILES IDX 39 66 48 67 40 68 41 69 47 70 49 71 42 72 43 73 44 74 45 75
REMARK SMILES IDX 46 76 72 77 73 78 82 79 74 80 75 81 81 82 83 83 76 84 77 85
REMARK SMILES IDX 78 86 79 87 80 88 56 89 57 90 66 91 58 92 59 93 65 94 67 95
REMARK SMILES IDX 60 96 61 97 62 98 63 99 64 100
REMARK H PARENT 8 19 88 50 54 61
REMARK Flexibility Score: inf
ROOT
ATOM      1  C   UNL A   1      41.846  20.724  26.118  1.00  0.00     0.188 C 
ENDROOT
BRANCH   1   2
ATOM      2  C   UNL A   1      40.643  21.396  26.823  1.00  0.00     0.188 C 
BRANCH   2   3
ATOM      3  O   UNL A   1      39.457  21.659  26.090  1.00  0.00    -0.376 OA
BRANCH   3   4
ATOM      4  C   UNL A   1      38.767  22.881  26.309  1.00  0.00     0.202 C 
BRANCH   4   5
ATOM      5  C   UNL A   1      37.397  23.118  25.668  1.00  0.00     0.261 C 
BRANCH   5   6
ATOM      6  O   UNL A   1      36.568  21.949  25.701  1.00  0.00    -0.460 OA
BRANCH   6   7
ATOM      7  C   UNL A   1      35.270  22.129  26.039  1.00  0.00     0.341 C 
ATOM      8  O   UNL A   1      34.830  23.004  26.767  1.00  0.00    -0.246 OA
BRANCH   7   9
ATOM      9  C   UNL A   1      34.399  21.206  25.287  1.00  0.00     0.102 A 
ATOM     10  C   UNL A   1      33.157  21.546  24.720  1.00  0.00     0.141 A 
ATOM     11  N   UNL A   1      32.453  20.647  23.981  1.00  0.00    -0.235 NA
ATOM     12  C   UNL A   1      32.974  19.416  23.841  1.00  0.00     0.046 A 
ATOM     13  C   UNL A   1      34.886  19.890  25.159  1.00  0.00     0.025 A 
ATOM     14  C   UNL A   1      34.143  18.984  24.434  1.00  0.00    -0.025 A 
ATOM     15  C   UNL A   1      32.439  18.377  22.896  1.00  0.00     0.057 C 
ATOM     16  C   UNL A   1      34.445  17.563  24.094  1.00  0.00     0.038 C 
ATOM     17  C   UNL A   1      33.143  17.114  23.407  1.00  0.00     0.011 C 
BRANCH  10  18
ATOM     18  N   UNL A   1      32.490  22.742  24.797  1.00  0.00    -0.366 N 
ATOM     19  H   UNL A   1      31.711  22.784  25.397  1.00  0.00     0.162 HD
BRANCH  18  20
ATOM     20  C   UNL A   1      32.830  23.944  24.077  1.00  0.00     0.086 C 
ATOM     21  C   UNL A   1      31.316  25.717  25.112  1.00  0.00     0.013 C 
ATOM     22  C   UNL A   1      31.641  24.902  23.852  1.00  0.00    -0.015 C 
ATOM     23  C   UNL A   1      30.357  24.216  23.354  1.00  0.00     0.013 C 
ATOM     24  C   UNL A   1      32.236  25.801  22.750  1.00  0.00     0.008 C 
ATOM     25  C   UNL A   1      33.012  24.855  21.835  1.00  0.00     0.003 C 
ATOM     26  C   UNL A   1      33.367  23.636  22.681  1.00  0.00     0.025 C 
ENDBRANCH  18  20
ENDBRANCH  10  18
ENDBRANCH   7   9
ENDBRANCH   6   7
ENDBRANCH   5   6
ENDBRANCH   4   5
ENDBRANCH   3   4
ENDBRANCH   2   3
ENDBRANCH   1   2
BRANCH   1  27
ATOM     27  O   UNL A   1      42.895  21.530  25.634  1.00  0.00    -0.376 OA
BRANCH  27  28
ATOM     28  C   UNL A   1      42.683  22.911  25.405  1.00  0.00     0.202 C 
BRANCH  28  29
ATOM     29  C   UNL A   1      43.072  24.046  26.371  1.00  0.00     0.261 C 
BRANCH  29  30
ATOM     30  O   UNL A   1      42.959  25.392  25.900  1.00  0.00    -0.460 OA
BRANCH  30  31
ATOM     31  C   UNL A   1      41.751  25.983  26.089  1.00  0.00     0.338 C 
ATOM     32  O   UNL A   1      40.770  25.910  25.366  1.00  0.00    -0.246 OA
BRANCH  31  33
ATOM     33  C   UNL A   1      41.735  26.598  27.429  1.00  0.00     0.060 A 
ATOM     34  C   UNL A   1      40.752  26.205  28.350  1.00  0.00     0.016 A 
ATOM     35  C   UNL A   1      42.685  27.559  27.770  1.00  0.00     0.016 A 
ATOM     36  C   UNL A   1      40.723  26.770  29.624  1.00  0.00     0.010 A 
ATOM     37  C   UNL A   1      42.625  28.161  29.029  1.00  0.00     0.010 A 
ATOM     38  C   UNL A   1      41.631  27.786  29.950  1.00  0.00    -0.014 A 
BRANCH  38  39
ATOM     39  C   UNL A   1      41.377  28.631  31.140  1.00  0.00     0.031 A 
ATOM     40  C   UNL A   1      40.275  29.651  31.045  1.00  0.00     0.074 A 
ATOM     41  C   UNL A   1      42.090  28.498  32.273  1.00  0.00     0.049 A 
ATOM     42  N   UNL A   1      39.888  30.538  31.922  1.00  0.00    -0.248 NA
ATOM     43  C   UNL A   1      39.504  29.667  29.789  1.00  0.00     0.031 C 
ATOM     44  C   UNL A   1      43.144  27.513  32.502  1.00  0.00     0.029 A 
ATOM     45  N   UNL A   1      42.031  29.208  33.447  1.00  0.00    -0.354 N 
ATOM     46  C   UNL A   1      38.826  31.210  31.331  1.00  0.00     0.074 A 
ATOM     47  C   UNL A   1      38.648  30.654  30.009  1.00  0.00     0.031 C 
ATOM     48  C   UNL A   1      43.645  27.691  33.739  1.00  0.00     0.029 A 
ATOM     49  C   UNL A   1      42.967  28.821  34.376  1.00  0.00     0.049 A 
ATOM     50  H   UNL A   1      41.379  29.928  33.608  1.00  0.00     0.167 HD
ATOM     51  C   UNL A   1      38.057  32.195  31.848  1.00  0.00     0.037 A 
ATOM     52  C   UNL A   1      43.254  29.336  35.590  1.00  0.00     0.037 A 
ATOM     53  C   UNL A   1      38.252  32.762  33.154  1.00  0.00     0.049 A 
ATOM     54  C   UNL A   1      42.456  30.513  36.099  1.00  0.00     0.074 A 
ATOM     55  C   UNL A   1      37.528  33.768  33.769  1.00  0.00     0.029 A 
ATOM     56  N   UNL A   1      39.247  32.382  34.042  1.00  0.00    -0.354 N 
ATOM     57  N   UNL A   1      41.437  31.124  35.542  1.00  0.00    -0.248 NA
ATOM     58  C   UNL A   1      42.850  31.074  37.401  1.00  0.00     0.031 C 
ATOM     59  C   UNL A   1      38.119  34.035  35.006  1.00  0.00     0.029 A 
ATOM     60  C   UNL A   1      39.175  33.156  35.188  1.00  0.00     0.049 A 
ATOM     61  H   UNL A   1      39.905  31.669  33.881  1.00  0.00     0.167 HD
ATOM     62  C   UNL A   1      41.054  32.123  36.434  1.00  0.00     0.074 A 
ATOM     63  C   UNL A   1      41.940  32.025  37.575  1.00  0.00     0.031 C 
ATOM     64  C   UNL A   1      40.062  33.041  36.319  1.00  0.00     0.037 A 
BRANCH  51  65
ATOM     65  C   UNL A   1      36.943  32.731  30.997  1.00  0.00     0.058 A 
ATOM     66  C   UNL A   1      35.603  32.402  31.254  1.00  0.00     0.135 A 
ATOM     67  C   UNL A   1      37.211  33.627  29.949  1.00  0.00     0.135 A 
ATOM     68  F   UNL A   1      35.295  31.530  32.227  1.00  0.00    -0.206 F 
ATOM     69  C   UNL A   1      34.567  32.939  30.498  1.00  0.00     0.059 A 
ATOM     70  C   UNL A   1      36.189  34.197  29.198  1.00  0.00     0.059 A 
ATOM     71  F   UNL A   1      38.477  33.963  29.655  1.00  0.00    -0.206 F 
ATOM     72  C   UNL A   1      34.870  33.844  29.478  1.00  0.00     0.060 A 
BRANCH  72  73
ATOM     73  S   UNL A   1      33.506  34.560  28.537  1.00  0.00     0.124 S 
ATOM     74  O   UNL A   1      32.565  34.900  29.598  1.00  0.00    -0.237 OA
ATOM     75  O   UNL A   1      34.150  35.689  27.874  1.00  0.00    -0.237 OA
ATOM     76  O   UNL A   1      33.092  33.472  27.657  1.00  0.00    -0.744 OA
ENDBRANCH  72  73
ENDBRANCH  51  65
BRANCH  52  77
ATOM     77  C   UNL A   1      44.351  28.755  36.414  1.00  0.00     0.058 A 
ATOM     78  C   UNL A   1      44.124  27.640  37.234  1.00  0.00     0.135 A 
ATOM     79  C   UNL A   1      45.640  29.311  36.414  1.00  0.00     0.135 A 
ATOM     80  F   UNL A   1      42.904  27.082  37.284  1.00  0.00    -0.206 F 
ATOM     81  C   UNL A   1      45.128  27.104  38.034  1.00  0.00     0.059 A 
ATOM     82  C   UNL A   1      46.669  28.777  37.185  1.00  0.00     0.059 A 
ATOM     83  F   UNL A   1      45.914  30.378  35.648  1.00  0.00    -0.206 F 
ATOM     84  C   UNL A   1      46.401  27.677  37.999  1.00  0.00     0.060 A 
BRANCH  84  85
ATOM     85  S   UNL A   1      47.705  26.945  39.011  1.00  0.00     0.124 S 
ATOM     86  O   UNL A   1      46.937  26.103  39.919  1.00  0.00    -0.237 OA
ATOM     87  O   UNL A   1      48.505  26.244  38.012  1.00  0.00    -0.237 OA
ATOM     88  O   UNL A   1      48.350  28.104  39.620  1.00  0.00    -0.744 OA
ENDBRANCH  84  85
ENDBRANCH  52  77
BRANCH  64  89
ATOM     89  C   UNL A   1      39.858  34.008  37.454  1.00  0.00     0.058 A 
ATOM     90  C   UNL A   1      39.029  33.698  38.543  1.00  0.00     0.135 A 
ATOM     91  C   UNL A   1      40.575  35.216  37.501  1.00  0.00     0.135 A 
ATOM     92  F   UNL A   1      38.319  32.559  38.547  1.00  0.00    -0.206 F 
ATOM     93  C   UNL A   1      38.909  34.554  39.632  1.00  0.00     0.059 A 
ATOM     94  C   UNL A   1      40.494  36.073  38.595  1.00  0.00     0.059 A 
ATOM     95  F   UNL A   1      41.394  35.556  36.493  1.00  0.00    -0.206 F 
ATOM     96  C   UNL A   1      39.654  35.735  39.654  1.00  0.00     0.060 A 
BRANCH  96  97
ATOM     97  S   UNL A   1      39.525  36.807  41.101  1.00  0.00     0.124 S 
ATOM     98  O   UNL A   1      40.926  36.954  41.485  1.00  0.00    -0.237 OA
ATOM     99  O   UNL A   1      38.891  37.999  40.549  1.00  0.00    -0.237 OA
ATOM    100  O   UNL A   1      38.701  36.034  42.026  1.00  0.00    -0.744 OA
ENDBRANCH  96  97
ENDBRANCH  64  89
ENDBRANCH  38  39
ENDBRANCH  31  33
ENDBRANCH  30  31
ENDBRANCH  29  30
ENDBRANCH  28  29
ENDBRANCH  27  28
ENDBRANCH   1  27
TORSDOF 22
ENDMDL
MODEL 2
REMARK VINA RESULT:     -10.7      6.624     12.376
REMARK SMILES CC1(C)CCC[C@@H]1Nc1nc2c(cc1C(=O)OCCOCCOCCOC(=O)c1ccc(-c3c4nc(c(-c5c(F)cc(S(=O)(=O)[O-])cc5F)c5ccc([nH]5)c(-c5c(F)cc(S(=O)(=O)[O-])cc5F)c5nc(c(-c6c(F)cc(S(=O)(=O)[O-])cc6F)c6ccc3[nH]6)C=C5)C=C4)cc1)CCC2
REMARK SMILES IDX 22 1 21 2 20 3 19 4 18 5 17 6 15 7 16 8 14 9 9 10 10 11
REMARK SMILES IDX 11 12 13 13 12 14 97 15 95 16 96 17 8 18 7 20 1 21 2 22 3 23
REMARK SMILES IDX 4 24 5 25 6 26 23 27 24 28 25 29 26 30 27 31 28 32 29 33
REMARK SMILES IDX 30 34 94 35 31 36 93 37 32 38 33 39 34 40 87 41 35 42 92 43
REMARK SMILES IDX 86 44 88 45 36 46 91 47 85 48 84 49 37 51 71 52 50 53 70 54
REMARK SMILES IDX 51 55 54 56 69 57 89 58 52 59 53 60 68 62 90 63 55 64 38 65
REMARK SMILES IDX 39 66 48 67 40 68 41 69 47 70 49 71 42 72 43 73 44 74 45 75
REMARK SMILES IDX 46 76 72 77 73 78 82 79 74 80 75 81 81 82 83 83 76 84 77 85
REMARK SMILES IDX 78 86 79 87 80 88 56 89 57 90 66 91 58 92 59 93 65 94 67 95
REMARK SMILES IDX 60 96 61 97 62 98 63 99 64 100
REMARK H PARENT 8 19 88 50 54 61
REMARK Flexibility Score: inf
ROOT
ATOM      1  C   UNL A   1      34.473  33.042  28.517  1.00  0.00     0.188 C 
ENDROOT
BRANCH   1   2
ATOM      2  C   UNL A   1      34.124  31.783  27.686  1.00  0.00     0.188 C 
BRANCH   2   3
ATOM      3  O   UNL A   1      34.792  30.560  27.948  1.00  0.00    -0.376 OA
BRANCH   3   4
ATOM      4  C   UNL A   1      34.373  29.385  27.270  1.00  0.00     0.202 C 
BRANCH   4   5
ATOM      5  C   UNL A   1      33.124  29.411  26.384  1.00  0.00     0.261 C 
BRANCH   5   6
ATOM      6  O   UNL A   1      33.436  29.270  24.992  1.00  0.00    -0.460 OA
BRANCH   6   7
ATOM      7  C   UNL A   1      33.063  28.114  24.397  1.00  0.00     0.341 C 
ATOM      8  O   UNL A   1      33.725  27.090  24.333  1.00  0.00    -0.246 OA
BRANCH   7   9
ATOM      9  C   UNL A   1      31.662  28.186  23.943  1.00  0.00     0.102 A 
ATOM     10  C   UNL A   1      30.653  27.263  24.280  1.00  0.00     0.141 A 
ATOM     11  N   UNL A   1      29.369  27.448  23.873  1.00  0.00    -0.235 NA
ATOM     12  C   UNL A   1      29.108  28.524  23.113  1.00  0.00     0.046 A 
ATOM     13  C   UNL A   1      31.357  29.273  23.102  1.00  0.00     0.025 A 
ATOM     14  C   UNL A   1      30.056  29.426  22.672  1.00  0.00    -0.025 A 
ATOM     15  C   UNL A   1      27.724  28.989  22.755  1.00  0.00     0.057 C 
ATOM     16  C   UNL A   1      29.451  30.504  21.837  1.00  0.00     0.038 C 
ATOM     17  C   UNL A   1      28.021  29.976  21.621  1.00  0.00     0.011 C 
BRANCH  10  18
ATOM     18  N   UNL A   1      30.770  26.115  25.022  1.00  0.00    -0.366 N 
ATOM     19  H   UNL A   1      30.875  26.219  25.995  1.00  0.00     0.162 HD
BRANCH  18  20
ATOM     20  C   UNL A   1      30.751  24.771  24.502  1.00  0.00     0.086 C 
ATOM     21  C   UNL A   1      30.452  23.324  26.581  1.00  0.00     0.013 C 
ATOM     22  C   UNL A   1      31.395  23.724  25.437  1.00  0.00    -0.015 C 
ATOM     23  C   UNL A   1      32.749  24.148  26.030  1.00  0.00     0.013 C 
ATOM     24  C   UNL A   1      31.579  22.563  24.441  1.00  0.00     0.008 C 
ATOM     25  C   UNL A   1      32.024  23.221  23.135  1.00  0.00     0.003 C 
ATOM     26  C   UNL A   1      31.521  24.660  23.188  1.00  0.00     0.025 C 
ENDBRANCH  18  20
ENDBRANCH  10  18
ENDBRANCH   7   9
ENDBRANCH   6   7
ENDBRANCH   5   6
ENDBRANCH   4   5
ENDBRANCH   3   4
ENDBRANCH   2   3
ENDBRANCH   1   2
BRANCH   1  27
ATOM     27  O   UNL A   1      33.916  33.189  29.803  1.00  0.00    -0.376 OA
BRANCH  27  28
ATOM     28  C   UNL A   1      34.745  33.120  30.949  1.00  0.00     0.202 C 
BRANCH  28  29
ATOM     29  C   UNL A   1      35.557  31.888  31.391  1.00  0.00     0.261 C 
BRANCH  29  30
ATOM     30  O   UNL A   1      36.587  31.418  30.518  1.00  0.00    -0.460 OA
BRANCH  30  31
ATOM     31  C   UNL A   1      37.149  30.229  30.856  1.00  0.00     0.338 C 
ATOM     32  O   UNL A   1      36.601  29.276  31.386  1.00  0.00    -0.246 OA
BRANCH  31  33
ATOM     33  C   UNL A   1      38.517  30.184  30.308  1.00  0.00     0.060 A 
ATOM     34  C   UNL A   1      38.694  30.060  28.922  1.00  0.00     0.016 A 
ATOM     35  C   UNL A   1      39.616  30.261  31.162  1.00  0.00     0.016 A 
ATOM     36  C   UNL A   1      39.980  30.021  28.384  1.00  0.00     0.010 A 
ATOM     37  C   UNL A   1      40.903  30.172  30.627  1.00  0.00     0.010 A 
ATOM     38  C   UNL A   1      41.088  30.028  29.240  1.00  0.00    -0.014 A 
BRANCH  38  39
ATOM     39  C   UNL A   1      42.413  29.623  28.715  1.00  0.00     0.031 A 
ATOM     40  C   UNL A   1      42.595  28.181  28.328  1.00  0.00     0.074 A 
ATOM     41  C   UNL A   1      43.423  30.502  28.575  1.00  0.00     0.049 A 
ATOM     42  N   UNL A   1      43.662  27.568  27.892  1.00  0.00    -0.248 NA
ATOM     43  C   UNL A   1      41.408  27.316  28.448  1.00  0.00     0.031 C 
ATOM     44  C   UNL A   1      43.350  31.932  28.866  1.00  0.00     0.029 A 
ATOM     45  N   UNL A   1      44.715  30.309  28.154  1.00  0.00    -0.354 N 
ATOM     46  C   UNL A   1      43.275  26.251  27.675  1.00  0.00     0.074 A 
ATOM     47  C   UNL A   1      41.886  26.143  28.060  1.00  0.00     0.031 C 
ATOM     48  C   UNL A   1      44.554  32.485  28.628  1.00  0.00     0.029 A 
ATOM     49  C   UNL A   1      45.487  31.444  28.197  1.00  0.00     0.049 A 
ATOM     50  H   UNL A   1      45.056  29.436  27.849  1.00  0.00     0.167 HD
ATOM     51  C   UNL A   1      44.008  25.225  27.188  1.00  0.00     0.037 A 
ATOM     52  C   UNL A   1      46.801  31.614  27.939  1.00  0.00     0.037 A 
ATOM     53  C   UNL A   1      45.396  25.330  26.829  1.00  0.00     0.049 A 
ATOM     54  C   UNL A   1      47.628  30.426  27.506  1.00  0.00     0.074 A 
ATOM     55  C   UNL A   1      46.230  24.345  26.330  1.00  0.00     0.029 A 
ATOM     56  N   UNL A   1      46.158  26.483  26.942  1.00  0.00    -0.354 N 
ATOM     57  N   UNL A   1      47.245  29.191  27.281  1.00  0.00    -0.248 NA
ATOM     58  C   UNL A   1      49.066  30.654  27.296  1.00  0.00     0.031 C 
ATOM     59  C   UNL A   1      47.509  24.889  26.193  1.00  0.00     0.029 A 
ATOM     60  C   UNL A   1      47.461  26.226  26.551  1.00  0.00     0.049 A 
ATOM     61  H   UNL A   1      45.822  27.354  27.254  1.00  0.00     0.167 HD
ATOM     62  C   UNL A   1      48.389  28.503  26.881  1.00  0.00     0.074 A 
ATOM     63  C   UNL A   1      49.473  29.462  26.879  1.00  0.00     0.031 C 
ATOM     64  C   UNL A   1      48.529  27.195  26.548  1.00  0.00     0.037 A 
BRANCH  51  65
ATOM     65  C   UNL A   1      43.328  23.897  27.025  1.00  0.00     0.058 A 
ATOM     66  C   UNL A   1      42.836  23.475  25.781  1.00  0.00     0.135 A 
ATOM     67  C   UNL A   1      43.219  23.012  28.110  1.00  0.00     0.135 A 
ATOM     68  F   UNL A   1      42.892  24.293  24.718  1.00  0.00    -0.206 F 
ATOM     69  C   UNL A   1      42.252  22.223  25.618  1.00  0.00     0.059 A 
ATOM     70  C   UNL A   1      42.663  21.745  27.964  1.00  0.00     0.059 A 
ATOM     71  F   UNL A   1      43.663  23.373  29.325  1.00  0.00    -0.206 F 
ATOM     72  C   UNL A   1      42.180  21.362  26.714  1.00  0.00     0.060 A 
BRANCH  72  73
ATOM     73  S   UNL A   1      41.456  19.727  26.471  1.00  0.00     0.124 S 
ATOM     74  O   UNL A   1      40.076  20.065  26.137  1.00  0.00    -0.237 OA
ATOM     75  O   UNL A   1      42.260  19.195  25.376  1.00  0.00    -0.237 OA
ATOM     76  O   UNL A   1      41.646  19.073  27.761  1.00  0.00    -0.744 OA
ENDBRANCH  72  73
ENDBRANCH  51  65
BRANCH  52  77
ATOM     77  C   UNL A   1      47.430  32.956  28.086  1.00  0.00     0.058 A 
ATOM     78  C   UNL A   1      48.029  33.344  29.294  1.00  0.00     0.135 A 
ATOM     79  C   UNL A   1      47.430  33.885  27.033  1.00  0.00     0.135 A 
ATOM     80  F   UNL A   1      48.040  32.501  30.338  1.00  0.00    -0.206 F 
ATOM     81  C   UNL A   1      48.593  34.606  29.459  1.00  0.00     0.059 A 
ATOM     82  C   UNL A   1      48.012  35.143  27.163  1.00  0.00     0.059 A 
ATOM     83  F   UNL A   1      46.871  33.566  25.855  1.00  0.00    -0.206 F 
ATOM     84  C   UNL A   1      48.584  35.498  28.385  1.00  0.00     0.060 A 
BRANCH  84  85
ATOM     85  S   UNL A   1      49.356  37.116  28.600  1.00  0.00     0.124 S 
ATOM     86  O   UNL A   1      50.625  36.932  27.907  1.00  0.00    -0.237 OA
ATOM     87  O   UNL A   1      48.394  37.998  27.947  1.00  0.00    -0.237 OA
ATOM     88  O   UNL A   1      49.443  37.258  30.050  1.00  0.00    -0.744 OA
ENDBRANCH  84  85
ENDBRANCH  52  77
BRANCH  64  89
ATOM     89  C   UNL A   1      49.894  26.712  26.136  1.00  0.00     0.058 A 
ATOM     90  C   UNL A   1      50.408  26.970  24.857  1.00  0.00     0.135 A 
ATOM     91  C   UNL A   1      50.735  26.073  27.063  1.00  0.00     0.135 A 
ATOM     92  F   UNL A   1      49.646  27.575  23.932  1.00  0.00    -0.206 F 
ATOM     93  C   UNL A   1      51.702  26.601  24.505  1.00  0.00     0.059 A 
ATOM     94  C   UNL A   1      52.044  25.722  26.743  1.00  0.00     0.059 A 
ATOM     95  F   UNL A   1      50.300  25.815  28.307  1.00  0.00    -0.206 F 
ATOM     96  C   UNL A   1      52.516  25.986  25.459  1.00  0.00     0.060 A 
BRANCH  96  97
ATOM     97  S   UNL A   1      54.211  25.563  25.001  1.00  0.00     0.124 S 
ATOM     98  O   UNL A   1      54.242  25.954  23.595  1.00  0.00    -0.237 OA
ATOM     99  O   UNL A   1      54.994  26.395  25.908  1.00  0.00    -0.237 OA
ATOM    100  O   UNL A   1      54.284  24.126  25.253  1.00  0.00    -0.744 OA
ENDBRANCH  96  97
ENDBRANCH  64  89
ENDBRANCH  38  39
ENDBRANCH  31  33
ENDBRANCH  30  31
ENDBRANCH  29  30
ENDBRANCH  28  29
ENDBRANCH  27  28
ENDBRANCH   1  27
TORSDOF 22
ENDMDL
MODEL 3
REMARK VINA RESULT:     -10.4      2.773      9.986
REMARK SMILES CC1(C)CCC[C@@H]1Nc1nc2c(cc1C(=O)OCCOCCOCCOC(=O)c1ccc(-c3c4nc(c(-c5c(F)cc(S(=O)(=O)[O-])cc5F)c5ccc([nH]5)c(-c5c(F)cc(S(=O)(=O)[O-])cc5F)c5nc(c(-c6c(F)cc(S(=O)(=O)[O-])cc6F)c6ccc3[nH]6)C=C5)C=C4)cc1)CCC2
REMARK SMILES IDX 22 1 21 2 20 3 19 4 18 5 17 6 15 7 16 8 14 9 9 10 10 11
REMARK SMILES IDX 11 12 13 13 12 14 97 15 95 16 96 17 8 18 7 20 1 21 2 22 3 23
REMARK SMILES IDX 4 24 5 25 6 26 23 27 24 28 25 29 26 30 27 31 28 32 29 33
REMARK SMILES IDX 30 34 94 35 31 36 93 37 32 38 33 39 34 40 87 41 35 42 92 43
REMARK SMILES IDX 86 44 88 45 36 46 91 47 85 48 84 49 37 51 71 52 50 53 70 54
REMARK SMILES IDX 51 55 54 56 69 57 89 58 52 59 53 60 68 62 90 63 55 64 38 65
REMARK SMILES IDX 39 66 48 67 40 68 41 69 47 70 49 71 42 72 43 73 44 74 45 75
REMARK SMILES IDX 46 76 72 77 73 78 82 79 74 80 75 81 81 82 83 83 76 84 77 85
REMARK SMILES IDX 78 86 79 87 80 88 56 89 57 90 66 91 58 92 59 93 65 94 67 95
REMARK SMILES IDX 60 96 61 97 62 98 63 99 64 100
REMARK H PARENT 8 19 88 50 54 61
REMARK Flexibility Score: inf
ROOT
ATOM      1  C   UNL A   1      35.204  33.787  29.102  1.00  0.00     0.188 C 
ENDROOT
BRANCH   1   2
ATOM      2  C   UNL A   1      35.988  32.976  28.042  1.00  0.00     0.188 C 
BRANCH   2   3
ATOM      3  O   UNL A   1      35.354  31.896  27.374  1.00  0.00    -0.376 OA
BRANCH   3   4
ATOM      4  C   UNL A   1      33.981  31.638  27.626  1.00  0.00     0.202 C 
BRANCH   4   5
ATOM      5  C   UNL A   1      33.450  30.202  27.601  1.00  0.00     0.261 C 
BRANCH   5   6
ATOM      6  O   UNL A   1      33.192  29.737  26.270  1.00  0.00    -0.460 OA
BRANCH   6   7
ATOM      7  C   UNL A   1      32.674  28.494  26.146  1.00  0.00     0.341 C 
ATOM      8  O   UNL A   1      32.918  27.536  26.863  1.00  0.00    -0.246 OA
BRANCH   7   9
ATOM      9  C   UNL A   1      31.633  28.460  25.101  1.00  0.00     0.102 A 
ATOM     10  C   UNL A   1      31.231  27.312  24.395  1.00  0.00     0.141 A 
ATOM     11  N   UNL A   1      30.212  27.361  23.495  1.00  0.00    -0.235 NA
ATOM     12  C   UNL A   1      29.627  28.553  23.286  1.00  0.00     0.046 A 
ATOM     13  C   UNL A   1      31.030  29.701  24.814  1.00  0.00     0.025 A 
ATOM     14  C   UNL A   1      30.021  29.737  23.876  1.00  0.00    -0.025 A 
ATOM     15  C   UNL A   1      28.365  28.745  22.493  1.00  0.00     0.057 C 
ATOM     16  C   UNL A   1      29.179  30.886  23.429  1.00  0.00     0.038 C 
ATOM     17  C   UNL A   1      28.375  30.263  22.274  1.00  0.00     0.011 C 
BRANCH  10  18
ATOM     18  N   UNL A   1      31.743  26.042  24.481  1.00  0.00    -0.366 N 
ATOM     19  H   UNL A   1      31.195  25.369  24.946  1.00  0.00     0.162 HD
BRANCH  18  20
ATOM     20  C   UNL A   1      33.011  25.607  23.952  1.00  0.00     0.086 C 
ATOM     21  C   UNL A   1      32.527  25.201  21.481  1.00  0.00     0.013 C 
ATOM     22  C   UNL A   1      32.898  24.557  22.825  1.00  0.00    -0.015 C 
ATOM     23  C   UNL A   1      31.915  23.411  23.119  1.00  0.00     0.013 C 
ATOM     24  C   UNL A   1      34.348  24.036  22.807  1.00  0.00     0.008 C 
ATOM     25  C   UNL A   1      34.766  23.961  24.276  1.00  0.00     0.003 C 
ATOM     26  C   UNL A   1      33.878  24.950  25.025  1.00  0.00     0.025 C 
ENDBRANCH  18  20
ENDBRANCH  10  18
ENDBRANCH   7   9
ENDBRANCH   6   7
ENDBRANCH   5   6
ENDBRANCH   4   5
ENDBRANCH   3   4
ENDBRANCH   2   3
ENDBRANCH   1   2
BRANCH   1  27
ATOM     27  O   UNL A   1      34.540  34.965  28.709  1.00  0.00    -0.376 OA
BRANCH  27  28
ATOM     28  C   UNL A   1      33.178  35.159  29.042  1.00  0.00     0.202 C 
BRANCH  28  29
ATOM     29  C   UNL A   1      32.647  36.161  30.087  1.00  0.00     0.261 C 
BRANCH  29  30
ATOM     30  O   UNL A   1      32.219  35.644  31.349  1.00  0.00    -0.460 OA
BRANCH  30  31
ATOM     31  C   UNL A   1      32.967  36.013  32.421  1.00  0.00     0.338 C 
ATOM     32  O   UNL A   1      32.674  36.827  33.283  1.00  0.00    -0.246 OA
BRANCH  31  33
ATOM     33  C   UNL A   1      34.142  35.127  32.499  1.00  0.00     0.060 A 
ATOM     34  C   UNL A   1      33.963  33.783  32.859  1.00  0.00     0.016 A 
ATOM     35  C   UNL A   1      35.414  35.625  32.221  1.00  0.00     0.016 A 
ATOM     36  C   UNL A   1      35.061  32.927  32.934  1.00  0.00     0.010 A 
ATOM     37  C   UNL A   1      36.519  34.780  32.344  1.00  0.00     0.010 A 
ATOM     38  C   UNL A   1      36.349  33.437  32.723  1.00  0.00    -0.014 A 
BRANCH  38  39
ATOM     39  C   UNL A   1      37.523  32.641  33.153  1.00  0.00     0.031 A 
ATOM     40  C   UNL A   1      38.177  33.018  34.454  1.00  0.00     0.074 A 
ATOM     41  C   UNL A   1      37.993  31.613  32.423  1.00  0.00     0.049 A 
ATOM     42  N   UNL A   1      39.239  32.515  35.025  1.00  0.00    -0.248 NA
ATOM     43  C   UNL A   1      37.543  34.108  35.215  1.00  0.00     0.031 C 
ATOM     44  C   UNL A   1      37.413  31.123  31.175  1.00  0.00     0.029 A 
ATOM     45  N   UNL A   1      39.078  30.799  32.633  1.00  0.00    -0.354 N 
ATOM     46  C   UNL A   1      39.394  33.218  36.213  1.00  0.00     0.074 A 
ATOM     47  C   UNL A   1      38.340  34.205  36.268  1.00  0.00     0.031 C 
ATOM     48  C   UNL A   1      38.159  30.100  30.721  1.00  0.00     0.029 A 
ATOM     49  C   UNL A   1      39.285  29.883  31.630  1.00  0.00     0.049 A 
ATOM     50  H   UNL A   1      39.655  30.867  33.428  1.00  0.00     0.167 HD
ATOM     51  C   UNL A   1      40.325  33.048  37.178  1.00  0.00     0.037 A 
ATOM     52  C   UNL A   1      40.282  28.990  31.459  1.00  0.00     0.037 A 
ATOM     53  C   UNL A   1      41.385  32.081  37.109  1.00  0.00     0.049 A 
ATOM     54  C   UNL A   1      41.376  28.897  32.496  1.00  0.00     0.074 A 
ATOM     55  C   UNL A   1      42.383  31.833  38.035  1.00  0.00     0.029 A 
ATOM     56  N   UNL A   1      41.595  31.210  36.050  1.00  0.00    -0.354 N 
ATOM     57  N   UNL A   1      41.499  29.550  33.628  1.00  0.00    -0.248 NA
ATOM     58  C   UNL A   1      42.470  27.950  32.231  1.00  0.00     0.031 C 
ATOM     59  C   UNL A   1      43.227  30.852  37.512  1.00  0.00     0.029 A 
ATOM     60  C   UNL A   1      42.725  30.445  36.287  1.00  0.00     0.049 A 
ATOM     61  H   UNL A   1      41.026  31.145  35.250  1.00  0.00     0.167 HD
ATOM     62  C   UNL A   1      42.668  29.076  34.219  1.00  0.00     0.074 A 
ATOM     63  C   UNL A   1      43.207  28.070  33.329  1.00  0.00     0.031 C 
ATOM     64  C   UNL A   1      43.245  29.442  35.392  1.00  0.00     0.037 A 
BRANCH  51  65
ATOM     65  C   UNL A   1      40.246  33.934  38.387  1.00  0.00     0.058 A 
ATOM     66  C   UNL A   1      40.961  35.139  38.460  1.00  0.00     0.135 A 
ATOM     67  C   UNL A   1      39.401  33.604  39.460  1.00  0.00     0.135 A 
ATOM     68  F   UNL A   1      41.802  35.487  37.473  1.00  0.00    -0.206 F 
ATOM     69  C   UNL A   1      40.848  35.985  39.557  1.00  0.00     0.059 A 
ATOM     70  C   UNL A   1      39.252  34.448  40.556  1.00  0.00     0.059 A 
ATOM     71  F   UNL A   1      38.705  32.457  39.445  1.00  0.00    -0.206 F 
ATOM     72  C   UNL A   1      39.982  35.635  40.596  1.00  0.00     0.060 A 
BRANCH  72  73
ATOM     73  S   UNL A   1      39.820  36.768  41.992  1.00  0.00     0.124 S 
ATOM     74  O   UNL A   1      41.200  36.862  42.455  1.00  0.00    -0.237 OA
ATOM     75  O   UNL A   1      39.282  37.965  41.354  1.00  0.00    -0.237 OA
ATOM     76  O   UNL A   1      38.903  36.073  42.890  1.00  0.00    -0.744 OA
ENDBRANCH  72  73
ENDBRANCH  51  65
BRANCH  52  77
ATOM     77  C   UNL A   1      40.307  28.110  30.257  1.00  0.00     0.058 A 
ATOM     78  C   UNL A   1      39.428  27.023  30.140  1.00  0.00     0.135 A 
ATOM     79  C   UNL A   1      41.219  28.324  29.211  1.00  0.00     0.135 A 
ATOM     80  F   UNL A   1      38.549  26.763  31.120  1.00  0.00    -0.206 F 
ATOM     81  C   UNL A   1      39.459  26.172  29.039  1.00  0.00     0.059 A 
ATOM     82  C   UNL A   1      41.251  27.504  28.086  1.00  0.00     0.059 A 
ATOM     83  F   UNL A   1      42.082  29.349  29.270  1.00  0.00    -0.206 F 
ATOM     84  C   UNL A   1      40.371  26.424  28.014  1.00  0.00     0.060 A 
BRANCH  84  85
ATOM     85  S   UNL A   1      40.372  25.337  26.572  1.00  0.00     0.124 S 
ATOM     86  O   UNL A   1      40.779  26.251  25.512  1.00  0.00    -0.237 OA
ATOM     87  O   UNL A   1      41.354  24.327  26.956  1.00  0.00    -0.237 OA
ATOM     88  O   UNL A   1      38.992  24.866  26.504  1.00  0.00    -0.744 OA
ENDBRANCH  84  85
ENDBRANCH  52  77
BRANCH  64  89
ATOM     89  C   UNL A   1      44.517  28.748  35.801  1.00  0.00     0.058 A 
ATOM     90  C   UNL A   1      44.498  27.564  36.552  1.00  0.00     0.135 A 
ATOM     91  C   UNL A   1      45.763  29.219  35.352  1.00  0.00     0.135 A 
ATOM     92  F   UNL A   1      43.335  27.072  37.008  1.00  0.00    -0.206 F 
ATOM     93  C   UNL A   1      45.669  26.876  36.855  1.00  0.00     0.059 A 
ATOM     94  C   UNL A   1      46.944  28.531  35.617  1.00  0.00     0.059 A 
ATOM     95  F   UNL A   1      45.838  30.340  34.617  1.00  0.00    -0.206 F 
ATOM     96  C   UNL A   1      46.887  27.363  36.374  1.00  0.00     0.060 A 
BRANCH  96  97
ATOM     97  S   UNL A   1      48.389  26.427  36.733  1.00  0.00     0.124 S 
ATOM     98  O   UNL A   1      48.153  25.194  35.990  1.00  0.00    -0.237 OA
ATOM     99  O   UNL A   1      49.431  27.299  36.201  1.00  0.00    -0.237 OA
ATOM    100  O   UNL A   1      48.370  26.295  38.187  1.00  0.00    -0.744 OA
ENDBRANCH  96  97
ENDBRANCH  64  89
ENDBRANCH  38  39
ENDBRANCH  31  33
ENDBRANCH  30  31
ENDBRANCH  29  30
ENDBRANCH  28  29
ENDBRANCH  27  28
ENDBRANCH   1  27
TORSDOF 22
ENDMDL
