MODEL 1
REMARK VINA RESULT:     -10.4      0.000      0.000
REMARK SMILES Cn1ccc(C(=O)NCc2ccc(C(=O)OCCOCCOCCOC(=O)c3ccc(-c4c5nc(c(-c6c(F)cc(S(=O)(=O)[O-])cc6F)c6ccc([nH]6)c(-c6c(F)cc(S(=O)(=O)[O-])cc6F)c6nc(c(-c7c(F)cc(S(=O)(=O)[O-])cc7F)c7ccc4[nH]7)C=C6)C=C5)cc3)cc2)cc1=O
REMARK SMILES IDX 20 1 19 2 18 3 17 4 16 5 14 6 15 7 13 8 10 9 11 10 95 11
REMARK SMILES IDX 12 12 94 13 9 14 8 15 6 16 7 17 5 19 1 20 2 21 3 22 97 23
REMARK SMILES IDX 4 24 96 25 98 26 21 27 22 28 23 29 24 30 25 31 26 32 27 33
REMARK SMILES IDX 28 34 29 35 93 36 30 37 92 38 31 39 32 40 33 41 86 42 34 43
REMARK SMILES IDX 91 44 85 45 87 46 35 47 90 48 84 49 83 50 36 52 70 53 49 54
REMARK SMILES IDX 69 55 50 56 53 57 68 58 88 59 51 60 52 61 67 63 89 64 54 65
REMARK SMILES IDX 37 66 38 67 47 68 39 69 40 70 46 71 48 72 41 73 42 74 43 75
REMARK SMILES IDX 44 76 45 77 71 78 72 79 81 80 73 81 74 82 80 83 82 84 75 85
REMARK SMILES IDX 76 86 77 87 78 88 79 89 55 90 56 91 65 92 57 93 58 94 64 95
REMARK SMILES IDX 66 96 59 97 60 98 61 99 62 100 63 101
REMARK H PARENT 8 18 87 51 53 62
REMARK Flexibility Score: inf
ROOT
ATOM      1  C   UNL A   1      37.002  23.824  25.943  1.00  0.00     0.188 C 
ENDROOT
BRANCH   1   2
ATOM      2  O   UNL A   1      35.991  22.995  26.470  1.00  0.00    -0.376 OA
BRANCH   2   3
ATOM      3  C   UNL A   1      34.834  22.680  25.715  1.00  0.00     0.202 C 
BRANCH   3   4
ATOM      4  C   UNL A   1      34.753  21.585  24.640  1.00  0.00     0.261 C 
BRANCH   4   5
ATOM      5  O   UNL A   1      33.559  21.544  23.853  1.00  0.00    -0.460 OA
BRANCH   5   6
ATOM      6  C   UNL A   1      32.404  21.446  24.571  1.00  0.00     0.338 C 
ATOM      7  O   UNL A   1      32.066  20.532  25.286  1.00  0.00    -0.246 OA
BRANCH   6   8
ATOM      8  C   UNL A   1      31.666  22.729  24.487  1.00  0.00     0.060 A 
ATOM      9  C   UNL A   1      30.257  25.162  24.428  1.00  0.00    -0.029 A 
ATOM     10  C   UNL A   1      30.397  24.450  25.628  1.00  0.00     0.006 A 
ATOM     11  C   UNL A   1      30.879  24.657  23.270  1.00  0.00     0.006 A 
ATOM     12  C   UNL A   1      31.084  23.233  25.656  1.00  0.00     0.016 A 
ATOM     13  C   UNL A   1      31.576  23.446  23.295  1.00  0.00     0.016 A 
BRANCH   9  14
ATOM     14  C   UNL A   1      29.491  26.468  24.419  1.00  0.00     0.152 C 
BRANCH  14  15
ATOM     15  N   UNL A   1      29.958  27.370  23.385  1.00  0.00    -0.348 N 
ATOM     16  C   UNL A   1      30.767  28.455  23.365  1.00  0.00     0.251 C 
ATOM     17  O   UNL A   1      30.820  29.065  22.290  1.00  0.00    -0.269 OA
ATOM     18  H   UNL A   1      29.608  27.140  22.494  1.00  0.00     0.164 HD
BRANCH  16  19
ATOM     19  C   UNL A   1      31.631  28.914  24.508  1.00  0.00     0.046 A 
ATOM     20  C   UNL A   1      33.888  30.718  27.640  1.00  0.00     0.153 C 
ATOM     21  N   UNL A   1      33.107  30.072  26.597  1.00  0.00    -0.319 N 
ATOM     22  C   UNL A   1      31.961  30.691  26.147  1.00  0.00     0.089 A 
ATOM     23  C   UNL A   1      33.526  28.847  26.091  1.00  0.00     0.251 A 
ATOM     24  C   UNL A   1      31.239  30.163  25.155  1.00  0.00     0.032 A 
ATOM     25  C   UNL A   1      32.689  28.257  25.006  1.00  0.00     0.085 A 
ATOM     26  O   UNL A   1      34.526  28.239  26.462  1.00  0.00    -0.269 OA
ENDBRANCH  16  19
ENDBRANCH  14  15
ENDBRANCH   9  14
ENDBRANCH   6   8
ENDBRANCH   5   6
ENDBRANCH   4   5
ENDBRANCH   3   4
ENDBRANCH   2   3
ENDBRANCH   1   2
BRANCH   1  27
ATOM     27  C   UNL A   1      38.476  23.386  26.060  1.00  0.00     0.188 C 
BRANCH  27  28
ATOM     28  O   UNL A   1      38.826  22.020  25.996  1.00  0.00    -0.376 OA
BRANCH  28  29
ATOM     29  C   UNL A   1      40.017  21.556  26.608  1.00  0.00     0.202 C 
BRANCH  29  30
ATOM     30  C   UNL A   1      41.419  22.126  26.333  1.00  0.00     0.261 C 
BRANCH  30  31
ATOM     31  O   UNL A   1      41.868  23.198  27.167  1.00  0.00    -0.460 OA
BRANCH  31  32
ATOM     32  C   UNL A   1      42.107  24.367  26.521  1.00  0.00     0.338 C 
ATOM     33  O   UNL A   1      42.428  24.514  25.354  1.00  0.00    -0.246 OA
BRANCH  32  34
ATOM     34  C   UNL A   1      41.750  25.488  27.407  1.00  0.00     0.060 A 
ATOM     35  C   UNL A   1      42.554  26.635  27.394  1.00  0.00     0.016 A 
ATOM     36  C   UNL A   1      40.665  25.390  28.278  1.00  0.00     0.016 A 
ATOM     37  C   UNL A   1      42.280  27.689  28.265  1.00  0.00     0.010 A 
ATOM     38  C   UNL A   1      40.406  26.437  29.167  1.00  0.00     0.010 A 
ATOM     39  C   UNL A   1      41.227  27.580  29.182  1.00  0.00    -0.014 A 
BRANCH  39  40
ATOM     40  C   UNL A   1      41.074  28.590  30.257  1.00  0.00     0.031 A 
ATOM     41  C   UNL A   1      41.970  28.497  31.462  1.00  0.00     0.074 A 
ATOM     42  C   UNL A   1      40.155  29.568  30.165  1.00  0.00     0.049 A 
ATOM     43  N   UNL A   1      41.962  29.213  32.556  1.00  0.00    -0.248 NA
ATOM     44  C   UNL A   1      43.010  27.456  31.432  1.00  0.00     0.031 C 
ATOM     45  C   UNL A   1      39.253  29.778  29.034  1.00  0.00     0.029 A 
ATOM     46  N   UNL A   1      39.816  30.558  31.054  1.00  0.00    -0.354 N 
ATOM     47  C   UNL A   1      42.980  28.699  33.351  1.00  0.00     0.074 A 
ATOM     48  C   UNL A   1      43.578  27.602  32.621  1.00  0.00     0.031 C 
ATOM     49  C   UNL A   1      38.442  30.815  29.310  1.00  0.00     0.029 A 
ATOM     50  C   UNL A   1      38.743  31.318  30.649  1.00  0.00     0.049 A 
ATOM     51  H   UNL A   1      40.295  30.710  31.902  1.00  0.00     0.167 HD
ATOM     52  C   UNL A   1      43.380  29.108  34.578  1.00  0.00     0.037 A 
ATOM     53  C   UNL A   1      38.062  32.283  31.301  1.00  0.00     0.037 A 
ATOM     54  C   UNL A   1      42.789  30.207  35.294  1.00  0.00     0.049 A 
ATOM     55  C   UNL A   1      38.497  32.685  32.690  1.00  0.00     0.074 A 
ATOM     56  C   UNL A   1      43.153  30.724  36.525  1.00  0.00     0.029 A 
ATOM     57  N   UNL A   1      41.705  30.952  34.853  1.00  0.00    -0.354 N 
ATOM     58  N   UNL A   1      39.489  32.221  33.412  1.00  0.00    -0.248 NA
ATOM     59  C   UNL A   1      37.720  33.744  33.352  1.00  0.00     0.031 C 
ATOM     60  C   UNL A   1      42.253  31.742  36.856  1.00  0.00     0.029 A 
ATOM     61  C   UNL A   1      41.368  31.903  35.802  1.00  0.00     0.049 A 
ATOM     62  H   UNL A   1      41.243  30.824  33.993  1.00  0.00     0.167 HD
ATOM     63  C   UNL A   1      39.474  32.952  34.597  1.00  0.00     0.074 A 
ATOM     64  C   UNL A   1      38.383  33.897  34.490  1.00  0.00     0.031 C 
ATOM     65  C   UNL A   1      40.289  32.850  35.677  1.00  0.00     0.037 A 
BRANCH  52  66
ATOM     66  C   UNL A   1      44.493  28.353  35.246  1.00  0.00     0.058 A 
ATOM     67  C   UNL A   1      45.835  28.745  35.121  1.00  0.00     0.135 A 
ATOM     68  C   UNL A   1      44.203  27.268  36.090  1.00  0.00     0.135 A 
ATOM     69  F   UNL A   1      46.171  29.762  34.310  1.00  0.00    -0.206 F 
ATOM     70  C   UNL A   1      46.851  28.083  35.804  1.00  0.00     0.059 A 
ATOM     71  C   UNL A   1      45.199  26.609  36.802  1.00  0.00     0.059 A 
ATOM     72  F   UNL A   1      42.936  26.848  36.239  1.00  0.00    -0.206 F 
ATOM     73  C   UNL A   1      46.522  27.022  36.649  1.00  0.00     0.060 A 
BRANCH  73  74
ATOM     74  S   UNL A   1      47.846  26.207  37.565  1.00  0.00     0.124 S 
ATOM     75  O   UNL A   1      47.997  27.095  38.713  1.00  0.00    -0.237 OA
ATOM     76  O   UNL A   1      47.267  24.898  37.848  1.00  0.00    -0.237 OA
ATOM     77  O   UNL A   1      48.962  26.205  36.623  1.00  0.00    -0.744 OA
ENDBRANCH  73  74
ENDBRANCH  52  66
BRANCH  53  78
ATOM     78  C   UNL A   1      36.870  32.916  30.673  1.00  0.00     0.058 A 
ATOM     79  C   UNL A   1      37.000  33.961  29.746  1.00  0.00     0.135 A 
ATOM     80  C   UNL A   1      35.570  32.511  31.018  1.00  0.00     0.135 A 
ATOM     81  F   UNL A   1      38.219  34.394  29.391  1.00  0.00    -0.206 F 
ATOM     82  C   UNL A   1      35.888  34.604  29.209  1.00  0.00     0.059 A 
ATOM     83  C   UNL A   1      34.443  33.117  30.472  1.00  0.00     0.059 A 
ATOM     84  F   UNL A   1      35.388  31.510  31.893  1.00  0.00    -0.206 F 
ATOM     85  C   UNL A   1      34.613  34.176  29.582  1.00  0.00     0.060 A 
BRANCH  85  86
ATOM     86  S   UNL A   1      33.175  35.008  28.872  1.00  0.00     0.124 S 
ATOM     87  O   UNL A   1      32.389  35.301  30.065  1.00  0.00    -0.237 OA
ATOM     88  O   UNL A   1      33.782  36.157  28.208  1.00  0.00    -0.237 OA
ATOM     89  O   UNL A   1      32.612  34.001  27.977  1.00  0.00    -0.744 OA
ENDBRANCH  85  86
ENDBRANCH  53  78
BRANCH  65  90
ATOM     90  C   UNL A   1      40.071  33.812  36.814  1.00  0.00     0.058 A 
ATOM     91  C   UNL A   1      40.723  35.054  36.871  1.00  0.00     0.135 A 
ATOM     92  C   UNL A   1      39.145  33.514  37.827  1.00  0.00     0.135 A 
ATOM     93  F   UNL A   1      41.622  35.389  35.930  1.00  0.00    -0.206 F 
ATOM     94  C   UNL A   1      40.481  35.956  37.902  1.00  0.00     0.059 A 
ATOM     95  C   UNL A   1      38.865  34.413  38.852  1.00  0.00     0.059 A 
ATOM     96  F   UNL A   1      38.483  32.346  37.815  1.00  0.00    -0.206 F 
ATOM     97  C   UNL A   1      39.547  35.627  38.886  1.00  0.00     0.060 A 
BRANCH  97  98
ATOM     98  S   UNL A   1      39.215  36.823  40.198  1.00  0.00     0.124 S 
ATOM     99  O   UNL A   1      38.294  36.077  41.050  1.00  0.00    -0.237 OA
ATOM    100  O   UNL A   1      40.545  37.056  40.753  1.00  0.00    -0.237 OA
ATOM    101  O   UNL A   1      38.632  37.956  39.487  1.00  0.00    -0.744 OA
ENDBRANCH  97  98
ENDBRANCH  65  90
ENDBRANCH  39  40
ENDBRANCH  32  34
ENDBRANCH  31  32
ENDBRANCH  30  31
ENDBRANCH  29  30
ENDBRANCH  28  29
ENDBRANCH  27  28
ENDBRANCH   1  27
TORSDOF 23
ENDMDL
MODEL 2
REMARK VINA RESULT:     -10.4      1.280      2.574
REMARK SMILES Cn1ccc(C(=O)NCc2ccc(C(=O)OCCOCCOCCOC(=O)c3ccc(-c4c5nc(c(-c6c(F)cc(S(=O)(=O)[O-])cc6F)c6ccc([nH]6)c(-c6c(F)cc(S(=O)(=O)[O-])cc6F)c6nc(c(-c7c(F)cc(S(=O)(=O)[O-])cc7F)c7ccc4[nH]7)C=C6)C=C5)cc3)cc2)cc1=O
REMARK SMILES IDX 20 1 19 2 18 3 17 4 16 5 14 6 15 7 13 8 10 9 11 10 95 11
REMARK SMILES IDX 12 12 94 13 9 14 8 15 6 16 7 17 5 19 1 20 2 21 3 22 97 23
REMARK SMILES IDX 4 24 96 25 98 26 21 27 22 28 23 29 24 30 25 31 26 32 27 33
REMARK SMILES IDX 28 34 29 35 93 36 30 37 92 38 31 39 32 40 33 41 86 42 34 43
REMARK SMILES IDX 91 44 85 45 87 46 35 47 90 48 84 49 83 50 36 52 70 53 49 54
REMARK SMILES IDX 69 55 50 56 53 57 68 58 88 59 51 60 52 61 67 63 89 64 54 65
REMARK SMILES IDX 37 66 38 67 47 68 39 69 40 70 46 71 48 72 41 73 42 74 43 75
REMARK SMILES IDX 44 76 45 77 71 78 72 79 81 80 73 81 74 82 80 83 82 84 75 85
REMARK SMILES IDX 76 86 77 87 78 88 79 89 55 90 56 91 65 92 57 93 58 94 64 95
REMARK SMILES IDX 66 96 59 97 60 98 61 99 62 100 63 101
REMARK H PARENT 8 18 87 51 53 62
REMARK Flexibility Score: inf
ROOT
ATOM      1  C   UNL A   1      35.907  23.246  26.141  1.00  0.00     0.188 C 
ENDROOT
BRANCH   1   2
ATOM      2  O   UNL A   1      35.340  21.955  26.185  1.00  0.00    -0.376 OA
BRANCH   2   3
ATOM      3  C   UNL A   1      34.045  21.742  26.717  1.00  0.00     0.202 C 
BRANCH   3   4
ATOM      4  C   UNL A   1      32.748  21.704  25.894  1.00  0.00     0.261 C 
BRANCH   4   5
ATOM      5  O   UNL A   1      32.207  22.963  25.486  1.00  0.00    -0.460 OA
BRANCH   5   6
ATOM      6  C   UNL A   1      31.718  23.732  26.501  1.00  0.00     0.338 C 
ATOM      7  O   UNL A   1      31.154  23.348  27.499  1.00  0.00    -0.246 OA
BRANCH   6   8
ATOM      8  C   UNL A   1      32.133  25.139  26.292  1.00  0.00     0.060 A 
ATOM      9  C   UNL A   1      32.987  27.779  25.826  1.00  0.00    -0.029 A 
ATOM     10  C   UNL A   1      33.649  26.699  25.222  1.00  0.00     0.006 A 
ATOM     11  C   UNL A   1      31.860  27.512  26.627  1.00  0.00     0.006 A 
ATOM     12  C   UNL A   1      33.235  25.387  25.464  1.00  0.00     0.016 A 
ATOM     13  C   UNL A   1      31.436  26.202  26.864  1.00  0.00     0.016 A 
BRANCH   9  14
ATOM     14  C   UNL A   1      33.467  29.191  25.564  1.00  0.00     0.152 C 
BRANCH  14  15
ATOM     15  N   UNL A   1      32.648  30.180  26.236  1.00  0.00    -0.348 N 
ATOM     16  C   UNL A   1      31.536  30.877  25.906  1.00  0.00     0.251 C 
ATOM     17  O   UNL A   1      31.198  31.760  26.703  1.00  0.00    -0.269 OA
ATOM     18  H   UNL A   1      32.976  30.393  27.139  1.00  0.00     0.164 HD
BRANCH  16  19
ATOM     19  C   UNL A   1      30.672  30.611  24.702  1.00  0.00     0.046 A 
ATOM     20  C   UNL A   1      27.868  30.210  21.519  1.00  0.00     0.153 C 
ATOM     21  N   UNL A   1      28.856  30.350  22.577  1.00  0.00    -0.319 N 
ATOM     22  C   UNL A   1      28.846  31.494  23.346  1.00  0.00     0.089 A 
ATOM     23  C   UNL A   1      29.788  29.338  22.779  1.00  0.00     0.251 A 
ATOM     24  C   UNL A   1      29.698  31.645  24.363  1.00  0.00     0.032 A 
ATOM     25  C   UNL A   1      30.752  29.540  23.899  1.00  0.00     0.085 A 
ATOM     26  O   UNL A   1      29.857  28.306  22.119  1.00  0.00    -0.269 OA
ENDBRANCH  16  19
ENDBRANCH  14  15
ENDBRANCH   9  14
ENDBRANCH   6   8
ENDBRANCH   5   6
ENDBRANCH   4   5
ENDBRANCH   3   4
ENDBRANCH   2   3
ENDBRANCH   1   2
BRANCH   1  27
ATOM     27  C   UNL A   1      37.361  23.416  25.655  1.00  0.00     0.188 C 
BRANCH  27  28
ATOM     28  O   UNL A   1      38.099  22.304  25.194  1.00  0.00    -0.376 OA
BRANCH  28  29
ATOM     29  C   UNL A   1      38.943  21.588  26.078  1.00  0.00     0.202 C 
BRANCH  29  30
ATOM     30  C   UNL A   1      40.284  22.112  26.622  1.00  0.00     0.261 C 
BRANCH  30  31
ATOM     31  O   UNL A   1      40.249  23.286  27.437  1.00  0.00    -0.460 OA
BRANCH  31  32
ATOM     32  C   UNL A   1      41.113  24.266  27.071  1.00  0.00     0.338 C 
ATOM     33  O   UNL A   1      41.886  24.255  26.129  1.00  0.00    -0.246 OA
BRANCH  32  34
ATOM     34  C   UNL A   1      40.867  25.459  27.898  1.00  0.00     0.060 A 
ATOM     35  C   UNL A   1      41.884  26.415  28.018  1.00  0.00     0.016 A 
ATOM     36  C   UNL A   1      39.664  25.610  28.589  1.00  0.00     0.016 A 
ATOM     37  C   UNL A   1      41.705  27.525  28.842  1.00  0.00     0.010 A 
ATOM     38  C   UNL A   1      39.496  26.711  29.433  1.00  0.00     0.010 A 
ATOM     39  C   UNL A   1      40.524  27.660  29.583  1.00  0.00    -0.014 A 
BRANCH  39  40
ATOM     40  C   UNL A   1      40.422  28.708  30.628  1.00  0.00     0.031 A 
ATOM     41  C   UNL A   1      41.291  28.590  31.851  1.00  0.00     0.074 A 
ATOM     42  C   UNL A   1      39.572  29.741  30.494  1.00  0.00     0.049 A 
ATOM     43  N   UNL A   1      41.314  29.335  32.924  1.00  0.00    -0.248 NA
ATOM     44  C   UNL A   1      42.260  27.481  31.867  1.00  0.00     0.031 C 
ATOM     45  C   UNL A   1      38.704  29.979  29.342  1.00  0.00     0.029 A 
ATOM     46  N   UNL A   1      39.285  30.776  31.350  1.00  0.00    -0.354 N 
ATOM     47  C   UNL A   1      42.283  28.777  33.751  1.00  0.00     0.074 A 
ATOM     48  C   UNL A   1      42.817  27.624  33.062  1.00  0.00     0.031 C 
ATOM     49  C   UNL A   1      37.959  31.074  29.576  1.00  0.00     0.029 A 
ATOM     50  C   UNL A   1      38.272  31.594  30.906  1.00  0.00     0.049 A 
ATOM     51  H   UNL A   1      39.760  30.919  32.201  1.00  0.00     0.167 HD
ATOM     52  C   UNL A   1      42.689  29.193  34.973  1.00  0.00     0.037 A 
ATOM     53  C   UNL A   1      37.646  32.619  31.520  1.00  0.00     0.037 A 
ATOM     54  C   UNL A   1      42.161  30.349  35.649  1.00  0.00     0.049 A 
ATOM     55  C   UNL A   1      38.085  33.030  32.904  1.00  0.00     0.074 A 
ATOM     56  C   UNL A   1      42.540  30.875  36.872  1.00  0.00     0.029 A 
ATOM     57  N   UNL A   1      41.136  31.150  35.169  1.00  0.00    -0.354 N 
ATOM     58  N   UNL A   1      39.033  32.522  33.656  1.00  0.00    -0.248 NA
ATOM     59  C   UNL A   1      37.370  34.156  33.524  1.00  0.00     0.031 C 
ATOM     60  C   UNL A   1      41.705  31.958  37.160  1.00  0.00     0.029 A 
ATOM     61  C   UNL A   1      40.849  32.148  36.087  1.00  0.00     0.049 A 
ATOM     62  H   UNL A   1      40.680  31.029  34.305  1.00  0.00     0.167 HD
ATOM     63  C   UNL A   1      39.047  33.285  34.821  1.00  0.00     0.074 A 
ATOM     64  C   UNL A   1      38.023  34.296  34.670  1.00  0.00     0.031 C 
ATOM     65  C   UNL A   1      39.837  33.160  35.917  1.00  0.00     0.037 A 
BRANCH  52  66
ATOM     66  C   UNL A   1      43.740  28.385  35.681  1.00  0.00     0.058 A 
ATOM     67  C   UNL A   1      43.408  27.321  36.534  1.00  0.00     0.135 A 
ATOM     68  C   UNL A   1      45.101  28.631  35.438  1.00  0.00     0.135 A 
ATOM     69  F   UNL A   1      42.122  27.057  36.817  1.00  0.00    -0.206 F 
ATOM     70  C   UNL A   1      44.389  26.533  37.126  1.00  0.00     0.059 A 
ATOM     71  C   UNL A   1      46.098  27.840  35.998  1.00  0.00     0.059 A 
ATOM     72  F   UNL A   1      45.473  29.642  34.636  1.00  0.00    -0.206 F 
ATOM     73  C   UNL A   1      45.732  26.795  36.845  1.00  0.00     0.060 A 
BRANCH  73  74
ATOM     74  S   UNL A   1      46.990  25.731  37.583  1.00  0.00     0.124 S 
ATOM     75  O   UNL A   1      47.321  26.471  38.797  1.00  0.00    -0.237 OA
ATOM     76  O   UNL A   1      46.262  24.482  37.782  1.00  0.00    -0.237 OA
ATOM     77  O   UNL A   1      48.039  25.688  36.569  1.00  0.00    -0.744 OA
ENDBRANCH  73  74
ENDBRANCH  52  66
BRANCH  53  78
ATOM     78  C   UNL A   1      36.508  33.312  30.854  1.00  0.00     0.058 A 
ATOM     79  C   UNL A   1      36.718  34.218  29.804  1.00  0.00     0.135 A 
ATOM     80  C   UNL A   1      35.187  33.107  31.283  1.00  0.00     0.135 A 
ATOM     81  F   UNL A   1      37.963  34.459  29.365  1.00  0.00    -0.206 F 
ATOM     82  C   UNL A   1      35.665  34.922  29.225  1.00  0.00     0.059 A 
ATOM     83  C   UNL A   1      34.115  33.774  30.700  1.00  0.00     0.059 A 
ATOM     84  F   UNL A   1      34.929  32.243  32.277  1.00  0.00    -0.206 F 
ATOM     85  C   UNL A   1      34.366  34.694  29.683  1.00  0.00     0.060 A 
BRANCH  85  86
ATOM     86  S   UNL A   1      33.004  35.602  28.920  1.00  0.00     0.124 S 
ATOM     87  O   UNL A   1      32.430  34.586  28.044  1.00  0.00    -0.237 OA
ATOM     88  O   UNL A   1      32.198  35.977  30.077  1.00  0.00    -0.237 OA
ATOM     89  O   UNL A   1      33.675  36.710  28.246  1.00  0.00    -0.744 OA
ENDBRANCH  85  86
ENDBRANCH  53  78
BRANCH  65  90
ATOM     90  C   UNL A   1      39.666  34.166  37.023  1.00  0.00     0.058 A 
ATOM     91  C   UNL A   1      38.762  33.963  38.078  1.00  0.00     0.135 A 
ATOM     92  C   UNL A   1      40.468  35.318  37.064  1.00  0.00     0.135 A 
ATOM     93  F   UNL A   1      37.967  32.880  38.088  1.00  0.00    -0.206 F 
ATOM     94  C   UNL A   1      38.643  34.878  39.121  1.00  0.00     0.059 A 
ATOM     95  C   UNL A   1      40.388  36.231  38.111  1.00  0.00     0.059 A 
ATOM     96  F   UNL A   1      41.359  35.556  36.088  1.00  0.00    -0.206 F 
ATOM     97  C   UNL A   1      39.464  36.007  39.130  1.00  0.00     0.060 A 
BRANCH  97  98
ATOM     98  S   UNL A   1      39.326  37.166  40.508  1.00  0.00     0.124 S 
ATOM     99  O   UNL A   1      40.690  37.677  40.599  1.00  0.00    -0.237 OA
ATOM    100  O   UNL A   1      38.325  38.111  40.023  1.00  0.00    -0.237 OA
ATOM    101  O   UNL A   1      38.898  36.323  41.620  1.00  0.00    -0.744 OA
ENDBRANCH  97  98
ENDBRANCH  65  90
ENDBRANCH  39  40
ENDBRANCH  32  34
ENDBRANCH  31  32
ENDBRANCH  30  31
ENDBRANCH  29  30
ENDBRANCH  28  29
ENDBRANCH  27  28
ENDBRANCH   1  27
TORSDOF 23
ENDMDL
MODEL 3
REMARK VINA RESULT:     -10.1      1.725      8.493
REMARK SMILES Cn1ccc(C(=O)NCc2ccc(C(=O)OCCOCCOCCOC(=O)c3ccc(-c4c5nc(c(-c6c(F)cc(S(=O)(=O)[O-])cc6F)c6ccc([nH]6)c(-c6c(F)cc(S(=O)(=O)[O-])cc6F)c6nc(c(-c7c(F)cc(S(=O)(=O)[O-])cc7F)c7ccc4[nH]7)C=C6)C=C5)cc3)cc2)cc1=O
REMARK SMILES IDX 20 1 19 2 18 3 17 4 16 5 14 6 15 7 13 8 10 9 11 10 95 11
REMARK SMILES IDX 12 12 94 13 9 14 8 15 6 16 7 17 5 19 1 20 2 21 3 22 97 23
REMARK SMILES IDX 4 24 96 25 98 26 21 27 22 28 23 29 24 30 25 31 26 32 27 33
REMARK SMILES IDX 28 34 29 35 93 36 30 37 92 38 31 39 32 40 33 41 86 42 34 43
REMARK SMILES IDX 91 44 85 45 87 46 35 47 90 48 84 49 83 50 36 52 70 53 49 54
REMARK SMILES IDX 69 55 50 56 53 57 68 58 88 59 51 60 52 61 67 63 89 64 54 65
REMARK SMILES IDX 37 66 38 67 47 68 39 69 40 70 46 71 48 72 41 73 42 74 43 75
REMARK SMILES IDX 44 76 45 77 71 78 72 79 81 80 73 81 74 82 80 83 82 84 75 85
REMARK SMILES IDX 76 86 77 87 78 88 79 89 55 90 56 91 65 92 57 93 58 94 64 95
REMARK SMILES IDX 66 96 59 97 60 98 61 99 62 100 63 101
REMARK H PARENT 8 18 87 51 53 62
REMARK Flexibility Score: inf
ROOT
ATOM      1  C   UNL A   1      43.562  21.858  25.860  1.00  0.00     0.188 C 
ENDROOT
BRANCH   1   2
ATOM      2  O   UNL A   1      43.081  22.074  27.168  1.00  0.00    -0.376 OA
BRANCH   2   3
ATOM      3  C   UNL A   1      41.708  22.317  27.412  1.00  0.00     0.202 C 
BRANCH   3   4
ATOM      4  C   UNL A   1      40.764  23.076  26.466  1.00  0.00     0.261 C 
BRANCH   4   5
ATOM      5  O   UNL A   1      39.360  22.908  26.687  1.00  0.00    -0.460 OA
BRANCH   5   6
ATOM      6  C   UNL A   1      38.761  21.985  25.883  1.00  0.00     0.338 C 
ATOM      7  O   UNL A   1      39.123  20.850  25.680  1.00  0.00    -0.246 OA
BRANCH   6   8
ATOM      8  C   UNL A   1      37.465  22.522  25.404  1.00  0.00     0.060 A 
ATOM      9  C   UNL A   1      35.016  23.487  24.412  1.00  0.00    -0.029 A 
ATOM     10  C   UNL A   1      35.829  22.662  23.620  1.00  0.00     0.006 A 
ATOM     11  C   UNL A   1      35.430  23.777  25.726  1.00  0.00     0.006 A 
ATOM     12  C   UNL A   1      37.053  22.195  24.107  1.00  0.00     0.016 A 
ATOM     13  C   UNL A   1      36.648  23.303  26.220  1.00  0.00     0.016 A 
BRANCH   9  14
ATOM     14  C   UNL A   1      33.703  23.997  23.855  1.00  0.00     0.152 C 
BRANCH  14  15
ATOM     15  N   UNL A   1      33.898  25.036  22.863  1.00  0.00    -0.348 N 
ATOM     16  C   UNL A   1      33.575  26.348  22.784  1.00  0.00     0.251 C 
ATOM     17  O   UNL A   1      33.784  26.888  21.691  1.00  0.00    -0.269 OA
ATOM     18  H   UNL A   1      34.375  24.713  22.064  1.00  0.00     0.164 HD
BRANCH  16  19
ATOM     19  C   UNL A   1      33.054  27.182  23.922  1.00  0.00     0.046 A 
ATOM     20  C   UNL A   1      32.022  29.863  27.070  1.00  0.00     0.153 C 
ATOM     21  N   UNL A   1      32.335  28.949  25.983  1.00  0.00    -0.319 N 
ATOM     22  C   UNL A   1      33.146  29.389  24.959  1.00  0.00     0.089 A 
ATOM     23  C   UNL A   1      31.801  27.665  25.996  1.00  0.00     0.251 A 
ATOM     24  C   UNL A   1      33.505  28.571  23.966  1.00  0.00     0.032 A 
ATOM     25  C   UNL A   1      32.187  26.776  24.862  1.00  0.00     0.085 A 
ATOM     26  O   UNL A   1      31.061  27.222  26.869  1.00  0.00    -0.269 OA
ENDBRANCH  16  19
ENDBRANCH  14  15
ENDBRANCH   9  14
ENDBRANCH   6   8
ENDBRANCH   5   6
ENDBRANCH   4   5
ENDBRANCH   3   4
ENDBRANCH   2   3
ENDBRANCH   1   2
BRANCH   1  27
ATOM     27  C   UNL A   1      45.055  21.533  25.648  1.00  0.00     0.188 C 
BRANCH  27  28
ATOM     28  O   UNL A   1      46.055  22.424  26.097  1.00  0.00    -0.376 OA
BRANCH  28  29
ATOM     29  C   UNL A   1      46.339  23.607  25.371  1.00  0.00     0.202 C 
BRANCH  29  30
ATOM     30  C   UNL A   1      45.778  24.998  25.714  1.00  0.00     0.261 C 
BRANCH  30  31
ATOM     31  O   UNL A   1      44.708  25.060  26.660  1.00  0.00    -0.460 OA
BRANCH  31  32
ATOM     32  C   UNL A   1      43.579  25.664  26.211  1.00  0.00     0.338 C 
ATOM     33  O   UNL A   1      43.021  25.487  25.142  1.00  0.00    -0.246 OA
BRANCH  32  34
ATOM     34  C   UNL A   1      43.000  26.473  27.299  1.00  0.00     0.060 A 
ATOM     35  C   UNL A   1      43.459  27.785  27.477  1.00  0.00     0.016 A 
ATOM     36  C   UNL A   1      42.053  25.927  28.165  1.00  0.00     0.016 A 
ATOM     37  C   UNL A   1      42.977  28.554  28.534  1.00  0.00     0.010 A 
ATOM     38  C   UNL A   1      41.589  26.691  29.238  1.00  0.00     0.010 A 
ATOM     39  C   UNL A   1      42.067  27.999  29.443  1.00  0.00    -0.014 A 
BRANCH  39  40
ATOM     40  C   UNL A   1      41.729  28.728  30.690  1.00  0.00     0.031 A 
ATOM     41  C   UNL A   1      40.538  29.648  30.685  1.00  0.00     0.074 A 
ATOM     42  C   UNL A   1      42.468  28.577  31.803  1.00  0.00     0.049 A 
ATOM     43  N   UNL A   1      40.104  30.444  31.625  1.00  0.00    -0.248 NA
ATOM     44  C   UNL A   1      39.731  29.675  29.453  1.00  0.00     0.031 C 
ATOM     45  C   UNL A   1      43.624  27.692  31.938  1.00  0.00     0.029 A 
ATOM     46  N   UNL A   1      42.365  29.185  33.030  1.00  0.00    -0.354 N 
ATOM     47  C   UNL A   1      38.988  31.082  31.096  1.00  0.00     0.074 A 
ATOM     48  C   UNL A   1      38.817  30.589  29.747  1.00  0.00     0.031 C 
ATOM     49  C   UNL A   1      44.142  27.837  33.171  1.00  0.00     0.029 A 
ATOM     50  C   UNL A   1      43.377  28.848  33.899  1.00  0.00     0.049 A 
ATOM     51  H   UNL A   1      41.636  29.804  33.266  1.00  0.00     0.167 HD
ATOM     52  C   UNL A   1      38.179  31.993  31.684  1.00  0.00     0.037 A 
ATOM     53  C   UNL A   1      43.671  29.329  35.125  1.00  0.00     0.037 A 
ATOM     54  C   UNL A   1      38.348  32.472  33.031  1.00  0.00     0.049 A 
ATOM     55  C   UNL A   1      42.782  30.384  35.737  1.00  0.00     0.074 A 
ATOM     56  C   UNL A   1      37.554  33.364  33.731  1.00  0.00     0.029 A 
ATOM     57  N   UNL A   1      39.384  32.109  33.879  1.00  0.00    -0.354 N 
ATOM     58  N   UNL A   1      41.703  30.945  35.244  1.00  0.00    -0.248 NA
ATOM     59  C   UNL A   1      43.148  30.869  37.077  1.00  0.00     0.031 C 
ATOM     60  C   UNL A   1      38.142  33.586  34.979  1.00  0.00     0.029 A 
ATOM     61  C   UNL A   1      39.266  32.784  35.083  1.00  0.00     0.049 A 
ATOM     62  H   UNL A   1      40.097  31.467  33.658  1.00  0.00     0.167 HD
ATOM     63  C   UNL A   1      41.247  31.824  36.222  1.00  0.00     0.074 A 
ATOM     64  C   UNL A   1      42.158  31.712  37.341  1.00  0.00     0.031 C 
ATOM     65  C   UNL A   1      40.172  32.650  36.196  1.00  0.00     0.037 A 
BRANCH  52  66
ATOM     66  C   UNL A   1      37.048  32.562  30.875  1.00  0.00     0.058 A 
ATOM     67  C   UNL A   1      35.723  32.133  31.048  1.00  0.00     0.135 A 
ATOM     68  C   UNL A   1      37.286  33.608  29.969  1.00  0.00     0.135 A 
ATOM     69  F   UNL A   1      35.443  31.121  31.885  1.00  0.00    -0.206 F 
ATOM     70  C   UNL A   1      34.674  32.718  30.346  1.00  0.00     0.059 A 
ATOM     71  C   UNL A   1      36.250  34.225  29.276  1.00  0.00     0.059 A 
ATOM     72  F   UNL A   1      38.537  34.051  29.761  1.00  0.00    -0.206 F 
ATOM     73  C   UNL A   1      34.946  33.770  29.468  1.00  0.00     0.060 A 
BRANCH  73  74
ATOM     74  S   UNL A   1      33.568  34.549  28.603  1.00  0.00     0.124 S 
ATOM     75  O   UNL A   1      33.147  33.480  27.703  1.00  0.00    -0.237 OA
ATOM     76  O   UNL A   1      32.650  34.856  29.696  1.00  0.00    -0.237 OA
ATOM     77  O   UNL A   1      34.179  35.707  27.958  1.00  0.00    -0.744 OA
ENDBRANCH  73  74
ENDBRANCH  52  66
BRANCH  53  78
ATOM     78  C   UNL A   1      44.883  28.853  35.847  1.00  0.00     0.058 A 
ATOM     79  C   UNL A   1      46.134  29.456  35.651  1.00  0.00     0.135 A 
ATOM     80  C   UNL A   1      44.819  27.757  36.723  1.00  0.00     0.135 A 
ATOM     81  F   UNL A   1      46.252  30.499  34.816  1.00  0.00    -0.206 F 
ATOM     82  C   UNL A   1      47.283  28.972  36.270  1.00  0.00     0.059 A 
ATOM     83  C   UNL A   1      45.947  27.274  37.377  1.00  0.00     0.059 A 
ATOM     84  F   UNL A   1      43.645  27.149  36.955  1.00  0.00    -0.206 F 
ATOM     85  C   UNL A   1      47.179  27.877  37.129  1.00  0.00     0.060 A 
BRANCH  85  86
ATOM     86  S   UNL A   1      48.673  27.260  37.936  1.00  0.00     0.124 S 
ATOM     87  O   UNL A   1      49.700  27.623  36.965  1.00  0.00    -0.237 OA
ATOM     88  O   UNL A   1      48.680  28.014  39.185  1.00  0.00    -0.237 OA
ATOM     89  O   UNL A   1      48.414  25.830  38.076  1.00  0.00    -0.744 OA
ENDBRANCH  85  86
ENDBRANCH  53  78
BRANCH  65  90
ATOM     90  C   UNL A   1      39.884  33.466  37.429  1.00  0.00     0.058 A 
ATOM     91  C   UNL A   1      40.561  34.665  37.701  1.00  0.00     0.135 A 
ATOM     92  C   UNL A   1      38.867  33.074  38.316  1.00  0.00     0.135 A 
ATOM     93  F   UNL A   1      41.544  35.085  36.887  1.00  0.00    -0.206 F 
ATOM     94  C   UNL A   1      40.256  35.435  38.819  1.00  0.00     0.059 A 
ATOM     95  C   UNL A   1      38.525  33.843  39.425  1.00  0.00     0.059 A 
ATOM     96  F   UNL A   1      38.179  31.943  38.098  1.00  0.00    -0.206 F 
ATOM     97  C   UNL A   1      39.234  35.017  39.673  1.00  0.00     0.060 A 
BRANCH  97  98
ATOM     98  S   UNL A   1      38.824  36.045  41.100  1.00  0.00     0.124 S 
ATOM     99  O   UNL A   1      40.067  36.000  41.863  1.00  0.00    -0.237 OA
ATOM    100  O   UNL A   1      38.505  37.328  40.480  1.00  0.00    -0.237 OA
ATOM    101  O   UNL A   1      37.692  35.351  41.706  1.00  0.00    -0.744 OA
ENDBRANCH  97  98
ENDBRANCH  65  90
ENDBRANCH  39  40
ENDBRANCH  32  34
ENDBRANCH  31  32
ENDBRANCH  30  31
ENDBRANCH  29  30
ENDBRANCH  28  29
ENDBRANCH  27  28
ENDBRANCH   1  27
TORSDOF 23
ENDMDL
