MODEL 1
REMARK VINA RESULT:     -10.3      0.000      0.000
REMARK SMILES O=C(OCCOCCOCCOC(=O)[C@@H]1O[C@H](OC(=O)c2cccnc2)[C@@H](O)[C@H](O)[C@H]1O)c1ccc(-c2c3nc(c(-c4c(F)cc(S(=O)(=O)[O-])cc4F)c4ccc([nH]4)c(-c4c(F)cc(S(=O)(=O)[O-])cc4F)c4nc(c(-c5c(F)cc(S(=O)(=O)[O-])cc5F)c5ccc2[nH]5)C=C4)C=C3)cc1
REMARK SMILES IDX 7 1 6 2 5 3 4 4 3 5 2 6 1 7 33 8 34 9 98 10 35 11 97 12
REMARK SMILES IDX 36 13 37 14 38 15 91 16 39 17 96 18 90 19 92 20 40 21 95 22
REMARK SMILES IDX 89 23 88 24 41 26 75 27 54 28 74 29 55 30 58 31 73 32 93 33
REMARK SMILES IDX 56 34 57 35 72 37 94 38 59 39 42 40 43 41 52 42 44 43 45 44
REMARK SMILES IDX 51 45 53 46 46 47 47 48 48 49 49 50 50 51 76 52 77 53 86 54
REMARK SMILES IDX 78 55 79 56 85 57 87 58 80 59 81 60 82 61 83 62 84 63 60 64
REMARK SMILES IDX 61 65 70 66 62 67 63 68 69 69 71 70 64 71 65 72 66 73 67 74
REMARK SMILES IDX 68 75 8 76 9 77 10 78 11 79 12 80 13 81 14 82 15 83 16 84
REMARK SMILES IDX 31 85 17 86 29 87 27 88 32 89 18 91 19 92 20 93 21 94 22 95
REMARK SMILES IDX 26 96 23 97 25 98 24 99 30 100 28 102
REMARK H PARENT 92 25 58 36 32 90 30 101 28 103
REMARK Flexibility Score: inf
ROOT
ATOM      1  C   UNL A   1      32.982  30.513  27.187  1.00  0.00     0.188 C 
ENDROOT
BRANCH   1   2
ATOM      2  O   UNL A   1      31.744  31.086  26.748  1.00  0.00    -0.376 OA
BRANCH   2   3
ATOM      3  C   UNL A   1      31.699  32.512  26.854  1.00  0.00     0.202 C 
BRANCH   3   4
ATOM      4  C   UNL A   1      32.863  33.165  27.618  1.00  0.00     0.261 C 
BRANCH   4   5
ATOM      5  O   UNL A   1      32.531  34.421  28.222  1.00  0.00    -0.460 OA
BRANCH   5   6
ATOM      6  C   UNL A   1      33.195  35.099  29.190  1.00  0.00     0.338 C 
ATOM      7  O   UNL A   1      32.807  36.238  29.451  1.00  0.00    -0.246 OA
BRANCH   6   8
ATOM      8  C   UNL A   1      34.383  34.574  29.948  1.00  0.00     0.060 A 
ATOM      9  C   UNL A   1      35.707  34.523  29.496  1.00  0.00     0.016 A 
ATOM     10  C   UNL A   1      34.134  34.118  31.254  1.00  0.00     0.016 A 
ATOM     11  C   UNL A   1      36.736  33.975  30.260  1.00  0.00     0.010 A 
ATOM     12  C   UNL A   1      35.160  33.589  32.038  1.00  0.00     0.010 A 
ATOM     13  C   UNL A   1      36.461  33.474  31.521  1.00  0.00    -0.014 A 
BRANCH  13  14
ATOM     14  C   UNL A   1      37.438  32.611  32.209  1.00  0.00     0.031 A 
ATOM     15  C   UNL A   1      38.093  33.180  33.428  1.00  0.00     0.074 A 
ATOM     16  C   UNL A   1      37.731  31.370  31.785  1.00  0.00     0.049 A 
ATOM     17  N   UNL A   1      39.111  32.731  34.104  1.00  0.00    -0.248 NA
ATOM     18  C   UNL A   1      37.486  34.405  33.981  1.00  0.00     0.031 C 
ATOM     19  C   UNL A   1      36.999  30.603  30.781  1.00  0.00     0.029 A 
ATOM     20  N   UNL A   1      38.794  30.562  32.100  1.00  0.00    -0.354 N 
ATOM     21  C   UNL A   1      39.241  33.593  35.184  1.00  0.00     0.074 A 
ATOM     22  C   UNL A   1      38.260  34.642  35.026  1.00  0.00     0.031 C 
ATOM     23  C   UNL A   1      37.728  29.530  30.431  1.00  0.00     0.029 A 
ATOM     24  C   UNL A   1      38.964  29.542  31.192  1.00  0.00     0.049 A 
ATOM     25  H   UNL A   1      39.369  30.698  32.887  1.00  0.00     0.167 HD
ATOM     26  C   UNL A   1      40.084  33.484  36.234  1.00  0.00     0.037 A 
ATOM     27  C   UNL A   1      40.031  28.754  30.972  1.00  0.00     0.037 A 
ATOM     28  C   UNL A   1      41.069  32.443  36.327  1.00  0.00     0.049 A 
ATOM     29  C   UNL A   1      41.143  28.806  31.977  1.00  0.00     0.074 A 
ATOM     30  C   UNL A   1      41.992  32.208  37.325  1.00  0.00     0.029 A 
ATOM     31  N   UNL A   1      41.273  31.476  35.349  1.00  0.00    -0.354 N 
ATOM     32  N   UNL A   1      41.267  29.608  33.009  1.00  0.00    -0.248 NA
ATOM     33  C   UNL A   1      42.205  27.804  31.853  1.00  0.00     0.031 C 
ATOM     34  C   UNL A   1      42.800  31.142  36.917  1.00  0.00     0.029 A 
ATOM     35  C   UNL A   1      42.336  30.667  35.697  1.00  0.00     0.049 A 
ATOM     36  H   UNL A   1      40.738  31.382  34.528  1.00  0.00     0.167 HD
ATOM     37  C   UNL A   1      42.362  29.141  33.719  1.00  0.00     0.074 A 
ATOM     38  C   UNL A   1      42.903  28.029  32.960  1.00  0.00     0.031 C 
ATOM     39  C   UNL A   1      42.836  29.557  34.919  1.00  0.00     0.037 A 
BRANCH  26  40
ATOM     40  C   UNL A   1      39.983  34.541  37.295  1.00  0.00     0.058 A 
ATOM     41  C   UNL A   1      39.065  34.442  38.356  1.00  0.00     0.135 A 
ATOM     42  C   UNL A   1      40.751  35.711  37.201  1.00  0.00     0.135 A 
ATOM     43  F   UNL A   1      38.284  33.357  38.478  1.00  0.00    -0.206 F 
ATOM     44  C   UNL A   1      38.869  35.492  39.247  1.00  0.00     0.059 A 
ATOM     45  C   UNL A   1      40.594  36.761  38.100  1.00  0.00     0.059 A 
ATOM     46  F   UNL A   1      41.635  35.861  36.202  1.00  0.00    -0.206 F 
ATOM     47  C   UNL A   1      39.630  36.653  39.101  1.00  0.00     0.060 A 
BRANCH  47  48
ATOM     48  S   UNL A   1      39.316  38.034  40.219  1.00  0.00     0.124 S 
ATOM     49  O   UNL A   1      39.105  37.340  41.485  1.00  0.00    -0.237 OA
ATOM     50  O   UNL A   1      40.551  38.805  40.118  1.00  0.00    -0.237 OA
ATOM     51  O   UNL A   1      38.134  38.672  39.648  1.00  0.00    -0.744 OA
ENDBRANCH  47  48
ENDBRANCH  26  40
BRANCH  27  52
ATOM     52  C   UNL A   1      40.099  27.880  29.774  1.00  0.00     0.058 A 
ATOM     53  C   UNL A   1      39.383  26.679  29.697  1.00  0.00     0.135 A 
ATOM     54  C   UNL A   1      40.909  28.229  28.680  1.00  0.00     0.135 A 
ATOM     55  F   UNL A   1      38.583  26.314  30.708  1.00  0.00    -0.206 F 
ATOM     56  C   UNL A   1      39.508  25.825  28.603  1.00  0.00     0.059 A 
ATOM     57  C   UNL A   1      41.048  27.394  27.573  1.00  0.00     0.059 A 
ATOM     58  F   UNL A   1      41.582  29.392  28.690  1.00  0.00    -0.206 F 
ATOM     59  C   UNL A   1      40.366  26.177  27.559  1.00  0.00     0.060 A 
BRANCH  59  60
ATOM     60  S   UNL A   1      40.604  25.034  26.177  1.00  0.00     0.124 S 
ATOM     61  O   UNL A   1      39.249  24.537  25.970  1.00  0.00    -0.237 OA
ATOM     62  O   UNL A   1      41.129  25.897  25.124  1.00  0.00    -0.237 OA
ATOM     63  O   UNL A   1      41.558  24.066  26.712  1.00  0.00    -0.744 OA
ENDBRANCH  59  60
ENDBRANCH  27  52
BRANCH  39  64
ATOM     64  C   UNL A   1      43.943  28.758  35.535  1.00  0.00     0.058 A 
ATOM     65  C   UNL A   1      43.693  27.648  36.352  1.00  0.00     0.135 A 
ATOM     66  C   UNL A   1      45.275  29.049  35.192  1.00  0.00     0.135 A 
ATOM     67  F   UNL A   1      42.438  27.347  36.719  1.00  0.00    -0.206 F 
ATOM     68  C   UNL A   1      44.730  26.840  36.799  1.00  0.00     0.059 A 
ATOM     69  C   UNL A   1      46.322  28.236  35.602  1.00  0.00     0.059 A 
ATOM     70  F   UNL A   1      45.559  30.102  34.410  1.00  0.00    -0.206 F 
ATOM     71  C   UNL A   1      46.038  27.131  36.402  1.00  0.00     0.060 A 
BRANCH  71  72
ATOM     72  S   UNL A   1      47.357  26.004  36.893  1.00  0.00     0.124 S 
ATOM     73  O   UNL A   1      46.599  24.854  37.372  1.00  0.00    -0.237 OA
ATOM     74  O   UNL A   1      48.080  25.811  35.639  1.00  0.00    -0.237 OA
ATOM     75  O   UNL A   1      48.080  26.753  37.917  1.00  0.00    -0.744 OA
ENDBRANCH  71  72
ENDBRANCH  39  64
ENDBRANCH  13  14
ENDBRANCH   6   8
ENDBRANCH   5   6
ENDBRANCH   4   5
ENDBRANCH   3   4
ENDBRANCH   2   3
ENDBRANCH   1   2
BRANCH   1  76
ATOM     76  C   UNL A   1      33.427  29.316  26.347  1.00  0.00     0.188 C 
BRANCH  76  77
ATOM     77  O   UNL A   1      32.514  28.830  25.365  1.00  0.00    -0.376 OA
BRANCH  77  78
ATOM     78  C   UNL A   1      31.454  27.996  25.812  1.00  0.00     0.202 C 
BRANCH  78  79
ATOM     79  C   UNL A   1      31.581  26.469  25.661  1.00  0.00     0.261 C 
BRANCH  79  80
ATOM     80  O   UNL A   1      32.114  26.001  24.415  1.00  0.00    -0.461 OA
BRANCH  80  81
ATOM     81  C   UNL A   1      31.807  24.704  24.135  1.00  0.00     0.338 C 
ATOM     82  O   UNL A   1      30.689  24.330  23.786  1.00  0.00    -0.249 OA
BRANCH  81  83
ATOM     83  C   UNL A   1      32.969  23.726  24.294  1.00  0.00     0.263 C 
ATOM     84  O   UNL A   1      32.288  22.475  24.382  1.00  0.00    -0.322 OA
ATOM     85  C   UNL A   1      33.940  23.924  25.460  1.00  0.00     0.186 C 
ATOM     86  C   UNL A   1      33.109  21.323  24.479  1.00  0.00     0.343 C 
ATOM     87  C   UNL A   1      34.890  22.711  25.517  1.00  0.00     0.181 C 
ATOM     88  C   UNL A   1      34.120  21.398  25.635  1.00  0.00     0.214 C 
BRANCH  85  89
ATOM     89  O   UNL A   1      34.766  25.081  25.276  1.00  0.00    -0.387 OA
ATOM     90  H   UNL A   1      34.240  25.792  24.876  1.00  0.00     0.211 HD
ENDBRANCH  85  89
BRANCH  86  91
ATOM     91  O   UNL A   1      32.275  20.161  24.571  1.00  0.00    -0.429 OA
BRANCH  91  92
ATOM     92  C   UNL A   1      32.359  19.271  23.555  1.00  0.00     0.342 C 
ATOM     93  O   UNL A   1      32.177  19.485  22.364  1.00  0.00    -0.246 OA
BRANCH  92  94
ATOM     94  C   UNL A   1      32.837  17.993  24.097  1.00  0.00     0.078 A 
ATOM     95  C   UNL A   1      32.489  17.553  25.369  1.00  0.00     0.019 A 
ATOM     96  C   UNL A   1      33.674  17.195  23.328  1.00  0.00     0.126 A 
ATOM     97  C   UNL A   1      32.961  16.324  25.812  1.00  0.00     0.021 A 
ATOM     98  N   UNL A   1      34.178  16.005  23.745  1.00  0.00    -0.264 NA
ATOM     99  C   UNL A   1      33.781  15.589  24.971  1.00  0.00     0.111 A 
ENDBRANCH  92  94
ENDBRANCH  91  92
ENDBRANCH  86  91
BRANCH  87 100
ATOM    100  O   UNL A   1      35.851  22.893  26.567  1.00  0.00    -0.387 OA
ATOM    101  H   UNL A   1      35.815  22.136  27.172  1.00  0.00     0.211 HD
ENDBRANCH  87 100
BRANCH  88 102
ATOM    102  O   UNL A   1      35.032  20.297  25.586  1.00  0.00    -0.384 OA
ATOM    103  H   UNL A   1      34.539  19.475  25.443  1.00  0.00     0.211 HD
ENDBRANCH  88 102
ENDBRANCH  81  83
ENDBRANCH  80  81
ENDBRANCH  79  80
ENDBRANCH  78  79
ENDBRANCH  77  78
ENDBRANCH  76  77
ENDBRANCH   1  76
TORSDOF 26
ENDMDL
MODEL 2
REMARK VINA RESULT:     -10.3      2.713      9.349
REMARK SMILES O=C(OCCOCCOCCOC(=O)[C@@H]1O[C@H](OC(=O)c2cccnc2)[C@@H](O)[C@H](O)[C@H]1O)c1ccc(-c2c3nc(c(-c4c(F)cc(S(=O)(=O)[O-])cc4F)c4ccc([nH]4)c(-c4c(F)cc(S(=O)(=O)[O-])cc4F)c4nc(c(-c5c(F)cc(S(=O)(=O)[O-])cc5F)c5ccc2[nH]5)C=C4)C=C3)cc1
REMARK SMILES IDX 7 1 6 2 5 3 4 4 3 5 2 6 1 7 33 8 34 9 98 10 35 11 97 12
REMARK SMILES IDX 36 13 37 14 38 15 91 16 39 17 96 18 90 19 92 20 40 21 95 22
REMARK SMILES IDX 89 23 88 24 41 26 75 27 54 28 74 29 55 30 58 31 73 32 93 33
REMARK SMILES IDX 56 34 57 35 72 37 94 38 59 39 42 40 43 41 52 42 44 43 45 44
REMARK SMILES IDX 51 45 53 46 46 47 47 48 48 49 49 50 50 51 76 52 77 53 86 54
REMARK SMILES IDX 78 55 79 56 85 57 87 58 80 59 81 60 82 61 83 62 84 63 60 64
REMARK SMILES IDX 61 65 70 66 62 67 63 68 69 69 71 70 64 71 65 72 66 73 67 74
REMARK SMILES IDX 68 75 8 76 9 77 10 78 11 79 12 80 13 81 14 82 15 83 16 84
REMARK SMILES IDX 31 85 17 86 29 87 27 88 32 89 18 91 19 92 20 93 21 94 22 95
REMARK SMILES IDX 26 96 23 97 25 98 24 99 30 100 28 102
REMARK H PARENT 92 25 58 36 32 90 30 101 28 103
REMARK Flexibility Score: inf
ROOT
ATOM      1  C   UNL A   1      35.701  21.533  25.443  1.00  0.00     0.188 C 
ENDROOT
BRANCH   1   2
ATOM      2  O   UNL A   1      35.885  22.919  25.129  1.00  0.00    -0.376 OA
BRANCH   2   3
ATOM      3  C   UNL A   1      37.225  23.254  24.757  1.00  0.00     0.202 C 
BRANCH   3   4
ATOM      4  C   UNL A   1      38.267  23.200  25.885  1.00  0.00     0.261 C 
BRANCH   4   5
ATOM      5  O   UNL A   1      38.554  24.475  26.475  1.00  0.00    -0.460 OA
BRANCH   5   6
ATOM      6  C   UNL A   1      39.731  24.940  26.959  1.00  0.00     0.338 C 
ATOM      7  O   UNL A   1      40.761  24.577  26.390  1.00  0.00    -0.246 OA
BRANCH   6   8
ATOM      8  C   UNL A   1      39.875  25.843  28.154  1.00  0.00     0.060 A 
ATOM      9  C   UNL A   1      38.985  25.953  29.229  1.00  0.00     0.016 A 
ATOM     10  C   UNL A   1      41.037  26.631  28.200  1.00  0.00     0.016 A 
ATOM     11  C   UNL A   1      39.184  26.855  30.273  1.00  0.00     0.010 A 
ATOM     12  C   UNL A   1      41.260  27.521  29.252  1.00  0.00     0.010 A 
ATOM     13  C   UNL A   1      40.305  27.668  30.271  1.00  0.00    -0.014 A 
BRANCH  13  14
ATOM     14  C   UNL A   1      40.380  28.836  31.167  1.00  0.00     0.031 A 
ATOM     15  C   UNL A   1      41.179  28.668  32.422  1.00  0.00     0.074 A 
ATOM     16  C   UNL A   1      39.777  30.004  30.886  1.00  0.00     0.049 A 
ATOM     17  N   UNL A   1      41.254  29.446  33.463  1.00  0.00    -0.248 NA
ATOM     18  C   UNL A   1      42.043  27.475  32.489  1.00  0.00     0.031 C 
ATOM     19  C   UNL A   1      39.189  30.386  29.606  1.00  0.00     0.029 A 
ATOM     20  N   UNL A   1      39.488  31.064  31.706  1.00  0.00    -0.354 N 
ATOM     21  C   UNL A   1      42.202  28.859  34.289  1.00  0.00     0.074 A 
ATOM     22  C   UNL A   1      42.608  27.617  33.675  1.00  0.00     0.031 C 
ATOM     23  C   UNL A   1      38.456  31.500  29.774  1.00  0.00     0.029 A 
ATOM     24  C   UNL A   1      38.536  31.899  31.168  1.00  0.00     0.049 A 
ATOM     25  H   UNL A   1      39.914  31.210  32.582  1.00  0.00     0.167 HD
ATOM     26  C   UNL A   1      42.714  29.348  35.440  1.00  0.00     0.037 A 
ATOM     27  C   UNL A   1      37.778  32.836  31.763  1.00  0.00     0.037 A 
ATOM     28  C   UNL A   1      42.250  30.571  36.032  1.00  0.00     0.049 A 
ATOM     29  C   UNL A   1      38.134  33.219  33.169  1.00  0.00     0.074 A 
ATOM     30  C   UNL A   1      42.669  31.186  37.194  1.00  0.00     0.029 A 
ATOM     31  N   UNL A   1      41.224  31.349  35.507  1.00  0.00    -0.354 N 
ATOM     32  N   UNL A   1      39.038  32.679  33.952  1.00  0.00    -0.248 NA
ATOM     33  C   UNL A   1      37.445  34.379  33.742  1.00  0.00     0.031 C 
ATOM     34  C   UNL A   1      41.847  32.299  37.407  1.00  0.00     0.029 A 
ATOM     35  C   UNL A   1      40.964  32.417  36.342  1.00  0.00     0.049 A 
ATOM     36  H   UNL A   1      40.752  31.166  34.663  1.00  0.00     0.167 HD
ATOM     37  C   UNL A   1      39.105  33.497  35.069  1.00  0.00     0.074 A 
ATOM     38  C   UNL A   1      38.100  34.528  34.887  1.00  0.00     0.031 C 
ATOM     39  C   UNL A   1      39.962  33.434  36.117  1.00  0.00     0.037 A 
BRANCH  26  40
ATOM     40  C   UNL A   1      43.769  28.521  36.116  1.00  0.00     0.058 A 
ATOM     41  C   UNL A   1      43.441  27.429  36.940  1.00  0.00     0.135 A 
ATOM     42  C   UNL A   1      45.120  28.879  36.011  1.00  0.00     0.135 A 
ATOM     43  F   UNL A   1      42.159  27.061  37.100  1.00  0.00    -0.206 F 
ATOM     44  C   UNL A   1      44.409  26.764  37.684  1.00  0.00     0.059 A 
ATOM     45  C   UNL A   1      46.110  28.206  36.721  1.00  0.00     0.059 A 
ATOM     46  F   UNL A   1      45.488  29.918  35.246  1.00  0.00    -0.206 F 
ATOM     47  C   UNL A   1      45.741  27.170  37.577  1.00  0.00     0.060 A 
BRANCH  47  48
ATOM     48  S   UNL A   1      46.977  26.345  38.600  1.00  0.00     0.124 S 
ATOM     49  O   UNL A   1      46.718  24.942  38.293  1.00  0.00    -0.237 OA
ATOM     50  O   UNL A   1      48.227  26.886  38.077  1.00  0.00    -0.237 OA
ATOM     51  O   UNL A   1      46.633  26.766  39.954  1.00  0.00    -0.744 OA
ENDBRANCH  47  48
ENDBRANCH  26  40
BRANCH  27  52
ATOM     52  C   UNL A   1      36.631  33.454  31.050  1.00  0.00     0.058 A 
ATOM     53  C   UNL A   1      36.816  34.295  29.946  1.00  0.00     0.135 A 
ATOM     54  C   UNL A   1      35.314  33.223  31.482  1.00  0.00     0.135 A 
ATOM     55  F   UNL A   1      38.053  34.529  29.487  1.00  0.00    -0.206 F 
ATOM     56  C   UNL A   1      35.742  34.932  29.327  1.00  0.00     0.059 A 
ATOM     57  C   UNL A   1      34.223  33.845  30.877  1.00  0.00     0.059 A 
ATOM     58  F   UNL A   1      35.083  32.390  32.510  1.00  0.00    -0.206 F 
ATOM     59  C   UNL A   1      34.452  34.724  29.818  1.00  0.00     0.060 A 
BRANCH  59  60
ATOM     60  S   UNL A   1      33.062  35.616  29.079  1.00  0.00     0.124 S 
ATOM     61  O   UNL A   1      32.275  35.960  30.257  1.00  0.00    -0.237 OA
ATOM     62  O   UNL A   1      33.711  36.733  28.403  1.00  0.00    -0.237 OA
ATOM     63  O   UNL A   1      32.468  34.620  28.191  1.00  0.00    -0.744 OA
ENDBRANCH  59  60
ENDBRANCH  27  52
BRANCH  39  64
ATOM     64  C   UNL A   1      39.916  34.554  37.111  1.00  0.00     0.058 A 
ATOM     65  C   UNL A   1      39.076  34.520  38.231  1.00  0.00     0.135 A 
ATOM     66  C   UNL A   1      40.825  35.619  36.989  1.00  0.00     0.135 A 
ATOM     67  F   UNL A   1      38.181  33.531  38.375  1.00  0.00    -0.206 F 
ATOM     68  C   UNL A   1      39.149  35.502  39.210  1.00  0.00     0.059 A 
ATOM     69  C   UNL A   1      40.936  36.592  37.972  1.00  0.00     0.059 A 
ATOM     70  F   UNL A   1      41.649  35.689  35.932  1.00  0.00    -0.206 F 
ATOM     71  C   UNL A   1      40.095  36.522  39.081  1.00  0.00     0.060 A 
BRANCH  71  72
ATOM     72  S   UNL A   1      40.257  37.720  40.419  1.00  0.00     0.124 S 
ATOM     73  O   UNL A   1      40.789  36.890  41.494  1.00  0.00    -0.237 OA
ATOM     74  O   UNL A   1      41.184  38.694  39.850  1.00  0.00    -0.237 OA
ATOM     75  O   UNL A   1      38.892  38.200  40.612  1.00  0.00    -0.744 OA
ENDBRANCH  71  72
ENDBRANCH  39  64
ENDBRANCH  13  14
ENDBRANCH   6   8
ENDBRANCH   5   6
ENDBRANCH   4   5
ENDBRANCH   3   4
ENDBRANCH   2   3
ENDBRANCH   1   2
BRANCH   1  76
ATOM     76  C   UNL A   1      34.305  21.213  25.976  1.00  0.00     0.188 C 
BRANCH  76  77
ATOM     77  O   UNL A   1      33.362  22.282  26.026  1.00  0.00    -0.376 OA
BRANCH  77  78
ATOM     78  C   UNL A   1      32.576  22.518  24.866  1.00  0.00     0.202 C 
BRANCH  78  79
ATOM     79  C   UNL A   1      31.961  23.912  24.644  1.00  0.00     0.261 C 
BRANCH  79  80
ATOM     80  O   UNL A   1      32.875  25.017  24.676  1.00  0.00    -0.461 OA
BRANCH  80  81
ATOM     81  C   UNL A   1      33.132  25.556  23.453  1.00  0.00     0.338 C 
ATOM     82  O   UNL A   1      33.795  24.989  22.585  1.00  0.00    -0.249 OA
BRANCH  81  83
ATOM     83  C   UNL A   1      32.535  26.944  23.230  1.00  0.00     0.263 C 
ATOM     84  O   UNL A   1      32.393  27.419  24.567  1.00  0.00    -0.322 OA
ATOM     85  C   UNL A   1      31.225  27.061  22.446  1.00  0.00     0.186 C 
ATOM     86  C   UNL A   1      31.904  28.743  24.710  1.00  0.00     0.343 C 
ATOM     87  C   UNL A   1      30.734  28.519  22.529  1.00  0.00     0.181 C 
ATOM     88  C   UNL A   1      30.574  28.978  23.976  1.00  0.00     0.214 C 
BRANCH  85  89
ATOM     89  O   UNL A   1      31.410  26.770  21.054  1.00  0.00    -0.387 OA
ATOM     90  H   UNL A   1      30.817  26.047  20.794  1.00  0.00     0.211 HD
ENDBRANCH  85  89
BRANCH  86  91
ATOM     91  O   UNL A   1      31.809  29.059  26.105  1.00  0.00    -0.429 OA
BRANCH  91  92
ATOM     92  C   UNL A   1      32.092  30.334  26.460  1.00  0.00     0.342 C 
ATOM     93  O   UNL A   1      31.342  31.299  26.420  1.00  0.00    -0.246 OA
BRANCH  92  94
ATOM     94  C   UNL A   1      33.443  30.365  27.036  1.00  0.00     0.078 A 
ATOM     95  C   UNL A   1      33.969  31.508  27.627  1.00  0.00     0.019 A 
ATOM     96  C   UNL A   1      34.234  29.224  26.985  1.00  0.00     0.126 A 
ATOM     97  C   UNL A   1      35.246  31.462  28.170  1.00  0.00     0.021 A 
ATOM     98  N   UNL A   1      35.497  29.157  27.477  1.00  0.00    -0.264 NA
ATOM     99  C   UNL A   1      35.959  30.277  28.084  1.00  0.00     0.111 A 
ENDBRANCH  92  94
ENDBRANCH  91  92
ENDBRANCH  86  91
BRANCH  87 100
ATOM    100  O   UNL A   1      29.536  28.675  21.755  1.00  0.00    -0.387 OA
ATOM    101  H   UNL A   1      29.585  29.499  21.246  1.00  0.00     0.211 HD
ENDBRANCH  87 100
BRANCH  88 102
ATOM    102  O   UNL A   1      30.212  30.361  24.007  1.00  0.00    -0.384 OA
ATOM    103  H   UNL A   1      30.691  30.837  23.310  1.00  0.00     0.211 HD
ENDBRANCH  88 102
ENDBRANCH  81  83
ENDBRANCH  80  81
ENDBRANCH  79  80
ENDBRANCH  78  79
ENDBRANCH  77  78
ENDBRANCH  76  77
ENDBRANCH   1  76
TORSDOF 26
ENDMDL
MODEL 3
REMARK VINA RESULT:     -10.1      6.286     10.969
REMARK SMILES O=C(OCCOCCOCCOC(=O)[C@@H]1O[C@H](OC(=O)c2cccnc2)[C@@H](O)[C@H](O)[C@H]1O)c1ccc(-c2c3nc(c(-c4c(F)cc(S(=O)(=O)[O-])cc4F)c4ccc([nH]4)c(-c4c(F)cc(S(=O)(=O)[O-])cc4F)c4nc(c(-c5c(F)cc(S(=O)(=O)[O-])cc5F)c5ccc2[nH]5)C=C4)C=C3)cc1
REMARK SMILES IDX 7 1 6 2 5 3 4 4 3 5 2 6 1 7 33 8 34 9 98 10 35 11 97 12
REMARK SMILES IDX 36 13 37 14 38 15 91 16 39 17 96 18 90 19 92 20 40 21 95 22
REMARK SMILES IDX 89 23 88 24 41 26 75 27 54 28 74 29 55 30 58 31 73 32 93 33
REMARK SMILES IDX 56 34 57 35 72 37 94 38 59 39 42 40 43 41 52 42 44 43 45 44
REMARK SMILES IDX 51 45 53 46 46 47 47 48 48 49 49 50 50 51 76 52 77 53 86 54
REMARK SMILES IDX 78 55 79 56 85 57 87 58 80 59 81 60 82 61 83 62 84 63 60 64
REMARK SMILES IDX 61 65 70 66 62 67 63 68 69 69 71 70 64 71 65 72 66 73 67 74
REMARK SMILES IDX 68 75 8 76 9 77 10 78 11 79 12 80 13 81 14 82 15 83 16 84
REMARK SMILES IDX 31 85 17 86 29 87 27 88 32 89 18 91 19 92 20 93 21 94 22 95
REMARK SMILES IDX 26 96 23 97 25 98 24 99 30 100 28 102
REMARK H PARENT 92 25 58 36 32 90 30 101 28 103
REMARK Flexibility Score: inf
ROOT
ATOM      1  C   UNL A   1      33.743  34.398  29.525  1.00  0.00     0.188 C 
ENDROOT
BRANCH   1   2
ATOM      2  O   UNL A   1      34.590  34.273  30.674  1.00  0.00    -0.376 OA
BRANCH   2   3
ATOM      3  C   UNL A   1      34.824  32.920  31.074  1.00  0.00     0.202 C 
BRANCH   3   4
ATOM      4  C   UNL A   1      36.288  32.454  31.037  1.00  0.00     0.261 C 
BRANCH   4   5
ATOM      5  O   UNL A   1      36.549  31.289  31.830  1.00  0.00    -0.460 OA
BRANCH   5   6
ATOM      6  C   UNL A   1      37.235  30.169  31.493  1.00  0.00     0.338 C 
ATOM      7  O   UNL A   1      36.783  29.091  31.881  1.00  0.00    -0.246 OA
BRANCH   6   8
ATOM      8  C   UNL A   1      38.517  30.148  30.707  1.00  0.00     0.060 A 
ATOM      9  C   UNL A   1      38.641  30.085  29.314  1.00  0.00     0.016 A 
ATOM     10  C   UNL A   1      39.704  30.230  31.454  1.00  0.00     0.016 A 
ATOM     11  C   UNL A   1      39.880  30.026  28.677  1.00  0.00     0.010 A 
ATOM     12  C   UNL A   1      40.951  30.196  30.826  1.00  0.00     0.010 A 
ATOM     13  C   UNL A   1      41.040  30.046  29.433  1.00  0.00    -0.014 A 
BRANCH  13  14
ATOM     14  C   UNL A   1      42.329  29.664  28.829  1.00  0.00     0.031 A 
ATOM     15  C   UNL A   1      42.520  28.212  28.518  1.00  0.00     0.074 A 
ATOM     16  C   UNL A   1      43.293  30.559  28.555  1.00  0.00     0.049 A 
ATOM     17  N   UNL A   1      43.602  27.577  28.171  1.00  0.00    -0.248 NA
ATOM     18  C   UNL A   1      41.309  27.372  28.566  1.00  0.00     0.031 C 
ATOM     19  C   UNL A   1      43.152  32.012  28.568  1.00  0.00     0.029 A 
ATOM     20  N   UNL A   1      44.623  30.364  28.287  1.00  0.00    -0.354 N 
ATOM     21  C   UNL A   1      43.196  26.274  27.920  1.00  0.00     0.074 A 
ATOM     22  C   UNL A   1      41.791  26.185  28.241  1.00  0.00     0.031 C 
ATOM     23  C   UNL A   1      44.372  32.573  28.505  1.00  0.00     0.029 A 
ATOM     24  C   UNL A   1      45.364  31.514  28.442  1.00  0.00     0.049 A 
ATOM     25  H   UNL A   1      45.005  29.498  28.015  1.00  0.00     0.167 HD
ATOM     26  C   UNL A   1      43.935  25.258  27.423  1.00  0.00     0.037 A 
ATOM     27  C   UNL A   1      46.692  31.671  28.576  1.00  0.00     0.037 A 
ATOM     28  C   UNL A   1      45.340  25.385  27.156  1.00  0.00     0.049 A 
ATOM     29  C   UNL A   1      47.557  30.475  28.308  1.00  0.00     0.074 A 
ATOM     30  C   UNL A   1      46.217  24.444  26.658  1.00  0.00     0.029 A 
ATOM     31  N   UNL A   1      46.077  26.537  27.405  1.00  0.00    -0.354 N 
ATOM     32  N   UNL A   1      47.182  29.243  28.056  1.00  0.00    -0.248 NA
ATOM     33  C   UNL A   1      49.005  30.695  28.251  1.00  0.00     0.031 C 
ATOM     34  C   UNL A   1      47.499  25.005  26.672  1.00  0.00     0.029 A 
ATOM     35  C   UNL A   1      47.409  26.319  27.112  1.00  0.00     0.049 A 
ATOM     36  H   UNL A   1      45.705  27.384  27.740  1.00  0.00     0.167 HD
ATOM     37  C   UNL A   1      48.337  28.562  27.705  1.00  0.00     0.074 A 
ATOM     38  C   UNL A   1      49.431  29.505  27.845  1.00  0.00     0.031 C 
ATOM     39  C   UNL A   1      48.469  27.292  27.250  1.00  0.00     0.037 A 
BRANCH  26  40
ATOM     40  C   UNL A   1      43.228  23.952  27.206  1.00  0.00     0.058 A 
ATOM     41  C   UNL A   1      43.005  23.045  28.259  1.00  0.00     0.135 A 
ATOM     42  C   UNL A   1      42.849  23.560  25.915  1.00  0.00     0.135 A 
ATOM     43  F   UNL A   1      43.375  23.357  29.512  1.00  0.00    -0.206 F 
ATOM     44  C   UNL A   1      42.490  21.775  28.027  1.00  0.00     0.059 A 
ATOM     45  C   UNL A   1      42.302  22.305  25.664  1.00  0.00     0.059 A 
ATOM     46  F   UNL A   1      43.048  24.382  24.873  1.00  0.00    -0.206 F 
ATOM     47  C   UNL A   1      42.154  21.410  26.722  1.00  0.00     0.060 A 
BRANCH  47  48
ATOM     48  S   UNL A   1      41.554  19.735  26.423  1.00  0.00     0.124 S 
ATOM     49  O   UNL A   1      41.932  19.066  27.665  1.00  0.00    -0.237 OA
ATOM     50  O   UNL A   1      40.122  19.946  26.230  1.00  0.00    -0.237 OA
ATOM     51  O   UNL A   1      42.289  19.316  25.235  1.00  0.00    -0.744 OA
ENDBRANCH  47  48
ENDBRANCH  26  40
BRANCH  27  52
ATOM     52  C   UNL A   1      47.267  32.978  28.984  1.00  0.00     0.058 A 
ATOM     53  C   UNL A   1      47.451  33.314  30.330  1.00  0.00     0.135 A 
ATOM     54  C   UNL A   1      47.628  33.931  28.017  1.00  0.00     0.135 A 
ATOM     55  F   UNL A   1      47.139  32.429  31.287  1.00  0.00    -0.206 F 
ATOM     56  C   UNL A   1      47.921  34.570  30.710  1.00  0.00     0.059 A 
ATOM     57  C   UNL A   1      48.104  35.192  28.371  1.00  0.00     0.059 A 
ATOM     58  F   UNL A   1      47.510  33.638  26.711  1.00  0.00    -0.206 F 
ATOM     59  C   UNL A   1      48.217  35.513  29.725  1.00  0.00     0.060 A 
BRANCH  59  60
ATOM     60  S   UNL A   1      48.742  37.175  30.209  1.00  0.00     0.124 S 
ATOM     61  O   UNL A   1      49.511  36.900  31.416  1.00  0.00    -0.237 OA
ATOM     62  O   UNL A   1      49.513  37.625  29.056  1.00  0.00    -0.237 OA
ATOM     63  O   UNL A   1      47.475  37.873  30.412  1.00  0.00    -0.744 OA
ENDBRANCH  59  60
ENDBRANCH  27  52
BRANCH  39  64
ATOM     64  C   UNL A   1      49.828  26.866  26.786  1.00  0.00     0.058 A 
ATOM     65  C   UNL A   1      50.691  26.121  27.598  1.00  0.00     0.135 A 
ATOM     66  C   UNL A   1      50.209  27.114  25.456  1.00  0.00     0.135 A 
ATOM     67  F   UNL A   1      50.374  25.878  28.879  1.00  0.00    -0.206 F 
ATOM     68  C   UNL A   1      51.887  25.619  27.101  1.00  0.00     0.059 A 
ATOM     69  C   UNL A   1      51.384  26.595  24.931  1.00  0.00     0.059 A 
ATOM     70  F   UNL A   1      49.410  27.823  24.643  1.00  0.00    -0.206 F 
ATOM     71  C   UNL A   1      52.214  25.845  25.762  1.00  0.00     0.060 A 
BRANCH  71  72
ATOM     72  S   UNL A   1      53.711  25.087  25.102  1.00  0.00     0.124 S 
ATOM     73  O   UNL A   1      54.733  25.639  25.983  1.00  0.00    -0.237 OA
ATOM     74  O   UNL A   1      53.433  23.663  25.264  1.00  0.00    -0.237 OA
ATOM     75  O   UNL A   1      53.750  25.558  23.720  1.00  0.00    -0.744 OA
ENDBRANCH  71  72
ENDBRANCH  39  64
ENDBRANCH  13  14
ENDBRANCH   6   8
ENDBRANCH   5   6
ENDBRANCH   4   5
ENDBRANCH   3   4
ENDBRANCH   2   3
ENDBRANCH   1   2
BRANCH   1  76
ATOM     76  C   UNL A   1      34.505  34.340  28.201  1.00  0.00     0.188 C 
BRANCH  76  77
ATOM     77  O   UNL A   1      34.757  33.050  27.646  1.00  0.00    -0.376 OA
BRANCH  77  78
ATOM     78  C   UNL A   1      33.753  32.058  27.811  1.00  0.00     0.202 C 
BRANCH  78  79
ATOM     79  C   UNL A   1      34.058  30.604  27.407  1.00  0.00     0.261 C 
BRANCH  79  80
ATOM     80  O   UNL A   1      33.407  30.130  26.221  1.00  0.00    -0.461 OA
BRANCH  80  81
ATOM     81  C   UNL A   1      32.938  28.856  26.320  1.00  0.00     0.338 C 
ATOM     82  O   UNL A   1      33.109  28.143  27.308  1.00  0.00    -0.249 OA
BRANCH  81  83
ATOM     83  C   UNL A   1      32.176  28.359  25.093  1.00  0.00     0.263 C 
ATOM     84  O   UNL A   1      33.053  27.351  24.593  1.00  0.00    -0.322 OA
ATOM     85  C   UNL A   1      31.798  29.369  24.007  1.00  0.00     0.186 C 
ATOM     86  C   UNL A   1      32.596  26.635  23.457  1.00  0.00     0.343 C 
ATOM     87  C   UNL A   1      31.222  28.599  22.802  1.00  0.00     0.181 C 
ATOM     88  C   UNL A   1      32.202  27.549  22.285  1.00  0.00     0.214 C 
BRANCH  85  89
ATOM     89  O   UNL A   1      30.770  30.266  24.448  1.00  0.00    -0.387 OA
ATOM     90  H   UNL A   1      30.594  30.922  23.755  1.00  0.00     0.211 HD
ENDBRANCH  85  89
BRANCH  86  91
ATOM     91  O   UNL A   1      33.592  25.676  23.077  1.00  0.00    -0.429 OA
BRANCH  91  92
ATOM     92  C   UNL A   1      33.340  24.384  23.389  1.00  0.00     0.342 C 
ATOM     93  O   UNL A   1      32.353  23.726  23.090  1.00  0.00    -0.246 OA
BRANCH  92  94
ATOM     94  C   UNL A   1      34.524  23.831  24.060  1.00  0.00     0.078 A 
ATOM     95  C   UNL A   1      35.149  24.485  25.117  1.00  0.00     0.019 A 
ATOM     96  C   UNL A   1      35.052  22.621  23.628  1.00  0.00     0.126 A 
ATOM     97  C   UNL A   1      36.252  23.896  25.719  1.00  0.00     0.021 A 
ATOM     98  N   UNL A   1      36.148  22.036  24.174  1.00  0.00    -0.264 NA
ATOM     99  C   UNL A   1      36.703  22.680  25.229  1.00  0.00     0.111 A 
ENDBRANCH  92  94
ENDBRANCH  91  92
ENDBRANCH  86  91
BRANCH  87 100
ATOM    100  O   UNL A   1      30.805  29.524  21.788  1.00  0.00    -0.387 OA
ATOM    101  H   UNL A   1      30.187  29.082  21.184  1.00  0.00     0.211 HD
ENDBRANCH  87 100
BRANCH  88 102
ATOM    102  O   UNL A   1      31.591  26.795  21.234  1.00  0.00    -0.384 OA
ATOM    103  H   UNL A   1      31.848  25.863  21.313  1.00  0.00     0.211 HD
ENDBRANCH  88 102
ENDBRANCH  81  83
ENDBRANCH  80  81
ENDBRANCH  79  80
ENDBRANCH  78  79
ENDBRANCH  77  78
ENDBRANCH  76  77
ENDBRANCH   1  76
TORSDOF 26
ENDMDL
