MODEL 1
REMARK VINA RESULT:      -9.2      0.000      0.000
REMARK SMILES O=C(CC1(CC(=O)OCCOCCOCCOC(=O)c2ccc(-c3c4nc(c(-c5c(F)cc(S(=O)(=O)[O-])cc5F)c5ccc([nH]5)c(-c5c(F)cc(S(=O)(=O)[O-])cc5F)c5nc(c(-c6c(F)cc(S(=O)(=O)[O-])cc6F)c6ccc3[nH]6)C=C5)C=C4)cc2)CCCC1)N[C@H]1CO[C@H]2[C@@H]1OC[C@@H]2n1nnnc1-c1ccccc1
REMARK SMILES IDX 11 1 10 2 9 3 8 4 6 5 7 6 5 7 4 8 86 9 89 10 87 11 88 12
REMARK SMILES IDX 3 13 2 14 1 15 90 16 91 18 92 19 95 20 93 21 94 22 96 23
REMARK SMILES IDX 98 24 97 25 99 26 100 27 103 28 101 29 102 30 104 31 105 32
REMARK SMILES IDX 109 33 106 34 108 35 107 36 12 37 13 38 14 39 15 40 16 41
REMARK SMILES IDX 17 42 18 43 19 44 20 45 21 46 85 47 22 48 84 49 23 50 24 51
REMARK SMILES IDX 25 52 78 53 26 54 83 55 77 56 79 57 27 58 82 59 76 60 75 61
REMARK SMILES IDX 28 63 62 64 41 65 61 66 42 67 45 68 60 69 80 70 43 71 44 72
REMARK SMILES IDX 59 74 81 75 46 76 29 77 30 78 39 79 31 80 32 81 38 82 40 83
REMARK SMILES IDX 33 84 34 85 35 86 36 87 37 88 63 89 64 90 73 91 65 92 66 93
REMARK SMILES IDX 72 94 74 95 67 96 68 97 69 98 70 99 71 100 47 101 48 102
REMARK SMILES IDX 57 103 49 104 50 105 56 106 58 107 51 108 52 109 53 110
REMARK SMILES IDX 54 111 55 112
REMARK H PARENT 90 17 79 62 45 73
REMARK Flexibility Score: inf
ROOT
ATOM      1  O   UNL A   1      35.358  21.576  26.245  1.00  0.00    -0.376 OA
ENDROOT
BRANCH   1   2
ATOM      2  C   UNL A   1      34.218  22.411  26.046  1.00  0.00     0.202 C 
BRANCH   2   3
ATOM      3  C   UNL A   1      34.431  23.926  26.161  1.00  0.00     0.261 C 
BRANCH   3   4
ATOM      4  O   UNL A   1      35.160  24.484  25.042  1.00  0.00    -0.463 OA
BRANCH   4   5
ATOM      5  C   UNL A   1      34.421  24.625  23.906  1.00  0.00     0.306 C 
ATOM      6  O   UNL A   1      34.621  24.008  22.865  1.00  0.00    -0.252 OA
BRANCH   5   7
ATOM      7  C   UNL A   1      33.217  25.531  24.073  1.00  0.00     0.130 C 
BRANCH   7   8
ATOM      8  C   UNL A   1      33.123  26.847  23.249  1.00  0.00    -0.011 C 
ATOM      9  C   UNL A   1      31.625  27.251  23.177  1.00  0.00     0.008 C 
ATOM     10  C   UNL A   1      33.418  26.656  21.751  1.00  0.00     0.008 C 
ATOM     11  C   UNL A   1      31.017  26.378  22.081  1.00  0.00     0.001 C 
ATOM     12  C   UNL A   1      32.168  26.024  21.147  1.00  0.00     0.001 C 
BRANCH   8  13
ATOM     13  C   UNL A   1      33.923  27.985  23.939  1.00  0.00     0.107 C 
BRANCH  13  14
ATOM     14  C   UNL A   1      33.457  28.388  25.331  1.00  0.00     0.220 C 
ATOM     15  O   UNL A   1      32.650  27.733  25.979  1.00  0.00    -0.275 OA
ATOM     16  N   UNL A   1      33.986  29.584  25.752  1.00  0.00    -0.348 N 
ATOM     17  H   UNL A   1      34.442  30.150  25.089  1.00  0.00     0.163 HD
BRANCH  16  18
ATOM     18  C   UNL A   1      33.908  30.063  27.132  1.00  0.00     0.139 C 
ATOM     19  C   UNL A   1      34.591  29.053  28.049  1.00  0.00     0.188 C 
ATOM     20  C   UNL A   1      34.710  31.318  27.436  1.00  0.00     0.174 C 
ATOM     21  O   UNL A   1      35.990  29.365  27.999  1.00  0.00    -0.371 OA
ATOM     22  C   UNL A   1      36.080  30.787  27.823  1.00  0.00     0.176 C 
ATOM     23  O   UNL A   1      34.235  32.031  28.597  1.00  0.00    -0.371 OA
ATOM     24  C   UNL A   1      36.423  31.416  29.163  1.00  0.00     0.169 C 
ATOM     25  C   UNL A   1      35.416  32.552  29.239  1.00  0.00     0.191 C 
BRANCH  24  26
ATOM     26  N   UNL A   1      37.792  31.784  29.419  1.00  0.00    -0.217 N 
ATOM     27  N   UNL A   1      38.038  33.063  29.782  1.00  0.00    -0.044 NA
ATOM     28  C   UNL A   1      38.932  31.032  29.631  1.00  0.00     0.182 A 
ATOM     29  N   UNL A   1      39.287  33.080  30.212  1.00  0.00    -0.023 NA
ATOM     30  N   UNL A   1      39.849  31.836  30.133  1.00  0.00    -0.108 NA
BRANCH  28  31
ATOM     31  C   UNL A   1      39.111  29.608  29.380  1.00  0.00     0.021 A 
ATOM     32  C   UNL A   1      39.783  29.168  28.233  1.00  0.00     0.012 A 
ATOM     33  C   UNL A   1      38.646  28.662  30.303  1.00  0.00     0.012 A 
ATOM     34  C   UNL A   1      40.068  27.810  28.063  1.00  0.00     0.001 A 
ATOM     35  C   UNL A   1      38.957  27.310  30.145  1.00  0.00     0.001 A 
ATOM     36  C   UNL A   1      39.683  26.886  29.033  1.00  0.00     0.000 A 
ENDBRANCH  28  31
ENDBRANCH  24  26
ENDBRANCH  16  18
ENDBRANCH  13  14
ENDBRANCH   8  13
ENDBRANCH   7   8
ENDBRANCH   5   7
ENDBRANCH   4   5
ENDBRANCH   3   4
ENDBRANCH   2   3
ENDBRANCH   1   2
BRANCH   1  37
ATOM     37  C   UNL A   1      35.929  20.968  25.095  1.00  0.00     0.188 C 
BRANCH  37  38
ATOM     38  C   UNL A   1      37.458  20.987  24.998  1.00  0.00     0.188 C 
BRANCH  38  39
ATOM     39  O   UNL A   1      38.076  19.701  24.876  1.00  0.00    -0.376 OA
BRANCH  39  40
ATOM     40  C   UNL A   1      39.367  19.637  25.509  1.00  0.00     0.202 C 
BRANCH  40  41
ATOM     41  C   UNL A   1      39.635  20.814  26.447  1.00  0.00     0.261 C 
BRANCH  41  42
ATOM     42  O   UNL A   1      40.629  21.662  25.879  1.00  0.00    -0.460 OA
BRANCH  42  43
ATOM     43  C   UNL A   1      41.908  21.325  26.176  1.00  0.00     0.338 C 
ATOM     44  O   UNL A   1      42.581  20.455  25.661  1.00  0.00    -0.246 OA
BRANCH  43  45
ATOM     45  C   UNL A   1      42.447  22.370  27.070  1.00  0.00     0.060 A 
ATOM     46  C   UNL A   1      43.819  22.656  26.994  1.00  0.00     0.016 A 
ATOM     47  C   UNL A   1      41.601  23.132  27.883  1.00  0.00     0.016 A 
ATOM     48  C   UNL A   1      44.351  23.688  27.757  1.00  0.00     0.010 A 
ATOM     49  C   UNL A   1      42.129  24.167  28.638  1.00  0.00     0.010 A 
ATOM     50  C   UNL A   1      43.510  24.414  28.606  1.00  0.00    -0.014 A 
BRANCH  50  51
ATOM     51  C   UNL A   1      44.085  25.273  29.654  1.00  0.00     0.031 A 
ATOM     52  C   UNL A   1      44.302  26.716  29.308  1.00  0.00     0.074 A 
ATOM     53  C   UNL A   1      44.424  24.761  30.846  1.00  0.00     0.049 A 
ATOM     54  N   UNL A   1      44.904  27.649  29.989  1.00  0.00    -0.248 NA
ATOM     55  C   UNL A   1      43.787  27.161  27.999  1.00  0.00     0.031 C 
ATOM     56  C   UNL A   1      44.220  23.374  31.263  1.00  0.00     0.029 A 
ATOM     57  N   UNL A   1      45.034  25.352  31.919  1.00  0.00    -0.354 N 
ATOM     58  C   UNL A   1      44.855  28.784  29.187  1.00  0.00     0.074 A 
ATOM     59  C   UNL A   1      44.203  28.416  27.954  1.00  0.00     0.031 C 
ATOM     60  C   UNL A   1      44.711  23.217  32.504  1.00  0.00     0.029 A 
ATOM     61  C   UNL A   1      45.298  24.479  32.946  1.00  0.00     0.049 A 
ATOM     62  H   UNL A   1      45.260  26.310  31.953  1.00  0.00     0.167 HD
ATOM     63  C   UNL A   1      45.311  30.025  29.470  1.00  0.00     0.037 A 
ATOM     64  C   UNL A   1      45.967  24.685  34.096  1.00  0.00     0.037 A 
ATOM     65  C   UNL A   1      45.956  30.356  30.711  1.00  0.00     0.049 A 
ATOM     66  C   UNL A   1      46.510  26.065  34.368  1.00  0.00     0.074 A 
ATOM     67  C   UNL A   1      46.448  31.578  31.128  1.00  0.00     0.029 A 
ATOM     68  N   UNL A   1      46.205  29.450  31.734  1.00  0.00    -0.354 N 
ATOM     69  N   UNL A   1      46.443  27.141  33.617  1.00  0.00    -0.248 NA
ATOM     70  C   UNL A   1      47.212  26.263  35.642  1.00  0.00     0.031 C 
ATOM     71  C   UNL A   1      47.044  31.398  32.379  1.00  0.00     0.029 A 
ATOM     72  C   UNL A   1      46.863  30.079  32.773  1.00  0.00     0.049 A 
ATOM     73  H   UNL A   1      45.949  28.499  31.721  1.00  0.00     0.167 HD
ATOM     74  C   UNL A   1      47.064  28.153  34.342  1.00  0.00     0.074 A 
ATOM     75  C   UNL A   1      47.490  27.558  35.594  1.00  0.00     0.031 C 
ATOM     76  C   UNL A   1      47.261  29.453  34.011  1.00  0.00     0.037 A 
BRANCH  63  77
ATOM     77  C   UNL A   1      45.150  31.085  28.416  1.00  0.00     0.058 A 
ATOM     78  C   UNL A   1      46.129  31.315  27.435  1.00  0.00     0.135 A 
ATOM     79  C   UNL A   1      43.992  31.878  28.381  1.00  0.00     0.135 A 
ATOM     80  F   UNL A   1      47.270  30.607  27.438  1.00  0.00    -0.206 F 
ATOM     81  C   UNL A   1      45.976  32.307  26.472  1.00  0.00     0.059 A 
ATOM     82  C   UNL A   1      43.803  32.855  27.407  1.00  0.00     0.059 A 
ATOM     83  F   UNL A   1      43.030  31.713  29.302  1.00  0.00    -0.206 F 
ATOM     84  C   UNL A   1      44.806  33.069  26.464  1.00  0.00     0.060 A 
BRANCH  84  85
ATOM     85  S   UNL A   1      44.616  34.340  25.197  1.00  0.00     0.124 S 
ATOM     86  O   UNL A   1      44.505  33.532  23.986  1.00  0.00    -0.237 OA
ATOM     87  O   UNL A   1      43.395  35.019  25.620  1.00  0.00    -0.237 OA
ATOM     88  O   UNL A   1      45.841  35.125  25.315  1.00  0.00    -0.744 OA
ENDBRANCH  84  85
ENDBRANCH  63  77
BRANCH  64  89
ATOM     89  C   UNL A   1      46.158  23.569  35.059  1.00  0.00     0.058 A 
ATOM     90  C   UNL A   1      47.333  22.804  35.058  1.00  0.00     0.135 A 
ATOM     91  C   UNL A   1      45.178  23.254  36.015  1.00  0.00     0.135 A 
ATOM     92  F   UNL A   1      48.300  23.061  34.162  1.00  0.00    -0.206 F 
ATOM     93  C   UNL A   1      47.525  21.757  35.955  1.00  0.00     0.059 A 
ATOM     94  C   UNL A   1      45.358  22.232  36.941  1.00  0.00     0.059 A 
ATOM     95  F   UNL A   1      44.041  23.966  36.072  1.00  0.00    -0.206 F 
ATOM     96  C   UNL A   1      46.532  21.481  36.896  1.00  0.00     0.060 A 
BRANCH  96  97
ATOM     97  S   UNL A   1      46.812  20.150  38.083  1.00  0.00     0.124 S 
ATOM     98  O   UNL A   1      46.833  20.881  39.345  1.00  0.00    -0.237 OA
ATOM     99  O   UNL A   1      45.651  19.295  37.859  1.00  0.00    -0.237 OA
ATOM    100  O   UNL A   1      48.089  19.585  37.659  1.00  0.00    -0.744 OA
ENDBRANCH  96  97
ENDBRANCH  64  89
BRANCH  76 101
ATOM    101  C   UNL A   1      47.922  30.332  35.037  1.00  0.00     0.058 A 
ATOM    102  C   UNL A   1      49.311  30.527  35.063  1.00  0.00     0.135 A 
ATOM    103  C   UNL A   1      47.139  31.039  35.965  1.00  0.00     0.135 A 
ATOM    104  F   UNL A   1      50.103  29.871  34.201  1.00  0.00    -0.206 F 
ATOM    105  C   UNL A   1      49.904  31.372  35.994  1.00  0.00     0.059 A 
ATOM    106  C   UNL A   1      47.709  31.916  36.881  1.00  0.00     0.059 A 
ATOM    107  F   UNL A   1      45.804  30.898  35.971  1.00  0.00    -0.206 F 
ATOM    108  C   UNL A   1      49.094  32.066  36.895  1.00  0.00     0.060 A 
BRANCH 108 109
ATOM    109  S   UNL A   1      49.875  33.187  38.073  1.00  0.00     0.124 S 
ATOM    110  O   UNL A   1      48.886  33.220  39.145  1.00  0.00    -0.237 OA
ATOM    111  O   UNL A   1      51.122  32.493  38.381  1.00  0.00    -0.237 OA
ATOM    112  O   UNL A   1      50.024  34.426  37.317  1.00  0.00    -0.744 OA
ENDBRANCH 108 109
ENDBRANCH  76 101
ENDBRANCH  50  51
ENDBRANCH  43  45
ENDBRANCH  42  43
ENDBRANCH  41  42
ENDBRANCH  40  41
ENDBRANCH  39  40
ENDBRANCH  38  39
ENDBRANCH  37  38
ENDBRANCH   1  37
TORSDOF 26
ENDMDL
MODEL 2
REMARK VINA RESULT:      -9.1      1.589      7.873
REMARK SMILES O=C(CC1(CC(=O)OCCOCCOCCOC(=O)c2ccc(-c3c4nc(c(-c5c(F)cc(S(=O)(=O)[O-])cc5F)c5ccc([nH]5)c(-c5c(F)cc(S(=O)(=O)[O-])cc5F)c5nc(c(-c6c(F)cc(S(=O)(=O)[O-])cc6F)c6ccc3[nH]6)C=C5)C=C4)cc2)CCCC1)N[C@H]1CO[C@H]2[C@@H]1OC[C@@H]2n1nnnc1-c1ccccc1
REMARK SMILES IDX 11 1 10 2 9 3 8 4 6 5 7 6 5 7 4 8 86 9 89 10 87 11 88 12
REMARK SMILES IDX 3 13 2 14 1 15 90 16 91 18 92 19 95 20 93 21 94 22 96 23
REMARK SMILES IDX 98 24 97 25 99 26 100 27 103 28 101 29 102 30 104 31 105 32
REMARK SMILES IDX 109 33 106 34 108 35 107 36 12 37 13 38 14 39 15 40 16 41
REMARK SMILES IDX 17 42 18 43 19 44 20 45 21 46 85 47 22 48 84 49 23 50 24 51
REMARK SMILES IDX 25 52 78 53 26 54 83 55 77 56 79 57 27 58 82 59 76 60 75 61
REMARK SMILES IDX 28 63 62 64 41 65 61 66 42 67 45 68 60 69 80 70 43 71 44 72
REMARK SMILES IDX 59 74 81 75 46 76 29 77 30 78 39 79 31 80 32 81 38 82 40 83
REMARK SMILES IDX 33 84 34 85 35 86 36 87 37 88 63 89 64 90 73 91 65 92 66 93
REMARK SMILES IDX 72 94 74 95 67 96 68 97 69 98 70 99 71 100 47 101 48 102
REMARK SMILES IDX 57 103 49 104 50 105 56 106 58 107 51 108 52 109 53 110
REMARK SMILES IDX 54 111 55 112
REMARK H PARENT 90 17 79 62 45 73
REMARK Flexibility Score: inf
ROOT
ATOM      1  O   UNL A   1      33.821  23.864  26.036  1.00  0.00    -0.376 OA
ENDROOT
BRANCH   1   2
ATOM      2  C   UNL A   1      32.735  23.564  26.912  1.00  0.00     0.202 C 
BRANCH   2   3
ATOM      3  C   UNL A   1      31.353  24.108  26.527  1.00  0.00     0.261 C 
BRANCH   3   4
ATOM      4  O   UNL A   1      31.192  25.514  26.828  1.00  0.00    -0.463 OA
BRANCH   4   5
ATOM      5  C   UNL A   1      30.931  26.294  25.742  1.00  0.00     0.306 C 
ATOM      6  O   UNL A   1      30.358  25.906  24.729  1.00  0.00    -0.252 OA
BRANCH   5   7
ATOM      7  C   UNL A   1      31.296  27.751  25.938  1.00  0.00     0.130 C 
BRANCH   7   8
ATOM      8  C   UNL A   1      32.791  28.184  25.904  1.00  0.00    -0.011 C 
ATOM      9  C   UNL A   1      32.896  29.441  25.000  1.00  0.00     0.008 C 
ATOM     10  C   UNL A   1      33.691  27.215  25.119  1.00  0.00     0.008 C 
ATOM     11  C   UNL A   1      32.891  28.916  23.566  1.00  0.00     0.001 C 
ATOM     12  C   UNL A   1      33.433  27.494  23.642  1.00  0.00     0.001 C 
BRANCH   8  13
ATOM     13  C   UNL A   1      33.290  28.540  27.330  1.00  0.00     0.107 C 
BRANCH  13  14
ATOM     14  C   UNL A   1      34.421  29.556  27.415  1.00  0.00     0.220 C 
ATOM     15  O   UNL A   1      35.559  29.319  27.028  1.00  0.00    -0.275 OA
ATOM     16  N   UNL A   1      34.048  30.731  28.020  1.00  0.00    -0.348 N 
ATOM     17  H   UNL A   1      33.189  30.755  28.499  1.00  0.00     0.163 HD
BRANCH  16  18
ATOM     18  C   UNL A   1      34.858  31.949  27.994  1.00  0.00     0.139 C 
ATOM     19  C   UNL A   1      34.028  33.110  28.532  1.00  0.00     0.188 C 
ATOM     20  C   UNL A   1      36.040  31.972  28.949  1.00  0.00     0.174 C 
ATOM     21  O   UNL A   1      34.142  33.043  29.960  1.00  0.00    -0.371 OA
ATOM     22  C   UNL A   1      35.453  32.529  30.236  1.00  0.00     0.176 C 
ATOM     23  O   UNL A   1      37.069  32.904  28.563  1.00  0.00    -0.371 OA
ATOM     24  C   UNL A   1      36.345  33.689  30.647  1.00  0.00     0.169 C 
ATOM     25  C   UNL A   1      37.582  33.447  29.796  1.00  0.00     0.191 C 
BRANCH  24  26
ATOM     26  N   UNL A   1      36.593  33.903  32.050  1.00  0.00    -0.217 N 
ATOM     27  N   UNL A   1      36.030  34.988  32.626  1.00  0.00    -0.044 NA
ATOM     28  C   UNL A   1      37.092  33.078  33.040  1.00  0.00     0.182 A 
ATOM     29  N   UNL A   1      36.174  34.818  33.928  1.00  0.00    -0.023 NA
ATOM     30  N   UNL A   1      36.819  33.644  34.201  1.00  0.00    -0.108 NA
BRANCH  28  31
ATOM     31  C   UNL A   1      37.776  31.804  32.869  1.00  0.00     0.021 A 
ATOM     32  C   UNL A   1      39.165  31.759  32.706  1.00  0.00     0.012 A 
ATOM     33  C   UNL A   1      37.054  30.602  32.903  1.00  0.00     0.012 A 
ATOM     34  C   UNL A   1      39.831  30.530  32.675  1.00  0.00     0.001 A 
ATOM     35  C   UNL A   1      37.724  29.377  32.900  1.00  0.00     0.001 A 
ATOM     36  C   UNL A   1      39.113  29.341  32.803  1.00  0.00     0.000 A 
ENDBRANCH  28  31
ENDBRANCH  24  26
ENDBRANCH  16  18
ENDBRANCH  13  14
ENDBRANCH   8  13
ENDBRANCH   7   8
ENDBRANCH   5   7
ENDBRANCH   4   5
ENDBRANCH   3   4
ENDBRANCH   2   3
ENDBRANCH   1   2
BRANCH   1  37
ATOM     37  C   UNL A   1      34.595  22.773  25.559  1.00  0.00     0.188 C 
BRANCH  37  38
ATOM     38  C   UNL A   1      36.113  22.882  25.733  1.00  0.00     0.188 C 
BRANCH  38  39
ATOM     39  O   UNL A   1      36.797  21.634  25.897  1.00  0.00    -0.376 OA
BRANCH  39  40
ATOM     40  C   UNL A   1      38.061  21.593  25.210  1.00  0.00     0.202 C 
BRANCH  40  41
ATOM     41  C   UNL A   1      39.176  20.959  26.043  1.00  0.00     0.261 C 
BRANCH  41  42
ATOM     42  O   UNL A   1      40.053  21.975  26.521  1.00  0.00    -0.460 OA
BRANCH  42  43
ATOM     43  C   UNL A   1      41.372  21.736  26.315  1.00  0.00     0.338 C 
ATOM     44  O   UNL A   1      41.875  21.101  25.411  1.00  0.00    -0.246 OA
BRANCH  43  45
ATOM     45  C   UNL A   1      42.130  22.599  27.244  1.00  0.00     0.060 A 
ATOM     46  C   UNL A   1      41.407  23.484  28.057  1.00  0.00     0.016 A 
ATOM     47  C   UNL A   1      43.514  22.457  27.394  1.00  0.00     0.016 A 
ATOM     48  C   UNL A   1      42.074  24.254  29.002  1.00  0.00     0.010 A 
ATOM     49  C   UNL A   1      44.179  23.218  28.342  1.00  0.00     0.010 A 
ATOM     50  C   UNL A   1      43.464  24.145  29.114  1.00  0.00    -0.014 A 
BRANCH  50  51
ATOM     51  C   UNL A   1      44.224  25.164  29.855  1.00  0.00     0.031 A 
ATOM     52  C   UNL A   1      44.725  24.784  31.217  1.00  0.00     0.074 A 
ATOM     53  C   UNL A   1      44.420  26.384  29.333  1.00  0.00     0.049 A 
ATOM     54  N   UNL A   1      45.301  25.522  32.123  1.00  0.00    -0.248 NA
ATOM     55  C   UNL A   1      44.526  23.379  31.619  1.00  0.00     0.031 C 
ATOM     56  C   UNL A   1      43.984  26.819  28.005  1.00  0.00     0.029 A 
ATOM     57  N   UNL A   1      45.021  27.489  29.871  1.00  0.00    -0.354 N 
ATOM     58  C   UNL A   1      45.517  24.678  33.206  1.00  0.00     0.074 A 
ATOM     59  C   UNL A   1      44.976  23.384  32.862  1.00  0.00     0.031 C 
ATOM     60  C   UNL A   1      44.322  28.108  27.838  1.00  0.00     0.029 A 
ATOM     61  C   UNL A   1      44.958  28.596  29.060  1.00  0.00     0.049 A 
ATOM     62  H   UNL A   1      45.457  27.491  30.754  1.00  0.00     0.167 HD
ATOM     63  C   UNL A   1      46.126  24.965  34.378  1.00  0.00     0.037 A 
ATOM     64  C   UNL A   1      45.349  29.861  29.302  1.00  0.00     0.037 A 
ATOM     65  C   UNL A   1      46.654  26.265  34.686  1.00  0.00     0.049 A 
ATOM     66  C   UNL A   1      45.979  30.169  30.636  1.00  0.00     0.074 A 
ATOM     67  C   UNL A   1      47.308  26.682  35.830  1.00  0.00     0.029 A 
ATOM     68  N   UNL A   1      46.579  27.364  33.840  1.00  0.00    -0.354 N 
ATOM     69  N   UNL A   1      46.202  29.363  31.650  1.00  0.00    -0.248 NA
ATOM     70  C   UNL A   1      46.418  31.551  30.860  1.00  0.00     0.031 C 
ATOM     71  C   UNL A   1      47.578  28.047  35.699  1.00  0.00     0.029 A 
ATOM     72  C   UNL A   1      47.155  28.466  34.445  1.00  0.00     0.049 A 
ATOM     73  H   UNL A   1      46.176  27.359  32.942  1.00  0.00     0.167 HD
ATOM     74  C   UNL A   1      46.838  30.132  32.619  1.00  0.00     0.074 A 
ATOM     75  C   UNL A   1      46.970  31.465  32.062  1.00  0.00     0.031 C 
ATOM     76  C   UNL A   1      47.277  29.776  33.851  1.00  0.00     0.037 A 
BRANCH  63  77
ATOM     77  C   UNL A   1      46.220  23.868  35.403  1.00  0.00     0.058 A 
ATOM     78  C   UNL A   1      47.243  22.907  35.375  1.00  0.00     0.135 A 
ATOM     79  C   UNL A   1      45.275  23.784  36.438  1.00  0.00     0.135 A 
ATOM     80  F   UNL A   1      48.158  22.920  34.391  1.00  0.00    -0.206 F 
ATOM     81  C   UNL A   1      47.313  21.889  36.321  1.00  0.00     0.059 A 
ATOM     82  C   UNL A   1      45.344  22.794  37.415  1.00  0.00     0.059 A 
ATOM     83  F   UNL A   1      44.267  24.667  36.507  1.00  0.00    -0.206 F 
ATOM     84  C   UNL A   1      46.361  21.844  37.340  1.00  0.00     0.060 A 
BRANCH  84  85
ATOM     85  S   UNL A   1      46.477  20.528  38.569  1.00  0.00     0.124 S 
ATOM     86  O   UNL A   1      45.796  21.132  39.710  1.00  0.00    -0.237 OA
ATOM     87  O   UNL A   1      45.769  19.431  37.916  1.00  0.00    -0.237 OA
ATOM     88  O   UNL A   1      47.916  20.336  38.728  1.00  0.00    -0.744 OA
ENDBRANCH  84  85
ENDBRANCH  63  77
BRANCH  64  89
ATOM     89  C   UNL A   1      45.153  30.913  28.272  1.00  0.00     0.058 A 
ATOM     90  C   UNL A   1      46.141  31.181  27.313  1.00  0.00     0.135 A 
ATOM     91  C   UNL A   1      43.966  31.663  28.210  1.00  0.00     0.135 A 
ATOM     92  F   UNL A   1      47.295  30.496  27.330  1.00  0.00    -0.206 F 
ATOM     93  C   UNL A   1      45.969  32.163  26.342  1.00  0.00     0.059 A 
ATOM     94  C   UNL A   1      43.759  32.629  27.231  1.00  0.00     0.059 A 
ATOM     95  F   UNL A   1      42.980  31.435  29.092  1.00  0.00    -0.206 F 
ATOM     96  C   UNL A   1      44.772  32.880  26.307  1.00  0.00     0.060 A 
BRANCH  96  97
ATOM     97  S   UNL A   1      44.544  34.120  25.014  1.00  0.00     0.124 S 
ATOM     98  O   UNL A   1      45.877  34.706  24.930  1.00  0.00    -0.237 OA
ATOM     99  O   UNL A   1      44.133  33.301  23.878  1.00  0.00    -0.237 OA
ATOM    100  O   UNL A   1      43.506  34.988  25.561  1.00  0.00    -0.744 OA
ENDBRANCH  96  97
ENDBRANCH  64  89
BRANCH  76 101
ATOM    101  C   UNL A   1      47.986  30.827  34.660  1.00  0.00     0.058 A 
ATOM    102  C   UNL A   1      49.369  31.033  34.559  1.00  0.00     0.135 A 
ATOM    103  C   UNL A   1      47.252  31.681  35.500  1.00  0.00     0.135 A 
ATOM    104  F   UNL A   1      50.116  30.242  33.774  1.00  0.00    -0.206 F 
ATOM    105  C   UNL A   1      50.006  32.034  35.285  1.00  0.00     0.059 A 
ATOM    106  C   UNL A   1      47.862  32.710  36.207  1.00  0.00     0.059 A 
ATOM    107  F   UNL A   1      45.922  31.533  35.620  1.00  0.00    -0.206 F 
ATOM    108  C   UNL A   1      49.242  32.870  36.102  1.00  0.00     0.060 A 
BRANCH 108 109
ATOM    109  S   UNL A   1      50.077  34.187  37.009  1.00  0.00     0.124 S 
ATOM    110  O   UNL A   1      49.365  34.162  38.282  1.00  0.00    -0.237 OA
ATOM    111  O   UNL A   1      51.457  33.713  37.044  1.00  0.00    -0.237 OA
ATOM    112  O   UNL A   1      49.846  35.368  36.184  1.00  0.00    -0.744 OA
ENDBRANCH 108 109
ENDBRANCH  76 101
ENDBRANCH  50  51
ENDBRANCH  43  45
ENDBRANCH  42  43
ENDBRANCH  41  42
ENDBRANCH  40  41
ENDBRANCH  39  40
ENDBRANCH  38  39
ENDBRANCH  37  38
ENDBRANCH   1  37
TORSDOF 26
ENDMDL
MODEL 3
REMARK VINA RESULT:      -9.0      1.489      7.757
REMARK SMILES O=C(CC1(CC(=O)OCCOCCOCCOC(=O)c2ccc(-c3c4nc(c(-c5c(F)cc(S(=O)(=O)[O-])cc5F)c5ccc([nH]5)c(-c5c(F)cc(S(=O)(=O)[O-])cc5F)c5nc(c(-c6c(F)cc(S(=O)(=O)[O-])cc6F)c6ccc3[nH]6)C=C5)C=C4)cc2)CCCC1)N[C@H]1CO[C@H]2[C@@H]1OC[C@@H]2n1nnnc1-c1ccccc1
REMARK SMILES IDX 11 1 10 2 9 3 8 4 6 5 7 6 5 7 4 8 86 9 89 10 87 11 88 12
REMARK SMILES IDX 3 13 2 14 1 15 90 16 91 18 92 19 95 20 93 21 94 22 96 23
REMARK SMILES IDX 98 24 97 25 99 26 100 27 103 28 101 29 102 30 104 31 105 32
REMARK SMILES IDX 109 33 106 34 108 35 107 36 12 37 13 38 14 39 15 40 16 41
REMARK SMILES IDX 17 42 18 43 19 44 20 45 21 46 85 47 22 48 84 49 23 50 24 51
REMARK SMILES IDX 25 52 78 53 26 54 83 55 77 56 79 57 27 58 82 59 76 60 75 61
REMARK SMILES IDX 28 63 62 64 41 65 61 66 42 67 45 68 60 69 80 70 43 71 44 72
REMARK SMILES IDX 59 74 81 75 46 76 29 77 30 78 39 79 31 80 32 81 38 82 40 83
REMARK SMILES IDX 33 84 34 85 35 86 36 87 37 88 63 89 64 90 73 91 65 92 66 93
REMARK SMILES IDX 72 94 74 95 67 96 68 97 69 98 70 99 71 100 47 101 48 102
REMARK SMILES IDX 57 103 49 104 50 105 56 106 58 107 51 108 52 109 53 110
REMARK SMILES IDX 54 111 55 112
REMARK H PARENT 90 17 79 62 45 73
REMARK Flexibility Score: inf
ROOT
ATOM      1  O   UNL A   1      36.158  22.626  25.610  1.00  0.00    -0.376 OA
ENDROOT
BRANCH   1   2
ATOM      2  C   UNL A   1      35.944  23.897  24.996  1.00  0.00     0.202 C 
BRANCH   2   3
ATOM      3  C   UNL A   1      34.511  24.232  24.561  1.00  0.00     0.261 C 
BRANCH   3   4
ATOM      4  O   UNL A   1      33.688  24.722  25.645  1.00  0.00    -0.463 OA
BRANCH   4   5
ATOM      5  C   UNL A   1      33.187  25.974  25.446  1.00  0.00     0.306 C 
ATOM      6  O   UNL A   1      32.330  26.499  26.148  1.00  0.00    -0.252 OA
BRANCH   5   7
ATOM      7  C   UNL A   1      33.885  26.739  24.339  1.00  0.00     0.130 C 
BRANCH   7   8
ATOM      8  C   UNL A   1      33.045  27.369  23.190  1.00  0.00    -0.011 C 
ATOM      9  C   UNL A   1      31.607  26.792  23.288  1.00  0.00     0.008 C 
ATOM     10  C   UNL A   1      33.441  26.862  21.793  1.00  0.00     0.008 C 
ATOM     11  C   UNL A   1      31.675  25.410  22.644  1.00  0.00     0.001 C 
ATOM     12  C   UNL A   1      32.836  25.468  21.658  1.00  0.00     0.001 C 
BRANCH   8  13
ATOM     13  C   UNL A   1      32.984  28.913  23.339  1.00  0.00     0.107 C 
BRANCH  13  14
ATOM     14  C   UNL A   1      32.596  29.443  24.712  1.00  0.00     0.220 C 
ATOM     15  O   UNL A   1      31.433  29.619  25.054  1.00  0.00    -0.275 OA
ATOM     16  N   UNL A   1      33.679  29.759  25.495  1.00  0.00    -0.348 N 
ATOM     17  H   UNL A   1      34.565  29.802  25.070  1.00  0.00     0.163 HD
BRANCH  16  18
ATOM     18  C   UNL A   1      33.589  30.038  26.929  1.00  0.00     0.139 C 
ATOM     19  C   UNL A   1      34.459  29.038  27.685  1.00  0.00     0.188 C 
ATOM     20  C   UNL A   1      34.202  31.353  27.381  1.00  0.00     0.174 C 
ATOM     21  O   UNL A   1      35.790  29.570  27.647  1.00  0.00    -0.371 OA
ATOM     22  C   UNL A   1      35.653  30.998  27.661  1.00  0.00     0.176 C 
ATOM     23  O   UNL A   1      33.676  31.826  28.638  1.00  0.00    -0.371 OA
ATOM     24  C   UNL A   1      35.954  31.494  29.065  1.00  0.00     0.169 C 
ATOM     25  C   UNL A   1      34.790  32.439  29.317  1.00  0.00     0.191 C 
BRANCH  24  26
ATOM     26  N   UNL A   1      37.261  32.038  29.337  1.00  0.00    -0.217 N 
ATOM     27  N   UNL A   1      37.350  33.367  29.569  1.00  0.00    -0.044 NA
ATOM     28  C   UNL A   1      38.461  31.442  29.678  1.00  0.00     0.182 A 
ATOM     29  N   UNL A   1      38.565  33.567  30.047  1.00  0.00    -0.023 NA
ATOM     30  N   UNL A   1      39.260  32.392  30.127  1.00  0.00    -0.108 NA
BRANCH  28  31
ATOM     31  C   UNL A   1      38.804  30.030  29.590  1.00  0.00     0.021 A 
ATOM     32  C   UNL A   1      38.620  29.183  30.690  1.00  0.00     0.012 A 
ATOM     33  C   UNL A   1      39.287  29.492  28.389  1.00  0.00     0.012 A 
ATOM     34  C   UNL A   1      38.824  27.807  30.560  1.00  0.00     0.001 A 
ATOM     35  C   UNL A   1      39.463  28.113  28.254  1.00  0.00     0.001 A 
ATOM     36  C   UNL A   1      39.216  27.269  29.334  1.00  0.00     0.000 A 
ENDBRANCH  28  31
ENDBRANCH  24  26
ENDBRANCH  16  18
ENDBRANCH  13  14
ENDBRANCH   8  13
ENDBRANCH   7   8
ENDBRANCH   5   7
ENDBRANCH   4   5
ENDBRANCH   3   4
ENDBRANCH   2   3
ENDBRANCH   1   2
BRANCH   1  37
ATOM     37  C   UNL A   1      37.082  21.747  24.984  1.00  0.00     0.188 C 
BRANCH  37  38
ATOM     38  C   UNL A   1      38.303  21.334  25.812  1.00  0.00     0.188 C 
BRANCH  38  39
ATOM     39  O   UNL A   1      38.889  20.079  25.447  1.00  0.00    -0.376 OA
BRANCH  39  40
ATOM     40  C   UNL A   1      40.266  19.966  25.845  1.00  0.00     0.202 C 
BRANCH  40  41
ATOM     41  C   UNL A   1      40.694  21.044  26.842  1.00  0.00     0.261 C 
BRANCH  41  42
ATOM     42  O   UNL A   1      40.884  22.280  26.159  1.00  0.00    -0.460 OA
BRANCH  42  43
ATOM     43  C   UNL A   1      42.174  22.576  25.860  1.00  0.00     0.338 C 
ATOM     44  O   UNL A   1      42.807  22.219  24.888  1.00  0.00    -0.246 OA
BRANCH  43  45
ATOM     45  C   UNL A   1      42.616  23.629  26.797  1.00  0.00     0.060 A 
ATOM     46  C   UNL A   1      43.933  24.099  26.683  1.00  0.00     0.016 A 
ATOM     47  C   UNL A   1      41.720  24.220  27.693  1.00  0.00     0.016 A 
ATOM     48  C   UNL A   1      44.363  25.146  27.489  1.00  0.00     0.010 A 
ATOM     49  C   UNL A   1      42.145  25.269  28.492  1.00  0.00     0.010 A 
ATOM     50  C   UNL A   1      43.478  25.701  28.419  1.00  0.00    -0.014 A 
BRANCH  50  51
ATOM     51  C   UNL A   1      43.988  26.565  29.495  1.00  0.00     0.031 A 
ATOM     52  C   UNL A   1      44.463  25.885  30.746  1.00  0.00     0.074 A 
ATOM     53  C   UNL A   1      43.988  27.899  29.359  1.00  0.00     0.049 A 
ATOM     54  N   UNL A   1      44.834  26.406  31.881  1.00  0.00    -0.248 NA
ATOM     55  C   UNL A   1      44.501  24.411  30.716  1.00  0.00     0.031 C 
ATOM     56  C   UNL A   1      43.566  28.630  28.163  1.00  0.00     0.029 A 
ATOM     57  N   UNL A   1      44.340  28.878  30.248  1.00  0.00    -0.354 N 
ATOM     58  C   UNL A   1      45.132  25.327  32.704  1.00  0.00     0.074 A 
ATOM     59  C   UNL A   1      44.862  24.123  31.955  1.00  0.00     0.031 C 
ATOM     60  C   UNL A   1      43.670  29.948  28.401  1.00  0.00     0.029 A 
ATOM     61  C   UNL A   1      44.126  30.149  29.774  1.00  0.00     0.049 A 
ATOM     62  H   UNL A   1      44.710  28.690  31.140  1.00  0.00     0.167 HD
ATOM     63  C   UNL A   1      45.601  25.350  33.971  1.00  0.00     0.037 A 
ATOM     64  C   UNL A   1      44.260  31.332  30.401  1.00  0.00     0.037 A 
ATOM     65  C   UNL A   1      45.859  26.569  34.687  1.00  0.00     0.049 A 
ATOM     66  C   UNL A   1      44.736  31.331  31.831  1.00  0.00     0.074 A 
ATOM     67  C   UNL A   1      46.350  26.729  35.969  1.00  0.00     0.029 A 
ATOM     68  N   UNL A   1      45.637  27.841  34.177  1.00  0.00    -0.354 N 
ATOM     69  N   UNL A   1      45.038  30.309  32.600  1.00  0.00    -0.248 NA
ATOM     70  C   UNL A   1      44.896  32.638  32.480  1.00  0.00     0.031 C 
ATOM     71  C   UNL A   1      46.371  28.098  36.254  1.00  0.00     0.029 A 
ATOM     72  C   UNL A   1      45.960  28.794  35.125  1.00  0.00     0.049 A 
ATOM     73  H   UNL A   1      45.300  28.037  33.273  1.00  0.00     0.167 HD
ATOM     74  C   UNL A   1      45.458  30.851  33.810  1.00  0.00     0.074 A 
ATOM     75  C   UNL A   1      45.377  32.292  33.665  1.00  0.00     0.031 C 
ATOM     76  C   UNL A   1      45.875  30.222  34.937  1.00  0.00     0.037 A 
BRANCH  63  77
ATOM     77  C   UNL A   1      45.830  24.030  34.656  1.00  0.00     0.058 A 
ATOM     78  C   UNL A   1      44.809  23.368  35.358  1.00  0.00     0.135 A 
ATOM     79  C   UNL A   1      47.089  23.412  34.599  1.00  0.00     0.135 A 
ATOM     80  F   UNL A   1      43.593  23.925  35.471  1.00  0.00    -0.206 F 
ATOM     81  C   UNL A   1      45.036  22.154  35.998  1.00  0.00     0.059 A 
ATOM     82  C   UNL A   1      47.330  22.182  35.204  1.00  0.00     0.059 A 
ATOM     83  F   UNL A   1      48.106  24.006  33.955  1.00  0.00    -0.206 F 
ATOM     84  C   UNL A   1      46.298  21.566  35.911  1.00  0.00     0.060 A 
BRANCH  84  85
ATOM     85  S   UNL A   1      46.570  19.982  36.732  1.00  0.00     0.124 S 
ATOM     86  O   UNL A   1      45.800  20.154  37.961  1.00  0.00    -0.237 OA
ATOM     87  O   UNL A   1      46.019  19.035  35.767  1.00  0.00    -0.237 OA
ATOM     88  O   UNL A   1      48.018  19.930  36.903  1.00  0.00    -0.744 OA
ENDBRANCH  84  85
ENDBRANCH  63  77
BRANCH  64  89
ATOM     89  C   UNL A   1      43.939  32.597  29.688  1.00  0.00     0.058 A 
ATOM     90  C   UNL A   1      42.740  33.282  29.932  1.00  0.00     0.135 A 
ATOM     91  C   UNL A   1      44.832  33.158  28.761  1.00  0.00     0.135 A 
ATOM     92  F   UNL A   1      41.850  32.786  30.806  1.00  0.00    -0.206 F 
ATOM     93  C   UNL A   1      42.428  34.467  29.272  1.00  0.00     0.059 A 
ATOM     94  C   UNL A   1      44.557  34.357  28.110  1.00  0.00     0.059 A 
ATOM     95  F   UNL A   1      46.003  32.553  28.503  1.00  0.00    -0.206 F 
ATOM     96  C   UNL A   1      43.346  34.999  28.365  1.00  0.00     0.060 A 
BRANCH  96  97
ATOM     97  S   UNL A   1      42.950  36.560  27.549  1.00  0.00     0.124 S 
ATOM     98  O   UNL A   1      41.493  36.560  27.606  1.00  0.00    -0.237 OA
ATOM     99  O   UNL A   1      43.623  37.529  28.407  1.00  0.00    -0.237 OA
ATOM    100  O   UNL A   1      43.530  36.401  26.220  1.00  0.00    -0.744 OA
ENDBRANCH  96  97
ENDBRANCH  64  89
BRANCH  76 101
ATOM    101  C   UNL A   1      46.325  31.088  36.082  1.00  0.00     0.058 A 
ATOM    102  C   UNL A   1      47.645  31.550  36.189  1.00  0.00     0.135 A 
ATOM    103  C   UNL A   1      45.398  31.511  37.049  1.00  0.00     0.135 A 
ATOM    104  F   UNL A   1      48.569  31.170  35.294  1.00  0.00    -0.206 F 
ATOM    105  C   UNL A   1      48.037  32.380  37.233  1.00  0.00     0.059 A 
ATOM    106  C   UNL A   1      45.760  32.370  38.080  1.00  0.00     0.059 A 
ATOM    107  F   UNL A   1      44.118  31.108  36.982  1.00  0.00    -0.206 F 
ATOM    108  C   UNL A   1      47.086  32.788  38.170  1.00  0.00     0.060 A 
BRANCH 108 109
ATOM    109  S   UNL A   1      47.602  33.896  39.497  1.00  0.00     0.124 S 
ATOM    110  O   UNL A   1      49.046  33.939  39.297  1.00  0.00    -0.237 OA
ATOM    111  O   UNL A   1      46.879  35.123  39.175  1.00  0.00    -0.237 OA
ATOM    112  O   UNL A   1      47.155  33.211  40.706  1.00  0.00    -0.744 OA
ENDBRANCH 108 109
ENDBRANCH  76 101
ENDBRANCH  50  51
ENDBRANCH  43  45
ENDBRANCH  42  43
ENDBRANCH  41  42
ENDBRANCH  40  41
ENDBRANCH  39  40
ENDBRANCH  38  39
ENDBRANCH  37  38
ENDBRANCH   1  37
TORSDOF 26
ENDMDL
