MODEL 1
REMARK VINA RESULT:      -9.9      0.000      0.000
REMARK SMILES Nc1cccc(CC(=O)N2CC(C(=O)OCCOCCOCCOC(=O)c3ccc(-c4c5nc(c(-c6c(F)cc(S(=O)(=O)[O-])cc6F)c6ccc([nH]6)c(-c6c(F)cc(S(=O)(=O)[O-])cc6F)c6nc(c(-c7c(F)cc(S(=O)(=O)[O-])cc7F)c7ccc4[nH]7)C=C6)C=C5)cc3)C2)c1
REMARK SMILES IDX 19 1 18 2 17 3 16 4 15 5 13 6 14 7 12 8 8 9 9 10 10 11 11 12
REMARK SMILES IDX 93 13 7 14 6 15 2 16 3 17 94 18 4 19 5 20 1 21 20 24 21 25
REMARK SMILES IDX 22 26 23 27 24 28 25 29 26 30 27 31 28 32 92 33 29 34 91 35
REMARK SMILES IDX 30 36 31 37 32 38 85 39 33 40 90 41 84 42 86 43 34 44 89 45
REMARK SMILES IDX 83 46 82 47 35 49 69 50 48 51 68 52 49 53 52 54 67 55 87 56
REMARK SMILES IDX 50 57 51 58 66 60 88 61 53 62 36 63 37 64 46 65 38 66 39 67
REMARK SMILES IDX 45 68 47 69 40 70 41 71 42 72 43 73 44 74 70 75 71 76 80 77
REMARK SMILES IDX 72 78 73 79 79 80 81 81 74 82 75 83 76 84 77 85 78 86 54 87
REMARK SMILES IDX 55 88 64 89 56 90 57 91 63 92 65 93 58 94 59 95 60 96 61 97
REMARK SMILES IDX 62 98
REMARK H PARENT 1 22 1 23 86 48 52 59
REMARK Flexibility Score: inf
ROOT
ATOM      1  C   UNL A   1      34.641  31.051  27.852  1.00  0.00     0.188 C 
ENDROOT
BRANCH   1   2
ATOM      2  O   UNL A   1      33.496  30.259  27.565  1.00  0.00    -0.376 OA
BRANCH   2   3
ATOM      3  C   UNL A   1      33.210  29.911  26.214  1.00  0.00     0.202 C 
BRANCH   3   4
ATOM      4  C   UNL A   1      31.951  29.094  25.877  1.00  0.00     0.261 C 
BRANCH   4   5
ATOM      5  O   UNL A   1      32.133  28.151  24.801  1.00  0.00    -0.463 OA
BRANCH   5   6
ATOM      6  C   UNL A   1      30.995  27.676  24.215  1.00  0.00     0.312 C 
ATOM      7  O   UNL A   1      30.131  28.417  23.745  1.00  0.00    -0.252 OA
BRANCH   6   8
ATOM      8  C   UNL A   1      30.925  26.142  24.131  1.00  0.00     0.138 C 
ATOM      9  C   UNL A   1      31.632  23.037  25.021  1.00  0.00     0.227 C 
ATOM     10  O   UNL A   1      30.770  22.531  25.743  1.00  0.00    -0.275 OA
ATOM     11  N   UNL A   1      31.705  24.390  24.849  1.00  0.00    -0.341 N 
ATOM     12  C   UNL A   1      30.915  25.425  25.487  1.00  0.00     0.136 C 
ATOM     13  C   UNL A   1      32.137  25.250  23.765  1.00  0.00     0.136 C 
BRANCH   9  14
ATOM     14  C   UNL A   1      32.757  22.192  24.461  1.00  0.00     0.135 C 
BRANCH  14  15
ATOM     15  C   UNL A   1      32.600  20.694  24.466  1.00  0.00    -0.037 A 
ATOM     16  C   UNL A   1      32.211  18.639  23.193  1.00  0.00     0.032 A 
ATOM     17  C   UNL A   1      32.557  17.898  24.322  1.00  0.00     0.025 A 
ATOM     18  C   UNL A   1      32.267  20.033  23.269  1.00  0.00     0.029 A 
ATOM     19  C   UNL A   1      32.890  18.535  25.520  1.00  0.00     0.002 A 
ATOM     20  C   UNL A   1      32.907  19.928  25.596  1.00  0.00     0.004 A 
BRANCH  16  21
ATOM     21  N   UNL A   1      31.974  18.011  21.979  1.00  0.00    -0.399 N 
ATOM     22  H   UNL A   1      31.277  18.355  21.374  1.00  0.00     0.156 HD
ATOM     23  H   UNL A   1      32.503  17.221  21.723  1.00  0.00     0.156 HD
ENDBRANCH  16  21
ENDBRANCH  14  15
ENDBRANCH   9  14
ENDBRANCH   6   8
ENDBRANCH   5   6
ENDBRANCH   4   5
ENDBRANCH   3   4
ENDBRANCH   2   3
ENDBRANCH   1   2
BRANCH   1  24
ATOM     24  C   UNL A   1      34.445  32.433  28.503  1.00  0.00     0.188 C 
BRANCH  24  25
ATOM     25  O   UNL A   1      35.556  32.932  29.206  1.00  0.00    -0.376 OA
BRANCH  25  26
ATOM     26  C   UNL A   1      35.452  33.177  30.597  1.00  0.00     0.202 C 
BRANCH  26  27
ATOM     27  C   UNL A   1      35.572  32.103  31.698  1.00  0.00     0.261 C 
BRANCH  27  28
ATOM     28  O   UNL A   1      36.816  31.414  31.852  1.00  0.00    -0.460 OA
BRANCH  28  29
ATOM     29  C   UNL A   1      36.945  30.234  31.208  1.00  0.00     0.338 C 
ATOM     30  O   UNL A   1      36.054  29.426  30.967  1.00  0.00    -0.246 OA
BRANCH  29  31
ATOM     31  C   UNL A   1      38.311  30.166  30.655  1.00  0.00     0.060 A 
ATOM     32  C   UNL A   1      38.494  30.265  29.267  1.00  0.00     0.016 A 
ATOM     33  C   UNL A   1      39.408  30.013  31.505  1.00  0.00     0.016 A 
ATOM     34  C   UNL A   1      39.778  30.191  28.725  1.00  0.00     0.010 A 
ATOM     35  C   UNL A   1      40.690  29.914  30.957  1.00  0.00     0.010 A 
ATOM     36  C   UNL A   1      40.878  29.974  29.565  1.00  0.00    -0.014 A 
BRANCH  36  37
ATOM     37  C   UNL A   1      42.198  29.618  28.986  1.00  0.00     0.031 A 
ATOM     38  C   UNL A   1      42.408  28.208  28.506  1.00  0.00     0.074 A 
ATOM     39  C   UNL A   1      43.188  30.521  28.885  1.00  0.00     0.049 A 
ATOM     40  N   UNL A   1      43.487  27.641  28.033  1.00  0.00    -0.248 NA
ATOM     41  C   UNL A   1      41.237  27.317  28.574  1.00  0.00     0.031 C 
ATOM     42  C   UNL A   1      43.092  31.929  29.263  1.00  0.00     0.029 A 
ATOM     43  N   UNL A   1      44.478  30.380  28.437  1.00  0.00    -0.354 N 
ATOM     44  C   UNL A   1      43.129  26.327  27.751  1.00  0.00     0.074 A 
ATOM     45  C   UNL A   1      41.745  26.172  28.144  1.00  0.00     0.031 C 
ATOM     46  C   UNL A   1      44.277  32.522  29.036  1.00  0.00     0.029 A 
ATOM     47  C   UNL A   1      45.225  31.529  28.534  1.00  0.00     0.049 A 
ATOM     48  H   UNL A   1      44.834  29.533  28.080  1.00  0.00     0.167 HD
ATOM     49  C   UNL A   1      43.881  25.342  27.205  1.00  0.00     0.037 A 
ATOM     50  C   UNL A   1      46.529  31.744  28.265  1.00  0.00     0.037 A 
ATOM     51  C   UNL A   1      45.264  25.497  26.837  1.00  0.00     0.049 A 
ATOM     52  C   UNL A   1      47.379  30.605  27.760  1.00  0.00     0.074 A 
ATOM     53  C   UNL A   1      46.119  24.560  26.282  1.00  0.00     0.029 A 
ATOM     54  N   UNL A   1      46.002  26.661  26.999  1.00  0.00    -0.354 N 
ATOM     55  N   UNL A   1      47.030  29.368  27.489  1.00  0.00    -0.248 NA
ATOM     56  C   UNL A   1      48.802  30.891  27.526  1.00  0.00     0.031 C 
ATOM     57  C   UNL A   1      47.385  25.141  26.161  1.00  0.00     0.029 A 
ATOM     58  C   UNL A   1      47.307  26.460  26.580  1.00  0.00     0.049 A 
ATOM     59  H   UNL A   1      45.648  27.507  27.358  1.00  0.00     0.167 HD
ATOM     60  C   UNL A   1      48.180  28.741  27.018  1.00  0.00     0.074 A 
ATOM     61  C   UNL A   1      49.234  29.735  27.039  1.00  0.00     0.031 C 
ATOM     62  C   UNL A   1      48.347  27.460  26.600  1.00  0.00     0.037 A 
BRANCH  49  63
ATOM     63  C   UNL A   1      43.222  24.001  27.016  1.00  0.00     0.058 A 
ATOM     64  C   UNL A   1      42.751  23.578  25.762  1.00  0.00     0.135 A 
ATOM     65  C   UNL A   1      43.045  23.134  28.106  1.00  0.00     0.135 A 
ATOM     66  F   UNL A   1      42.879  24.374  24.688  1.00  0.00    -0.206 F 
ATOM     67  C   UNL A   1      42.082  22.368  25.606  1.00  0.00     0.059 A 
ATOM     68  C   UNL A   1      42.408  21.903  27.965  1.00  0.00     0.059 A 
ATOM     69  F   UNL A   1      43.476  23.485  29.328  1.00  0.00    -0.206 F 
ATOM     70  C   UNL A   1      41.909  21.541  26.717  1.00  0.00     0.060 A 
BRANCH  70  71
ATOM     71  S   UNL A   1      41.004  19.994  26.505  1.00  0.00     0.124 S 
ATOM     72  O   UNL A   1      41.010  19.466  27.866  1.00  0.00    -0.237 OA
ATOM     73  O   UNL A   1      39.710  20.453  26.009  1.00  0.00    -0.237 OA
ATOM     74  O   UNL A   1      41.815  19.254  25.544  1.00  0.00    -0.744 OA
ENDBRANCH  70  71
ENDBRANCH  49  63
BRANCH  50  75
ATOM     75  C   UNL A   1      47.114  33.099  28.458  1.00  0.00     0.058 A 
ATOM     76  C   UNL A   1      47.642  33.483  29.699  1.00  0.00     0.135 A 
ATOM     77  C   UNL A   1      47.164  34.033  27.411  1.00  0.00     0.135 A 
ATOM     78  F   UNL A   1      47.602  32.632  30.736  1.00  0.00    -0.206 F 
ATOM     79  C   UNL A   1      48.194  34.744  29.899  1.00  0.00     0.059 A 
ATOM     80  C   UNL A   1      47.735  35.290  27.579  1.00  0.00     0.059 A 
ATOM     81  F   UNL A   1      46.677  33.714  26.202  1.00  0.00    -0.206 F 
ATOM     82  C   UNL A   1      48.243  35.639  28.830  1.00  0.00     0.060 A 
BRANCH  82  83
ATOM     83  S   UNL A   1      49.019  37.250  29.087  1.00  0.00     0.124 S 
ATOM     84  O   UNL A   1      49.591  37.092  30.419  1.00  0.00    -0.237 OA
ATOM     85  O   UNL A   1      49.973  37.307  27.985  1.00  0.00    -0.237 OA
ATOM     86  O   UNL A   1      47.899  38.181  28.988  1.00  0.00    -0.744 OA
ENDBRANCH  82  83
ENDBRANCH  50  75
BRANCH  62  87
ATOM     87  C   UNL A   1      49.707  27.064  26.086  1.00  0.00     0.058 A 
ATOM     88  C   UNL A   1      50.685  26.506  26.923  1.00  0.00     0.135 A 
ATOM     89  C   UNL A   1      50.014  27.196  24.721  1.00  0.00     0.135 A 
ATOM     90  F   UNL A   1      50.449  26.363  28.237  1.00  0.00    -0.206 F 
ATOM     91  C   UNL A   1      51.928  26.114  26.430  1.00  0.00     0.059 A 
ATOM     92  C   UNL A   1      51.237  26.781  24.201  1.00  0.00     0.059 A 
ATOM     93  F   UNL A   1      49.111  27.713  23.871  1.00  0.00    -0.206 F 
ATOM     94  C   UNL A   1      52.193  26.253  25.066  1.00  0.00     0.060 A 
BRANCH  94  95
ATOM     95  S   UNL A   1      53.793  25.706  24.436  1.00  0.00     0.124 S 
ATOM     96  O   UNL A   1      53.636  25.922  23.002  1.00  0.00    -0.237 OA
ATOM     97  O   UNL A   1      54.720  26.607  25.115  1.00  0.00    -0.237 OA
ATOM     98  O   UNL A   1      53.866  24.310  24.856  1.00  0.00    -0.744 OA
ENDBRANCH  94  95
ENDBRANCH  62  87
ENDBRANCH  36  37
ENDBRANCH  29  31
ENDBRANCH  28  29
ENDBRANCH  27  28
ENDBRANCH  26  27
ENDBRANCH  25  26
ENDBRANCH  24  25
ENDBRANCH   1  24
TORSDOF 23
ENDMDL
MODEL 2
REMARK VINA RESULT:      -9.0      6.492     14.267
REMARK SMILES Nc1cccc(CC(=O)N2CC(C(=O)OCCOCCOCCOC(=O)c3ccc(-c4c5nc(c(-c6c(F)cc(S(=O)(=O)[O-])cc6F)c6ccc([nH]6)c(-c6c(F)cc(S(=O)(=O)[O-])cc6F)c6nc(c(-c7c(F)cc(S(=O)(=O)[O-])cc7F)c7ccc4[nH]7)C=C6)C=C5)cc3)C2)c1
REMARK SMILES IDX 19 1 18 2 17 3 16 4 15 5 13 6 14 7 12 8 8 9 9 10 10 11 11 12
REMARK SMILES IDX 93 13 7 14 6 15 2 16 3 17 94 18 4 19 5 20 1 21 20 24 21 25
REMARK SMILES IDX 22 26 23 27 24 28 25 29 26 30 27 31 28 32 92 33 29 34 91 35
REMARK SMILES IDX 30 36 31 37 32 38 85 39 33 40 90 41 84 42 86 43 34 44 89 45
REMARK SMILES IDX 83 46 82 47 35 49 69 50 48 51 68 52 49 53 52 54 67 55 87 56
REMARK SMILES IDX 50 57 51 58 66 60 88 61 53 62 36 63 37 64 46 65 38 66 39 67
REMARK SMILES IDX 45 68 47 69 40 70 41 71 42 72 43 73 44 74 70 75 71 76 80 77
REMARK SMILES IDX 72 78 73 79 79 80 81 81 74 82 75 83 76 84 77 85 78 86 54 87
REMARK SMILES IDX 55 88 64 89 56 90 57 91 63 92 65 93 58 94 59 95 60 96 61 97
REMARK SMILES IDX 62 98
REMARK H PARENT 1 22 1 23 86 48 52 59
REMARK Flexibility Score: inf
ROOT
ATOM      1  C   UNL A   1      45.480  39.570  26.115  1.00  0.00     0.188 C 
ENDROOT
BRANCH   1   2
ATOM      2  O   UNL A   1      44.736  40.600  25.479  1.00  0.00    -0.376 OA
BRANCH   2   3
ATOM      3  C   UNL A   1      44.482  41.813  26.181  1.00  0.00     0.202 C 
BRANCH   3   4
ATOM      4  C   UNL A   1      44.365  43.140  25.411  1.00  0.00     0.261 C 
BRANCH   4   5
ATOM      5  O   UNL A   1      44.351  42.989  23.978  1.00  0.00    -0.463 OA
BRANCH   5   6
ATOM      6  C   UNL A   1      43.141  42.705  23.411  1.00  0.00     0.312 C 
ATOM      7  O   UNL A   1      42.376  41.858  23.870  1.00  0.00    -0.252 OA
BRANCH   6   8
ATOM      8  C   UNL A   1      42.795  43.585  22.198  1.00  0.00     0.138 C 
ATOM      9  C   UNL A   1      41.681  44.216  19.149  1.00  0.00     0.227 C 
ATOM     10  O   UNL A   1      40.514  44.613  19.131  1.00  0.00    -0.275 OA
ATOM     11  N   UNL A   1      42.193  43.574  20.240  1.00  0.00    -0.341 N 
ATOM     12  C   UNL A   1      41.513  43.181  21.459  1.00  0.00     0.136 C 
ATOM     13  C   UNL A   1      43.514  43.479  20.831  1.00  0.00     0.136 C 
BRANCH   9  14
ATOM     14  C   UNL A   1      42.523  44.252  17.891  1.00  0.00     0.135 C 
BRANCH  14  15
ATOM     15  C   UNL A   1      43.205  45.543  17.520  1.00  0.00    -0.037 A 
ATOM     16  C   UNL A   1      43.222  47.988  17.615  1.00  0.00     0.032 A 
ATOM     17  C   UNL A   1      44.523  47.980  17.113  1.00  0.00     0.025 A 
ATOM     18  C   UNL A   1      42.588  46.765  17.843  1.00  0.00     0.029 A 
ATOM     19  C   UNL A   1      45.153  46.777  16.785  1.00  0.00     0.002 A 
ATOM     20  C   UNL A   1      44.496  45.561  16.982  1.00  0.00     0.004 A 
BRANCH  16  21
ATOM     21  N   UNL A   1      42.632  49.174  18.031  1.00  0.00    -0.399 N 
ATOM     22  H   UNL A   1      41.773  49.154  18.511  1.00  0.00     0.156 HD
ATOM     23  H   UNL A   1      43.073  50.034  17.844  1.00  0.00     0.156 HD
ENDBRANCH  16  21
ENDBRANCH  14  15
ENDBRANCH   9  14
ENDBRANCH   6   8
ENDBRANCH   5   6
ENDBRANCH   4   5
ENDBRANCH   3   4
ENDBRANCH   2   3
ENDBRANCH   1   2
BRANCH   1  24
ATOM     24  C   UNL A   1      46.961  39.823  26.454  1.00  0.00     0.188 C 
BRANCH  24  25
ATOM     25  O   UNL A   1      47.555  38.875  27.307  1.00  0.00    -0.376 OA
BRANCH  25  26
ATOM     26  C   UNL A   1      48.861  38.403  27.029  1.00  0.00     0.202 C 
BRANCH  26  27
ATOM     27  C   UNL A   1      49.331  36.943  27.202  1.00  0.00     0.261 C 
BRANCH  27  28
ATOM     28  O   UNL A   1      49.546  36.445  28.525  1.00  0.00    -0.460 OA
BRANCH  28  29
ATOM     29  C   UNL A   1      48.468  36.380  29.337  1.00  0.00     0.338 C 
ATOM     30  O   UNL A   1      48.021  37.280  30.039  1.00  0.00    -0.246 OA
BRANCH  29  31
ATOM     31  C   UNL A   1      47.785  35.098  29.081  1.00  0.00     0.060 A 
ATOM     32  C   UNL A   1      47.735  34.133  30.099  1.00  0.00     0.016 A 
ATOM     33  C   UNL A   1      47.189  34.852  27.843  1.00  0.00     0.016 A 
ATOM     34  C   UNL A   1      47.104  32.909  29.871  1.00  0.00     0.010 A 
ATOM     35  C   UNL A   1      46.579  33.616  27.609  1.00  0.00     0.010 A 
ATOM     36  C   UNL A   1      46.558  32.630  28.611  1.00  0.00    -0.014 A 
BRANCH  36  37
ATOM     37  C   UNL A   1      46.138  31.247  28.272  1.00  0.00     0.031 A 
ATOM     38  C   UNL A   1      44.697  30.869  28.482  1.00  0.00     0.074 A 
ATOM     39  C   UNL A   1      47.010  30.346  27.788  1.00  0.00     0.049 A 
ATOM     40  N   UNL A   1      44.109  29.712  28.330  1.00  0.00    -0.248 NA
ATOM     41  C   UNL A   1      43.801  31.948  28.928  1.00  0.00     0.031 C 
ATOM     42  C   UNL A   1      48.417  30.604  27.491  1.00  0.00     0.029 A 
ATOM     43  N   UNL A   1      46.835  29.022  27.470  1.00  0.00    -0.354 N 
ATOM     44  C   UNL A   1      42.775  29.920  28.665  1.00  0.00     0.074 A 
ATOM     45  C   UNL A   1      42.652  31.304  29.067  1.00  0.00     0.031 C 
ATOM     46  C   UNL A   1      48.980  29.471  27.036  1.00  0.00     0.029 A 
ATOM     47  C   UNL A   1      47.985  28.399  27.048  1.00  0.00     0.049 A 
ATOM     48  H   UNL A   1      45.966  28.562  27.537  1.00  0.00     0.167 HD
ATOM     49  C   UNL A   1      41.745  29.040  28.632  1.00  0.00     0.037 A 
ATOM     50  C   UNL A   1      48.208  27.108  26.728  1.00  0.00     0.037 A 
ATOM     51  C   UNL A   1      41.880  27.659  28.251  1.00  0.00     0.049 A 
ATOM     52  C   UNL A   1      47.071  26.120  26.802  1.00  0.00     0.074 A 
ATOM     53  C   UNL A   1      40.901  26.682  28.190  1.00  0.00     0.029 A 
ATOM     54  N   UNL A   1      43.072  27.051  27.881  1.00  0.00    -0.354 N 
ATOM     55  N   UNL A   1      45.813  26.327  27.113  1.00  0.00    -0.248 NA
ATOM     56  C   UNL A   1      47.386  24.720  26.483  1.00  0.00     0.031 C 
ATOM     57  C   UNL A   1      41.510  25.474  27.836  1.00  0.00     0.029 A 
ATOM     58  C   UNL A   1      42.859  25.708  27.615  1.00  0.00     0.049 A 
ATOM     59  H   UNL A   1      43.941  27.508  27.816  1.00  0.00     0.167 HD
ATOM     60  C   UNL A   1      45.180  25.093  26.991  1.00  0.00     0.074 A 
ATOM     61  C   UNL A   1      46.194  24.146  26.575  1.00  0.00     0.031 C 
ATOM     62  C   UNL A   1      43.877  24.775  27.196  1.00  0.00     0.037 A 
BRANCH  49  63
ATOM     63  C   UNL A   1      40.395  29.551  29.058  1.00  0.00     0.058 A 
ATOM     64  C   UNL A   1      40.101  29.831  30.403  1.00  0.00     0.135 A 
ATOM     65  C   UNL A   1      39.376  29.749  28.113  1.00  0.00     0.135 A 
ATOM     66  F   UNL A   1      41.032  29.644  31.353  1.00  0.00    -0.206 F 
ATOM     67  C   UNL A   1      38.831  30.237  30.802  1.00  0.00     0.059 A 
ATOM     68  C   UNL A   1      38.108  30.188  28.485  1.00  0.00     0.059 A 
ATOM     69  F   UNL A   1      39.599  29.498  26.814  1.00  0.00    -0.206 F 
ATOM     70  C   UNL A   1      37.838  30.406  29.835  1.00  0.00     0.060 A 
BRANCH  70  71
ATOM     71  S   UNL A   1      36.186  30.894  30.372  1.00  0.00     0.124 S 
ATOM     72  O   UNL A   1      36.354  32.333  30.555  1.00  0.00    -0.237 OA
ATOM     73  O   UNL A   1      35.357  30.491  29.241  1.00  0.00    -0.237 OA
ATOM     74  O   UNL A   1      35.987  30.127  31.597  1.00  0.00    -0.744 OA
ENDBRANCH  70  71
ENDBRANCH  49  63
BRANCH  50  75
ATOM     75  C   UNL A   1      49.565  26.672  26.298  1.00  0.00     0.058 A 
ATOM     76  C   UNL A   1      50.466  26.117  27.218  1.00  0.00     0.135 A 
ATOM     77  C   UNL A   1      49.987  26.795  24.965  1.00  0.00     0.135 A 
ATOM     78  F   UNL A   1      50.116  25.995  28.508  1.00  0.00    -0.206 F 
ATOM     79  C   UNL A   1      51.738  25.704  26.835  1.00  0.00     0.059 A 
ATOM     80  C   UNL A   1      51.243  26.364  24.552  1.00  0.00     0.059 A 
ATOM     81  F   UNL A   1      49.161  27.316  24.044  1.00  0.00    -0.206 F 
ATOM     82  C   UNL A   1      52.115  25.824  25.497  1.00  0.00     0.060 A 
BRANCH  82  83
ATOM     83  S   UNL A   1      53.746  25.225  25.003  1.00  0.00     0.124 S 
ATOM     84  O   UNL A   1      54.581  25.705  26.097  1.00  0.00    -0.237 OA
ATOM     85  O   UNL A   1      53.535  23.782  24.946  1.00  0.00    -0.237 OA
ATOM     86  O   UNL A   1      53.964  25.872  23.712  1.00  0.00    -0.744 OA
ENDBRANCH  82  83
ENDBRANCH  50  75
BRANCH  62  87
ATOM     87  C   UNL A   1      43.454  23.352  26.934  1.00  0.00     0.058 A 
ATOM     88  C   UNL A   1      43.328  22.841  25.634  1.00  0.00     0.135 A 
ATOM     89  C   UNL A   1      43.226  22.473  28.006  1.00  0.00     0.135 A 
ATOM     90  F   UNL A   1      43.527  23.638  24.572  1.00  0.00    -0.206 F 
ATOM     91  C   UNL A   1      42.967  21.515  25.404  1.00  0.00     0.059 A 
ATOM     92  C   UNL A   1      42.896  21.136  27.800  1.00  0.00     0.059 A 
ATOM     93  F   UNL A   1      43.344  22.904  29.273  1.00  0.00    -0.206 F 
ATOM     94  C   UNL A   1      42.757  20.669  26.495  1.00  0.00     0.060 A 
BRANCH  94  95
ATOM     95  S   UNL A   1      42.327  18.944  26.182  1.00  0.00     0.124 S 
ATOM     96  O   UNL A   1      40.921  19.053  25.812  1.00  0.00    -0.237 OA
ATOM     97  O   UNL A   1      43.241  18.587  25.101  1.00  0.00    -0.237 OA
ATOM     98  O   UNL A   1      42.591  18.290  27.460  1.00  0.00    -0.744 OA
ENDBRANCH  94  95
ENDBRANCH  62  87
ENDBRANCH  36  37
ENDBRANCH  29  31
ENDBRANCH  28  29
ENDBRANCH  27  28
ENDBRANCH  26  27
ENDBRANCH  25  26
ENDBRANCH  24  25
ENDBRANCH   1  24
TORSDOF 23
ENDMDL
MODEL 3
REMARK VINA RESULT:      -9.0      5.616     10.623
REMARK SMILES Nc1cccc(CC(=O)N2CC(C(=O)OCCOCCOCCOC(=O)c3ccc(-c4c5nc(c(-c6c(F)cc(S(=O)(=O)[O-])cc6F)c6ccc([nH]6)c(-c6c(F)cc(S(=O)(=O)[O-])cc6F)c6nc(c(-c7c(F)cc(S(=O)(=O)[O-])cc7F)c7ccc4[nH]7)C=C6)C=C5)cc3)C2)c1
REMARK SMILES IDX 19 1 18 2 17 3 16 4 15 5 13 6 14 7 12 8 8 9 9 10 10 11 11 12
REMARK SMILES IDX 93 13 7 14 6 15 2 16 3 17 94 18 4 19 5 20 1 21 20 24 21 25
REMARK SMILES IDX 22 26 23 27 24 28 25 29 26 30 27 31 28 32 92 33 29 34 91 35
REMARK SMILES IDX 30 36 31 37 32 38 85 39 33 40 90 41 84 42 86 43 34 44 89 45
REMARK SMILES IDX 83 46 82 47 35 49 69 50 48 51 68 52 49 53 52 54 67 55 87 56
REMARK SMILES IDX 50 57 51 58 66 60 88 61 53 62 36 63 37 64 46 65 38 66 39 67
REMARK SMILES IDX 45 68 47 69 40 70 41 71 42 72 43 73 44 74 70 75 71 76 80 77
REMARK SMILES IDX 72 78 73 79 79 80 81 81 74 82 75 83 76 84 77 85 78 86 54 87
REMARK SMILES IDX 55 88 64 89 56 90 57 91 63 92 65 93 58 94 59 95 60 96 61 97
REMARK SMILES IDX 62 98
REMARK H PARENT 1 22 1 23 86 48 52 59
REMARK Flexibility Score: inf
ROOT
ATOM      1  C   UNL A   1      34.800  23.037  24.537  1.00  0.00     0.188 C 
ENDROOT
BRANCH   1   2
ATOM      2  O   UNL A   1      34.557  22.205  25.664  1.00  0.00    -0.376 OA
BRANCH   2   3
ATOM      3  C   UNL A   1      33.954  22.763  26.827  1.00  0.00     0.202 C 
BRANCH   3   4
ATOM      4  C   UNL A   1      32.422  22.817  26.952  1.00  0.00     0.261 C 
BRANCH   4   5
ATOM      5  O   UNL A   1      31.903  24.126  27.260  1.00  0.00    -0.463 OA
BRANCH   5   6
ATOM      6  C   UNL A   1      30.766  24.497  26.600  1.00  0.00     0.312 C 
ATOM      7  O   UNL A   1      29.639  24.215  27.009  1.00  0.00    -0.252 OA
BRANCH   6   8
ATOM      8  C   UNL A   1      31.018  25.355  25.349  1.00  0.00     0.138 C 
ATOM      9  C   UNL A   1      30.944  28.102  23.510  1.00  0.00     0.227 C 
ATOM     10  O   UNL A   1      32.004  28.731  23.534  1.00  0.00    -0.275 OA
ATOM     11  N   UNL A   1      30.656  27.164  24.461  1.00  0.00    -0.341 N 
ATOM     12  C   UNL A   1      31.424  26.806  25.637  1.00  0.00     0.136 C 
ATOM     13  C   UNL A   1      29.884  25.937  24.469  1.00  0.00     0.136 C 
BRANCH   9  14
ATOM     14  C   UNL A   1      29.844  28.488  22.543  1.00  0.00     0.135 C 
BRANCH  14  15
ATOM     15  C   UNL A   1      29.380  29.921  22.518  1.00  0.00    -0.037 A 
ATOM     16  C   UNL A   1      28.334  31.747  21.268  1.00  0.00     0.032 A 
ATOM     17  C   UNL A   1      28.247  32.481  22.451  1.00  0.00     0.025 A 
ATOM     18  C   UNL A   1      28.872  30.459  21.322  1.00  0.00     0.029 A 
ATOM     19  C   UNL A   1      28.747  31.965  23.649  1.00  0.00     0.002 A 
ATOM     20  C   UNL A   1      29.317  30.691  23.684  1.00  0.00     0.004 A 
BRANCH  16  21
ATOM     21  N   UNL A   1      27.752  32.217  20.099  1.00  0.00    -0.399 N 
ATOM     22  H   UNL A   1      28.319  32.559  19.370  1.00  0.00     0.156 HD
ATOM     23  H   UNL A   1      26.773  32.210  20.000  1.00  0.00     0.156 HD
ENDBRANCH  16  21
ENDBRANCH  14  15
ENDBRANCH   9  14
ENDBRANCH   6   8
ENDBRANCH   5   6
ENDBRANCH   4   5
ENDBRANCH   3   4
ENDBRANCH   2   3
ENDBRANCH   1   2
BRANCH   1  24
ATOM     24  C   UNL A   1      36.249  23.449  24.215  1.00  0.00     0.188 C 
BRANCH  24  25
ATOM     25  O   UNL A   1      37.098  22.401  23.815  1.00  0.00    -0.376 OA
BRANCH  25  26
ATOM     26  C   UNL A   1      37.484  21.414  24.756  1.00  0.00     0.202 C 
BRANCH  26  27
ATOM     27  C   UNL A   1      38.166  21.700  26.110  1.00  0.00     0.261 C 
BRANCH  27  28
ATOM     28  O   UNL A   1      39.395  22.433  26.118  1.00  0.00    -0.460 OA
BRANCH  28  29
ATOM     29  C   UNL A   1      40.502  21.767  26.512  1.00  0.00     0.338 C 
ATOM     30  O   UNL A   1      40.829  20.629  26.192  1.00  0.00    -0.246 OA
BRANCH  29  31
ATOM     31  C   UNL A   1      41.368  22.715  27.238  1.00  0.00     0.060 A 
ATOM     32  C   UNL A   1      42.739  22.443  27.351  1.00  0.00     0.016 A 
ATOM     33  C   UNL A   1      40.827  23.874  27.798  1.00  0.00     0.016 A 
ATOM     34  C   UNL A   1      43.571  23.322  28.045  1.00  0.00     0.010 A 
ATOM     35  C   UNL A   1      41.658  24.741  28.514  1.00  0.00     0.010 A 
ATOM     36  C   UNL A   1      43.027  24.456  28.664  1.00  0.00    -0.014 A 
BRANCH  36  37
ATOM     37  C   UNL A   1      43.839  25.241  29.627  1.00  0.00     0.031 A 
ATOM     38  C   UNL A   1      44.191  26.660  29.272  1.00  0.00     0.074 A 
ATOM     39  C   UNL A   1      44.256  24.711  30.790  1.00  0.00     0.049 A 
ATOM     40  N   UNL A   1      44.945  27.515  29.910  1.00  0.00    -0.248 NA
ATOM     41  C   UNL A   1      43.613  27.178  28.021  1.00  0.00     0.031 C 
ATOM     42  C   UNL A   1      43.938  23.370  31.272  1.00  0.00     0.029 A 
ATOM     43  N   UNL A   1      45.049  25.245  31.775  1.00  0.00    -0.354 N 
ATOM     44  C   UNL A   1      44.936  28.673  29.140  1.00  0.00     0.074 A 
ATOM     45  C   UNL A   1      44.136  28.394  27.967  1.00  0.00     0.031 C 
ATOM     46  C   UNL A   1      44.535  23.182  32.463  1.00  0.00     0.029 A 
ATOM     47  C   UNL A   1      45.309  24.374  32.807  1.00  0.00     0.049 A 
ATOM     48  H   UNL A   1      45.400  26.165  31.745  1.00  0.00     0.167 HD
ATOM     49  C   UNL A   1      45.533  29.863  29.390  1.00  0.00     0.037 A 
ATOM     50  C   UNL A   1      46.096  24.521  33.892  1.00  0.00     0.037 A 
ATOM     51  C   UNL A   1      46.346  30.127  30.549  1.00  0.00     0.049 A 
ATOM     52  C   UNL A   1      46.839  25.817  34.098  1.00  0.00     0.074 A 
ATOM     53  C   UNL A   1      47.000  31.297  30.894  1.00  0.00     0.029 A 
ATOM     54  N   UNL A   1      46.628  29.203  31.545  1.00  0.00    -0.354 N 
ATOM     55  N   UNL A   1      46.820  26.908  33.368  1.00  0.00    -0.248 NA
ATOM     56  C   UNL A   1      47.715  25.900  35.276  1.00  0.00     0.031 C 
ATOM     57  C   UNL A   1      47.722  31.062  32.069  1.00  0.00     0.029 A 
ATOM     58  C   UNL A   1      47.468  29.767  32.492  1.00  0.00     0.049 A 
ATOM     59  H   UNL A   1      46.281  28.283  31.575  1.00  0.00     0.167 HD
ATOM     60  C   UNL A   1      47.648  27.818  34.017  1.00  0.00     0.074 A 
ATOM     61  C   UNL A   1      48.152  27.150  35.201  1.00  0.00     0.031 C 
ATOM     62  C   UNL A   1      47.959  29.093  33.670  1.00  0.00     0.037 A 
BRANCH  49  63
ATOM     63  C   UNL A   1      45.352  30.949  28.363  1.00  0.00     0.058 A 
ATOM     64  C   UNL A   1      44.273  31.848  28.418  1.00  0.00     0.135 A 
ATOM     65  C   UNL A   1      46.261  31.085  27.302  1.00  0.00     0.135 A 
ATOM     66  F   UNL A   1      43.363  31.753  29.401  1.00  0.00    -0.206 F 
ATOM     67  C   UNL A   1      44.073  32.805  27.429  1.00  0.00     0.059 A 
ATOM     68  C   UNL A   1      46.099  32.059  26.320  1.00  0.00     0.059 A 
ATOM     69  F   UNL A   1      47.312  30.256  27.199  1.00  0.00    -0.206 F 
ATOM     70  C   UNL A   1      44.988  32.898  26.379  1.00  0.00     0.060 A 
BRANCH  70  71
ATOM     71  S   UNL A   1      44.692  34.119  25.084  1.00  0.00     0.124 S 
ATOM     72  O   UNL A   1      43.629  34.923  25.680  1.00  0.00    -0.237 OA
ATOM     73  O   UNL A   1      45.991  34.774  24.967  1.00  0.00    -0.237 OA
ATOM     74  O   UNL A   1      44.296  33.309  23.936  1.00  0.00    -0.744 OA
ENDBRANCH  70  71
ENDBRANCH  49  63
BRANCH  50  75
ATOM     75  C   UNL A   1      46.217  23.412  34.878  1.00  0.00     0.058 A 
ATOM     76  C   UNL A   1      45.181  23.140  35.782  1.00  0.00     0.135 A 
ATOM     77  C   UNL A   1      47.362  22.601  34.934  1.00  0.00     0.135 A 
ATOM     78  F   UNL A   1      44.074  23.898  35.781  1.00  0.00    -0.206 F 
ATOM     79  C   UNL A   1      45.275  22.108  36.711  1.00  0.00     0.059 A 
ATOM     80  C   UNL A   1      47.468  21.546  35.835  1.00  0.00     0.059 A 
ATOM     81  F   UNL A   1      48.381  22.817  34.087  1.00  0.00    -0.206 F 
ATOM     82  C   UNL A   1      46.420  21.312  36.724  1.00  0.00     0.060 A 
BRANCH  82  83
ATOM     83  S   UNL A   1      46.502  19.936  37.892  1.00  0.00     0.124 S 
ATOM     84  O   UNL A   1      45.437  19.069  37.401  1.00  0.00    -0.237 OA
ATOM     85  O   UNL A   1      47.863  19.450  37.694  1.00  0.00    -0.237 OA
ATOM     86  O   UNL A   1      46.251  20.574  39.181  1.00  0.00    -0.744 OA
ENDBRANCH  82  83
ENDBRANCH  50  75
BRANCH  62  87
ATOM     87  C   UNL A   1      48.852  29.874  34.600  1.00  0.00     0.058 A 
ATOM     88  C   UNL A   1      48.339  30.616  35.675  1.00  0.00     0.135 A 
ATOM     89  C   UNL A   1      50.247  29.832  34.443  1.00  0.00     0.135 A 
ATOM     90  F   UNL A   1      47.013  30.697  35.869  1.00  0.00    -0.206 F 
ATOM     91  C   UNL A   1      49.176  31.308  36.547  1.00  0.00     0.059 A 
ATOM     92  C   UNL A   1      51.104  30.489  35.321  1.00  0.00     0.059 A 
ATOM     93  F   UNL A   1      50.794  29.127  33.439  1.00  0.00    -0.206 F 
ATOM     94  C   UNL A   1      50.558  31.235  36.363  1.00  0.00     0.060 A 
BRANCH  94  95
ATOM     95  S   UNL A   1      51.632  32.107  37.523  1.00  0.00     0.124 S 
ATOM     96  O   UNL A   1      50.720  32.369  38.631  1.00  0.00    -0.237 OA
ATOM     97  O   UNL A   1      52.677  31.121  37.782  1.00  0.00    -0.237 OA
ATOM     98  O   UNL A   1      52.062  33.283  36.772  1.00  0.00    -0.744 OA
ENDBRANCH  94  95
ENDBRANCH  62  87
ENDBRANCH  36  37
ENDBRANCH  29  31
ENDBRANCH  28  29
ENDBRANCH  27  28
ENDBRANCH  26  27
ENDBRANCH  25  26
ENDBRANCH  24  25
ENDBRANCH   1  24
TORSDOF 23
ENDMDL
