MODEL 1
REMARK VINA RESULT:     -10.2      0.000      0.000
REMARK SMILES Cc1nn(C)c(=O)c(C(=O)N2CC[C@@H](C(=O)OCCOCCOCCOC(=O)c3ccc(-c4c5nc(c(-c6c(F)cc(S(=O)(=O)[O-])cc6F)c6ccc([nH]6)c(-c6c(F)cc(S(=O)(=O)[O-])cc6F)c6nc(c(-c7c(F)cc(S(=O)(=O)[O-])cc7F)c7ccc4[nH]7)C=C6)C=C5)cc3)[C@@H]2C)c1C
REMARK SMILES IDX 22 1 21 2 20 3 19 4 18 5 17 6 15 7 16 8 14 9 11 10 12 11
REMARK SMILES IDX 95 12 13 13 96 14 9 15 10 16 8 17 1 18 2 19 3 20 97 21 4 22
REMARK SMILES IDX 98 23 5 24 6 25 7 26 23 27 24 28 25 29 26 30 27 31 28 32
REMARK SMILES IDX 29 33 30 34 94 35 31 36 93 37 32 38 33 39 34 40 87 41 35 42
REMARK SMILES IDX 92 43 86 44 88 45 36 46 91 47 85 48 84 49 37 51 71 52 50 53
REMARK SMILES IDX 70 54 51 55 54 56 69 57 89 58 52 59 53 60 68 62 90 63 55 64
REMARK SMILES IDX 38 65 39 66 48 67 40 68 41 69 47 70 49 71 42 72 43 73 44 74
REMARK SMILES IDX 45 75 46 76 72 77 73 78 82 79 74 80 75 81 81 82 83 83 76 84
REMARK SMILES IDX 77 85 78 86 79 87 80 88 56 89 57 90 66 91 58 92 59 93 65 94
REMARK SMILES IDX 67 95 60 96 61 97 62 98 63 99 64 100
REMARK H PARENT 88 50 54 61
REMARK Flexibility Score: inf
ROOT
ATOM      1  C   UNL A   1      33.419  31.192  27.389  1.00  0.00     0.188 C 
ENDROOT
BRANCH   1   2
ATOM      2  C   UNL A   1      33.128  29.691  27.270  1.00  0.00     0.188 C 
BRANCH   2   3
ATOM      3  O   UNL A   1      33.775  28.958  26.243  1.00  0.00    -0.376 OA
BRANCH   3   4
ATOM      4  C   UNL A   1      33.943  27.555  26.407  1.00  0.00     0.202 C 
BRANCH   4   5
ATOM      5  C   UNL A   1      33.002  26.582  25.674  1.00  0.00     0.261 C 
BRANCH   5   6
ATOM      6  O   UNL A   1      31.650  27.066  25.472  1.00  0.00    -0.463 OA
BRANCH   6   7
ATOM      7  C   UNL A   1      31.363  27.545  24.239  1.00  0.00     0.311 C 
ATOM      8  O   UNL A   1      31.313  28.743  23.977  1.00  0.00    -0.252 OA
BRANCH   7   9
ATOM      9  C   UNL A   1      31.102  26.502  23.153  1.00  0.00     0.123 C 
ATOM     10  N   UNL A   1      31.934  24.267  22.908  1.00  0.00    -0.335 N 
ATOM     11  C   UNL A   1      30.511  24.142  23.141  1.00  0.00     0.121 C 
ATOM     12  C   UNL A   1      32.236  25.651  22.516  1.00  0.00     0.096 C 
ATOM     13  C   UNL A   1      30.138  25.469  23.762  1.00  0.00     0.039 C 
ATOM     14  C   UNL A   1      32.163  25.753  20.978  1.00  0.00     0.032 C 
BRANCH  10  15
ATOM     15  C   UNL A   1      32.726  23.137  22.996  1.00  0.00     0.260 C 
ATOM     16  O   UNL A   1      32.589  22.222  22.178  1.00  0.00    -0.269 OA
BRANCH  15  17
ATOM     17  C   UNL A   1      33.665  22.913  24.145  1.00  0.00     0.111 A 
ATOM     18  C   UNL A   1      33.909  21.787  27.746  1.00  0.00     0.069 C 
ATOM     19  C   UNL A   1      34.294  22.024  26.302  1.00  0.00     0.062 A 
ATOM     20  N   UNL A   1      35.531  21.815  25.995  1.00  0.00    -0.175 NA
ATOM     21  C   UNL A   1      33.238  22.425  25.328  1.00  0.00    -0.010 A 
ATOM     22  N   UNL A   1      35.921  22.124  24.723  1.00  0.00    -0.232 N 
ATOM     23  C   UNL A   1      31.836  22.095  25.733  1.00  0.00     0.047 C 
ATOM     24  C   UNL A   1      37.282  21.744  24.385  1.00  0.00     0.178 C 
ATOM     25  C   UNL A   1      35.136  22.860  23.836  1.00  0.00     0.279 A 
ATOM     26  O   UNL A   1      35.598  23.396  22.831  1.00  0.00    -0.267 OA
ENDBRANCH  15  17
ENDBRANCH  10  15
ENDBRANCH   7   9
ENDBRANCH   6   7
ENDBRANCH   5   6
ENDBRANCH   4   5
ENDBRANCH   3   4
ENDBRANCH   2   3
ENDBRANCH   1   2
BRANCH   1  27
ATOM     27  O   UNL A   1      34.393  31.592  28.318  1.00  0.00    -0.376 OA
BRANCH  27  28
ATOM     28  C   UNL A   1      34.388  32.903  28.857  1.00  0.00     0.202 C 
BRANCH  28  29
ATOM     29  C   UNL A   1      35.135  33.369  30.125  1.00  0.00     0.261 C 
BRANCH  29  30
ATOM     30  O   UNL A   1      36.477  32.928  30.331  1.00  0.00    -0.460 OA
BRANCH  30  31
ATOM     31  C   UNL A   1      36.640  31.797  31.062  1.00  0.00     0.338 C 
ATOM     32  O   UNL A   1      35.827  31.288  31.816  1.00  0.00    -0.246 OA
BRANCH  31  33
ATOM     33  C   UNL A   1      37.866  31.139  30.557  1.00  0.00     0.060 A 
ATOM     34  C   UNL A   1      38.795  30.642  31.485  1.00  0.00     0.016 A 
ATOM     35  C   UNL A   1      38.060  30.949  29.189  1.00  0.00     0.016 A 
ATOM     36  C   UNL A   1      39.919  29.947  31.044  1.00  0.00     0.010 A 
ATOM     37  C   UNL A   1      39.207  30.287  28.747  1.00  0.00     0.010 A 
ATOM     38  C   UNL A   1      40.151  29.800  29.671  1.00  0.00    -0.014 A 
BRANCH  38  39
ATOM     39  C   UNL A   1      41.477  29.341  29.197  1.00  0.00     0.031 A 
ATOM     40  C   UNL A   1      42.593  30.347  29.159  1.00  0.00     0.074 A 
ATOM     41  C   UNL A   1      41.696  28.063  28.836  1.00  0.00     0.049 A 
ATOM     42  N   UNL A   1      43.814  30.214  28.715  1.00  0.00    -0.248 NA
ATOM     43  C   UNL A   1      42.287  31.684  29.697  1.00  0.00     0.031 C 
ATOM     44  C   UNL A   1      40.713  26.985  28.896  1.00  0.00     0.029 A 
ATOM     45  N   UNL A   1      42.827  27.461  28.341  1.00  0.00    -0.354 N 
ATOM     46  C   UNL A   1      44.421  31.448  28.916  1.00  0.00     0.074 A 
ATOM     47  C   UNL A   1      43.426  32.326  29.490  1.00  0.00     0.031 C 
ATOM     48  C   UNL A   1      41.282  25.850  28.448  1.00  0.00     0.029 A 
ATOM     49  C   UNL A   1      42.656  26.133  28.031  1.00  0.00     0.049 A 
ATOM     50  H   UNL A   1      43.680  27.937  28.219  1.00  0.00     0.167 HD
ATOM     51  C   UNL A   1      45.697  31.813  28.655  1.00  0.00     0.037 A 
ATOM     52  C   UNL A   1      43.506  25.256  27.456  1.00  0.00     0.037 A 
ATOM     53  C   UNL A   1      46.680  30.935  28.080  1.00  0.00     0.049 A 
ATOM     54  C   UNL A   1      44.894  25.714  27.078  1.00  0.00     0.074 A 
ATOM     55  C   UNL A   1      47.998  31.212  27.766  1.00  0.00     0.029 A 
ATOM     56  N   UNL A   1      46.453  29.612  27.729  1.00  0.00    -0.354 N 
ATOM     57  N   UNL A   1      45.455  26.887  27.260  1.00  0.00    -0.248 NA
ATOM     58  C   UNL A   1      45.762  24.733  26.409  1.00  0.00     0.031 C 
ATOM     59  C   UNL A   1      48.553  30.073  27.175  1.00  0.00     0.029 A 
ATOM     60  C   UNL A   1      47.600  29.066  27.180  1.00  0.00     0.049 A 
ATOM     61  H   UNL A   1      45.602  29.132  27.854  1.00  0.00     0.167 HD
ATOM     62  C   UNL A   1      46.749  26.774  26.759  1.00  0.00     0.074 A 
ATOM     63  C   UNL A   1      46.890  25.417  26.271  1.00  0.00     0.031 C 
ATOM     64  C   UNL A   1      47.731  27.708  26.710  1.00  0.00     0.037 A 
BRANCH  51  65
ATOM     65  C   UNL A   1      46.098  33.225  28.970  1.00  0.00     0.058 A 
ATOM     66  C   UNL A   1      46.657  33.575  30.208  1.00  0.00     0.135 A 
ATOM     67  C   UNL A   1      45.962  34.235  28.003  1.00  0.00     0.135 A 
ATOM     68  F   UNL A   1      46.784  32.655  31.178  1.00  0.00    -0.206 F 
ATOM     69  C   UNL A   1      47.054  34.879  30.485  1.00  0.00     0.059 A 
ATOM     70  C   UNL A   1      46.381  35.540  28.246  1.00  0.00     0.059 A 
ATOM     71  F   UNL A   1      45.426  33.956  26.805  1.00  0.00    -0.206 F 
ATOM     72  C   UNL A   1      46.917  35.853  29.494  1.00  0.00     0.060 A 
BRANCH  72  73
ATOM     73  S   UNL A   1      47.458  37.535  29.864  1.00  0.00     0.124 S 
ATOM     74  O   UNL A   1      48.630  37.660  29.004  1.00  0.00    -0.237 OA
ATOM     75  O   UNL A   1      46.296  38.325  29.474  1.00  0.00    -0.237 OA
ATOM     76  O   UNL A   1      47.736  37.496  31.297  1.00  0.00    -0.744 OA
ENDBRANCH  72  73
ENDBRANCH  51  65
BRANCH  52  77
ATOM     77  C   UNL A   1      43.070  23.856  27.199  1.00  0.00     0.058 A 
ATOM     78  C   UNL A   1      42.624  23.459  25.929  1.00  0.00     0.135 A 
ATOM     79  C   UNL A   1      43.099  22.884  28.211  1.00  0.00     0.135 A 
ATOM     80  F   UNL A   1      42.561  24.354  24.932  1.00  0.00    -0.206 F 
ATOM     81  C   UNL A   1      42.219  22.152  25.673  1.00  0.00     0.059 A 
ATOM     82  C   UNL A   1      42.725  21.564  27.972  1.00  0.00     0.059 A 
ATOM     83  F   UNL A   1      43.519  23.208  29.444  1.00  0.00    -0.206 F 
ATOM     84  C   UNL A   1      42.281  21.209  26.699  1.00  0.00     0.060 A 
BRANCH  84  85
ATOM     85  S   UNL A   1      41.812  19.504  26.335  1.00  0.00     0.124 S 
ATOM     86  O   UNL A   1      40.362  19.613  26.223  1.00  0.00    -0.237 OA
ATOM     87  O   UNL A   1      42.531  19.252  25.091  1.00  0.00    -0.237 OA
ATOM     88  O   UNL A   1      42.300  18.764  27.495  1.00  0.00    -0.744 OA
ENDBRANCH  84  85
ENDBRANCH  52  77
BRANCH  64  89
ATOM     89  C   UNL A   1      49.066  27.305  26.143  1.00  0.00     0.058 A 
ATOM     90  C   UNL A   1      49.333  27.368  24.767  1.00  0.00     0.135 A 
ATOM     91  C   UNL A   1      50.123  26.953  27.001  1.00  0.00     0.135 A 
ATOM     92  F   UNL A   1      48.360  27.695  23.904  1.00  0.00    -0.206 F 
ATOM     93  C   UNL A   1      50.598  27.088  24.260  1.00  0.00     0.059 A 
ATOM     94  C   UNL A   1      51.403  26.697  26.518  1.00  0.00     0.059 A 
ATOM     95  F   UNL A   1      49.924  26.891  28.327  1.00  0.00    -0.206 F 
ATOM     96  C   UNL A   1      51.630  26.763  25.144  1.00  0.00     0.060 A 
BRANCH  96  97
ATOM     97  S   UNL A   1      53.278  26.461  24.472  1.00  0.00     0.124 S 
ATOM     98  O   UNL A   1      53.968  27.701  24.815  1.00  0.00    -0.237 OA
ATOM     99  O   UNL A   1      53.700  25.275  25.210  1.00  0.00    -0.237 OA
ATOM    100  O   UNL A   1      53.034  26.253  23.048  1.00  0.00    -0.744 OA
ENDBRANCH  96  97
ENDBRANCH  64  89
ENDBRANCH  38  39
ENDBRANCH  31  33
ENDBRANCH  30  31
ENDBRANCH  29  30
ENDBRANCH  28  29
ENDBRANCH  27  28
ENDBRANCH   1  27
TORSDOF 22
ENDMDL
MODEL 2
REMARK VINA RESULT:     -10.2      1.288      8.228
REMARK SMILES Cc1nn(C)c(=O)c(C(=O)N2CC[C@@H](C(=O)OCCOCCOCCOC(=O)c3ccc(-c4c5nc(c(-c6c(F)cc(S(=O)(=O)[O-])cc6F)c6ccc([nH]6)c(-c6c(F)cc(S(=O)(=O)[O-])cc6F)c6nc(c(-c7c(F)cc(S(=O)(=O)[O-])cc7F)c7ccc4[nH]7)C=C6)C=C5)cc3)[C@@H]2C)c1C
REMARK SMILES IDX 22 1 21 2 20 3 19 4 18 5 17 6 15 7 16 8 14 9 11 10 12 11
REMARK SMILES IDX 95 12 13 13 96 14 9 15 10 16 8 17 1 18 2 19 3 20 97 21 4 22
REMARK SMILES IDX 98 23 5 24 6 25 7 26 23 27 24 28 25 29 26 30 27 31 28 32
REMARK SMILES IDX 29 33 30 34 94 35 31 36 93 37 32 38 33 39 34 40 87 41 35 42
REMARK SMILES IDX 92 43 86 44 88 45 36 46 91 47 85 48 84 49 37 51 71 52 50 53
REMARK SMILES IDX 70 54 51 55 54 56 69 57 89 58 52 59 53 60 68 62 90 63 55 64
REMARK SMILES IDX 38 65 39 66 48 67 40 68 41 69 47 70 49 71 42 72 43 73 44 74
REMARK SMILES IDX 45 75 46 76 72 77 73 78 82 79 74 80 75 81 81 82 83 83 76 84
REMARK SMILES IDX 77 85 78 86 79 87 80 88 56 89 57 90 66 91 58 92 59 93 65 94
REMARK SMILES IDX 67 95 60 96 61 97 62 98 63 99 64 100
REMARK H PARENT 88 50 54 61
REMARK Flexibility Score: inf
ROOT
ATOM      1  C   UNL A   1      34.264  33.850  29.563  1.00  0.00     0.188 C 
ENDROOT
BRANCH   1   2
ATOM      2  C   UNL A   1      33.627  33.380  28.250  1.00  0.00     0.188 C 
BRANCH   2   3
ATOM      3  O   UNL A   1      34.313  32.408  27.478  1.00  0.00    -0.376 OA
BRANCH   3   4
ATOM      4  C   UNL A   1      33.889  31.052  27.552  1.00  0.00     0.202 C 
BRANCH   4   5
ATOM      5  C   UNL A   1      32.592  30.618  26.845  1.00  0.00     0.261 C 
BRANCH   5   6
ATOM      6  O   UNL A   1      32.775  29.980  25.557  1.00  0.00    -0.463 OA
BRANCH   6   7
ATOM      7  C   UNL A   1      32.794  28.626  25.557  1.00  0.00     0.311 C 
ATOM      8  O   UNL A   1      33.802  27.967  25.799  1.00  0.00    -0.252 OA
BRANCH   7   9
ATOM      9  C   UNL A   1      31.471  27.932  25.239  1.00  0.00     0.123 C 
ATOM     10  N   UNL A   1      31.024  25.698  24.491  1.00  0.00    -0.335 N 
ATOM     11  C   UNL A   1      30.465  25.794  25.823  1.00  0.00     0.121 C 
ATOM     12  C   UNL A   1      31.267  27.052  23.973  1.00  0.00     0.096 C 
ATOM     13  C   UNL A   1      31.178  26.988  26.417  1.00  0.00     0.039 C 
ATOM     14  C   UNL A   1      30.009  27.520  23.211  1.00  0.00     0.032 C 
BRANCH  10  15
ATOM     15  C   UNL A   1      31.155  24.450  23.911  1.00  0.00     0.260 C 
ATOM     16  O   UNL A   1      30.227  23.975  23.250  1.00  0.00    -0.269 OA
BRANCH  15  17
ATOM     17  C   UNL A   1      32.346  23.575  24.172  1.00  0.00     0.111 A 
ATOM     18  C   UNL A   1      35.983  22.992  23.315  1.00  0.00     0.069 C 
ATOM     19  C   UNL A   1      34.699  23.026  24.115  1.00  0.00     0.062 A 
ATOM     20  N   UNL A   1      34.706  22.391  25.241  1.00  0.00    -0.175 NA
ATOM     21  C   UNL A   1      33.544  23.814  23.597  1.00  0.00    -0.010 A 
ATOM     22  N   UNL A   1      33.527  22.321  25.926  1.00  0.00    -0.232 N 
ATOM     23  C   UNL A   1      33.890  24.879  22.605  1.00  0.00     0.047 C 
ATOM     24  C   UNL A   1      33.615  21.719  27.246  1.00  0.00     0.178 C 
ATOM     25  C   UNL A   1      32.296  22.677  25.377  1.00  0.00     0.279 A 
ATOM     26  O   UNL A   1      31.225  22.327  25.869  1.00  0.00    -0.267 OA
ENDBRANCH  15  17
ENDBRANCH  10  15
ENDBRANCH   7   9
ENDBRANCH   6   7
ENDBRANCH   5   6
ENDBRANCH   4   5
ENDBRANCH   3   4
ENDBRANCH   2   3
ENDBRANCH   1   2
BRANCH   1  27
ATOM     27  O   UNL A   1      34.434  32.896  30.579  1.00  0.00    -0.376 OA
BRANCH  27  28
ATOM     28  C   UNL A   1      35.666  32.212  30.735  1.00  0.00     0.202 C 
BRANCH  28  29
ATOM     29  C   UNL A   1      35.990  31.152  31.809  1.00  0.00     0.261 C 
BRANCH  29  30
ATOM     30  O   UNL A   1      36.476  29.877  31.390  1.00  0.00    -0.460 OA
BRANCH  30  31
ATOM     31  C   UNL A   1      37.351  29.256  32.221  1.00  0.00     0.338 C 
ATOM     32  O   UNL A   1      37.078  28.606  33.216  1.00  0.00    -0.246 OA
BRANCH  31  33
ATOM     33  C   UNL A   1      38.663  29.264  31.538  1.00  0.00     0.060 A 
ATOM     34  C   UNL A   1      38.699  29.459  30.148  1.00  0.00     0.016 A 
ATOM     35  C   UNL A   1      39.847  29.155  32.269  1.00  0.00     0.016 A 
ATOM     36  C   UNL A   1      39.921  29.551  29.486  1.00  0.00     0.010 A 
ATOM     37  C   UNL A   1      41.071  29.209  31.598  1.00  0.00     0.010 A 
ATOM     38  C   UNL A   1      41.113  29.388  30.203  1.00  0.00    -0.014 A 
BRANCH  38  39
ATOM     39  C   UNL A   1      42.385  29.181  29.472  1.00  0.00     0.031 A 
ATOM     40  C   UNL A   1      42.643  27.818  28.890  1.00  0.00     0.074 A 
ATOM     41  C   UNL A   1      43.275  30.175  29.304  1.00  0.00     0.049 A 
ATOM     42  N   UNL A   1      43.704  27.366  28.279  1.00  0.00    -0.248 NA
ATOM     43  C   UNL A   1      41.552  26.836  29.016  1.00  0.00     0.031 C 
ATOM     44  C   UNL A   1      43.104  31.552  29.761  1.00  0.00     0.029 A 
ATOM     45  N   UNL A   1      44.508  30.171  28.699  1.00  0.00    -0.354 N 
ATOM     46  C   UNL A   1      43.413  26.047  27.950  1.00  0.00     0.074 A 
ATOM     47  C   UNL A   1      42.089  25.762  28.458  1.00  0.00     0.031 C 
ATOM     48  C   UNL A   1      44.198  32.261  29.426  1.00  0.00     0.029 A 
ATOM     49  C   UNL A   1      45.162  31.378  28.768  1.00  0.00     0.049 A 
ATOM     50  H   UNL A   1      44.889  29.377  28.259  1.00  0.00     0.167 HD
ATOM     51  C   UNL A   1      44.176  25.158  27.275  1.00  0.00     0.037 A 
ATOM     52  C   UNL A   1      46.404  31.721  28.366  1.00  0.00     0.037 A 
ATOM     53  C   UNL A   1      45.493  25.448  26.777  1.00  0.00     0.049 A 
ATOM     54  C   UNL A   1      47.279  30.682  27.707  1.00  0.00     0.074 A 
ATOM     55  C   UNL A   1      46.353  24.610  26.090  1.00  0.00     0.029 A 
ATOM     56  N   UNL A   1      46.143  26.666  26.914  1.00  0.00    -0.354 N 
ATOM     57  N   UNL A   1      46.999  29.434  27.412  1.00  0.00    -0.248 NA
ATOM     58  C   UNL A   1      48.640  31.094  27.332  1.00  0.00     0.031 C 
ATOM     59  C   UNL A   1      47.544  25.305  25.860  1.00  0.00     0.029 A 
ATOM     60  C   UNL A   1      47.402  26.595  26.346  1.00  0.00     0.049 A 
ATOM     61  H   UNL A   1      45.763  27.463  27.351  1.00  0.00     0.167 HD
ATOM     62  C   UNL A   1      48.135  28.924  26.789  1.00  0.00     0.074 A 
ATOM     63  C   UNL A   1      49.104  29.999  26.746  1.00  0.00     0.031 C 
ATOM     64  C   UNL A   1      48.354  27.679  26.297  1.00  0.00     0.037 A 
BRANCH  51  65
ATOM     65  C   UNL A   1      43.615  23.782  27.055  1.00  0.00     0.058 A 
ATOM     66  C   UNL A   1      43.535  22.844  28.095  1.00  0.00     0.135 A 
ATOM     67  C   UNL A   1      43.110  23.412  25.798  1.00  0.00     0.135 A 
ATOM     68  F   UNL A   1      44.027  23.136  29.310  1.00  0.00    -0.206 F 
ATOM     69  C   UNL A   1      42.987  21.581  27.894  1.00  0.00     0.059 A 
ATOM     70  C   UNL A   1      42.530  22.166  25.582  1.00  0.00     0.059 A 
ATOM     71  F   UNL A   1      43.170  24.269  24.767  1.00  0.00    -0.206 F 
ATOM     72  C   UNL A   1      42.482  21.254  26.635  1.00  0.00     0.060 A 
BRANCH  72  73
ATOM     73  S   UNL A   1      41.756  19.619  26.400  1.00  0.00     0.124 S 
ATOM     74  O   UNL A   1      40.332  19.935  26.355  1.00  0.00    -0.237 OA
ATOM     75  O   UNL A   1      42.353  19.196  25.138  1.00  0.00    -0.237 OA
ATOM     76  O   UNL A   1      42.194  18.879  27.579  1.00  0.00    -0.744 OA
ENDBRANCH  72  73
ENDBRANCH  51  65
BRANCH  52  77
ATOM     77  C   UNL A   1      46.898  33.110  28.576  1.00  0.00     0.058 A 
ATOM     78  C   UNL A   1      47.511  33.484  29.781  1.00  0.00     0.135 A 
ATOM     79  C   UNL A   1      46.778  34.088  27.576  1.00  0.00     0.135 A 
ATOM     80  F   UNL A   1      47.635  32.592  30.775  1.00  0.00    -0.206 F 
ATOM     81  C   UNL A   1      47.983  34.777  29.990  1.00  0.00     0.059 A 
ATOM     82  C   UNL A   1      47.268  35.380  27.751  1.00  0.00     0.059 A 
ATOM     83  F   UNL A   1      46.203  33.783  26.403  1.00  0.00    -0.206 F 
ATOM     84  C   UNL A   1      47.865  35.716  28.965  1.00  0.00     0.060 A 
BRANCH  84  85
ATOM     85  S   UNL A   1      48.538  37.370  29.227  1.00  0.00     0.124 S 
ATOM     86  O   UNL A   1      47.737  38.166  28.304  1.00  0.00    -0.237 OA
ATOM     87  O   UNL A   1      48.276  37.582  30.647  1.00  0.00    -0.237 OA
ATOM     88  O   UNL A   1      49.946  37.222  28.872  1.00  0.00    -0.744 OA
ENDBRANCH  84  85
ENDBRANCH  52  77
BRANCH  64  89
ATOM     89  C   UNL A   1      49.676  27.401  25.633  1.00  0.00     0.058 A 
ATOM     90  C   UNL A   1      49.845  27.520  24.245  1.00  0.00     0.135 A 
ATOM     91  C   UNL A   1      50.812  27.115  26.410  1.00  0.00     0.135 A 
ATOM     92  F   UNL A   1      48.793  27.787  23.457  1.00  0.00    -0.206 F 
ATOM     93  C   UNL A   1      51.092  27.356  23.650  1.00  0.00     0.059 A 
ATOM     94  C   UNL A   1      52.074  26.977  25.838  1.00  0.00     0.059 A 
ATOM     95  F   UNL A   1      50.708  27.004  27.744  1.00  0.00    -0.206 F 
ATOM     96  C   UNL A   1      52.203  27.095  24.456  1.00  0.00     0.060 A 
BRANCH  96  97
ATOM     97  S   UNL A   1      53.822  26.946  23.670  1.00  0.00     0.124 S 
ATOM     98  O   UNL A   1      54.651  26.501  24.786  1.00  0.00    -0.237 OA
ATOM     99  O   UNL A   1      53.570  25.953  22.631  1.00  0.00    -0.237 OA
ATOM    100  O   UNL A   1      54.093  28.296  23.188  1.00  0.00    -0.744 OA
ENDBRANCH  96  97
ENDBRANCH  64  89
ENDBRANCH  38  39
ENDBRANCH  31  33
ENDBRANCH  30  31
ENDBRANCH  29  30
ENDBRANCH  28  29
ENDBRANCH  27  28
ENDBRANCH   1  27
TORSDOF 22
ENDMDL
MODEL 3
REMARK VINA RESULT:      -9.5      7.221     13.985
REMARK SMILES Cc1nn(C)c(=O)c(C(=O)N2CC[C@@H](C(=O)OCCOCCOCCOC(=O)c3ccc(-c4c5nc(c(-c6c(F)cc(S(=O)(=O)[O-])cc6F)c6ccc([nH]6)c(-c6c(F)cc(S(=O)(=O)[O-])cc6F)c6nc(c(-c7c(F)cc(S(=O)(=O)[O-])cc7F)c7ccc4[nH]7)C=C6)C=C5)cc3)[C@@H]2C)c1C
REMARK SMILES IDX 22 1 21 2 20 3 19 4 18 5 17 6 15 7 16 8 14 9 11 10 12 11
REMARK SMILES IDX 95 12 13 13 96 14 9 15 10 16 8 17 1 18 2 19 3 20 97 21 4 22
REMARK SMILES IDX 98 23 5 24 6 25 7 26 23 27 24 28 25 29 26 30 27 31 28 32
REMARK SMILES IDX 29 33 30 34 94 35 31 36 93 37 32 38 33 39 34 40 87 41 35 42
REMARK SMILES IDX 92 43 86 44 88 45 36 46 91 47 85 48 84 49 37 51 71 52 50 53
REMARK SMILES IDX 70 54 51 55 54 56 69 57 89 58 52 59 53 60 68 62 90 63 55 64
REMARK SMILES IDX 38 65 39 66 48 67 40 68 41 69 47 70 49 71 42 72 43 73 44 74
REMARK SMILES IDX 45 75 46 76 72 77 73 78 82 79 74 80 75 81 81 82 83 83 76 84
REMARK SMILES IDX 77 85 78 86 79 87 80 88 56 89 57 90 66 91 58 92 59 93 65 94
REMARK SMILES IDX 67 95 60 96 61 97 62 98 63 99 64 100
REMARK H PARENT 88 50 54 61
REMARK Flexibility Score: inf
ROOT
ATOM      1  C   UNL A   1      46.070  23.766  25.160  1.00  0.00     0.188 C 
ENDROOT
BRANCH   1   2
ATOM      2  C   UNL A   1      46.514  24.270  26.538  1.00  0.00     0.188 C 
BRANCH   2   3
ATOM      3  O   UNL A   1      45.924  25.455  27.046  1.00  0.00    -0.376 OA
BRANCH   3   4
ATOM      4  C   UNL A   1      46.166  25.813  28.401  1.00  0.00     0.202 C 
BRANCH   4   5
ATOM      5  C   UNL A   1      45.046  25.652  29.444  1.00  0.00     0.261 C 
BRANCH   5   6
ATOM      6  O   UNL A   1      45.454  25.059  30.702  1.00  0.00    -0.463 OA
BRANCH   6   7
ATOM      7  C   UNL A   1      44.546  24.258  31.310  1.00  0.00     0.311 C 
ATOM      8  O   UNL A   1      43.790  23.512  30.696  1.00  0.00    -0.252 OA
BRANCH   7   9
ATOM      9  C   UNL A   1      44.506  24.320  32.836  1.00  0.00     0.123 C 
ATOM     10  N   UNL A   1      45.434  22.842  34.479  1.00  0.00    -0.335 N 
ATOM     11  C   UNL A   1      46.154  24.091  34.611  1.00  0.00     0.121 C 
ATOM     12  C   UNL A   1      44.199  23.078  33.718  1.00  0.00     0.096 C 
ATOM     13  C   UNL A   1      45.900  24.784  33.292  1.00  0.00     0.039 C 
ATOM     14  C   UNL A   1      43.066  23.412  34.712  1.00  0.00     0.032 C 
BRANCH  10  15
ATOM     15  C   UNL A   1      45.929  21.717  35.112  1.00  0.00     0.260 C 
ATOM     16  O   UNL A   1      45.290  20.660  35.082  1.00  0.00    -0.269 OA
BRANCH  15  17
ATOM     17  C   UNL A   1      47.162  21.763  35.965  1.00  0.00     0.111 A 
ATOM     18  C   UNL A   1      48.460  22.325  39.472  1.00  0.00     0.069 C 
ATOM     19  C   UNL A   1      48.359  21.778  38.065  1.00  0.00     0.062 A 
ATOM     20  N   UNL A   1      49.376  21.109  37.634  1.00  0.00    -0.175 NA
ATOM     21  C   UNL A   1      47.100  21.993  37.294  1.00  0.00    -0.010 A 
ATOM     22  N   UNL A   1      49.349  20.700  36.331  1.00  0.00    -0.232 N 
ATOM     23  C   UNL A   1      45.889  22.294  38.117  1.00  0.00     0.047 C 
ATOM     24  C   UNL A   1      50.448  19.836  35.932  1.00  0.00     0.178 C 
ATOM     25  C   UNL A   1      48.418  21.159  35.400  1.00  0.00     0.279 A 
ATOM     26  O   UNL A   1      48.580  21.038  34.187  1.00  0.00    -0.267 OA
ENDBRANCH  15  17
ENDBRANCH  10  15
ENDBRANCH   7   9
ENDBRANCH   6   7
ENDBRANCH   5   6
ENDBRANCH   4   5
ENDBRANCH   3   4
ENDBRANCH   2   3
ENDBRANCH   1   2
BRANCH   1  27
ATOM     27  O   UNL A   1      45.165  22.693  25.123  1.00  0.00    -0.376 OA
BRANCH  27  28
ATOM     28  C   UNL A   1      43.821  22.888  24.719  1.00  0.00     0.202 C 
BRANCH  28  29
ATOM     29  C   UNL A   1      42.662  23.373  25.616  1.00  0.00     0.261 C 
BRANCH  29  30
ATOM     30  O   UNL A   1      42.896  24.460  26.511  1.00  0.00    -0.460 OA
BRANCH  30  31
ATOM     31  C   UNL A   1      42.625  25.704  26.043  1.00  0.00     0.338 C 
ATOM     32  O   UNL A   1      42.497  26.034  24.876  1.00  0.00    -0.246 OA
BRANCH  31  33
ATOM     33  C   UNL A   1      42.227  26.520  27.211  1.00  0.00     0.060 A 
ATOM     34  C   UNL A   1      42.827  27.776  27.392  1.00  0.00     0.016 A 
ATOM     35  C   UNL A   1      41.221  26.085  28.074  1.00  0.00     0.016 A 
ATOM     36  C   UNL A   1      42.418  28.603  28.435  1.00  0.00     0.010 A 
ATOM     37  C   UNL A   1      40.840  26.898  29.144  1.00  0.00     0.010 A 
ATOM     38  C   UNL A   1      41.449  28.152  29.340  1.00  0.00    -0.014 A 
BRANCH  38  39
ATOM     39  C   UNL A   1      41.233  28.885  30.609  1.00  0.00     0.031 A 
ATOM     40  C   UNL A   1      40.112  29.885  30.657  1.00  0.00     0.074 A 
ATOM     41  C   UNL A   1      41.989  28.654  31.698  1.00  0.00     0.049 A 
ATOM     42  N   UNL A   1      39.770  30.703  31.615  1.00  0.00    -0.248 NA
ATOM     43  C   UNL A   1      39.261  29.971  29.456  1.00  0.00     0.031 C 
ATOM     44  C   UNL A   1      43.056  27.662  31.794  1.00  0.00     0.029 A 
ATOM     45  N   UNL A   1      41.969  29.248  32.936  1.00  0.00    -0.354 N 
ATOM     46  C   UNL A   1      38.669  31.403  31.136  1.00  0.00     0.074 A 
ATOM     47  C   UNL A   1      38.420  30.938  29.790  1.00  0.00     0.031 C 
ATOM     48  C   UNL A   1      43.596  27.720  33.025  1.00  0.00     0.029 A 
ATOM     49  C   UNL A   1      42.940  28.781  33.789  1.00  0.00     0.049 A 
ATOM     50  H   UNL A   1      41.321  29.945  33.187  1.00  0.00     0.167 HD
ATOM     51  C   UNL A   1      37.926  32.340  31.767  1.00  0.00     0.037 A 
ATOM     52  C   UNL A   1      43.272  29.182  35.034  1.00  0.00     0.037 A 
ATOM     53  C   UNL A   1      38.184  32.800  33.104  1.00  0.00     0.049 A 
ATOM     54  C   UNL A   1      42.494  30.303  35.680  1.00  0.00     0.074 A 
ATOM     55  C   UNL A   1      37.495  33.756  33.830  1.00  0.00     0.029 A 
ATOM     56  N   UNL A   1      39.210  32.341  33.917  1.00  0.00    -0.354 N 
ATOM     57  N   UNL A   1      41.463  30.968  35.214  1.00  0.00    -0.248 NA
ATOM     58  C   UNL A   1      42.928  30.734  37.017  1.00  0.00     0.031 C 
ATOM     59  C   UNL A   1      38.138  33.914  35.061  1.00  0.00     0.029 A 
ATOM     60  C   UNL A   1      39.188  33.012  35.128  1.00  0.00     0.049 A 
ATOM     61  H   UNL A   1      39.857  31.642  33.670  1.00  0.00     0.167 HD
ATOM     62  C   UNL A   1      41.106  31.871  36.212  1.00  0.00     0.074 A 
ATOM     63  C   UNL A   1      42.029  31.664  37.309  1.00  0.00     0.031 C 
ATOM     64  C   UNL A   1      40.105  32.786  36.219  1.00  0.00     0.037 A 
BRANCH  51  65
ATOM     65  C   UNL A   1      36.779  32.947  31.011  1.00  0.00     0.058 A 
ATOM     66  C   UNL A   1      35.449  32.588  31.277  1.00  0.00     0.135 A 
ATOM     67  C   UNL A   1      37.009  33.932  30.037  1.00  0.00     0.135 A 
ATOM     68  F   UNL A   1      35.173  31.632  32.179  1.00  0.00    -0.206 F 
ATOM     69  C   UNL A   1      34.388  33.174  30.595  1.00  0.00     0.059 A 
ATOM     70  C   UNL A   1      35.962  34.554  29.365  1.00  0.00     0.059 A 
ATOM     71  F   UNL A   1      38.264  34.306  29.738  1.00  0.00    -0.206 F 
ATOM     72  C   UNL A   1      34.655  34.160  29.645  1.00  0.00     0.060 A 
BRANCH  72  73
ATOM     73  S   UNL A   1      33.263  34.923  28.786  1.00  0.00     0.124 S 
ATOM     74  O   UNL A   1      32.376  35.249  29.899  1.00  0.00    -0.237 OA
ATOM     75  O   UNL A   1      33.895  36.059  28.124  1.00  0.00    -0.237 OA
ATOM     76  O   UNL A   1      32.789  33.866  27.898  1.00  0.00    -0.744 OA
ENDBRANCH  72  73
ENDBRANCH  51  65
BRANCH  52  77
ATOM     77  C   UNL A   1      44.396  28.523  35.755  1.00  0.00     0.058 A 
ATOM     78  C   UNL A   1      44.157  27.500  36.685  1.00  0.00     0.135 A 
ATOM     79  C   UNL A   1      45.730  28.892  35.522  1.00  0.00     0.135 A 
ATOM     80  F   UNL A   1      42.899  27.122  36.957  1.00  0.00    -0.206 F 
ATOM     81  C   UNL A   1      45.198  26.871  37.363  1.00  0.00     0.059 A 
ATOM     82  C   UNL A   1      46.790  28.258  36.167  1.00  0.00     0.059 A 
ATOM     83  F   UNL A   1      46.016  29.862  34.640  1.00  0.00    -0.206 F 
ATOM     84  C   UNL A   1      46.512  27.251  37.090  1.00  0.00     0.060 A 
BRANCH  84  85
ATOM     85  S   UNL A   1      47.854  26.383  37.929  1.00  0.00     0.124 S 
ATOM     86  O   UNL A   1      48.875  27.422  38.008  1.00  0.00    -0.237 OA
ATOM     87  O   UNL A   1      47.228  26.006  39.192  1.00  0.00    -0.237 OA
ATOM     88  O   UNL A   1      48.153  25.273  37.029  1.00  0.00    -0.744 OA
ENDBRANCH  84  85
ENDBRANCH  52  77
BRANCH  64  89
ATOM     89  C   UNL A   1      39.915  33.621  37.457  1.00  0.00     0.058 A 
ATOM     90  C   UNL A   1      40.522  34.877  37.601  1.00  0.00     0.135 A 
ATOM     91  C   UNL A   1      39.030  33.201  38.465  1.00  0.00     0.135 A 
ATOM     92  F   UNL A   1      41.379  35.324  36.670  1.00  0.00    -0.206 F 
ATOM     93  C   UNL A   1      40.265  35.685  38.704  1.00  0.00     0.059 A 
ATOM     94  C   UNL A   1      38.735  34.006  39.563  1.00  0.00     0.059 A 
ATOM     95  F   UNL A   1      38.412  32.013  38.371  1.00  0.00    -0.206 F 
ATOM     96  C   UNL A   1      39.362  35.245  39.675  1.00  0.00     0.060 A 
BRANCH  96  97
ATOM     97  S   UNL A   1      38.997  36.333  41.069  1.00  0.00     0.124 S 
ATOM     98  O   UNL A   1      37.805  35.705  41.629  1.00  0.00    -0.237 OA
ATOM     99  O   UNL A   1      40.209  36.225  41.872  1.00  0.00    -0.237 OA
ATOM    100  O   UNL A   1      38.781  37.633  40.440  1.00  0.00    -0.744 OA
ENDBRANCH  96  97
ENDBRANCH  64  89
ENDBRANCH  38  39
ENDBRANCH  31  33
ENDBRANCH  30  31
ENDBRANCH  29  30
ENDBRANCH  28  29
ENDBRANCH  27  28
ENDBRANCH   1  27
TORSDOF 22
ENDMDL
