MODEL 1
REMARK VINA RESULT:     -11.0      0.000      0.000
REMARK SMILES Cc1c(C)c2c(c(C)c1O)CC[C@@](C)(C(=O)OCCOCCOCCOC(=O)c1ccc(-c3c4nc(c(-c5c(F)cc(S(=O)(=O)[O-])cc5F)c5ccc([nH]5)c(-c5c(F)cc(S(=O)(=O)[O-])cc5F)c5nc(c(-c6c(F)cc(S(=O)(=O)[O-])cc6F)c6ccc3[nH]6)C=C5)C=C4)cc1)O2
REMARK SMILES IDX 22 1 21 2 20 3 19 4 18 5 17 6 15 7 16 8 13 9 1 10 2 11 3 12
REMARK SMILES IDX 9 13 4 14 5 15 7 16 6 17 95 18 8 19 11 20 12 21 14 22 10 23
REMARK SMILES IDX 23 25 24 26 25 27 26 28 27 29 28 30 29 31 30 32 94 33 31 34
REMARK SMILES IDX 93 35 32 36 33 37 34 38 87 39 35 40 92 41 86 42 88 43 36 44
REMARK SMILES IDX 91 45 85 46 84 47 37 49 71 50 50 51 70 52 51 53 54 54 69 55
REMARK SMILES IDX 89 56 52 57 53 58 68 60 90 61 55 62 38 63 39 64 48 65 40 66
REMARK SMILES IDX 41 67 47 68 49 69 42 70 43 71 44 72 45 73 46 74 72 75 73 76
REMARK SMILES IDX 82 77 74 78 75 79 81 80 83 81 76 82 77 83 78 84 79 85 80 86
REMARK SMILES IDX 56 87 57 88 66 89 58 90 59 91 65 92 67 93 60 94 61 95 62 96
REMARK SMILES IDX 63 97 64 98
REMARK H PARENT 10 24 88 48 54 59
REMARK Flexibility Score: inf
ROOT
ATOM      1  C   UNL A   1      38.074  21.275  25.381  1.00  0.00     0.188 C 
ENDROOT
BRANCH   1   2
ATOM      2  C   UNL A   1      36.964  20.448  24.720  1.00  0.00     0.188 C 
BRANCH   2   3
ATOM      3  O   UNL A   1      35.686  20.400  25.343  1.00  0.00    -0.376 OA
BRANCH   3   4
ATOM      4  C   UNL A   1      35.033  21.608  25.707  1.00  0.00     0.202 C 
BRANCH   4   5
ATOM      5  C   UNL A   1      33.755  21.546  26.561  1.00  0.00     0.261 C 
BRANCH   5   6
ATOM      6  O   UNL A   1      33.024  22.778  26.769  1.00  0.00    -0.460 OA
BRANCH   6   7
ATOM      7  C   UNL A   1      32.136  23.106  25.783  1.00  0.00     0.350 C 
ATOM      8  O   UNL A   1      31.095  22.481  25.594  1.00  0.00    -0.247 OA
BRANCH   7   9
ATOM      9  C   UNL A   1      32.579  24.278  24.867  1.00  0.00     0.203 C 
ATOM     10  C   UNL A   1      28.966  28.714  22.621  1.00  0.00     0.049 C 
ATOM     11  C   UNL A   1      30.279  28.136  23.094  1.00  0.00    -0.002 A 
ATOM     12  C   UNL A   1      30.273  26.948  23.867  1.00  0.00    -0.002 A 
ATOM     13  C   UNL A   1      31.521  28.684  22.720  1.00  0.00     0.122 A 
ATOM     14  C   UNL A   1      28.965  26.336  24.320  1.00  0.00     0.049 C 
ATOM     15  C   UNL A   1      31.496  26.326  24.196  1.00  0.00     0.127 A 
ATOM     16  C   UNL A   1      32.742  28.113  23.129  1.00  0.00    -0.002 A 
ATOM     17  C   UNL A   1      32.728  26.920  23.884  1.00  0.00     0.001 A 
ATOM     18  O   UNL A   1      31.404  25.112  24.826  1.00  0.00    -0.475 OA
ATOM     19  C   UNL A   1      34.054  28.771  22.778  1.00  0.00     0.049 C 
ATOM     20  C   UNL A   1      34.017  26.263  24.317  1.00  0.00     0.044 C 
ATOM     21  C   UNL A   1      33.765  25.135  25.315  1.00  0.00     0.065 C 
ATOM     22  C   UNL A   1      32.830  23.624  23.497  1.00  0.00     0.069 C 
BRANCH  13  23
ATOM     23  O   UNL A   1      31.613  29.802  21.930  1.00  0.00    -0.507 OA
ATOM     24  H   UNL A   1      31.066  29.887  21.175  1.00  0.00     0.293 HD
ENDBRANCH  13  23
ENDBRANCH   7   9
ENDBRANCH   6   7
ENDBRANCH   5   6
ENDBRANCH   4   5
ENDBRANCH   3   4
ENDBRANCH   2   3
ENDBRANCH   1   2
BRANCH   1  25
ATOM     25  O   UNL A   1      39.228  20.536  25.717  1.00  0.00    -0.376 OA
BRANCH  25  26
ATOM     26  C   UNL A   1      40.203  21.161  26.525  1.00  0.00     0.202 C 
BRANCH  26  27
ATOM     27  C   UNL A   1      39.941  22.630  26.882  1.00  0.00     0.261 C 
BRANCH  27  28
ATOM     28  O   UNL A   1      40.985  23.297  27.610  1.00  0.00    -0.460 OA
BRANCH  28  29
ATOM     29  C   UNL A   1      41.538  24.392  27.037  1.00  0.00     0.338 C 
ATOM     30  O   UNL A   1      42.016  24.463  25.916  1.00  0.00    -0.246 OA
BRANCH  29  31
ATOM     31  C   UNL A   1      41.233  25.550  27.910  1.00  0.00     0.060 A 
ATOM     32  C   UNL A   1      42.124  26.633  27.945  1.00  0.00     0.016 A 
ATOM     33  C   UNL A   1      40.051  25.591  28.655  1.00  0.00     0.016 A 
ATOM     34  C   UNL A   1      41.843  27.752  28.733  1.00  0.00     0.010 A 
ATOM     35  C   UNL A   1      39.787  26.698  29.467  1.00  0.00     0.010 A 
ATOM     36  C   UNL A   1      40.692  27.773  29.530  1.00  0.00    -0.014 A 
BRANCH  36  37
ATOM     37  C   UNL A   1      40.538  28.800  30.592  1.00  0.00     0.031 A 
ATOM     38  C   UNL A   1      41.436  28.707  31.797  1.00  0.00     0.074 A 
ATOM     39  C   UNL A   1      39.635  29.794  30.502  1.00  0.00     0.049 A 
ATOM     40  N   UNL A   1      41.435  29.417  32.894  1.00  0.00    -0.248 NA
ATOM     41  C   UNL A   1      42.477  27.666  31.754  1.00  0.00     0.031 C 
ATOM     42  C   UNL A   1      38.750  30.037  29.366  1.00  0.00     0.029 A 
ATOM     43  N   UNL A   1      39.312  30.784  31.399  1.00  0.00    -0.354 N 
ATOM     44  C   UNL A   1      42.470  28.912  33.671  1.00  0.00     0.074 A 
ATOM     45  C   UNL A   1      43.056  27.812  32.937  1.00  0.00     0.031 C 
ATOM     46  C   UNL A   1      37.972  31.101  29.640  1.00  0.00     0.029 A 
ATOM     47  C   UNL A   1      38.278  31.591  30.985  1.00  0.00     0.049 A 
ATOM     48  H   UNL A   1      39.777  30.905  32.258  1.00  0.00     0.167 HD
ATOM     49  C   UNL A   1      42.903  29.331  34.884  1.00  0.00     0.037 A 
ATOM     50  C   UNL A   1      37.639  32.592  31.627  1.00  0.00     0.037 A 
ATOM     51  C   UNL A   1      42.313  30.419  35.618  1.00  0.00     0.049 A 
ATOM     52  C   UNL A   1      38.068  32.973  33.025  1.00  0.00     0.074 A 
ATOM     53  C   UNL A   1      42.678  30.913  36.858  1.00  0.00     0.029 A 
ATOM     54  N   UNL A   1      41.235  31.176  35.187  1.00  0.00    -0.354 N 
ATOM     55  N   UNL A   1      39.045  32.487  33.752  1.00  0.00    -0.248 NA
ATOM     56  C   UNL A   1      37.303  34.039  33.689  1.00  0.00     0.031 C 
ATOM     57  C   UNL A   1      41.789  31.935  37.200  1.00  0.00     0.029 A 
ATOM     58  C   UNL A   1      40.905  32.118  36.148  1.00  0.00     0.049 A 
ATOM     59  H   UNL A   1      40.772  31.061  34.326  1.00  0.00     0.167 HD
ATOM     60  C   UNL A   1      39.029  33.204  34.945  1.00  0.00     0.074 A 
ATOM     61  C   UNL A   1      37.954  34.166  34.839  1.00  0.00     0.031 C 
ATOM     62  C   UNL A   1      39.835  33.078  36.031  1.00  0.00     0.037 A 
BRANCH  49  63
ATOM     63  C   UNL A   1      44.061  28.598  35.501  1.00  0.00     0.058 A 
ATOM     64  C   UNL A   1      43.866  27.501  36.354  1.00  0.00     0.135 A 
ATOM     65  C   UNL A   1      45.381  28.969  35.199  1.00  0.00     0.135 A 
ATOM     66  F   UNL A   1      42.624  27.118  36.692  1.00  0.00    -0.206 F 
ATOM     67  C   UNL A   1      44.939  26.807  36.900  1.00  0.00     0.059 A 
ATOM     68  C   UNL A   1      46.470  28.271  35.711  1.00  0.00     0.059 A 
ATOM     69  F   UNL A   1      45.623  30.016  34.395  1.00  0.00    -0.206 F 
ATOM     70  C   UNL A   1      46.238  27.195  36.568  1.00  0.00     0.060 A 
BRANCH  70  71
ATOM     71  S   UNL A   1      47.618  26.268  37.270  1.00  0.00     0.124 S 
ATOM     72  O   UNL A   1      48.023  27.135  38.372  1.00  0.00    -0.237 OA
ATOM     73  O   UNL A   1      46.982  25.011  37.653  1.00  0.00    -0.237 OA
ATOM     74  O   UNL A   1      48.567  26.177  36.165  1.00  0.00    -0.744 OA
ENDBRANCH  70  71
ENDBRANCH  49  63
BRANCH  50  75
ATOM     75  C   UNL A   1      36.517  33.309  30.961  1.00  0.00     0.058 A 
ATOM     76  C   UNL A   1      36.757  34.199  29.903  1.00  0.00     0.135 A 
ATOM     77  C   UNL A   1      35.186  33.125  31.368  1.00  0.00     0.135 A 
ATOM     78  F   UNL A   1      38.013  34.426  29.490  1.00  0.00    -0.206 F 
ATOM     79  C   UNL A   1      35.721  34.884  29.275  1.00  0.00     0.059 A 
ATOM     80  C   UNL A   1      34.129  33.779  30.738  1.00  0.00     0.059 A 
ATOM     81  F   UNL A   1      34.901  32.287  32.377  1.00  0.00    -0.206 F 
ATOM     82  C   UNL A   1      34.408  34.660  29.696  1.00  0.00     0.060 A 
BRANCH  82  83
ATOM     83  S   UNL A   1      33.070  35.514  28.832  1.00  0.00     0.124 S 
ATOM     84  O   UNL A   1      33.805  36.510  28.061  1.00  0.00    -0.237 OA
ATOM     85  O   UNL A   1      32.466  34.430  28.064  1.00  0.00    -0.237 OA
ATOM     86  O   UNL A   1      32.249  36.038  29.919  1.00  0.00    -0.744 OA
ENDBRANCH  82  83
ENDBRANCH  50  75
BRANCH  62  87
ATOM     87  C   UNL A   1      39.614  34.015  37.189  1.00  0.00     0.058 A 
ATOM     88  C   UNL A   1      38.845  33.645  38.303  1.00  0.00     0.135 A 
ATOM     89  C   UNL A   1      40.246  35.271  37.220  1.00  0.00     0.135 A 
ATOM     90  F   UNL A   1      38.216  32.460  38.327  1.00  0.00    -0.206 F 
ATOM     91  C   UNL A   1      38.695  34.492  39.397  1.00  0.00     0.059 A 
ATOM     92  C   UNL A   1      40.135  36.120  38.317  1.00  0.00     0.059 A 
ATOM     93  F   UNL A   1      41.007  35.671  36.188  1.00  0.00    -0.206 F 
ATOM     94  C   UNL A   1      39.349  35.726  39.398  1.00  0.00     0.060 A 
BRANCH  94  95
ATOM     95  S   UNL A   1      39.174  36.795  40.843  1.00  0.00     0.124 S 
ATOM     96  O   UNL A   1      38.402  35.948  41.745  1.00  0.00    -0.237 OA
ATOM     97  O   UNL A   1      40.563  37.030  41.224  1.00  0.00    -0.237 OA
ATOM     98  O   UNL A   1      38.468  37.962  40.322  1.00  0.00    -0.744 OA
ENDBRANCH  94  95
ENDBRANCH  62  87
ENDBRANCH  36  37
ENDBRANCH  29  31
ENDBRANCH  28  29
ENDBRANCH  27  28
ENDBRANCH  26  27
ENDBRANCH  25  26
ENDBRANCH   1  25
TORSDOF 21
ENDMDL
MODEL 2
REMARK VINA RESULT:     -10.9      1.088      8.210
REMARK SMILES Cc1c(C)c2c(c(C)c1O)CC[C@@](C)(C(=O)OCCOCCOCCOC(=O)c1ccc(-c3c4nc(c(-c5c(F)cc(S(=O)(=O)[O-])cc5F)c5ccc([nH]5)c(-c5c(F)cc(S(=O)(=O)[O-])cc5F)c5nc(c(-c6c(F)cc(S(=O)(=O)[O-])cc6F)c6ccc3[nH]6)C=C5)C=C4)cc1)O2
REMARK SMILES IDX 22 1 21 2 20 3 19 4 18 5 17 6 15 7 16 8 13 9 1 10 2 11 3 12
REMARK SMILES IDX 9 13 4 14 5 15 7 16 6 17 95 18 8 19 11 20 12 21 14 22 10 23
REMARK SMILES IDX 23 25 24 26 25 27 26 28 27 29 28 30 29 31 30 32 94 33 31 34
REMARK SMILES IDX 93 35 32 36 33 37 34 38 87 39 35 40 92 41 86 42 88 43 36 44
REMARK SMILES IDX 91 45 85 46 84 47 37 49 71 50 50 51 70 52 51 53 54 54 69 55
REMARK SMILES IDX 89 56 52 57 53 58 68 60 90 61 55 62 38 63 39 64 48 65 40 66
REMARK SMILES IDX 41 67 47 68 49 69 42 70 43 71 44 72 45 73 46 74 72 75 73 76
REMARK SMILES IDX 82 77 74 78 75 79 81 80 83 81 76 82 77 83 78 84 79 85 80 86
REMARK SMILES IDX 56 87 57 88 66 89 58 90 59 91 65 92 67 93 60 94 61 95 62 96
REMARK SMILES IDX 63 97 64 98
REMARK H PARENT 10 24 88 48 54 59
REMARK Flexibility Score: inf
ROOT
ATOM      1  C   UNL A   1      38.001  22.407  25.638  1.00  0.00     0.188 C 
ENDROOT
BRANCH   1   2
ATOM      2  C   UNL A   1      36.601  21.834  25.892  1.00  0.00     0.188 C 
BRANCH   2   3
ATOM      3  O   UNL A   1      35.869  21.311  24.790  1.00  0.00    -0.376 OA
BRANCH   3   4
ATOM      4  C   UNL A   1      34.714  20.518  25.025  1.00  0.00     0.202 C 
BRANCH   4   5
ATOM      5  C   UNL A   1      33.381  21.209  25.362  1.00  0.00     0.261 C 
BRANCH   5   6
ATOM      6  O   UNL A   1      33.077  22.452  24.686  1.00  0.00    -0.460 OA
BRANCH   6   7
ATOM      7  C   UNL A   1      33.022  23.557  25.488  1.00  0.00     0.350 C 
ATOM      8  O   UNL A   1      33.658  23.649  26.535  1.00  0.00    -0.247 OA
BRANCH   7   9
ATOM      9  C   UNL A   1      32.032  24.657  25.019  1.00  0.00     0.203 C 
ATOM     10  C   UNL A   1      32.297  30.636  26.417  1.00  0.00     0.049 C 
ATOM     11  C   UNL A   1      31.932  29.455  25.548  1.00  0.00    -0.002 A 
ATOM     12  C   UNL A   1      32.556  28.204  25.784  1.00  0.00    -0.002 A 
ATOM     13  C   UNL A   1      30.926  29.527  24.566  1.00  0.00     0.122 A 
ATOM     14  C   UNL A   1      33.664  28.082  26.807  1.00  0.00     0.049 C 
ATOM     15  C   UNL A   1      32.122  27.067  25.071  1.00  0.00     0.127 A 
ATOM     16  C   UNL A   1      30.560  28.409  23.790  1.00  0.00    -0.002 A 
ATOM     17  C   UNL A   1      31.173  27.163  24.043  1.00  0.00     0.001 A 
ATOM     18  O   UNL A   1      32.677  25.872  25.450  1.00  0.00    -0.475 OA
ATOM     19  C   UNL A   1      29.535  28.539  22.691  1.00  0.00     0.049 C 
ATOM     20  C   UNL A   1      30.788  25.936  23.250  1.00  0.00     0.044 C 
ATOM     21  C   UNL A   1      31.737  24.771  23.521  1.00  0.00     0.065 C 
ATOM     22  C   UNL A   1      30.753  24.400  25.836  1.00  0.00     0.069 C 
BRANCH  13  23
ATOM     23  O   UNL A   1      30.238  30.686  24.313  1.00  0.00    -0.507 OA
ATOM     24  H   UNL A   1      29.315  30.659  24.158  1.00  0.00     0.293 HD
ENDBRANCH  13  23
ENDBRANCH   7   9
ENDBRANCH   6   7
ENDBRANCH   5   6
ENDBRANCH   4   5
ENDBRANCH   3   4
ENDBRANCH   2   3
ENDBRANCH   1   2
BRANCH   1  25
ATOM     25  O   UNL A   1      39.048  21.473  25.785  1.00  0.00    -0.376 OA
BRANCH  25  26
ATOM     26  C   UNL A   1      40.014  21.713  26.788  1.00  0.00     0.202 C 
BRANCH  26  27
ATOM     27  C   UNL A   1      41.173  22.640  26.398  1.00  0.00     0.261 C 
BRANCH  27  28
ATOM     28  O   UNL A   1      40.924  24.049  26.534  1.00  0.00    -0.460 OA
BRANCH  28  29
ATOM     29  C   UNL A   1      42.001  24.858  26.670  1.00  0.00     0.338 C 
ATOM     30  O   UNL A   1      42.971  24.908  25.930  1.00  0.00    -0.246 OA
BRANCH  29  31
ATOM     31  C   UNL A   1      41.682  25.846  27.728  1.00  0.00     0.060 A 
ATOM     32  C   UNL A   1      42.557  26.921  27.944  1.00  0.00     0.016 A 
ATOM     33  C   UNL A   1      40.504  25.740  28.471  1.00  0.00     0.016 A 
ATOM     34  C   UNL A   1      42.262  27.886  28.911  1.00  0.00     0.010 A 
ATOM     35  C   UNL A   1      40.226  26.689  29.459  1.00  0.00     0.010 A 
ATOM     36  C   UNL A   1      41.114  27.752  29.703  1.00  0.00    -0.014 A 
BRANCH  36  37
ATOM     37  C   UNL A   1      40.948  28.581  30.924  1.00  0.00     0.031 A 
ATOM     38  C   UNL A   1      39.895  29.658  30.906  1.00  0.00     0.074 A 
ATOM     39  C   UNL A   1      41.700  28.394  32.025  1.00  0.00     0.049 A 
ATOM     40  N   UNL A   1      39.621  30.570  31.801  1.00  0.00    -0.248 NA
ATOM     41  C   UNL A   1      39.036  29.708  29.710  1.00  0.00     0.031 C 
ATOM     42  C   UNL A   1      42.708  27.352  32.199  1.00  0.00     0.029 A 
ATOM     43  N   UNL A   1      41.730  29.093  33.208  1.00  0.00    -0.354 N 
ATOM     44  C   UNL A   1      38.561  31.302  31.280  1.00  0.00     0.074 A 
ATOM     45  C   UNL A   1      38.264  30.752  29.976  1.00  0.00     0.031 C 
ATOM     46  C   UNL A   1      43.269  27.488  33.414  1.00  0.00     0.029 A 
ATOM     47  C   UNL A   1      42.688  28.648  34.090  1.00  0.00     0.049 A 
ATOM     48  H   UNL A   1      41.124  29.843  33.407  1.00  0.00     0.167 HD
ATOM     49  C   UNL A   1      37.887  32.334  31.839  1.00  0.00     0.037 A 
ATOM     50  C   UNL A   1      43.065  29.137  35.290  1.00  0.00     0.037 A 
ATOM     51  C   UNL A   1      38.189  32.888  33.133  1.00  0.00     0.049 A 
ATOM     52  C   UNL A   1      42.371  30.357  35.849  1.00  0.00     0.074 A 
ATOM     53  C   UNL A   1      37.566  33.938  33.781  1.00  0.00     0.029 A 
ATOM     54  N   UNL A   1      39.200  32.443  33.971  1.00  0.00    -0.354 N 
ATOM     55  N   UNL A   1      41.373  31.044  35.347  1.00  0.00    -0.248 NA
ATOM     56  C   UNL A   1      42.859  30.869  37.139  1.00  0.00     0.031 C 
ATOM     57  C   UNL A   1      38.232  34.163  34.990  1.00  0.00     0.029 A 
ATOM     58  C   UNL A   1      39.234  33.214  35.120  1.00  0.00     0.049 A 
ATOM     59  H   UNL A   1      39.804  31.690  33.777  1.00  0.00     0.167 HD
ATOM     60  C   UNL A   1      41.097  32.050  36.269  1.00  0.00     0.074 A 
ATOM     61  C   UNL A   1      42.024  31.875  37.366  1.00  0.00     0.031 C 
ATOM     62  C   UNL A   1      40.158  33.029  36.213  1.00  0.00     0.037 A 
BRANCH  49  63
ATOM     63  C   UNL A   1      36.766  32.944  31.046  1.00  0.00     0.058 A 
ATOM     64  C   UNL A   1      35.421  32.733  31.392  1.00  0.00     0.135 A 
ATOM     65  C   UNL A   1      37.039  33.787  29.957  1.00  0.00     0.135 A 
ATOM     66  F   UNL A   1      35.103  31.919  32.410  1.00  0.00    -0.206 F 
ATOM     67  C   UNL A   1      34.387  33.323  30.674  1.00  0.00     0.059 A 
ATOM     68  C   UNL A   1      36.021  34.410  29.243  1.00  0.00     0.059 A 
ATOM     69  F   UNL A   1      38.306  34.017  29.581  1.00  0.00    -0.206 F 
ATOM     70  C   UNL A   1      34.697  34.165  29.605  1.00  0.00     0.060 A 
BRANCH  70  71
ATOM     71  S   UNL A   1      33.340  34.938  28.700  1.00  0.00     0.124 S 
ATOM     72  O   UNL A   1      32.383  35.198  29.772  1.00  0.00    -0.237 OA
ATOM     73  O   UNL A   1      33.983  36.115  28.125  1.00  0.00    -0.237 OA
ATOM     74  O   UNL A   1      32.941  33.913  27.741  1.00  0.00    -0.744 OA
ENDBRANCH  70  71
ENDBRANCH  49  63
BRANCH  50  75
ATOM     75  C   UNL A   1      44.161  28.478  36.052  1.00  0.00     0.058 A 
ATOM     76  C   UNL A   1      45.492  28.901  35.913  1.00  0.00     0.135 A 
ATOM     77  C   UNL A   1      43.905  27.411  36.928  1.00  0.00     0.135 A 
ATOM     78  F   UNL A   1      45.793  29.903  35.072  1.00  0.00    -0.206 F 
ATOM     79  C   UNL A   1      46.530  28.290  36.611  1.00  0.00     0.059 A 
ATOM     80  C   UNL A   1      44.923  26.801  37.657  1.00  0.00     0.059 A 
ATOM     81  F   UNL A   1      42.651  26.964  37.096  1.00  0.00    -0.206 F 
ATOM     82  C   UNL A   1      46.233  27.245  37.488  1.00  0.00     0.060 A 
BRANCH  82  83
ATOM     83  S   UNL A   1      47.584  26.501  38.429  1.00  0.00     0.124 S 
ATOM     84  O   UNL A   1      48.697  27.382  38.095  1.00  0.00    -0.237 OA
ATOM     85  O   UNL A   1      47.086  26.592  39.798  1.00  0.00    -0.237 OA
ATOM     86  O   UNL A   1      47.667  25.148  37.887  1.00  0.00    -0.744 OA
ENDBRANCH  82  83
ENDBRANCH  50  75
BRANCH  62  87
ATOM     87  C   UNL A   1      40.055  33.979  37.377  1.00  0.00     0.058 A 
ATOM     88  C   UNL A   1      40.815  35.157  37.438  1.00  0.00     0.135 A 
ATOM     89  C   UNL A   1      39.126  33.747  38.406  1.00  0.00     0.135 A 
ATOM     90  F   UNL A   1      41.720  35.429  36.485  1.00  0.00    -0.206 F 
ATOM     91  C   UNL A   1      40.671  36.062  38.486  1.00  0.00     0.059 A 
ATOM     92  C   UNL A   1      38.944  34.653  39.447  1.00  0.00     0.059 A 
ATOM     93  F   UNL A   1      38.361  32.643  38.390  1.00  0.00    -0.206 F 
ATOM     94  C   UNL A   1      39.728  35.804  39.483  1.00  0.00     0.060 A 
BRANCH  94  95
ATOM     95  S   UNL A   1      39.528  37.008  40.814  1.00  0.00     0.124 S 
ATOM     96  O   UNL A   1      38.543  37.919  40.243  1.00  0.00    -0.237 OA
ATOM     97  O   UNL A   1      39.059  36.175  41.917  1.00  0.00    -0.237 OA
ATOM     98  O   UNL A   1      40.869  37.560  40.981  1.00  0.00    -0.744 OA
ENDBRANCH  94  95
ENDBRANCH  62  87
ENDBRANCH  36  37
ENDBRANCH  29  31
ENDBRANCH  28  29
ENDBRANCH  27  28
ENDBRANCH  26  27
ENDBRANCH  25  26
ENDBRANCH   1  25
TORSDOF 21
ENDMDL
MODEL 3
REMARK VINA RESULT:     -10.9      6.565     11.941
REMARK SMILES Cc1c(C)c2c(c(C)c1O)CC[C@@](C)(C(=O)OCCOCCOCCOC(=O)c1ccc(-c3c4nc(c(-c5c(F)cc(S(=O)(=O)[O-])cc5F)c5ccc([nH]5)c(-c5c(F)cc(S(=O)(=O)[O-])cc5F)c5nc(c(-c6c(F)cc(S(=O)(=O)[O-])cc6F)c6ccc3[nH]6)C=C5)C=C4)cc1)O2
REMARK SMILES IDX 22 1 21 2 20 3 19 4 18 5 17 6 15 7 16 8 13 9 1 10 2 11 3 12
REMARK SMILES IDX 9 13 4 14 5 15 7 16 6 17 95 18 8 19 11 20 12 21 14 22 10 23
REMARK SMILES IDX 23 25 24 26 25 27 26 28 27 29 28 30 29 31 30 32 94 33 31 34
REMARK SMILES IDX 93 35 32 36 33 37 34 38 87 39 35 40 92 41 86 42 88 43 36 44
REMARK SMILES IDX 91 45 85 46 84 47 37 49 71 50 50 51 70 52 51 53 54 54 69 55
REMARK SMILES IDX 89 56 52 57 53 58 68 60 90 61 55 62 38 63 39 64 48 65 40 66
REMARK SMILES IDX 41 67 47 68 49 69 42 70 43 71 44 72 45 73 46 74 72 75 73 76
REMARK SMILES IDX 82 77 74 78 75 79 81 80 83 81 76 82 77 83 78 84 79 85 80 86
REMARK SMILES IDX 56 87 57 88 66 89 58 90 59 91 65 92 67 93 60 94 61 95 62 96
REMARK SMILES IDX 63 97 64 98
REMARK H PARENT 10 24 88 48 54 59
REMARK Flexibility Score: inf
ROOT
ATOM      1  C   UNL A   1      33.803  31.447  27.634  1.00  0.00     0.188 C 
ENDROOT
BRANCH   1   2
ATOM      2  C   UNL A   1      33.217  30.099  27.195  1.00  0.00     0.188 C 
BRANCH   2   3
ATOM      3  O   UNL A   1      32.432  30.051  26.010  1.00  0.00    -0.376 OA
BRANCH   3   4
ATOM      4  C   UNL A   1      32.902  29.327  24.882  1.00  0.00     0.202 C 
BRANCH   4   5
ATOM      5  C   UNL A   1      31.982  28.288  24.217  1.00  0.00     0.261 C 
BRANCH   5   6
ATOM      6  O   UNL A   1      32.260  26.888  24.463  1.00  0.00    -0.460 OA
BRANCH   6   7
ATOM      7  C   UNL A   1      32.992  26.257  23.497  1.00  0.00     0.350 C 
ATOM      8  O   UNL A   1      33.611  26.867  22.629  1.00  0.00    -0.247 OA
BRANCH   7   9
ATOM      9  C   UNL A   1      32.917  24.707  23.529  1.00  0.00     0.203 C 
ATOM     10  C   UNL A   1      37.471  20.871  25.055  1.00  0.00     0.049 C 
ATOM     11  C   UNL A   1      36.024  21.279  24.915  1.00  0.00    -0.002 A 
ATOM     12  C   UNL A   1      35.706  22.648  24.725  1.00  0.00    -0.002 A 
ATOM     13  C   UNL A   1      34.977  20.338  24.877  1.00  0.00     0.122 A 
ATOM     14  C   UNL A   1      36.790  23.701  24.788  1.00  0.00     0.049 C 
ATOM     15  C   UNL A   1      34.372  23.020  24.456  1.00  0.00     0.127 A 
ATOM     16  C   UNL A   1      33.633  20.723  24.701  1.00  0.00    -0.002 A 
ATOM     17  C   UNL A   1      33.327  22.086  24.495  1.00  0.00     0.001 A 
ATOM     18  O   UNL A   1      34.166  24.340  24.149  1.00  0.00    -0.475 OA
ATOM     19  C   UNL A   1      32.528  19.697  24.745  1.00  0.00     0.049 C 
ATOM     20  C   UNL A   1      31.901  22.534  24.275  1.00  0.00     0.044 C 
ATOM     21  C   UNL A   1      31.778  24.055  24.316  1.00  0.00     0.065 C 
ATOM     22  C   UNL A   1      32.902  24.290  22.048  1.00  0.00     0.069 C 
BRANCH  13  23
ATOM     23  O   UNL A   1      35.206  18.991  25.001  1.00  0.00    -0.507 OA
ATOM     24  H   UNL A   1      34.914  18.535  25.764  1.00  0.00     0.293 HD
ENDBRANCH  13  23
ENDBRANCH   7   9
ENDBRANCH   6   7
ENDBRANCH   5   6
ENDBRANCH   4   5
ENDBRANCH   3   4
ENDBRANCH   2   3
ENDBRANCH   1   2
BRANCH   1  25
ATOM     25  O   UNL A   1      34.828  31.348  28.599  1.00  0.00    -0.376 OA
BRANCH  25  26
ATOM     26  C   UNL A   1      34.946  32.387  29.549  1.00  0.00     0.202 C 
BRANCH  26  27
ATOM     27  C   UNL A   1      35.261  31.953  30.987  1.00  0.00     0.261 C 
BRANCH  27  28
ATOM     28  O   UNL A   1      36.626  31.588  31.248  1.00  0.00    -0.460 OA
BRANCH  28  29
ATOM     29  C   UNL A   1      36.948  30.277  31.143  1.00  0.00     0.338 C 
ATOM     30  O   UNL A   1      36.195  29.329  31.300  1.00  0.00    -0.246 OA
BRANCH  29  31
ATOM     31  C   UNL A   1      38.307  30.200  30.557  1.00  0.00     0.060 A 
ATOM     32  C   UNL A   1      38.446  30.110  29.164  1.00  0.00     0.016 A 
ATOM     33  C   UNL A   1      39.440  30.263  31.373  1.00  0.00     0.016 A 
ATOM     34  C   UNL A   1      39.717  30.072  28.584  1.00  0.00     0.010 A 
ATOM     35  C   UNL A   1      40.710  30.193  30.793  1.00  0.00     0.010 A 
ATOM     36  C   UNL A   1      40.857  30.071  29.399  1.00  0.00    -0.014 A 
BRANCH  36  37
ATOM     37  C   UNL A   1      42.182  29.722  28.828  1.00  0.00     0.031 A 
ATOM     38  C   UNL A   1      42.424  28.288  28.436  1.00  0.00     0.074 A 
ATOM     39  C   UNL A   1      43.151  30.639  28.653  1.00  0.00     0.049 A 
ATOM     40  N   UNL A   1      43.518  27.715  28.009  1.00  0.00    -0.248 NA
ATOM     41  C   UNL A   1      41.269  27.380  28.544  1.00  0.00     0.031 C 
ATOM     42  C   UNL A   1      43.029  32.068  28.931  1.00  0.00     0.029 A 
ATOM     43  N   UNL A   1      44.442  30.493  28.204  1.00  0.00    -0.354 N 
ATOM     44  C   UNL A   1      43.187  26.382  27.797  1.00  0.00     0.074 A 
ATOM     45  C   UNL A   1      41.800  26.223  28.175  1.00  0.00     0.031 C 
ATOM     46  C   UNL A   1      44.203  32.666  28.658  1.00  0.00     0.029 A 
ATOM     47  C   UNL A   1      45.171  31.659  28.223  1.00  0.00     0.049 A 
ATOM     48  H   UNL A   1      44.811  29.633  27.897  1.00  0.00     0.167 HD
ATOM     49  C   UNL A   1      43.963  25.381  27.321  1.00  0.00     0.037 A 
ATOM     50  C   UNL A   1      46.473  31.880  27.945  1.00  0.00     0.037 A 
ATOM     51  C   UNL A   1      45.345  25.537  26.954  1.00  0.00     0.049 A 
ATOM     52  C   UNL A   1      47.350  30.727  27.517  1.00  0.00     0.074 A 
ATOM     53  C   UNL A   1      46.216  24.578  26.467  1.00  0.00     0.029 A 
ATOM     54  N   UNL A   1      46.060  26.721  27.037  1.00  0.00    -0.354 N 
ATOM     55  N   UNL A   1      47.027  29.470  27.323  1.00  0.00    -0.248 NA
ATOM     56  C   UNL A   1      48.770  31.023  27.273  1.00  0.00     0.031 C 
ATOM     57  C   UNL A   1      47.471  25.171  26.304  1.00  0.00     0.029 A 
ATOM     58  C   UNL A   1      47.369  26.513  26.635  1.00  0.00     0.049 A 
ATOM     59  H   UNL A   1      45.692  27.583  27.339  1.00  0.00     0.167 HD
ATOM     60  C   UNL A   1      48.196  28.834  26.910  1.00  0.00     0.074 A 
ATOM     61  C   UNL A   1      49.229  29.845  26.870  1.00  0.00     0.031 C 
ATOM     62  C   UNL A   1      48.392  27.529  26.592  1.00  0.00     0.037 A 
BRANCH  49  63
ATOM     63  C   UNL A   1      43.338  24.020  27.185  1.00  0.00     0.058 A 
ATOM     64  C   UNL A   1      42.820  23.568  25.961  1.00  0.00     0.135 A 
ATOM     65  C   UNL A   1      43.298  23.142  28.280  1.00  0.00     0.135 A 
ATOM     66  F   UNL A   1      42.813  24.375  24.889  1.00  0.00    -0.206 F 
ATOM     67  C   UNL A   1      42.270  22.298  25.832  1.00  0.00     0.059 A 
ATOM     68  C   UNL A   1      42.779  21.857  28.165  1.00  0.00     0.059 A 
ATOM     69  F   UNL A   1      43.774  23.527  29.474  1.00  0.00    -0.206 F 
ATOM     70  C   UNL A   1      42.259  21.447  26.938  1.00  0.00     0.060 A 
BRANCH  70  71
ATOM     71  S   UNL A   1      41.559  19.795  26.743  1.00  0.00     0.124 S 
ATOM     72  O   UNL A   1      41.954  19.469  25.376  1.00  0.00    -0.237 OA
ATOM     73  O   UNL A   1      42.239  19.045  27.795  1.00  0.00    -0.237 OA
ATOM     74  O   UNL A   1      40.129  20.003  26.948  1.00  0.00    -0.744 OA
ENDBRANCH  70  71
ENDBRANCH  49  63
BRANCH  50  75
ATOM     75  C   UNL A   1      47.038  33.253  28.064  1.00  0.00     0.058 A 
ATOM     76  C   UNL A   1      47.010  34.142  26.978  1.00  0.00     0.135 A 
ATOM     77  C   UNL A   1      47.622  33.703  29.259  1.00  0.00     0.135 A 
ATOM     78  F   UNL A   1      46.481  33.753  25.808  1.00  0.00    -0.206 F 
ATOM     79  C   UNL A   1      47.541  35.425  27.070  1.00  0.00     0.059 A 
ATOM     80  C   UNL A   1      48.137  34.991  29.384  1.00  0.00     0.059 A 
ATOM     81  F   UNL A   1      47.679  32.893  30.327  1.00  0.00    -0.206 F 
ATOM     82  C   UNL A   1      48.096  35.843  28.281  1.00  0.00     0.060 A 
BRANCH  82  83
ATOM     83  S   UNL A   1      48.729  37.531  28.400  1.00  0.00     0.124 S 
ATOM     84  O   UNL A   1      49.175  37.776  27.034  1.00  0.00    -0.237 OA
ATOM     85  O   UNL A   1      47.545  38.269  28.828  1.00  0.00    -0.237 OA
ATOM     86  O   UNL A   1      49.788  37.423  29.399  1.00  0.00    -0.744 OA
ENDBRANCH  82  83
ENDBRANCH  50  75
BRANCH  62  87
ATOM     87  C   UNL A   1      49.767  27.110  26.141  1.00  0.00     0.058 A 
ATOM     88  C   UNL A   1      50.688  26.528  27.025  1.00  0.00     0.135 A 
ATOM     89  C   UNL A   1      50.138  27.219  24.789  1.00  0.00     0.135 A 
ATOM     90  F   UNL A   1      50.389  26.401  28.327  1.00  0.00    -0.206 F 
ATOM     91  C   UNL A   1      51.935  26.087  26.590  1.00  0.00     0.059 A 
ATOM     92  C   UNL A   1      51.367  26.756  24.327  1.00  0.00     0.059 A 
ATOM     93  F   UNL A   1      49.290  27.754  23.896  1.00  0.00    -0.206 F 
ATOM     94  C   UNL A   1      52.263  26.199  25.238  1.00  0.00     0.060 A 
BRANCH  94  95
ATOM     95  S   UNL A   1      53.869  25.586  24.685  1.00  0.00     0.124 S 
ATOM     96  O   UNL A   1      54.782  26.327  25.548  1.00  0.00    -0.237 OA
ATOM     97  O   UNL A   1      53.763  24.155  24.951  1.00  0.00    -0.237 OA
ATOM     98  O   UNL A   1      53.907  25.953  23.272  1.00  0.00    -0.744 OA
ENDBRANCH  94  95
ENDBRANCH  62  87
ENDBRANCH  36  37
ENDBRANCH  29  31
ENDBRANCH  28  29
ENDBRANCH  27  28
ENDBRANCH  26  27
ENDBRANCH  25  26
ENDBRANCH   1  25
TORSDOF 21
ENDMDL
