MODEL 1
REMARK VINA RESULT:     -10.0      0.000      0.000
REMARK SMILES Cc1cc(=O)c(Oc2ccc(C(=O)OCCOCCOCCOC(=O)c3ccc(-c4c5nc(c(-c6c(F)cc(S(=O)(=O)[O-])cc6F)c6ccc([nH]6)c(-c6c(F)cc(S(=O)(=O)[O-])cc6F)c6nc(c(-c7c(F)cc(S(=O)(=O)[O-])cc7F)c7ccc4[nH]7)C=C6)C=C5)cc3)cc2)c(-c2ccc(S(C)(=O)=O)cc2)o1
REMARK SMILES IDX 18 1 17 2 16 3 15 4 14 5 12 6 13 7 11 8 8 9 9 10 93 11 10 12
REMARK SMILES IDX 92 13 7 14 6 15 1 16 2 17 3 18 105 19 4 20 94 21 5 22 95 23
REMARK SMILES IDX 96 24 104 25 97 26 103 27 98 28 99 29 100 30 101 31 102 32
REMARK SMILES IDX 19 33 20 34 21 35 22 36 23 37 24 38 25 39 26 40 27 41 91 42
REMARK SMILES IDX 28 43 90 44 29 45 30 46 31 47 84 48 32 49 89 50 83 51 85 52
REMARK SMILES IDX 33 53 88 54 82 55 81 56 34 58 68 59 47 60 67 61 48 62 51 63
REMARK SMILES IDX 66 64 86 65 49 66 50 67 65 69 87 70 52 71 35 72 36 73 45 74
REMARK SMILES IDX 37 75 38 76 44 77 46 78 39 79 40 80 41 81 42 82 43 83 69 84
REMARK SMILES IDX 70 85 79 86 71 87 72 88 78 89 80 90 73 91 74 92 75 93 76 94
REMARK SMILES IDX 77 95 53 96 54 97 63 98 55 99 56 100 62 101 64 102 57 103
REMARK SMILES IDX 58 104 59 105 60 106 61 107
REMARK H PARENT 85 57 51 68
REMARK Flexibility Score: inf
ROOT
ATOM      1  C   UNL A   1      37.774  20.092  24.727  1.00  0.00     0.188 C 
ENDROOT
BRANCH   1   2
ATOM      2  O   UNL A   1      36.391  19.889  25.016  1.00  0.00    -0.376 OA
BRANCH   2   3
ATOM      3  C   UNL A   1      35.594  21.077  25.153  1.00  0.00     0.202 C 
BRANCH   3   4
ATOM      4  C   UNL A   1      34.802  21.248  26.459  1.00  0.00     0.261 C 
BRANCH   4   5
ATOM      5  O   UNL A   1      33.433  21.646  26.242  1.00  0.00    -0.460 OA
BRANCH   5   6
ATOM      6  C   UNL A   1      32.973  22.709  26.952  1.00  0.00     0.338 C 
ATOM      7  O   UNL A   1      32.701  22.705  28.138  1.00  0.00    -0.246 OA
BRANCH   6   8
ATOM      8  C   UNL A   1      32.907  23.916  26.067  1.00  0.00     0.060 A 
ATOM      9  C   UNL A   1      32.708  26.268  24.538  1.00  0.00     0.127 A 
ATOM     10  C   UNL A   1      31.562  25.539  24.850  1.00  0.00     0.048 A 
ATOM     11  C   UNL A   1      33.961  25.785  24.914  1.00  0.00     0.048 A 
ATOM     12  C   UNL A   1      31.655  24.384  25.641  1.00  0.00     0.019 A 
ATOM     13  C   UNL A   1      34.060  24.614  25.673  1.00  0.00     0.019 A 
BRANCH   9  14
ATOM     14  O   UNL A   1      32.654  27.348  23.701  1.00  0.00    -0.449 OA
BRANCH  14  15
ATOM     15  C   UNL A   1      31.640  28.298  23.694  1.00  0.00     0.217 A 
ATOM     16  C   UNL A   1      28.211  30.917  23.338  1.00  0.00     0.088 C 
ATOM     17  C   UNL A   1      29.365  29.967  23.360  1.00  0.00     0.105 A 
ATOM     18  C   UNL A   1      29.490  28.963  22.489  1.00  0.00     0.098 A 
ATOM     19  O   UNL A   1      30.289  30.201  24.359  1.00  0.00    -0.457 OA
ATOM     20  C   UNL A   1      30.658  28.076  22.583  1.00  0.00     0.228 A 
ATOM     21  C   UNL A   1      31.386  29.360  24.504  1.00  0.00     0.180 A 
ATOM     22  O   UNL A   1      30.804  27.191  21.744  1.00  0.00    -0.285 OA
BRANCH  21  23
ATOM     23  C   UNL A   1      32.215  29.785  25.637  1.00  0.00     0.021 A 
ATOM     24  C   UNL A   1      33.424  29.139  25.925  1.00  0.00     0.013 A 
ATOM     25  C   UNL A   1      31.835  30.898  26.388  1.00  0.00     0.013 A 
ATOM     26  C   UNL A   1      34.315  29.688  26.854  1.00  0.00     0.021 A 
ATOM     27  C   UNL A   1      32.714  31.426  27.335  1.00  0.00     0.021 A 
ATOM     28  C   UNL A   1      33.964  30.841  27.562  1.00  0.00     0.067 A 
BRANCH  28  29
ATOM     29  S   UNL A   1      35.216  31.797  28.401  1.00  0.00     0.175 S 
ATOM     30  C   UNL A   1      35.103  33.504  27.995  1.00  0.00     0.163 C 
ATOM     31  O   UNL A   1      34.961  31.663  29.819  1.00  0.00    -0.224 OA
ATOM     32  O   UNL A   1      36.461  31.343  27.822  1.00  0.00    -0.224 OA
ENDBRANCH  28  29
ENDBRANCH  21  23
ENDBRANCH  14  15
ENDBRANCH   9  14
ENDBRANCH   6   8
ENDBRANCH   5   6
ENDBRANCH   4   5
ENDBRANCH   3   4
ENDBRANCH   2   3
ENDBRANCH   1   2
BRANCH   1  33
ATOM     33  C   UNL A   1      38.717  19.489  25.775  1.00  0.00     0.188 C 
BRANCH  33  34
ATOM     34  O   UNL A   1      40.047  19.286  25.318  1.00  0.00    -0.376 OA
BRANCH  34  35
ATOM     35  C   UNL A   1      41.010  19.879  26.203  1.00  0.00     0.202 C 
BRANCH  35  36
ATOM     36  C   UNL A   1      40.432  21.083  26.974  1.00  0.00     0.261 C 
BRANCH  36  37
ATOM     37  O   UNL A   1      40.632  22.350  26.292  1.00  0.00    -0.460 OA
BRANCH  37  38
ATOM     38  C   UNL A   1      39.636  23.275  26.383  1.00  0.00     0.338 C 
ATOM     39  O   UNL A   1      38.454  23.084  26.151  1.00  0.00    -0.246 OA
BRANCH  38  40
ATOM     40  C   UNL A   1      40.164  24.566  26.920  1.00  0.00     0.060 A 
ATOM     41  C   UNL A   1      40.329  25.704  26.121  1.00  0.00     0.016 A 
ATOM     42  C   UNL A   1      40.529  24.639  28.269  1.00  0.00     0.016 A 
ATOM     43  C   UNL A   1      40.949  26.857  26.645  1.00  0.00     0.010 A 
ATOM     44  C   UNL A   1      41.178  25.776  28.781  1.00  0.00     0.010 A 
ATOM     45  C   UNL A   1      41.432  26.890  27.966  1.00  0.00    -0.014 A 
BRANCH  45  46
ATOM     46  C   UNL A   1      41.992  28.147  28.550  1.00  0.00     0.031 A 
ATOM     47  C   UNL A   1      41.167  29.255  29.169  1.00  0.00     0.074 A 
ATOM     48  C   UNL A   1      43.325  28.300  28.493  1.00  0.00     0.049 A 
ATOM     49  N   UNL A   1      41.550  30.330  29.815  1.00  0.00    -0.248 NA
ATOM     50  C   UNL A   1      39.718  29.148  29.046  1.00  0.00     0.031 C 
ATOM     51  C   UNL A   1      44.252  27.336  27.902  1.00  0.00     0.029 A 
ATOM     52  N   UNL A   1      44.124  29.322  28.928  1.00  0.00    -0.354 N 
ATOM     53  C   UNL A   1      40.383  30.990  30.210  1.00  0.00     0.074 A 
ATOM     54  C   UNL A   1      39.277  30.212  29.703  1.00  0.00     0.031 C 
ATOM     55  C   UNL A   1      45.499  27.814  28.007  1.00  0.00     0.029 A 
ATOM     56  C   UNL A   1      45.454  29.118  28.665  1.00  0.00     0.049 A 
ATOM     57  H   UNL A   1      43.779  30.123  29.384  1.00  0.00     0.167 HD
ATOM     58  C   UNL A   1      40.240  32.139  30.916  1.00  0.00     0.037 A 
ATOM     59  C   UNL A   1      46.523  29.889  28.926  1.00  0.00     0.037 A 
ATOM     60  C   UNL A   1      41.343  32.961  31.351  1.00  0.00     0.049 A 
ATOM     61  C   UNL A   1      46.354  31.178  29.670  1.00  0.00     0.074 A 
ATOM     62  C   UNL A   1      41.310  34.119  32.109  1.00  0.00     0.029 A 
ATOM     63  N   UNL A   1      42.671  32.731  31.032  1.00  0.00    -0.354 N 
ATOM     64  N   UNL A   1      45.255  31.727  30.127  1.00  0.00    -0.248 NA
ATOM     65  C   UNL A   1      47.575  31.941  29.951  1.00  0.00     0.031 C 
ATOM     66  C   UNL A   1      42.613  34.623  32.197  1.00  0.00     0.029 A 
ATOM     67  C   UNL A   1      43.463  33.747  31.543  1.00  0.00     0.049 A 
ATOM     68  H   UNL A   1      43.004  31.962  30.517  1.00  0.00     0.167 HD
ATOM     69  C   UNL A   1      45.654  32.896  30.764  1.00  0.00     0.074 A 
ATOM     70  C   UNL A   1      47.096  32.965  30.645  1.00  0.00     0.031 C 
ATOM     71  C   UNL A   1      44.894  33.825  31.395  1.00  0.00     0.037 A 
BRANCH  58  72
ATOM     72  C   UNL A   1      38.851  32.604  31.283  1.00  0.00     0.058 A 
ATOM     73  C   UNL A   1      38.193  32.110  32.421  1.00  0.00     0.135 A 
ATOM     74  C   UNL A   1      38.230  33.651  30.578  1.00  0.00     0.135 A 
ATOM     75  F   UNL A   1      38.735  31.106  33.130  1.00  0.00    -0.206 F 
ATOM     76  C   UNL A   1      36.981  32.642  32.855  1.00  0.00     0.059 A 
ATOM     77  C   UNL A   1      37.027  34.212  31.004  1.00  0.00     0.059 A 
ATOM     78  F   UNL A   1      38.811  34.163  29.482  1.00  0.00    -0.206 F 
ATOM     79  C   UNL A   1      36.411  33.703  32.146  1.00  0.00     0.060 A 
BRANCH  79  80
ATOM     80  S   UNL A   1      34.878  34.432  32.769  1.00  0.00     0.124 S 
ATOM     81  O   UNL A   1      33.945  34.130  31.689  1.00  0.00    -0.237 OA
ATOM     82  O   UNL A   1      34.667  33.696  34.011  1.00  0.00    -0.237 OA
ATOM     83  O   UNL A   1      35.213  35.844  32.931  1.00  0.00    -0.744 OA
ENDBRANCH  79  80
ENDBRANCH  58  72
BRANCH  59  84
ATOM     84  C   UNL A   1      47.857  29.401  28.507  1.00  0.00     0.058 A 
ATOM     85  C   UNL A   1      48.616  28.587  29.356  1.00  0.00     0.135 A 
ATOM     86  C   UNL A   1      48.338  29.643  27.211  1.00  0.00     0.135 A 
ATOM     87  F   UNL A   1      48.184  28.328  30.600  1.00  0.00    -0.206 F 
ATOM     88  C   UNL A   1      49.809  28.019  28.933  1.00  0.00     0.059 A 
ATOM     89  C   UNL A   1      49.518  29.069  26.757  1.00  0.00     0.059 A 
ATOM     90  F   UNL A   1      47.624  30.394  26.357  1.00  0.00    -0.206 F 
ATOM     91  C   UNL A   1      50.245  28.256  27.627  1.00  0.00     0.060 A 
BRANCH  91  92
ATOM     92  S   UNL A   1      51.741  27.424  27.056  1.00  0.00     0.124 S 
ATOM     93  O   UNL A   1      51.478  26.045  27.451  1.00  0.00    -0.237 OA
ATOM     94  O   UNL A   1      51.712  27.697  25.622  1.00  0.00    -0.237 OA
ATOM     95  O   UNL A   1      52.803  28.103  27.793  1.00  0.00    -0.744 OA
ENDBRANCH  91  92
ENDBRANCH  59  84
BRANCH  71  96
ATOM     96  C   UNL A   1      45.603  35.004  31.998  1.00  0.00     0.058 A 
ATOM     97  C   UNL A   1      46.099  34.965  33.310  1.00  0.00     0.135 A 
ATOM     98  C   UNL A   1      45.819  36.169  31.246  1.00  0.00     0.135 A 
ATOM     99  F   UNL A   1      45.913  33.875  34.071  1.00  0.00    -0.206 F 
ATOM    100  C   UNL A   1      46.758  36.054  33.868  1.00  0.00     0.059 A 
ATOM    101  C   UNL A   1      46.500  37.261  31.775  1.00  0.00     0.059 A 
ATOM    102  F   UNL A   1      45.375  36.252  29.982  1.00  0.00    -0.206 F 
ATOM    103  C   UNL A   1      46.952  37.199  33.093  1.00  0.00     0.060 A 
BRANCH 103 104
ATOM    104  S   UNL A   1      47.817  38.602  33.829  1.00  0.00     0.124 S 
ATOM    105  O   UNL A   1      48.658  37.939  34.821  1.00  0.00    -0.237 OA
ATOM    106  O   UNL A   1      48.519  39.171  32.683  1.00  0.00    -0.237 OA
ATOM    107  O   UNL A   1      46.739  39.423  34.369  1.00  0.00    -0.744 OA
ENDBRANCH 103 104
ENDBRANCH  71  96
ENDBRANCH  45  46
ENDBRANCH  38  40
ENDBRANCH  37  38
ENDBRANCH  36  37
ENDBRANCH  35  36
ENDBRANCH  34  35
ENDBRANCH  33  34
ENDBRANCH   1  33
TORSDOF 24
ENDMDL
MODEL 2
REMARK VINA RESULT:      -9.5      4.314     11.573
REMARK SMILES Cc1cc(=O)c(Oc2ccc(C(=O)OCCOCCOCCOC(=O)c3ccc(-c4c5nc(c(-c6c(F)cc(S(=O)(=O)[O-])cc6F)c6ccc([nH]6)c(-c6c(F)cc(S(=O)(=O)[O-])cc6F)c6nc(c(-c7c(F)cc(S(=O)(=O)[O-])cc7F)c7ccc4[nH]7)C=C6)C=C5)cc3)cc2)c(-c2ccc(S(C)(=O)=O)cc2)o1
REMARK SMILES IDX 18 1 17 2 16 3 15 4 14 5 12 6 13 7 11 8 8 9 9 10 93 11 10 12
REMARK SMILES IDX 92 13 7 14 6 15 1 16 2 17 3 18 105 19 4 20 94 21 5 22 95 23
REMARK SMILES IDX 96 24 104 25 97 26 103 27 98 28 99 29 100 30 101 31 102 32
REMARK SMILES IDX 19 33 20 34 21 35 22 36 23 37 24 38 25 39 26 40 27 41 91 42
REMARK SMILES IDX 28 43 90 44 29 45 30 46 31 47 84 48 32 49 89 50 83 51 85 52
REMARK SMILES IDX 33 53 88 54 82 55 81 56 34 58 68 59 47 60 67 61 48 62 51 63
REMARK SMILES IDX 66 64 86 65 49 66 50 67 65 69 87 70 52 71 35 72 36 73 45 74
REMARK SMILES IDX 37 75 38 76 44 77 46 78 39 79 40 80 41 81 42 82 43 83 69 84
REMARK SMILES IDX 70 85 79 86 71 87 72 88 78 89 80 90 73 91 74 92 75 93 76 94
REMARK SMILES IDX 77 95 53 96 54 97 63 98 55 99 56 100 62 101 64 102 57 103
REMARK SMILES IDX 58 104 59 105 60 106 61 107
REMARK H PARENT 85 57 51 68
REMARK Flexibility Score: inf
ROOT
ATOM      1  C   UNL A   1      34.333  33.464  32.815  1.00  0.00     0.188 C 
ENDROOT
BRANCH   1   2
ATOM      2  O   UNL A   1      35.064  33.077  33.978  1.00  0.00    -0.376 OA
BRANCH   2   3
ATOM      3  C   UNL A   1      36.418  32.647  33.758  1.00  0.00     0.202 C 
BRANCH   3   4
ATOM      4  C   UNL A   1      37.537  33.657  34.057  1.00  0.00     0.261 C 
BRANCH   4   5
ATOM      5  O   UNL A   1      38.579  33.114  34.892  1.00  0.00    -0.460 OA
BRANCH   5   6
ATOM      6  C   UNL A   1      39.779  32.861  34.307  1.00  0.00     0.338 C 
ATOM      7  O   UNL A   1      40.293  33.528  33.426  1.00  0.00    -0.246 OA
BRANCH   6   8
ATOM      8  C   UNL A   1      40.412  31.667  34.950  1.00  0.00     0.060 A 
ATOM      9  C   UNL A   1      41.719  29.422  36.029  1.00  0.00     0.127 A 
ATOM     10  C   UNL A   1      40.973  29.300  34.859  1.00  0.00     0.048 A 
ATOM     11  C   UNL A   1      41.748  30.639  36.709  1.00  0.00     0.048 A 
ATOM     12  C   UNL A   1      40.348  30.426  34.300  1.00  0.00     0.019 A 
ATOM     13  C   UNL A   1      41.096  31.755  36.173  1.00  0.00     0.019 A 
BRANCH   9  14
ATOM     14  O   UNL A   1      42.267  28.327  36.637  1.00  0.00    -0.449 OA
BRANCH  14  15
ATOM     15  C   UNL A   1      42.882  27.274  35.972  1.00  0.00     0.217 A 
ATOM     16  C   UNL A   1      44.300  23.775  33.851  1.00  0.00     0.088 C 
ATOM     17  C   UNL A   1      43.719  24.921  34.617  1.00  0.00     0.105 A 
ATOM     18  C   UNL A   1      42.484  24.899  35.122  1.00  0.00     0.098 A 
ATOM     19  O   UNL A   1      44.557  26.010  34.752  1.00  0.00    -0.457 OA
ATOM     20  C   UNL A   1      41.994  26.071  35.862  1.00  0.00     0.228 A 
ATOM     21  C   UNL A   1      44.115  27.151  35.411  1.00  0.00     0.180 A 
ATOM     22  O   UNL A   1      40.881  26.027  36.380  1.00  0.00    -0.285 OA
BRANCH  21  23
ATOM     23  C   UNL A   1      45.159  28.181  35.414  1.00  0.00     0.021 A 
ATOM     24  C   UNL A   1      44.826  29.542  35.466  1.00  0.00     0.013 A 
ATOM     25  C   UNL A   1      46.501  27.802  35.447  1.00  0.00     0.013 A 
ATOM     26  C   UNL A   1      45.816  30.503  35.699  1.00  0.00     0.021 A 
ATOM     27  C   UNL A   1      47.488  28.767  35.651  1.00  0.00     0.021 A 
ATOM     28  C   UNL A   1      47.155  30.117  35.798  1.00  0.00     0.067 A 
BRANCH  28  29
ATOM     29  S   UNL A   1      48.358  31.220  36.520  1.00  0.00     0.175 S 
ATOM     30  C   UNL A   1      49.763  30.344  37.111  1.00  0.00     0.163 C 
ATOM     31  O   UNL A   1      48.801  32.102  35.462  1.00  0.00    -0.224 OA
ATOM     32  O   UNL A   1      47.703  31.743  37.699  1.00  0.00    -0.224 OA
ENDBRANCH  28  29
ENDBRANCH  21  23
ENDBRANCH  14  15
ENDBRANCH   9  14
ENDBRANCH   6   8
ENDBRANCH   5   6
ENDBRANCH   4   5
ENDBRANCH   3   4
ENDBRANCH   2   3
ENDBRANCH   1   2
BRANCH   1  33
ATOM     33  C   UNL A   1      35.061  33.157  31.500  1.00  0.00     0.188 C 
BRANCH  33  34
ATOM     34  O   UNL A   1      34.245  32.552  30.507  1.00  0.00    -0.376 OA
BRANCH  34  35
ATOM     35  C   UNL A   1      34.477  33.121  29.209  1.00  0.00     0.202 C 
BRANCH  35  36
ATOM     36  C   UNL A   1      33.702  32.384  28.099  1.00  0.00     0.261 C 
BRANCH  36  37
ATOM     37  O   UNL A   1      34.539  31.502  27.304  1.00  0.00    -0.460 OA
BRANCH  37  38
ATOM     38  C   UNL A   1      34.600  30.193  27.677  1.00  0.00     0.338 C 
ATOM     39  O   UNL A   1      33.685  29.387  27.625  1.00  0.00    -0.246 OA
BRANCH  38  40
ATOM     40  C   UNL A   1      35.993  29.821  28.071  1.00  0.00     0.060 A 
ATOM     41  C   UNL A   1      36.333  29.441  29.374  1.00  0.00     0.016 A 
ATOM     42  C   UNL A   1      37.006  29.875  27.106  1.00  0.00     0.016 A 
ATOM     43  C   UNL A   1      37.682  29.224  29.724  1.00  0.00     0.010 A 
ATOM     44  C   UNL A   1      38.354  29.691  27.463  1.00  0.00     0.010 A 
ATOM     45  C   UNL A   1      38.716  29.400  28.786  1.00  0.00    -0.014 A 
BRANCH  45  46
ATOM     46  C   UNL A   1      40.132  29.066  29.130  1.00  0.00     0.031 A 
ATOM     47  C   UNL A   1      41.106  30.013  29.797  1.00  0.00     0.074 A 
ATOM     48  C   UNL A   1      40.564  27.839  28.795  1.00  0.00     0.049 A 
ATOM     49  N   UNL A   1      42.316  29.795  30.253  1.00  0.00    -0.248 NA
ATOM     50  C   UNL A   1      40.669  31.393  29.975  1.00  0.00     0.031 C 
ATOM     51  C   UNL A   1      39.755  26.824  28.122  1.00  0.00     0.029 A 
ATOM     52  N   UNL A   1      41.784  27.247  28.968  1.00  0.00    -0.354 N 
ATOM     53  C   UNL A   1      42.752  31.000  30.811  1.00  0.00     0.074 A 
ATOM     54  C   UNL A   1      41.690  31.957  30.608  1.00  0.00     0.031 C 
ATOM     55  C   UNL A   1      40.504  25.730  27.933  1.00  0.00     0.029 A 
ATOM     56  C   UNL A   1      41.843  25.973  28.464  1.00  0.00     0.049 A 
ATOM     57  H   UNL A   1      42.545  27.690  29.408  1.00  0.00     0.167 HD
ATOM     58  C   UNL A   1      43.926  31.291  31.424  1.00  0.00     0.037 A 
ATOM     59  C   UNL A   1      42.857  25.091  28.436  1.00  0.00     0.037 A 
ATOM     60  C   UNL A   1      45.020  30.360  31.554  1.00  0.00     0.049 A 
ATOM     61  C   UNL A   1      44.166  25.434  29.079  1.00  0.00     0.074 A 
ATOM     62  C   UNL A   1      46.235  30.539  32.194  1.00  0.00     0.029 A 
ATOM     63  N   UNL A   1      45.046  29.091  30.999  1.00  0.00    -0.354 N 
ATOM     64  N   UNL A   1      44.518  26.537  29.692  1.00  0.00    -0.248 NA
ATOM     65  C   UNL A   1      45.209  24.402  29.040  1.00  0.00     0.031 C 
ATOM     66  C   UNL A   1      47.018  29.400  31.975  1.00  0.00     0.029 A 
ATOM     67  C   UNL A   1      46.269  28.490  31.247  1.00  0.00     0.049 A 
ATOM     68  H   UNL A   1      44.305  28.677  30.500  1.00  0.00     0.167 HD
ATOM     69  C   UNL A   1      45.821  26.328  30.128  1.00  0.00     0.074 A 
ATOM     70  C   UNL A   1      46.187  24.987  29.719  1.00  0.00     0.031 C 
ATOM     71  C   UNL A   1      46.637  27.168  30.811  1.00  0.00     0.037 A 
BRANCH  58  72
ATOM     72  C   UNL A   1      44.121  32.667  32.015  1.00  0.00     0.058 A 
ATOM     73  C   UNL A   1      43.887  32.914  33.378  1.00  0.00     0.135 A 
ATOM     74  C   UNL A   1      44.681  33.708  31.254  1.00  0.00     0.135 A 
ATOM     75  F   UNL A   1      43.349  31.959  34.154  1.00  0.00    -0.206 F 
ATOM     76  C   UNL A   1      44.210  34.135  33.966  1.00  0.00     0.059 A 
ATOM     77  C   UNL A   1      45.030  34.931  31.824  1.00  0.00     0.059 A 
ATOM     78  F   UNL A   1      44.925  33.529  29.946  1.00  0.00    -0.206 F 
ATOM     79  C   UNL A   1      44.794  35.135  33.183  1.00  0.00     0.060 A 
BRANCH  79  80
ATOM     80  S   UNL A   1      45.278  36.683  33.981  1.00  0.00     0.124 S 
ATOM     81  O   UNL A   1      44.174  36.896  34.911  1.00  0.00    -0.237 OA
ATOM     82  O   UNL A   1      46.558  36.332  34.588  1.00  0.00    -0.237 OA
ATOM     83  O   UNL A   1      45.354  37.629  32.871  1.00  0.00    -0.744 OA
ENDBRANCH  79  80
ENDBRANCH  58  72
BRANCH  59  84
ATOM     84  C   UNL A   1      42.620  23.773  27.806  1.00  0.00     0.058 A 
ATOM     85  C   UNL A   1      42.749  23.612  26.421  1.00  0.00     0.135 A 
ATOM     86  C   UNL A   1      42.377  22.634  28.589  1.00  0.00     0.135 A 
ATOM     87  F   UNL A   1      42.988  24.677  25.641  1.00  0.00    -0.206 F 
ATOM     88  C   UNL A   1      42.654  22.360  25.829  1.00  0.00     0.059 A 
ATOM     89  C   UNL A   1      42.300  21.368  28.022  1.00  0.00     0.059 A 
ATOM     90  F   UNL A   1      42.277  22.743  29.923  1.00  0.00    -0.206 F 
ATOM     91  C   UNL A   1      42.442  21.243  26.640  1.00  0.00     0.060 A 
BRANCH  91  92
ATOM     92  S   UNL A   1      42.428  19.612  25.870  1.00  0.00     0.124 S 
ATOM     93  O   UNL A   1      41.031  19.490  25.468  1.00  0.00    -0.237 OA
ATOM     94  O   UNL A   1      43.394  19.778  24.788  1.00  0.00    -0.237 OA
ATOM     95  O   UNL A   1      42.855  18.728  26.951  1.00  0.00    -0.744 OA
ENDBRANCH  91  92
ENDBRANCH  59  84
BRANCH  71  96
ATOM     96  C   UNL A   1      48.013  26.669  31.150  1.00  0.00     0.058 A 
ATOM     97  C   UNL A   1      48.262  25.962  32.337  1.00  0.00     0.135 A 
ATOM     98  C   UNL A   1      49.085  26.870  30.266  1.00  0.00     0.135 A 
ATOM     99  F   UNL A   1      47.271  25.749  33.217  1.00  0.00    -0.206 F 
ATOM    100  C   UNL A   1      49.534  25.498  32.651  1.00  0.00     0.059 A 
ATOM    101  C   UNL A   1      50.360  26.391  30.547  1.00  0.00     0.059 A 
ATOM    102  F   UNL A   1      48.896  27.530  29.112  1.00  0.00    -0.206 F 
ATOM    103  C   UNL A   1      50.578  25.719  31.750  1.00  0.00     0.060 A 
BRANCH 103 104
ATOM    104  S   UNL A   1      52.222  25.103  32.168  1.00  0.00     0.124 S 
ATOM    105  O   UNL A   1      53.029  25.669  31.091  1.00  0.00    -0.237 OA
ATOM    106  O   UNL A   1      52.443  25.677  33.492  1.00  0.00    -0.237 OA
ATOM    107  O   UNL A   1      52.062  23.653  32.137  1.00  0.00    -0.744 OA
ENDBRANCH 103 104
ENDBRANCH  71  96
ENDBRANCH  45  46
ENDBRANCH  38  40
ENDBRANCH  37  38
ENDBRANCH  36  37
ENDBRANCH  35  36
ENDBRANCH  34  35
ENDBRANCH  33  34
ENDBRANCH   1  33
TORSDOF 24
ENDMDL
MODEL 3
REMARK VINA RESULT:      -9.3      6.183      9.825
REMARK SMILES Cc1cc(=O)c(Oc2ccc(C(=O)OCCOCCOCCOC(=O)c3ccc(-c4c5nc(c(-c6c(F)cc(S(=O)(=O)[O-])cc6F)c6ccc([nH]6)c(-c6c(F)cc(S(=O)(=O)[O-])cc6F)c6nc(c(-c7c(F)cc(S(=O)(=O)[O-])cc7F)c7ccc4[nH]7)C=C6)C=C5)cc3)cc2)c(-c2ccc(S(C)(=O)=O)cc2)o1
REMARK SMILES IDX 18 1 17 2 16 3 15 4 14 5 12 6 13 7 11 8 8 9 9 10 93 11 10 12
REMARK SMILES IDX 92 13 7 14 6 15 1 16 2 17 3 18 105 19 4 20 94 21 5 22 95 23
REMARK SMILES IDX 96 24 104 25 97 26 103 27 98 28 99 29 100 30 101 31 102 32
REMARK SMILES IDX 19 33 20 34 21 35 22 36 23 37 24 38 25 39 26 40 27 41 91 42
REMARK SMILES IDX 28 43 90 44 29 45 30 46 31 47 84 48 32 49 89 50 83 51 85 52
REMARK SMILES IDX 33 53 88 54 82 55 81 56 34 58 68 59 47 60 67 61 48 62 51 63
REMARK SMILES IDX 66 64 86 65 49 66 50 67 65 69 87 70 52 71 35 72 36 73 45 74
REMARK SMILES IDX 37 75 38 76 44 77 46 78 39 79 40 80 41 81 42 82 43 83 69 84
REMARK SMILES IDX 70 85 79 86 71 87 72 88 78 89 80 90 73 91 74 92 75 93 76 94
REMARK SMILES IDX 77 95 53 96 54 97 63 98 55 99 56 100 62 101 64 102 57 103
REMARK SMILES IDX 58 104 59 105 60 106 61 107
REMARK H PARENT 85 57 51 68
REMARK Flexibility Score: inf
ROOT
ATOM      1  C   UNL A   1      36.136  29.598  27.732  1.00  0.00     0.188 C 
ENDROOT
BRANCH   1   2
ATOM      2  O   UNL A   1      34.829  29.969  28.169  1.00  0.00    -0.376 OA
BRANCH   2   3
ATOM      3  C   UNL A   1      34.093  30.837  27.291  1.00  0.00     0.202 C 
BRANCH   3   4
ATOM      4  C   UNL A   1      32.888  30.235  26.550  1.00  0.00     0.261 C 
BRANCH   4   5
ATOM      5  O   UNL A   1      33.262  29.496  25.370  1.00  0.00    -0.460 OA
BRANCH   5   6
ATOM      6  C   UNL A   1      32.292  28.767  24.758  1.00  0.00     0.338 C 
ATOM      7  O   UNL A   1      31.153  29.140  24.545  1.00  0.00    -0.246 OA
BRANCH   6   8
ATOM      8  C   UNL A   1      32.852  27.448  24.323  1.00  0.00     0.060 A 
ATOM      9  C   UNL A   1      33.746  24.899  23.537  1.00  0.00     0.127 A 
ATOM     10  C   UNL A   1      33.471  25.161  24.878  1.00  0.00     0.048 A 
ATOM     11  C   UNL A   1      33.656  25.928  22.599  1.00  0.00     0.048 A 
ATOM     12  C   UNL A   1      32.993  26.421  25.268  1.00  0.00     0.019 A 
ATOM     13  C   UNL A   1      33.214  27.196  22.990  1.00  0.00     0.019 A 
BRANCH   9  14
ATOM     14  O   UNL A   1      34.291  23.709  23.144  1.00  0.00    -0.449 OA
BRANCH  14  15
ATOM     15  C   UNL A   1      34.084  22.492  23.782  1.00  0.00     0.217 A 
ATOM     16  C   UNL A   1      33.002  18.645  25.449  1.00  0.00     0.088 C 
ATOM     17  C   UNL A   1      33.265  19.987  24.843  1.00  0.00     0.105 A 
ATOM     18  C   UNL A   1      32.364  20.633  24.101  1.00  0.00     0.098 A 
ATOM     19  O   UNL A   1      34.520  20.502  25.100  1.00  0.00    -0.457 OA
ATOM     20  C   UNL A   1      32.707  21.949  23.544  1.00  0.00     0.228 A 
ATOM     21  C   UNL A   1      34.895  21.726  24.558  1.00  0.00     0.180 A 
ATOM     22  O   UNL A   1      31.856  22.571  22.913  1.00  0.00    -0.285 OA
BRANCH  21  23
ATOM     23  C   UNL A   1      36.270  22.061  24.946  1.00  0.00     0.021 A 
ATOM     24  C   UNL A   1      36.572  23.303  25.520  1.00  0.00     0.013 A 
ATOM     25  C   UNL A   1      37.275  21.103  24.815  1.00  0.00     0.013 A 
ATOM     26  C   UNL A   1      37.828  23.529  26.094  1.00  0.00     0.021 A 
ATOM     27  C   UNL A   1      38.535  21.344  25.363  1.00  0.00     0.021 A 
ATOM     28  C   UNL A   1      38.816  22.545  26.022  1.00  0.00     0.067 A 
BRANCH  28  29
ATOM     29  S   UNL A   1      40.238  22.617  27.099  1.00  0.00     0.175 S 
ATOM     30  C   UNL A   1      41.732  22.772  26.185  1.00  0.00     0.163 C 
ATOM     31  O   UNL A   1      40.088  23.809  27.905  1.00  0.00    -0.224 OA
ATOM     32  O   UNL A   1      40.292  21.307  27.709  1.00  0.00    -0.224 OA
ENDBRANCH  28  29
ENDBRANCH  21  23
ENDBRANCH  14  15
ENDBRANCH   9  14
ENDBRANCH   6   8
ENDBRANCH   5   6
ENDBRANCH   4   5
ENDBRANCH   3   4
ENDBRANCH   2   3
ENDBRANCH   1   2
BRANCH   1  33
ATOM     33  C   UNL A   1      37.235  30.565  28.190  1.00  0.00     0.188 C 
BRANCH  33  34
ATOM     34  O   UNL A   1      36.847  31.437  29.242  1.00  0.00    -0.376 OA
BRANCH  34  35
ATOM     35  C   UNL A   1      36.883  32.813  28.833  1.00  0.00     0.202 C 
BRANCH  35  36
ATOM     36  C   UNL A   1      35.639  33.595  29.298  1.00  0.00     0.261 C 
BRANCH  36  37
ATOM     37  O   UNL A   1      35.796  34.193  30.613  1.00  0.00    -0.460 OA
BRANCH  37  38
ATOM     38  C   UNL A   1      35.380  33.464  31.685  1.00  0.00     0.338 C 
ATOM     39  O   UNL A   1      34.272  32.975  31.837  1.00  0.00    -0.246 OA
BRANCH  38  40
ATOM     40  C   UNL A   1      36.509  33.237  32.639  1.00  0.00     0.060 A 
ATOM     41  C   UNL A   1      36.329  32.645  33.894  1.00  0.00     0.016 A 
ATOM     42  C   UNL A   1      37.795  33.650  32.272  1.00  0.00     0.016 A 
ATOM     43  C   UNL A   1      37.402  32.570  34.806  1.00  0.00     0.010 A 
ATOM     44  C   UNL A   1      38.857  33.606  33.194  1.00  0.00     0.010 A 
ATOM     45  C   UNL A   1      38.667  33.099  34.489  1.00  0.00    -0.014 A 
BRANCH  45  46
ATOM     46  C   UNL A   1      39.829  32.923  35.413  1.00  0.00     0.031 A 
ATOM     47  C   UNL A   1      40.328  33.972  36.383  1.00  0.00     0.074 A 
ATOM     48  C   UNL A   1      40.482  31.751  35.349  1.00  0.00     0.049 A 
ATOM     49  N   UNL A   1      41.246  33.888  37.316  1.00  0.00    -0.248 NA
ATOM     50  C   UNL A   1      39.723  35.296  36.296  1.00  0.00     0.031 C 
ATOM     51  C   UNL A   1      40.140  30.653  34.446  1.00  0.00     0.029 A 
ATOM     52  N   UNL A   1      41.566  31.296  36.048  1.00  0.00    -0.354 N 
ATOM     53  C   UNL A   1      41.282  35.134  37.949  1.00  0.00     0.074 A 
ATOM     54  C   UNL A   1      40.317  35.968  37.272  1.00  0.00     0.031 C 
ATOM     55  C   UNL A   1      41.004  29.648  34.642  1.00  0.00     0.029 A 
ATOM     56  C   UNL A   1      41.959  30.037  35.677  1.00  0.00     0.049 A 
ATOM     57  H   UNL A   1      42.020  31.821  36.746  1.00  0.00     0.167 HD
ATOM     58  C   UNL A   1      42.050  35.552  38.985  1.00  0.00     0.037 A 
ATOM     59  C   UNL A   1      42.972  29.272  36.119  1.00  0.00     0.037 A 
ATOM     60  C   UNL A   1      43.072  34.747  39.608  1.00  0.00     0.049 A 
ATOM     61  C   UNL A   1      43.843  29.757  37.237  1.00  0.00     0.074 A 
ATOM     62  C   UNL A   1      43.876  35.058  40.692  1.00  0.00     0.029 A 
ATOM     63  N   UNL A   1      43.457  33.488  39.176  1.00  0.00    -0.354 N 
ATOM     64  N   UNL A   1      43.789  30.892  37.890  1.00  0.00    -0.248 NA
ATOM     65  C   UNL A   1      44.900  28.846  37.691  1.00  0.00     0.031 C 
ATOM     66  C   UNL A   1      44.787  34.012  40.877  1.00  0.00     0.029 A 
ATOM     67  C   UNL A   1      44.512  33.026  39.945  1.00  0.00     0.049 A 
ATOM     68  H   UNL A   1      43.043  32.995  38.431  1.00  0.00     0.167 HD
ATOM     69  C   UNL A   1      44.798  30.827  38.844  1.00  0.00     0.074 A 
ATOM     70  C   UNL A   1      45.434  29.534  38.691  1.00  0.00     0.031 C 
ATOM     71  C   UNL A   1      45.160  31.752  39.767  1.00  0.00     0.037 A 
BRANCH  58  72
ATOM     72  C   UNL A   1      41.838  36.941  39.539  1.00  0.00     0.058 A 
ATOM     73  C   UNL A   1      42.670  38.009  39.167  1.00  0.00     0.135 A 
ATOM     74  C   UNL A   1      40.713  37.240  40.329  1.00  0.00     0.135 A 
ATOM     75  F   UNL A   1      43.762  37.784  38.418  1.00  0.00    -0.206 F 
ATOM     76  C   UNL A   1      42.392  39.320  39.547  1.00  0.00     0.059 A 
ATOM     77  C   UNL A   1      40.404  38.546  40.705  1.00  0.00     0.059 A 
ATOM     78  F   UNL A   1      39.882  36.260  40.715  1.00  0.00    -0.206 F 
ATOM     79  C   UNL A   1      41.248  39.582  40.306  1.00  0.00     0.060 A 
BRANCH  79  80
ATOM     80  S   UNL A   1      40.862  41.298  40.722  1.00  0.00     0.124 S 
ATOM     81  O   UNL A   1      39.404  41.274  40.757  1.00  0.00    -0.237 OA
ATOM     82  O   UNL A   1      41.523  41.461  42.012  1.00  0.00    -0.237 OA
ATOM     83  O   UNL A   1      41.450  42.056  39.621  1.00  0.00    -0.744 OA
ENDBRANCH  79  80
ENDBRANCH  58  72
BRANCH  59  84
ATOM     84  C   UNL A   1      43.157  27.935  35.511  1.00  0.00     0.058 A 
ATOM     85  C   UNL A   1      44.042  27.756  34.441  1.00  0.00     0.135 A 
ATOM     86  C   UNL A   1      42.543  26.800  36.064  1.00  0.00     0.135 A 
ATOM     87  F   UNL A   1      44.652  28.817  33.891  1.00  0.00    -0.206 F 
ATOM     88  C   UNL A   1      44.321  26.492  33.940  1.00  0.00     0.059 A 
ATOM     89  C   UNL A   1      42.823  25.524  35.595  1.00  0.00     0.059 A 
ATOM     90  F   UNL A   1      41.711  26.928  37.110  1.00  0.00    -0.206 F 
ATOM     91  C   UNL A   1      43.716  25.381  34.533  1.00  0.00     0.060 A 
BRANCH  91  92
ATOM     92  S   UNL A   1      44.171  23.738  33.944  1.00  0.00     0.124 S 
ATOM     93  O   UNL A   1      44.514  24.011  32.553  1.00  0.00    -0.237 OA
ATOM     94  O   UNL A   1      45.286  23.397  34.823  1.00  0.00    -0.237 OA
ATOM     95  O   UNL A   1      42.955  22.958  34.157  1.00  0.00    -0.744 OA
ENDBRANCH  91  92
ENDBRANCH  59  84
BRANCH  71  96
ATOM     96  C   UNL A   1      46.304  31.407  40.678  1.00  0.00     0.058 A 
ATOM     97  C   UNL A   1      46.095  30.727  41.887  1.00  0.00     0.135 A 
ATOM     98  C   UNL A   1      47.623  31.730  40.323  1.00  0.00     0.135 A 
ATOM     99  F   UNL A   1      44.852  30.400  42.273  1.00  0.00    -0.206 F 
ATOM    100  C   UNL A   1      47.153  30.405  42.729  1.00  0.00     0.059 A 
ATOM    101  C   UNL A   1      48.700  31.395  41.138  1.00  0.00     0.059 A 
ATOM    102  F   UNL A   1      47.877  32.371  39.170  1.00  0.00    -0.206 F 
ATOM    103  C   UNL A   1      48.452  30.745  42.347  1.00  0.00     0.060 A 
BRANCH 103 104
ATOM    104  S   UNL A   1      49.816  30.313  43.448  1.00  0.00     0.124 S 
ATOM    105  O   UNL A   1      49.763  31.401  44.419  1.00  0.00    -0.237 OA
ATOM    106  O   UNL A   1      49.413  29.002  43.944  1.00  0.00    -0.237 OA
ATOM    107  O   UNL A   1      50.979  30.315  42.567  1.00  0.00    -0.744 OA
ENDBRANCH 103 104
ENDBRANCH  71  96
ENDBRANCH  45  46
ENDBRANCH  38  40
ENDBRANCH  37  38
ENDBRANCH  36  37
ENDBRANCH  35  36
ENDBRANCH  34  35
ENDBRANCH  33  34
ENDBRANCH   1  33
TORSDOF 24
ENDMDL
