MODEL 1
REMARK VINA RESULT:     -10.4      0.000      0.000
REMARK SMILES CC1CCN(C(=O)Nc2nccnc2C(=O)OCCOCCOCCOC(=O)c2ccc(-c3c4nc(c(-c5c(F)cc(S(=O)(=O)[O-])cc5F)c5ccc([nH]5)c(-c5c(F)cc(S(=O)(=O)[O-])cc5F)c5nc(c(-c6c(F)cc(S(=O)(=O)[O-])cc6F)c6ccc3[nH]6)C=C5)C=C4)cc2)CC1
REMARK SMILES IDX 22 1 21 2 20 3 19 4 18 5 17 6 15 7 16 8 14 9 9 10 10 11
REMARK SMILES IDX 11 12 13 13 12 14 8 15 1 16 2 17 3 18 96 19 4 20 95 21 5 22
REMARK SMILES IDX 6 23 7 24 23 26 24 27 25 28 26 29 27 30 28 31 29 32 30 33
REMARK SMILES IDX 94 34 31 35 93 36 32 37 33 38 34 39 87 40 35 41 92 42 86 43
REMARK SMILES IDX 88 44 36 45 91 46 85 47 84 48 37 50 71 51 50 52 70 53 51 54
REMARK SMILES IDX 54 55 69 56 89 57 52 58 53 59 68 61 90 62 55 63 38 64 39 65
REMARK SMILES IDX 48 66 40 67 41 68 47 69 49 70 42 71 43 72 44 73 45 74 46 75
REMARK SMILES IDX 72 76 73 77 82 78 74 79 75 80 81 81 83 82 76 83 77 84 78 85
REMARK SMILES IDX 79 86 80 87 56 88 57 89 66 90 58 91 59 92 65 93 67 94 60 95
REMARK SMILES IDX 61 96 62 97 63 98 64 99
REMARK H PARENT 8 25 88 49 54 60
REMARK Flexibility Score: inf
ROOT
ATOM      1  C   UNL A   1      39.058  22.717  26.354  1.00  0.00     0.188 C 
ENDROOT
BRANCH   1   2
ATOM      2  C   UNL A   1      37.702  22.666  25.623  1.00  0.00     0.188 C 
BRANCH   2   3
ATOM      3  O   UNL A   1      37.262  23.790  24.870  1.00  0.00    -0.376 OA
BRANCH   3   4
ATOM      4  C   UNL A   1      35.882  23.924  24.551  1.00  0.00     0.202 C 
BRANCH   4   5
ATOM      5  C   UNL A   1      35.000  24.740  25.503  1.00  0.00     0.261 C 
BRANCH   5   6
ATOM      6  O   UNL A   1      33.841  24.020  25.966  1.00  0.00    -0.458 OA
BRANCH   6   7
ATOM      7  C   UNL A   1      34.115  22.875  26.649  1.00  0.00     0.360 C 
ATOM      8  O   UNL A   1      34.676  22.823  27.733  1.00  0.00    -0.244 OA
BRANCH   7   9
ATOM      9  C   UNL A   1      33.557  21.670  25.966  1.00  0.00     0.191 A 
ATOM     10  C   UNL A   1      32.189  21.417  25.764  1.00  0.00     0.167 A 
ATOM     11  N   UNL A   1      31.822  20.365  24.995  1.00  0.00    -0.235 NA
ATOM     12  C   UNL A   1      32.794  19.526  24.560  1.00  0.00     0.133 A 
ATOM     13  N   UNL A   1      34.533  20.812  25.528  1.00  0.00    -0.244 NA
ATOM     14  C   UNL A   1      34.123  19.729  24.846  1.00  0.00     0.132 A 
BRANCH  10  15
ATOM     15  N   UNL A   1      31.198  22.230  26.338  1.00  0.00    -0.290 N 
ATOM     16  C   UNL A   1      33.098  26.614  22.458  1.00  0.00     0.008 C 
ATOM     17  C   UNL A   1      31.871  25.799  22.868  1.00  0.00    -0.011 C 
ATOM     18  C   UNL A   1      31.281  26.344  24.183  1.00  0.00     0.025 C 
ATOM     19  C   UNL A   1      32.223  24.305  22.995  1.00  0.00     0.025 C 
ATOM     20  C   UNL A   1      30.192  25.437  24.758  1.00  0.00     0.121 C 
ATOM     21  C   UNL A   1      31.031  23.519  23.547  1.00  0.00     0.121 C 
ATOM     22  N   UNL A   1      30.670  24.057  24.854  1.00  0.00    -0.324 N 
ATOM     23  C   UNL A   1      30.661  23.440  26.074  1.00  0.00     0.323 C 
ATOM     24  O   UNL A   1      30.074  23.956  27.037  1.00  0.00    -0.248 OA
ATOM     25  H   UNL A   1      30.793  21.812  27.132  1.00  0.00     0.173 HD
ENDBRANCH  10  15
ENDBRANCH   7   9
ENDBRANCH   6   7
ENDBRANCH   5   6
ENDBRANCH   4   5
ENDBRANCH   3   4
ENDBRANCH   2   3
ENDBRANCH   1   2
BRANCH   1  26
ATOM     26  O   UNL A   1      39.799  21.511  26.334  1.00  0.00    -0.376 OA
BRANCH  26  27
ATOM     27  C   UNL A   1      40.937  21.478  27.189  1.00  0.00     0.202 C 
BRANCH  27  28
ATOM     28  C   UNL A   1      42.192  22.138  26.598  1.00  0.00     0.261 C 
BRANCH  28  29
ATOM     29  O   UNL A   1      42.616  23.341  27.266  1.00  0.00    -0.460 OA
BRANCH  29  30
ATOM     30  C   UNL A   1      42.541  24.487  26.552  1.00  0.00     0.338 C 
ATOM     31  O   UNL A   1      42.688  24.612  25.349  1.00  0.00    -0.246 OA
BRANCH  30  32
ATOM     32  C   UNL A   1      42.043  25.554  27.444  1.00  0.00     0.060 A 
ATOM     33  C   UNL A   1      42.802  26.723  27.578  1.00  0.00     0.016 A 
ATOM     34  C   UNL A   1      40.849  25.399  28.153  1.00  0.00     0.016 A 
ATOM     35  C   UNL A   1      42.388  27.724  28.458  1.00  0.00     0.010 A 
ATOM     36  C   UNL A   1      40.445  26.396  29.047  1.00  0.00     0.010 A 
ATOM     37  C   UNL A   1      41.232  27.545  29.232  1.00  0.00    -0.014 A 
BRANCH  37  38
ATOM     38  C   UNL A   1      40.973  28.462  30.370  1.00  0.00     0.031 A 
ATOM     39  C   UNL A   1      41.870  28.373  31.576  1.00  0.00     0.074 A 
ATOM     40  C   UNL A   1      39.994  29.382  30.325  1.00  0.00     0.049 A 
ATOM     41  N   UNL A   1      41.883  29.108  32.657  1.00  0.00    -0.248 NA
ATOM     42  C   UNL A   1      42.890  27.312  31.554  1.00  0.00     0.031 C 
ATOM     43  C   UNL A   1      39.071  29.584  29.210  1.00  0.00     0.029 A 
ATOM     44  N   UNL A   1      39.622  30.327  31.248  1.00  0.00    -0.354 N 
ATOM     45  C   UNL A   1      42.914  28.603  33.443  1.00  0.00     0.074 A 
ATOM     46  C   UNL A   1      43.477  27.477  32.729  1.00  0.00     0.031 C 
ATOM     47  C   UNL A   1      38.240  30.597  29.513  1.00  0.00     0.029 A 
ATOM     48  C   UNL A   1      38.563  31.104  30.847  1.00  0.00     0.049 A 
ATOM     49  H   UNL A   1      40.072  30.437  32.118  1.00  0.00     0.167 HD
ATOM     50  C   UNL A   1      43.361  29.042  34.644  1.00  0.00     0.037 A 
ATOM     51  C   UNL A   1      37.931  32.112  31.484  1.00  0.00     0.037 A 
ATOM     52  C   UNL A   1      42.791  30.149  35.364  1.00  0.00     0.049 A 
ATOM     53  C   UNL A   1      38.410  32.551  32.844  1.00  0.00     0.074 A 
ATOM     54  C   UNL A   1      43.182  30.678  36.582  1.00  0.00     0.029 A 
ATOM     55  N   UNL A   1      41.698  30.889  34.939  1.00  0.00    -0.354 N 
ATOM     56  N   UNL A   1      39.414  32.094  33.554  1.00  0.00    -0.248 NA
ATOM     57  C   UNL A   1      37.674  33.652  33.482  1.00  0.00     0.031 C 
ATOM     58  C   UNL A   1      42.299  31.713  36.912  1.00  0.00     0.029 A 
ATOM     59  C   UNL A   1      41.388  31.859  35.879  1.00  0.00     0.049 A 
ATOM     60  H   UNL A   1      41.214  30.747  34.094  1.00  0.00     0.167 HD
ATOM     61  C   UNL A   1      39.452  32.875  34.706  1.00  0.00     0.074 A 
ATOM     62  C   UNL A   1      38.372  33.833  34.596  1.00  0.00     0.031 C 
ATOM     63  C   UNL A   1      40.313  32.812  35.754  1.00  0.00     0.037 A 
BRANCH  50  64
ATOM     64  C   UNL A   1      44.506  28.286  35.258  1.00  0.00     0.058 A 
ATOM     65  C   UNL A   1      45.843  28.610  34.969  1.00  0.00     0.135 A 
ATOM     66  C   UNL A   1      44.265  27.207  36.122  1.00  0.00     0.135 A 
ATOM     67  F   UNL A   1      46.127  29.622  34.133  1.00  0.00    -0.206 F 
ATOM     68  C   UNL A   1      46.898  27.861  35.477  1.00  0.00     0.059 A 
ATOM     69  C   UNL A   1      45.307  26.459  36.663  1.00  0.00     0.059 A 
ATOM     70  F   UNL A   1      43.007  26.855  36.430  1.00  0.00    -0.206 F 
ATOM     71  C   UNL A   1      46.618  26.780  36.314  1.00  0.00     0.060 A 
BRANCH  71  72
ATOM     72  S   UNL A   1      47.992  25.784  36.931  1.00  0.00     0.124 S 
ATOM     73  O   UNL A   1      47.288  24.639  37.497  1.00  0.00    -0.237 OA
ATOM     74  O   UNL A   1      48.759  25.519  35.717  1.00  0.00    -0.237 OA
ATOM     75  O   UNL A   1      48.641  26.665  37.897  1.00  0.00    -0.744 OA
ENDBRANCH  71  72
ENDBRANCH  50  64
BRANCH  51  76
ATOM     76  C   UNL A   1      36.794  32.804  30.822  1.00  0.00     0.058 A 
ATOM     77  C   UNL A   1      35.468  32.461  31.126  1.00  0.00     0.135 A 
ATOM     78  C   UNL A   1      37.007  33.826  29.885  1.00  0.00     0.135 A 
ATOM     79  F   UNL A   1      35.213  31.481  32.006  1.00  0.00    -0.206 F 
ATOM     80  C   UNL A   1      34.393  33.105  30.522  1.00  0.00     0.059 A 
ATOM     81  C   UNL A   1      35.949  34.499  29.284  1.00  0.00     0.059 A 
ATOM     82  F   UNL A   1      38.259  34.192  29.566  1.00  0.00    -0.206 F 
ATOM     83  C   UNL A   1      34.644  34.127  29.606  1.00  0.00     0.060 A 
BRANCH  83  84
ATOM     84  S   UNL A   1      33.239  35.004  28.883  1.00  0.00     0.124 S 
ATOM     85  O   UNL A   1      33.885  36.186  28.325  1.00  0.00    -0.237 OA
ATOM     86  O   UNL A   1      32.739  34.032  27.915  1.00  0.00    -0.237 OA
ATOM     87  O   UNL A   1      32.367  35.241  30.029  1.00  0.00    -0.744 OA
ENDBRANCH  83  84
ENDBRANCH  51  76
BRANCH  63  88
ATOM     88  C   UNL A   1      40.153  33.836  36.845  1.00  0.00     0.058 A 
ATOM     89  C   UNL A   1      39.414  33.572  38.009  1.00  0.00     0.135 A 
ATOM     90  C   UNL A   1      40.779  35.089  36.737  1.00  0.00     0.135 A 
ATOM     91  F   UNL A   1      38.794  32.391  38.163  1.00  0.00    -0.206 F 
ATOM     92  C   UNL A   1      39.274  34.527  39.013  1.00  0.00     0.059 A 
ATOM     93  C   UNL A   1      40.672  36.049  37.738  1.00  0.00     0.059 A 
ATOM     94  F   UNL A   1      41.509  35.388  35.650  1.00  0.00    -0.206 F 
ATOM     95  C   UNL A   1      39.904  35.765  38.866  1.00  0.00     0.060 A 
BRANCH  95  96
ATOM     96  S   UNL A   1      39.726  36.994  40.176  1.00  0.00     0.124 S 
ATOM     97  O   UNL A   1      39.717  38.237  39.412  1.00  0.00    -0.237 OA
ATOM     98  O   UNL A   1      38.458  36.618  40.792  1.00  0.00    -0.237 OA
ATOM     99  O   UNL A   1      40.907  36.776  41.007  1.00  0.00    -0.744 OA
ENDBRANCH  95  96
ENDBRANCH  63  88
ENDBRANCH  37  38
ENDBRANCH  30  32
ENDBRANCH  29  30
ENDBRANCH  28  29
ENDBRANCH  27  28
ENDBRANCH  26  27
ENDBRANCH   1  26
TORSDOF 21
ENDMDL
MODEL 2
REMARK VINA RESULT:     -10.4      1.305      2.482
REMARK SMILES CC1CCN(C(=O)Nc2nccnc2C(=O)OCCOCCOCCOC(=O)c2ccc(-c3c4nc(c(-c5c(F)cc(S(=O)(=O)[O-])cc5F)c5ccc([nH]5)c(-c5c(F)cc(S(=O)(=O)[O-])cc5F)c5nc(c(-c6c(F)cc(S(=O)(=O)[O-])cc6F)c6ccc3[nH]6)C=C5)C=C4)cc2)CC1
REMARK SMILES IDX 22 1 21 2 20 3 19 4 18 5 17 6 15 7 16 8 14 9 9 10 10 11
REMARK SMILES IDX 11 12 13 13 12 14 8 15 1 16 2 17 3 18 96 19 4 20 95 21 5 22
REMARK SMILES IDX 6 23 7 24 23 26 24 27 25 28 26 29 27 30 28 31 29 32 30 33
REMARK SMILES IDX 94 34 31 35 93 36 32 37 33 38 34 39 87 40 35 41 92 42 86 43
REMARK SMILES IDX 88 44 36 45 91 46 85 47 84 48 37 50 71 51 50 52 70 53 51 54
REMARK SMILES IDX 54 55 69 56 89 57 52 58 53 59 68 61 90 62 55 63 38 64 39 65
REMARK SMILES IDX 48 66 40 67 41 68 47 69 49 70 42 71 43 72 44 73 45 74 46 75
REMARK SMILES IDX 72 76 73 77 82 78 74 79 75 80 81 81 83 82 76 83 77 84 78 85
REMARK SMILES IDX 79 86 80 87 56 88 57 89 66 90 58 91 59 92 65 93 67 94 60 95
REMARK SMILES IDX 61 96 62 97 63 98 64 99
REMARK H PARENT 8 25 88 49 54 60
REMARK Flexibility Score: inf
ROOT
ATOM      1  C   UNL A   1      39.288  22.703  26.354  1.00  0.00     0.188 C 
ENDROOT
BRANCH   1   2
ATOM      2  C   UNL A   1      37.866  22.721  25.759  1.00  0.00     0.188 C 
BRANCH   2   3
ATOM      3  O   UNL A   1      37.073  23.898  25.858  1.00  0.00    -0.376 OA
BRANCH   3   4
ATOM      4  C   UNL A   1      35.802  23.944  25.221  1.00  0.00     0.202 C 
BRANCH   4   5
ATOM      5  C   UNL A   1      34.557  23.702  26.081  1.00  0.00     0.261 C 
BRANCH   5   6
ATOM      6  O   UNL A   1      33.351  24.240  25.505  1.00  0.00    -0.458 OA
BRANCH   6   7
ATOM      7  C   UNL A   1      32.896  23.576  24.408  1.00  0.00     0.360 C 
ATOM      8  O   UNL A   1      32.783  22.363  24.319  1.00  0.00    -0.244 OA
BRANCH   7   9
ATOM      9  C   UNL A   1      32.446  24.512  23.335  1.00  0.00     0.191 A 
ATOM     10  C   UNL A   1      31.451  25.494  23.484  1.00  0.00     0.167 A 
ATOM     11  N   UNL A   1      31.246  26.381  22.481  1.00  0.00    -0.235 NA
ATOM     12  C   UNL A   1      31.927  26.197  21.323  1.00  0.00     0.133 A 
ATOM     13  N   UNL A   1      33.125  24.330  22.157  1.00  0.00    -0.244 NA
ATOM     14  C   UNL A   1      32.828  25.173  21.153  1.00  0.00     0.132 A 
BRANCH  10  15
ATOM     15  N   UNL A   1      30.669  25.577  24.647  1.00  0.00    -0.290 N 
ATOM     16  C   UNL A   1      35.104  29.200  26.903  1.00  0.00     0.008 C 
ATOM     17  C   UNL A   1      33.610  29.161  26.578  1.00  0.00    -0.011 C 
ATOM     18  C   UNL A   1      32.850  28.365  27.656  1.00  0.00     0.025 C 
ATOM     19  C   UNL A   1      33.369  28.571  25.177  1.00  0.00     0.025 C 
ATOM     20  C   UNL A   1      31.391  28.104  27.272  1.00  0.00     0.121 C 
ATOM     21  C   UNL A   1      31.869  28.399  24.919  1.00  0.00     0.121 C 
ATOM     22  N   UNL A   1      31.310  27.513  25.935  1.00  0.00    -0.324 N 
ATOM     23  C   UNL A   1      30.695  26.302  25.786  1.00  0.00     0.323 C 
ATOM     24  O   UNL A   1      30.041  25.809  26.717  1.00  0.00    -0.248 OA
ATOM     25  H   UNL A   1      29.911  24.949  24.627  1.00  0.00     0.173 HD
ENDBRANCH  10  15
ENDBRANCH   7   9
ENDBRANCH   6   7
ENDBRANCH   5   6
ENDBRANCH   4   5
ENDBRANCH   3   4
ENDBRANCH   2   3
ENDBRANCH   1   2
BRANCH   1  26
ATOM     26  O   UNL A   1      39.857  21.416  26.512  1.00  0.00    -0.376 OA
BRANCH  26  27
ATOM     27  C   UNL A   1      41.040  21.365  27.303  1.00  0.00     0.202 C 
BRANCH  27  28
ATOM     28  C   UNL A   1      42.218  22.167  26.730  1.00  0.00     0.261 C 
BRANCH  28  29
ATOM     29  O   UNL A   1      42.559  23.356  27.468  1.00  0.00    -0.460 OA
BRANCH  29  30
ATOM     30  C   UNL A   1      42.586  24.513  26.771  1.00  0.00     0.338 C 
ATOM     31  O   UNL A   1      42.839  24.650  25.586  1.00  0.00    -0.246 OA
BRANCH  30  32
ATOM     32  C   UNL A   1      42.055  25.586  27.637  1.00  0.00     0.060 A 
ATOM     33  C   UNL A   1      42.785  26.776  27.753  1.00  0.00     0.016 A 
ATOM     34  C   UNL A   1      40.859  25.417  28.338  1.00  0.00     0.016 A 
ATOM     35  C   UNL A   1      42.340  27.783  28.610  1.00  0.00     0.010 A 
ATOM     36  C   UNL A   1      40.423  26.422  29.209  1.00  0.00     0.010 A 
ATOM     37  C   UNL A   1      41.182  27.593  29.376  1.00  0.00    -0.014 A 
BRANCH  37  38
ATOM     38  C   UNL A   1      40.891  28.526  30.494  1.00  0.00     0.031 A 
ATOM     39  C   UNL A   1      41.746  28.447  31.730  1.00  0.00     0.074 A 
ATOM     40  C   UNL A   1      39.919  29.451  30.404  1.00  0.00     0.049 A 
ATOM     41  N   UNL A   1      41.727  29.196  32.802  1.00  0.00    -0.248 NA
ATOM     42  C   UNL A   1      42.759  27.379  31.756  1.00  0.00     0.031 C 
ATOM     43  C   UNL A   1      39.035  29.645  29.257  1.00  0.00     0.029 A 
ATOM     44  N   UNL A   1      39.523  30.411  31.302  1.00  0.00    -0.354 N 
ATOM     45  C   UNL A   1      42.728  28.695  33.628  1.00  0.00     0.074 A 
ATOM     46  C   UNL A   1      43.307  27.557  32.948  1.00  0.00     0.031 C 
ATOM     47  C   UNL A   1      38.202  30.667  29.518  1.00  0.00     0.029 A 
ATOM     48  C   UNL A   1      38.483  31.189  30.856  1.00  0.00     0.049 A 
ATOM     49  H   UNL A   1      39.944  30.530  32.185  1.00  0.00     0.167 HD
ATOM     50  C   UNL A   1      43.137  29.146  34.838  1.00  0.00     0.037 A 
ATOM     51  C   UNL A   1      37.837  32.209  31.458  1.00  0.00     0.037 A 
ATOM     52  C   UNL A   1      42.551  30.266  35.524  1.00  0.00     0.049 A 
ATOM     53  C   UNL A   1      38.273  32.663  32.828  1.00  0.00     0.074 A 
ATOM     54  C   UNL A   1      42.904  30.809  36.748  1.00  0.00     0.029 A 
ATOM     55  N   UNL A   1      41.478  31.008  35.054  1.00  0.00    -0.354 N 
ATOM     56  N   UNL A   1      39.249  32.209  33.578  1.00  0.00    -0.248 NA
ATOM     57  C   UNL A   1      37.523  33.776  33.427  1.00  0.00     0.031 C 
ATOM     58  C   UNL A   1      42.018  31.853  37.035  1.00  0.00     0.029 A 
ATOM     59  C   UNL A   1      41.143  31.991  35.970  1.00  0.00     0.049 A 
ATOM     60  H   UNL A   1      41.022  30.857  34.194  1.00  0.00     0.167 HD
ATOM     61  C   UNL A   1      39.254  33.005  34.720  1.00  0.00     0.074 A 
ATOM     62  C   UNL A   1      38.184  33.967  34.561  1.00  0.00     0.031 C 
ATOM     63  C   UNL A   1      40.078  32.950  35.797  1.00  0.00     0.037 A 
BRANCH  50  64
ATOM     64  C   UNL A   1      44.257  28.392  35.499  1.00  0.00     0.058 A 
ATOM     65  C   UNL A   1      44.008  27.347  36.404  1.00  0.00     0.135 A 
ATOM     66  C   UNL A   1      45.594  28.738  35.248  1.00  0.00     0.135 A 
ATOM     67  F   UNL A   1      42.746  26.990  36.695  1.00  0.00    -0.206 F 
ATOM     68  C   UNL A   1      45.043  26.703  37.073  1.00  0.00     0.059 A 
ATOM     69  C   UNL A   1      46.647  28.089  35.885  1.00  0.00     0.059 A 
ATOM     70  F   UNL A   1      45.886  29.729  34.392  1.00  0.00    -0.206 F 
ATOM     71  C   UNL A   1      46.359  27.090  36.814  1.00  0.00     0.060 A 
BRANCH  71  72
ATOM     72  S   UNL A   1      47.694  26.280  37.722  1.00  0.00     0.124 S 
ATOM     73  O   UNL A   1      47.531  24.894  37.298  1.00  0.00    -0.237 OA
ATOM     74  O   UNL A   1      48.880  26.963  37.213  1.00  0.00    -0.237 OA
ATOM     75  O   UNL A   1      47.368  26.554  39.118  1.00  0.00    -0.744 OA
ENDBRANCH  71  72
ENDBRANCH  50  64
BRANCH  51  76
ATOM     76  C   UNL A   1      36.727  32.899  30.750  1.00  0.00     0.058 A 
ATOM     77  C   UNL A   1      35.390  32.664  31.106  1.00  0.00     0.135 A 
ATOM     78  C   UNL A   1      36.978  33.813  29.716  1.00  0.00     0.135 A 
ATOM     79  F   UNL A   1      35.098  31.788  32.079  1.00  0.00    -0.206 F 
ATOM     80  C   UNL A   1      34.341  33.308  30.458  1.00  0.00     0.059 A 
ATOM     81  C   UNL A   1      35.947  34.486  29.068  1.00  0.00     0.059 A 
ATOM     82  F   UNL A   1      38.242  34.075  29.344  1.00  0.00    -0.206 F 
ATOM     83  C   UNL A   1      34.630  34.223  29.444  1.00  0.00     0.060 A 
BRANCH  83  84
ATOM     84  S   UNL A   1      33.262  35.106  28.661  1.00  0.00     0.124 S 
ATOM     85  O   UNL A   1      33.967  36.160  27.941  1.00  0.00    -0.237 OA
ATOM     86  O   UNL A   1      32.658  34.063  27.838  1.00  0.00    -0.237 OA
ATOM     87  O   UNL A   1      32.455  35.546  29.795  1.00  0.00    -0.744 OA
ENDBRANCH  83  84
ENDBRANCH  51  76
BRANCH  63  88
ATOM     88  C   UNL A   1      39.889  33.988  36.869  1.00  0.00     0.058 A 
ATOM     89  C   UNL A   1      40.460  35.268  36.773  1.00  0.00     0.135 A 
ATOM     90  C   UNL A   1      39.095  33.708  37.993  1.00  0.00     0.135 A 
ATOM     91  F   UNL A   1      41.229  35.587  35.720  1.00  0.00    -0.206 F 
ATOM     92  C   UNL A   1      40.277  36.221  37.771  1.00  0.00     0.059 A 
ATOM     93  C   UNL A   1      38.879  34.654  38.990  1.00  0.00     0.059 A 
ATOM     94  F   UNL A   1      38.514  32.505  38.127  1.00  0.00    -0.206 F 
ATOM     95  C   UNL A   1      39.488  35.903  38.879  1.00  0.00     0.060 A 
BRANCH  95  96
ATOM     96  S   UNL A   1      39.247  37.148  40.164  1.00  0.00     0.124 S 
ATOM     97  O   UNL A   1      38.474  36.404  41.152  1.00  0.00    -0.237 OA
ATOM     98  O   UNL A   1      40.617  37.477  40.545  1.00  0.00    -0.237 OA
ATOM     99  O   UNL A   1      38.525  38.213  39.472  1.00  0.00    -0.744 OA
ENDBRANCH  95  96
ENDBRANCH  63  88
ENDBRANCH  37  38
ENDBRANCH  30  32
ENDBRANCH  29  30
ENDBRANCH  28  29
ENDBRANCH  27  28
ENDBRANCH  26  27
ENDBRANCH   1  26
TORSDOF 21
ENDMDL
MODEL 3
REMARK VINA RESULT:     -10.3      1.098      8.174
REMARK SMILES CC1CCN(C(=O)Nc2nccnc2C(=O)OCCOCCOCCOC(=O)c2ccc(-c3c4nc(c(-c5c(F)cc(S(=O)(=O)[O-])cc5F)c5ccc([nH]5)c(-c5c(F)cc(S(=O)(=O)[O-])cc5F)c5nc(c(-c6c(F)cc(S(=O)(=O)[O-])cc6F)c6ccc3[nH]6)C=C5)C=C4)cc2)CC1
REMARK SMILES IDX 22 1 21 2 20 3 19 4 18 5 17 6 15 7 16 8 14 9 9 10 10 11
REMARK SMILES IDX 11 12 13 13 12 14 8 15 1 16 2 17 3 18 96 19 4 20 95 21 5 22
REMARK SMILES IDX 6 23 7 24 23 26 24 27 25 28 26 29 27 30 28 31 29 32 30 33
REMARK SMILES IDX 94 34 31 35 93 36 32 37 33 38 34 39 87 40 35 41 92 42 86 43
REMARK SMILES IDX 88 44 36 45 91 46 85 47 84 48 37 50 71 51 50 52 70 53 51 54
REMARK SMILES IDX 54 55 69 56 89 57 52 58 53 59 68 61 90 62 55 63 38 64 39 65
REMARK SMILES IDX 48 66 40 67 41 68 47 69 49 70 42 71 43 72 44 73 45 74 46 75
REMARK SMILES IDX 72 76 73 77 82 78 74 79 75 80 81 81 83 82 76 83 77 84 78 85
REMARK SMILES IDX 79 86 80 87 56 88 57 89 66 90 58 91 59 92 65 93 67 94 60 95
REMARK SMILES IDX 61 96 62 97 63 98 64 99
REMARK H PARENT 8 25 88 49 54 60
REMARK Flexibility Score: inf
ROOT
ATOM      1  C   UNL A   1      41.312  20.609  26.191  1.00  0.00     0.188 C 
ENDROOT
BRANCH   1   2
ATOM      2  C   UNL A   1      40.503  21.362  27.266  1.00  0.00     0.188 C 
BRANCH   2   3
ATOM      3  O   UNL A   1      39.533  22.326  26.875  1.00  0.00    -0.376 OA
BRANCH   3   4
ATOM      4  C   UNL A   1      38.613  22.014  25.836  1.00  0.00     0.202 C 
BRANCH   4   5
ATOM      5  C   UNL A   1      37.287  22.781  25.795  1.00  0.00     0.261 C 
BRANCH   5   6
ATOM      6  O   UNL A   1      36.200  22.014  25.242  1.00  0.00    -0.458 OA
BRANCH   6   7
ATOM      7  C   UNL A   1      35.094  21.937  26.032  1.00  0.00     0.360 C 
ATOM      8  O   UNL A   1      34.869  22.654  26.995  1.00  0.00    -0.244 OA
BRANCH   7   9
ATOM      9  C   UNL A   1      34.117  20.927  25.528  1.00  0.00     0.191 A 
ATOM     10  C   UNL A   1      32.723  20.996  25.700  1.00  0.00     0.167 A 
ATOM     11  N   UNL A   1      31.936  20.098  25.062  1.00  0.00    -0.235 NA
ATOM     12  C   UNL A   1      32.542  19.090  24.386  1.00  0.00     0.133 A 
ATOM     13  N   UNL A   1      34.721  19.900  24.849  1.00  0.00    -0.244 NA
ATOM     14  C   UNL A   1      33.909  18.976  24.306  1.00  0.00     0.132 A 
BRANCH  10  15
ATOM     15  N   UNL A   1      32.130  21.975  26.514  1.00  0.00    -0.290 N 
ATOM     16  C   UNL A   1      33.120  25.886  21.866  1.00  0.00     0.008 C 
ATOM     17  C   UNL A   1      32.019  25.292  22.745  1.00  0.00    -0.011 C 
ATOM     18  C   UNL A   1      32.023  25.962  24.132  1.00  0.00     0.025 C 
ATOM     19  C   UNL A   1      32.176  23.765  22.864  1.00  0.00     0.025 C 
ATOM     20  C   UNL A   1      31.094  25.260  25.125  1.00  0.00     0.121 C 
ATOM     21  C   UNL A   1      31.161  23.199  23.861  1.00  0.00     0.121 C 
ATOM     22  N   UNL A   1      31.373  23.824  25.162  1.00  0.00    -0.324 N 
ATOM     23  C   UNL A   1      31.713  23.249  26.355  1.00  0.00     0.323 C 
ATOM     24  O   UNL A   1      31.590  23.880  27.416  1.00  0.00    -0.248 OA
ATOM     25  H   UNL A   1      31.981  21.650  27.431  1.00  0.00     0.173 HD
ENDBRANCH  10  15
ENDBRANCH   7   9
ENDBRANCH   6   7
ENDBRANCH   5   6
ENDBRANCH   4   5
ENDBRANCH   3   4
ENDBRANCH   2   3
ENDBRANCH   1   2
BRANCH   1  26
ATOM     26  O   UNL A   1      42.560  21.191  25.859  1.00  0.00    -0.376 OA
BRANCH  26  27
ATOM     27  C   UNL A   1      43.022  22.197  26.755  1.00  0.00     0.202 C 
BRANCH  27  28
ATOM     28  C   UNL A   1      43.889  23.281  26.096  1.00  0.00     0.261 C 
BRANCH  28  29
ATOM     29  O   UNL A   1      43.979  24.515  26.831  1.00  0.00    -0.460 OA
BRANCH  29  30
ATOM     30  C   UNL A   1      43.456  25.611  26.237  1.00  0.00     0.338 C 
ATOM     31  O   UNL A   1      43.313  25.799  25.041  1.00  0.00    -0.246 OA
BRANCH  30  32
ATOM     32  C   UNL A   1      42.888  26.480  27.289  1.00  0.00     0.060 A 
ATOM     33  C   UNL A   1      43.266  27.827  27.322  1.00  0.00     0.016 A 
ATOM     34  C   UNL A   1      42.003  25.968  28.242  1.00  0.00     0.016 A 
ATOM     35  C   UNL A   1      42.793  28.658  28.339  1.00  0.00     0.010 A 
ATOM     36  C   UNL A   1      41.543  26.798  29.270  1.00  0.00     0.010 A 
ATOM     37  C   UNL A   1      41.966  28.137  29.344  1.00  0.00    -0.014 A 
BRANCH  37  38
ATOM     38  C   UNL A   1      41.723  28.937  30.570  1.00  0.00     0.031 A 
ATOM     39  C   UNL A   1      40.542  29.870  30.591  1.00  0.00     0.074 A 
ATOM     40  C   UNL A   1      42.503  28.813  31.658  1.00  0.00     0.049 A 
ATOM     41  N   UNL A   1      40.090  30.616  31.564  1.00  0.00    -0.248 NA
ATOM     42  C   UNL A   1      39.767  29.969  29.343  1.00  0.00     0.031 C 
ATOM     43  C   UNL A   1      43.664  27.933  31.774  1.00  0.00     0.029 A 
ATOM     44  N   UNL A   1      42.424  29.433  32.881  1.00  0.00    -0.354 N 
ATOM     45  C   UNL A   1      38.975  31.270  31.050  1.00  0.00     0.074 A 
ATOM     46  C   UNL A   1      38.843  30.860  29.669  1.00  0.00     0.031 C 
ATOM     47  C   UNL A   1      44.187  28.064  33.006  1.00  0.00     0.029 A 
ATOM     48  C   UNL A   1      43.408  29.047  33.759  1.00  0.00     0.049 A 
ATOM     49  H   UNL A   1      41.728  30.092  33.107  1.00  0.00     0.167 HD
ATOM     50  C   UNL A   1      38.129  32.127  31.673  1.00  0.00     0.037 A 
ATOM     51  C   UNL A   1      43.647  29.442  35.027  1.00  0.00     0.037 A 
ATOM     52  C   UNL A   1      38.269  32.551  33.040  1.00  0.00     0.049 A 
ATOM     53  C   UNL A   1      42.724  30.436  35.685  1.00  0.00     0.074 A 
ATOM     54  C   UNL A   1      37.456  33.405  33.765  1.00  0.00     0.029 A 
ATOM     55  N   UNL A   1      39.297  32.164  33.887  1.00  0.00    -0.354 N 
ATOM     56  N   UNL A   1      41.649  31.012  35.202  1.00  0.00    -0.248 NA
ATOM     57  C   UNL A   1      43.045  30.824  37.066  1.00  0.00     0.031 C 
ATOM     58  C   UNL A   1      38.016  33.565  35.038  1.00  0.00     0.029 A 
ATOM     59  C   UNL A   1      39.151  32.775  35.120  1.00  0.00     0.049 A 
ATOM     60  H   UNL A   1      40.023  31.545  33.646  1.00  0.00     0.167 HD
ATOM     61  C   UNL A   1      41.144  31.802  36.231  1.00  0.00     0.074 A 
ATOM     62  C   UNL A   1      42.032  31.629  37.362  1.00  0.00     0.031 C 
ATOM     63  C   UNL A   1      40.039  32.590  36.242  1.00  0.00     0.037 A 
BRANCH  50  64
ATOM     64  C   UNL A   1      36.999  32.680  30.851  1.00  0.00     0.058 A 
ATOM     65  C   UNL A   1      37.182  33.769  29.983  1.00  0.00     0.135 A 
ATOM     66  C   UNL A   1      35.710  32.132  30.953  1.00  0.00     0.135 A 
ATOM     67  F   UNL A   1      38.391  34.342  29.864  1.00  0.00    -0.206 F 
ATOM     68  C   UNL A   1      36.118  34.327  29.284  1.00  0.00     0.059 A 
ATOM     69  C   UNL A   1      34.636  32.658  30.242  1.00  0.00     0.059 A 
ATOM     70  F   UNL A   1      35.481  31.091  31.768  1.00  0.00    -0.206 F 
ATOM     71  C   UNL A   1      34.846  33.771  29.428  1.00  0.00     0.060 A 
BRANCH  71  72
ATOM     72  S   UNL A   1      33.463  34.531  28.552  1.00  0.00     0.124 S 
ATOM     73  O   UNL A   1      34.124  35.648  27.885  1.00  0.00    -0.237 OA
ATOM     74  O   UNL A   1      33.010  33.451  27.681  1.00  0.00    -0.237 OA
ATOM     75  O   UNL A   1      32.542  34.894  29.624  1.00  0.00    -0.744 OA
ENDBRANCH  71  72
ENDBRANCH  50  64
BRANCH  51  76
ATOM     76  C   UNL A   1      44.794  28.864  35.775  1.00  0.00     0.058 A 
ATOM     77  C   UNL A   1      46.073  29.432  35.682  1.00  0.00     0.135 A 
ATOM     78  C   UNL A   1      44.634  27.744  36.604  1.00  0.00     0.135 A 
ATOM     79  F   UNL A   1      46.279  30.496  34.891  1.00  0.00    -0.206 F 
ATOM     80  C   UNL A   1      47.155  28.908  36.382  1.00  0.00     0.059 A 
ATOM     81  C   UNL A   1      45.695  27.215  37.331  1.00  0.00     0.059 A 
ATOM     82  F   UNL A   1      43.427  27.169  36.730  1.00  0.00    -0.206 F 
ATOM     83  C   UNL A   1      46.954  27.802  37.209  1.00  0.00     0.060 A 
BRANCH  83  84
ATOM     84  S   UNL A   1      48.352  27.175  38.168  1.00  0.00     0.124 S 
ATOM     85  O   UNL A   1      47.800  25.944  38.722  1.00  0.00    -0.237 OA
ATOM     86  O   UNL A   1      49.377  27.012  37.142  1.00  0.00    -0.237 OA
ATOM     87  O   UNL A   1      48.603  28.244  39.131  1.00  0.00    -0.744 OA
ENDBRANCH  83  84
ENDBRANCH  51  76
BRANCH  63  88
ATOM     88  C   UNL A   1      39.698  33.289  37.530  1.00  0.00     0.058 A 
ATOM     89  C   UNL A   1      40.316  34.491  37.909  1.00  0.00     0.135 A 
ATOM     90  C   UNL A   1      38.713  32.763  38.381  1.00  0.00     0.135 A 
ATOM     91  F   UNL A   1      41.266  35.037  37.133  1.00  0.00    -0.206 F 
ATOM     92  C   UNL A   1      39.991  35.130  39.103  1.00  0.00     0.059 A 
ATOM     93  C   UNL A   1      38.355  33.397  39.567  1.00  0.00     0.059 A 
ATOM     94  F   UNL A   1      38.081  31.622  38.060  1.00  0.00    -0.206 F 
ATOM     95  C   UNL A   1      39.012  34.572  39.928  1.00  0.00     0.060 A 
BRANCH  95  96
ATOM     96  S   UNL A   1      38.590  35.411  41.470  1.00  0.00     0.124 S 
ATOM     97  O   UNL A   1      37.242  34.911  41.716  1.00  0.00    -0.237 OA
ATOM     98  O   UNL A   1      39.621  34.931  42.383  1.00  0.00    -0.237 OA
ATOM     99  O   UNL A   1      38.681  36.827  41.120  1.00  0.00    -0.744 OA
ENDBRANCH  95  96
ENDBRANCH  63  88
ENDBRANCH  37  38
ENDBRANCH  30  32
ENDBRANCH  29  30
ENDBRANCH  28  29
ENDBRANCH  27  28
ENDBRANCH  26  27
ENDBRANCH   1  26
TORSDOF 21
ENDMDL
