MODEL 1
REMARK VINA RESULT:      -9.3      0.000      0.000
REMARK SMILES O=C(OCCOCCOCCOC(=O)[C@H]1CC[C@@H](CNC(=O)[C@@H]2C[C@H]3CC[C@@H]2[NH2+]3)O1)c1ccc(-c2c3nc(c(-c4c(F)cc(S(=O)(=O)[O-])cc4F)c4ccc([nH]4)c(-c4c(F)cc(S(=O)(=O)[O-])cc4F)c4nc(c(-c5c(F)cc(S(=O)(=O)[O-])cc5F)c5ccc2[nH]5)C=C4)C=C3)cc1
REMARK SMILES IDX 7 1 6 2 5 3 4 4 3 5 2 6 1 7 31 8 32 9 96 10 33 11 95 12
REMARK SMILES IDX 34 13 35 14 36 15 89 16 37 17 94 18 88 19 90 20 38 21 93 22
REMARK SMILES IDX 87 23 86 24 39 26 73 27 52 28 72 29 53 30 56 31 71 32 91 33
REMARK SMILES IDX 54 34 55 35 70 37 92 38 57 39 40 40 41 41 50 42 42 43 43 44
REMARK SMILES IDX 49 45 51 46 44 47 45 48 46 49 47 50 48 51 74 52 75 53 84 54
REMARK SMILES IDX 76 55 77 56 83 57 85 58 78 59 79 60 80 61 81 62 82 63 58 64
REMARK SMILES IDX 59 65 68 66 60 67 61 68 67 69 69 70 62 71 63 72 64 73 65 74
REMARK SMILES IDX 66 75 8 76 9 77 10 78 11 79 12 80 13 81 14 82 15 83 16 84
REMARK SMILES IDX 30 85 17 86 18 87 19 88 20 89 21 90 22 92 23 93 24 94 28 95
REMARK SMILES IDX 25 96 27 97 29 98 26 99
REMARK H PARENT 90 25 56 36 20 91 29 100 29 101
REMARK Flexibility Score: inf
ROOT
ATOM      1  C   UNL A   1      33.162  35.909  29.506  1.00  0.00     0.188 C 
ENDROOT
BRANCH   1   2
ATOM      2  O   UNL A   1      34.411  35.254  29.319  1.00  0.00    -0.376 OA
BRANCH   2   3
ATOM      3  C   UNL A   1      34.472  34.522  28.096  1.00  0.00     0.202 C 
BRANCH   3   4
ATOM      4  C   UNL A   1      33.626  33.234  28.043  1.00  0.00     0.261 C 
BRANCH   4   5
ATOM      5  O   UNL A   1      34.318  32.013  28.370  1.00  0.00    -0.460 OA
BRANCH   5   6
ATOM      6  C   UNL A   1      35.092  31.693  29.435  1.00  0.00     0.338 C 
ATOM      7  O   UNL A   1      34.780  32.166  30.529  1.00  0.00    -0.246 OA
BRANCH   6   8
ATOM      8  C   UNL A   1      36.363  30.897  29.360  1.00  0.00     0.060 A 
ATOM      9  C   UNL A   1      37.035  30.334  30.446  1.00  0.00     0.016 A 
ATOM     10  C   UNL A   1      36.910  30.685  28.076  1.00  0.00     0.016 A 
ATOM     11  C   UNL A   1      38.191  29.578  30.282  1.00  0.00     0.010 A 
ATOM     12  C   UNL A   1      38.105  29.979  27.901  1.00  0.00     0.010 A 
ATOM     13  C   UNL A   1      38.760  29.455  29.018  1.00  0.00    -0.014 A 
BRANCH  13  14
ATOM     14  C   UNL A   1      40.180  29.072  28.963  1.00  0.00     0.031 A 
ATOM     15  C   UNL A   1      41.174  30.129  29.347  1.00  0.00     0.074 A 
ATOM     16  C   UNL A   1      40.548  27.810  28.700  1.00  0.00     0.049 A 
ATOM     17  N   UNL A   1      42.473  30.060  29.426  1.00  0.00    -0.248 NA
ATOM     18  C   UNL A   1      40.616  31.443  29.724  1.00  0.00     0.031 C 
ATOM     19  C   UNL A   1      39.630  26.705  28.425  1.00  0.00     0.029 A 
ATOM     20  N   UNL A   1      41.791  27.243  28.630  1.00  0.00    -0.354 N 
ATOM     21  C   UNL A   1      42.885  31.316  29.855  1.00  0.00     0.074 A 
ATOM     22  C   UNL A   1      41.704  32.127  30.031  1.00  0.00     0.031 C 
ATOM     23  C   UNL A   1      40.347  25.592  28.195  1.00  0.00     0.029 A 
ATOM     24  C   UNL A   1      41.770  25.919  28.265  1.00  0.00     0.049 A 
ATOM     25  H   UNL A   1      42.621  27.737  28.821  1.00  0.00     0.167 HD
ATOM     26  C   UNL A   1      44.146  31.758  30.059  1.00  0.00     0.037 A 
ATOM     27  C   UNL A   1      42.794  25.090  27.983  1.00  0.00     0.037 A 
ATOM     28  C   UNL A   1      45.302  30.950  29.799  1.00  0.00     0.049 A 
ATOM     29  C   UNL A   1      44.196  25.627  28.111  1.00  0.00     0.074 A 
ATOM     30  C   UNL A   1      46.636  31.297  29.872  1.00  0.00     0.029 A 
ATOM     31  N   UNL A   1      45.246  29.624  29.384  1.00  0.00    -0.354 N 
ATOM     32  N   UNL A   1      44.584  26.825  28.492  1.00  0.00    -0.248 NA
ATOM     33  C   UNL A   1      45.299  24.720  27.769  1.00  0.00     0.031 C 
ATOM     34  C   UNL A   1      47.386  30.192  29.452  1.00  0.00     0.029 A 
ATOM     35  C   UNL A   1      46.522  29.142  29.172  1.00  0.00     0.049 A 
ATOM     36  H   UNL A   1      44.418  29.106  29.258  1.00  0.00     0.167 HD
ATOM     37  C   UNL A   1      45.973  26.812  28.448  1.00  0.00     0.074 A 
ATOM     38  C   UNL A   1      46.358  25.484  28.009  1.00  0.00     0.031 C 
ATOM     39  C   UNL A   1      46.852  27.803  28.744  1.00  0.00     0.037 A 
BRANCH  26  40
ATOM     40  C   UNL A   1      44.295  33.196  30.467  1.00  0.00     0.058 A 
ATOM     41  C   UNL A   1      44.281  33.592  31.815  1.00  0.00     0.135 A 
ATOM     42  C   UNL A   1      44.340  34.203  29.490  1.00  0.00     0.135 A 
ATOM     43  F   UNL A   1      44.199  32.671  32.789  1.00  0.00    -0.206 F 
ATOM     44  C   UNL A   1      44.252  34.935  32.178  1.00  0.00     0.059 A 
ATOM     45  C   UNL A   1      44.336  35.552  29.830  1.00  0.00     0.059 A 
ATOM     46  F   UNL A   1      44.338  33.881  28.187  1.00  0.00    -0.206 F 
ATOM     47  C   UNL A   1      44.262  35.908  31.176  1.00  0.00     0.060 A 
BRANCH  47  48
ATOM     48  S   UNL A   1      44.136  37.645  31.652  1.00  0.00     0.124 S 
ATOM     49  O   UNL A   1      43.251  37.564  32.810  1.00  0.00    -0.237 OA
ATOM     50  O   UNL A   1      45.524  37.993  31.941  1.00  0.00    -0.237 OA
ATOM     51  O   UNL A   1      43.566  38.281  30.468  1.00  0.00    -0.744 OA
ENDBRANCH  47  48
ENDBRANCH  26  40
BRANCH  27  52
ATOM     52  C   UNL A   1      42.510  23.710  27.506  1.00  0.00     0.058 A 
ATOM     53  C   UNL A   1      42.373  23.413  26.143  1.00  0.00     0.135 A 
ATOM     54  C   UNL A   1      42.439  22.640  28.415  1.00  0.00     0.135 A 
ATOM     55  F   UNL A   1      42.421  24.398  25.233  1.00  0.00    -0.206 F 
ATOM     56  C   UNL A   1      42.194  22.105  25.696  1.00  0.00     0.059 A 
ATOM     57  C   UNL A   1      42.283  21.325  27.992  1.00  0.00     0.059 A 
ATOM     58  F   UNL A   1      42.573  22.867  29.731  1.00  0.00    -0.206 F 
ATOM     59  C   UNL A   1      42.163  21.066  26.629  1.00  0.00     0.060 A 
BRANCH  59  60
ATOM     60  S   UNL A   1      42.035  19.363  26.037  1.00  0.00     0.124 S 
ATOM     61  O   UNL A   1      40.605  19.247  25.779  1.00  0.00    -0.237 OA
ATOM     62  O   UNL A   1      42.898  19.385  24.859  1.00  0.00    -0.237 OA
ATOM     63  O   UNL A   1      42.541  18.581  27.160  1.00  0.00    -0.744 OA
ENDBRANCH  59  60
ENDBRANCH  27  52
BRANCH  39  64
ATOM     64  C   UNL A   1      48.315  27.489  28.637  1.00  0.00     0.058 A 
ATOM     65  C   UNL A   1      49.051  27.820  27.490  1.00  0.00     0.135 A 
ATOM     66  C   UNL A   1      49.006  26.989  29.751  1.00  0.00     0.135 A 
ATOM     67  F   UNL A   1      48.429  28.298  26.401  1.00  0.00    -0.206 F 
ATOM     68  C   UNL A   1      50.433  27.677  27.458  1.00  0.00     0.059 A 
ATOM     69  C   UNL A   1      50.389  26.858  29.747  1.00  0.00     0.059 A 
ATOM     70  F   UNL A   1      48.340  26.671  30.872  1.00  0.00    -0.206 F 
ATOM     71  C   UNL A   1      51.093  27.209  28.597  1.00  0.00     0.060 A 
BRANCH  71  72
ATOM     72  S   UNL A   1      52.897  27.128  28.578  1.00  0.00     0.124 S 
ATOM     73  O   UNL A   1      53.233  28.281  27.748  1.00  0.00    -0.237 OA
ATOM     74  O   UNL A   1      53.230  27.247  29.994  1.00  0.00    -0.237 OA
ATOM     75  O   UNL A   1      53.172  25.823  27.984  1.00  0.00    -0.744 OA
ENDBRANCH  71  72
ENDBRANCH  39  64
ENDBRANCH  13  14
ENDBRANCH   6   8
ENDBRANCH   5   6
ENDBRANCH   4   5
ENDBRANCH   3   4
ENDBRANCH   2   3
ENDBRANCH   1   2
BRANCH   1  76
ATOM     76  C   UNL A   1      32.771  36.132  30.954  1.00  0.00     0.188 C 
BRANCH  76  77
ATOM     77  O   UNL A   1      33.446  37.159  31.669  1.00  0.00    -0.376 OA
BRANCH  77  78
ATOM     78  C   UNL A   1      34.136  36.765  32.859  1.00  0.00     0.202 C 
BRANCH  78  79
ATOM     79  C   UNL A   1      34.990  35.490  32.790  1.00  0.00     0.261 C 
BRANCH  79  80
ATOM     80  O   UNL A   1      35.474  35.090  34.084  1.00  0.00    -0.461 OA
BRANCH  80  81
ATOM     81  C   UNL A   1      36.677  34.429  34.075  1.00  0.00     0.335 C 
ATOM     82  O   UNL A   1      37.738  34.944  33.795  1.00  0.00    -0.249 OA
BRANCH  81  83
ATOM     83  C   UNL A   1      36.486  32.956  34.500  1.00  0.00     0.228 C 
ATOM     84  C   UNL A   1      36.713  32.003  33.330  1.00  0.00     0.047 C 
ATOM     85  O   UNL A   1      37.397  32.550  35.548  1.00  0.00    -0.361 OA
ATOM     86  C   UNL A   1      38.127  31.520  33.566  1.00  0.00     0.037 C 
ATOM     87  C   UNL A   1      38.148  31.402  35.079  1.00  0.00     0.138 C 
BRANCH  87  88
ATOM     88  C   UNL A   1      39.536  31.279  35.761  1.00  0.00     0.147 C 
BRANCH  88  89
ATOM     89  N   UNL A   1      39.910  29.936  36.209  1.00  0.00    -0.353 N 
ATOM     90  C   UNL A   1      40.835  29.033  35.768  1.00  0.00     0.229 C 
ATOM     91  H   UNL A   1      39.390  29.620  36.983  1.00  0.00     0.163 HD
ATOM     92  O   UNL A   1      40.999  28.025  36.462  1.00  0.00    -0.275 OA
BRANCH  90  93
ATOM     93  C   UNL A   1      41.734  29.325  34.575  1.00  0.00     0.142 C 
ATOM     94  C   UNL A   1      41.402  28.533  33.317  1.00  0.00     0.084 C 
ATOM     95  C   UNL A   1      43.201  28.898  34.811  1.00  0.00     0.195 C 
ATOM     96  C   UNL A   1      42.705  27.837  32.953  1.00  0.00     0.183 C 
ATOM     97  C   UNL A   1      44.128  29.553  33.772  1.00  0.00     0.072 C 
ATOM     98  N   UNL A   1      43.185  27.513  34.299  1.00  0.00    -0.341 N 
ATOM     99  C   UNL A   1      43.743  28.843  32.471  1.00  0.00     0.071 C 
ATOM    100  H   UNL A   1      44.112  27.087  34.293  1.00  0.00     0.346 HD
ATOM    101  H   UNL A   1      42.642  26.832  34.830  1.00  0.00     0.346 HD
ENDBRANCH  90  93
ENDBRANCH  88  89
ENDBRANCH  87  88
ENDBRANCH  81  83
ENDBRANCH  80  81
ENDBRANCH  79  80
ENDBRANCH  78  79
ENDBRANCH  77  78
ENDBRANCH  76  77
ENDBRANCH   1  76
TORSDOF 23
ENDMDL
MODEL 2
REMARK VINA RESULT:      -9.0      5.395     12.501
REMARK SMILES O=C(OCCOCCOCCOC(=O)[C@H]1CC[C@@H](CNC(=O)[C@@H]2C[C@H]3CC[C@@H]2[NH2+]3)O1)c1ccc(-c2c3nc(c(-c4c(F)cc(S(=O)(=O)[O-])cc4F)c4ccc([nH]4)c(-c4c(F)cc(S(=O)(=O)[O-])cc4F)c4nc(c(-c5c(F)cc(S(=O)(=O)[O-])cc5F)c5ccc2[nH]5)C=C4)C=C3)cc1
REMARK SMILES IDX 7 1 6 2 5 3 4 4 3 5 2 6 1 7 31 8 32 9 96 10 33 11 95 12
REMARK SMILES IDX 34 13 35 14 36 15 89 16 37 17 94 18 88 19 90 20 38 21 93 22
REMARK SMILES IDX 87 23 86 24 39 26 73 27 52 28 72 29 53 30 56 31 71 32 91 33
REMARK SMILES IDX 54 34 55 35 70 37 92 38 57 39 40 40 41 41 50 42 42 43 43 44
REMARK SMILES IDX 49 45 51 46 44 47 45 48 46 49 47 50 48 51 74 52 75 53 84 54
REMARK SMILES IDX 76 55 77 56 83 57 85 58 78 59 79 60 80 61 81 62 82 63 58 64
REMARK SMILES IDX 59 65 68 66 60 67 61 68 67 69 69 70 62 71 63 72 64 73 65 74
REMARK SMILES IDX 66 75 8 76 9 77 10 78 11 79 12 80 13 81 14 82 15 83 16 84
REMARK SMILES IDX 30 85 17 86 18 87 19 88 20 89 21 90 22 92 23 93 24 94 28 95
REMARK SMILES IDX 25 96 27 97 29 98 26 99
REMARK H PARENT 90 25 56 36 20 91 29 100 29 101
REMARK Flexibility Score: inf
ROOT
ATOM      1  C   UNL A   1      38.710  20.950  25.706  1.00  0.00     0.188 C 
ENDROOT
BRANCH   1   2
ATOM      2  O   UNL A   1      39.692  21.403  26.631  1.00  0.00    -0.376 OA
BRANCH   2   3
ATOM      3  C   UNL A   1      40.786  20.497  26.762  1.00  0.00     0.202 C 
BRANCH   3   4
ATOM      4  C   UNL A   1      42.119  20.963  26.143  1.00  0.00     0.261 C 
BRANCH   4   5
ATOM      5  O   UNL A   1      42.054  22.143  25.320  1.00  0.00    -0.460 OA
BRANCH   5   6
ATOM      6  C   UNL A   1      42.744  23.308  25.388  1.00  0.00     0.338 C 
ATOM      7  O   UNL A   1      43.805  23.379  24.766  1.00  0.00    -0.246 OA
BRANCH   6   8
ATOM      8  C   UNL A   1      42.365  24.478  26.251  1.00  0.00     0.060 A 
ATOM      9  C   UNL A   1      42.925  25.754  26.181  1.00  0.00     0.016 A 
ATOM     10  C   UNL A   1      41.342  24.266  27.200  1.00  0.00     0.016 A 
ATOM     11  C   UNL A   1      42.487  26.792  26.997  1.00  0.00     0.010 A 
ATOM     12  C   UNL A   1      40.934  25.284  28.069  1.00  0.00     0.010 A 
ATOM     13  C   UNL A   1      41.539  26.540  27.984  1.00  0.00    -0.014 A 
BRANCH  13  14
ATOM     14  C   UNL A   1      41.462  27.504  29.093  1.00  0.00     0.031 A 
ATOM     15  C   UNL A   1      42.515  27.386  30.157  1.00  0.00     0.074 A 
ATOM     16  C   UNL A   1      40.570  28.505  29.082  1.00  0.00     0.049 A 
ATOM     17  N   UNL A   1      42.711  28.117  31.218  1.00  0.00    -0.248 NA
ATOM     18  C   UNL A   1      43.503  26.305  29.979  1.00  0.00     0.031 C 
ATOM     19  C   UNL A   1      39.587  28.744  28.025  1.00  0.00     0.029 A 
ATOM     20  N   UNL A   1      40.351  29.511  29.983  1.00  0.00    -0.354 N 
ATOM     21  C   UNL A   1      43.837  27.584  31.832  1.00  0.00     0.074 A 
ATOM     22  C   UNL A   1      44.290  26.476  31.026  1.00  0.00     0.031 C 
ATOM     23  C   UNL A   1      38.853  29.822  28.351  1.00  0.00     0.029 A 
ATOM     24  C   UNL A   1      39.289  30.318  29.656  1.00  0.00     0.049 A 
ATOM     25  H   UNL A   1      40.901  29.642  30.789  1.00  0.00     0.167 HD
ATOM     26  C   UNL A   1      44.425  27.973  32.985  1.00  0.00     0.037 A 
ATOM     27  C   UNL A   1      38.718  31.314  30.362  1.00  0.00     0.037 A 
ATOM     28  C   UNL A   1      43.902  29.029  33.803  1.00  0.00     0.049 A 
ATOM     29  C   UNL A   1      39.318  31.669  31.698  1.00  0.00     0.074 A 
ATOM     30  C   UNL A   1      44.339  29.467  35.037  1.00  0.00     0.029 A 
ATOM     31  N   UNL A   1      42.793  29.798  33.465  1.00  0.00    -0.354 N 
ATOM     32  N   UNL A   1      40.369  31.145  32.290  1.00  0.00    -0.248 NA
ATOM     33  C   UNL A   1      38.665  32.735  32.468  1.00  0.00     0.031 C 
ATOM     34  C   UNL A   1      43.461  30.469  35.468  1.00  0.00     0.029 A 
ATOM     35  C   UNL A   1      42.514  30.693  34.477  1.00  0.00     0.049 A 
ATOM     36  H   UNL A   1      42.283  29.715  32.627  1.00  0.00     0.167 HD
ATOM     37  C   UNL A   1      40.511  31.823  33.495  1.00  0.00     0.074 A 
ATOM     38  C   UNL A   1      39.441  32.801  33.544  1.00  0.00     0.031 C 
ATOM     39  C   UNL A   1      41.439  31.658  34.471  1.00  0.00     0.037 A 
BRANCH  26  40
ATOM     40  C   UNL A   1      45.604  27.164  33.444  1.00  0.00     0.058 A 
ATOM     41  C   UNL A   1      46.916  27.471  33.045  1.00  0.00     0.135 A 
ATOM     42  C   UNL A   1      45.406  26.000  34.202  1.00  0.00     0.135 A 
ATOM     43  F   UNL A   1      47.157  28.552  32.286  1.00  0.00    -0.206 F 
ATOM     44  C   UNL A   1      47.981  26.623  33.336  1.00  0.00     0.059 A 
ATOM     45  C   UNL A   1      46.459  25.150  34.526  1.00  0.00     0.059 A 
ATOM     46  F   UNL A   1      44.170  25.652  34.595  1.00  0.00    -0.206 F 
ATOM     47  C   UNL A   1      47.739  25.455  34.063  1.00  0.00     0.060 A 
BRANCH  47  48
ATOM     48  S   UNL A   1      49.109  24.319  34.361  1.00  0.00     0.124 S 
ATOM     49  O   UNL A   1      49.956  24.577  33.202  1.00  0.00    -0.237 OA
ATOM     50  O   UNL A   1      49.631  24.786  35.642  1.00  0.00    -0.237 OA
ATOM     51  O   UNL A   1      48.463  23.010  34.390  1.00  0.00    -0.744 OA
ENDBRANCH  47  48
ENDBRANCH  26  40
BRANCH  27  52
ATOM     52  C   UNL A   1      37.499  31.981  29.834  1.00  0.00     0.058 A 
ATOM     53  C   UNL A   1      36.223  31.421  29.989  1.00  0.00     0.135 A 
ATOM     54  C   UNL A   1      37.584  33.242  29.218  1.00  0.00     0.135 A 
ATOM     55  F   UNL A   1      36.086  30.215  30.560  1.00  0.00    -0.206 F 
ATOM     56  C   UNL A   1      35.075  32.092  29.570  1.00  0.00     0.059 A 
ATOM     57  C   UNL A   1      36.452  33.940  28.811  1.00  0.00     0.059 A 
ATOM     58  F   UNL A   1      38.780  33.829  29.052  1.00  0.00    -0.206 F 
ATOM     59  C   UNL A   1      35.201  33.358  28.993  1.00  0.00     0.060 A 
BRANCH  59  60
ATOM     60  S   UNL A   1      33.703  34.267  28.547  1.00  0.00     0.124 S 
ATOM     61  O   UNL A   1      33.129  34.549  29.857  1.00  0.00    -0.237 OA
ATOM     62  O   UNL A   1      34.248  35.414  27.827  1.00  0.00    -0.237 OA
ATOM     63  O   UNL A   1      32.967  33.313  27.725  1.00  0.00    -0.744 OA
ENDBRANCH  59  60
ENDBRANCH  27  52
BRANCH  39  64
ATOM     64  C   UNL A   1      41.365  32.568  35.661  1.00  0.00     0.058 A 
ATOM     65  C   UNL A   1      40.526  32.284  36.748  1.00  0.00     0.135 A 
ATOM     66  C   UNL A   1      42.254  33.649  35.770  1.00  0.00     0.135 A 
ATOM     67  F   UNL A   1      39.658  31.262  36.684  1.00  0.00    -0.206 F 
ATOM     68  C   UNL A   1      40.581  33.038  37.913  1.00  0.00     0.059 A 
ATOM     69  C   UNL A   1      42.339  34.402  36.934  1.00  0.00     0.059 A 
ATOM     70  F   UNL A   1      43.083  33.947  34.757  1.00  0.00    -0.206 F 
ATOM     71  C   UNL A   1      41.501  34.086  38.002  1.00  0.00     0.060 A 
BRANCH  71  72
ATOM     72  S   UNL A   1      41.636  34.989  39.559  1.00  0.00     0.124 S 
ATOM     73  O   UNL A   1      41.894  33.908  40.504  1.00  0.00    -0.237 OA
ATOM     74  O   UNL A   1      42.756  35.889  39.302  1.00  0.00    -0.237 OA
ATOM     75  O   UNL A   1      40.335  35.640  39.687  1.00  0.00    -0.744 OA
ENDBRANCH  71  72
ENDBRANCH  39  64
ENDBRANCH  13  14
ENDBRANCH   6   8
ENDBRANCH   5   6
ENDBRANCH   4   5
ENDBRANCH   3   4
ENDBRANCH   2   3
ENDBRANCH   1   2
BRANCH   1  76
ATOM     76  C   UNL A   1      37.856  22.044  25.098  1.00  0.00     0.188 C 
BRANCH  76  77
ATOM     77  O   UNL A   1      37.377  23.065  25.963  1.00  0.00    -0.376 OA
BRANCH  77  78
ATOM     78  C   UNL A   1      35.963  23.282  25.979  1.00  0.00     0.202 C 
BRANCH  78  79
ATOM     79  C   UNL A   1      35.435  24.541  25.274  1.00  0.00     0.261 C 
BRANCH  79  80
ATOM     80  O   UNL A   1      34.045  24.780  25.556  1.00  0.00    -0.461 OA
BRANCH  80  81
ATOM     81  C   UNL A   1      33.468  25.787  24.825  1.00  0.00     0.335 C 
ATOM     82  O   UNL A   1      33.820  26.947  24.862  1.00  0.00    -0.249 OA
BRANCH  81  83
ATOM     83  C   UNL A   1      32.338  25.227  23.934  1.00  0.00     0.228 C 
ATOM     84  C   UNL A   1      32.786  25.090  22.481  1.00  0.00     0.047 C 
ATOM     85  O   UNL A   1      31.888  23.917  24.353  1.00  0.00    -0.361 OA
ATOM     86  C   UNL A   1      33.121  23.619  22.375  1.00  0.00     0.037 C 
ATOM     87  C   UNL A   1      32.030  23.007  23.233  1.00  0.00     0.138 C 
BRANCH  87  88
ATOM     88  C   UNL A   1      32.223  21.535  23.681  1.00  0.00     0.147 C 
BRANCH  88  89
ATOM     89  N   UNL A   1      33.500  21.225  24.324  1.00  0.00    -0.353 N 
ATOM     90  C   UNL A   1      34.116  20.051  24.652  1.00  0.00     0.229 C 
ATOM     91  H   UNL A   1      34.021  22.024  24.571  1.00  0.00     0.163 HD
ATOM     92  O   UNL A   1      35.274  20.131  25.073  1.00  0.00    -0.275 OA
BRANCH  90  93
ATOM     93  C   UNL A   1      33.473  18.702  24.366  1.00  0.00     0.142 C 
ATOM     94  C   UNL A   1      32.734  18.083  25.546  1.00  0.00     0.084 C 
ATOM     95  C   UNL A   1      34.508  17.597  24.055  1.00  0.00     0.195 C 
ATOM     96  C   UNL A   1      33.365  16.707  25.707  1.00  0.00     0.183 C 
ATOM     97  C   UNL A   1      33.825  16.385  23.399  1.00  0.00     0.072 C 
ATOM     98  N   UNL A   1      34.758  17.048  25.404  1.00  0.00    -0.341 N 
ATOM     99  C   UNL A   1      32.992  15.797  24.542  1.00  0.00     0.071 C 
ATOM    100  H   UNL A   1      35.367  16.230  25.387  1.00  0.00     0.346 HD
ATOM    101  H   UNL A   1      35.238  17.657  26.066  1.00  0.00     0.346 HD
ENDBRANCH  90  93
ENDBRANCH  88  89
ENDBRANCH  87  88
ENDBRANCH  81  83
ENDBRANCH  80  81
ENDBRANCH  79  80
ENDBRANCH  78  79
ENDBRANCH  77  78
ENDBRANCH  76  77
ENDBRANCH   1  76
TORSDOF 23
ENDMDL
MODEL 3
REMARK VINA RESULT:      -9.0      5.082     12.679
REMARK SMILES O=C(OCCOCCOCCOC(=O)[C@H]1CC[C@@H](CNC(=O)[C@@H]2C[C@H]3CC[C@@H]2[NH2+]3)O1)c1ccc(-c2c3nc(c(-c4c(F)cc(S(=O)(=O)[O-])cc4F)c4ccc([nH]4)c(-c4c(F)cc(S(=O)(=O)[O-])cc4F)c4nc(c(-c5c(F)cc(S(=O)(=O)[O-])cc5F)c5ccc2[nH]5)C=C4)C=C3)cc1
REMARK SMILES IDX 7 1 6 2 5 3 4 4 3 5 2 6 1 7 31 8 32 9 96 10 33 11 95 12
REMARK SMILES IDX 34 13 35 14 36 15 89 16 37 17 94 18 88 19 90 20 38 21 93 22
REMARK SMILES IDX 87 23 86 24 39 26 73 27 52 28 72 29 53 30 56 31 71 32 91 33
REMARK SMILES IDX 54 34 55 35 70 37 92 38 57 39 40 40 41 41 50 42 42 43 43 44
REMARK SMILES IDX 49 45 51 46 44 47 45 48 46 49 47 50 48 51 74 52 75 53 84 54
REMARK SMILES IDX 76 55 77 56 83 57 85 58 78 59 79 60 80 61 81 62 82 63 58 64
REMARK SMILES IDX 59 65 68 66 60 67 61 68 67 69 69 70 62 71 63 72 64 73 65 74
REMARK SMILES IDX 66 75 8 76 9 77 10 78 11 79 12 80 13 81 14 82 15 83 16 84
REMARK SMILES IDX 30 85 17 86 18 87 19 88 20 89 21 90 22 92 23 93 24 94 28 95
REMARK SMILES IDX 25 96 27 97 29 98 26 99
REMARK H PARENT 90 25 56 36 20 91 29 100 29 101
REMARK Flexibility Score: inf
ROOT
ATOM      1  C   UNL A   1      39.431  21.184  26.118  1.00  0.00     0.188 C 
ENDROOT
BRANCH   1   2
ATOM      2  O   UNL A   1      39.915  21.944  27.219  1.00  0.00    -0.376 OA
BRANCH   2   3
ATOM      3  C   UNL A   1      41.277  21.655  27.532  1.00  0.00     0.202 C 
BRANCH   3   4
ATOM      4  C   UNL A   1      42.301  21.970  26.424  1.00  0.00     0.261 C 
BRANCH   4   5
ATOM      5  O   UNL A   1      43.034  23.201  26.576  1.00  0.00    -0.460 OA
BRANCH   5   6
ATOM      6  C   UNL A   1      42.750  24.458  26.154  1.00  0.00     0.338 C 
ATOM      7  O   UNL A   1      43.010  24.739  24.984  1.00  0.00    -0.246 OA
BRANCH   6   8
ATOM      8  C   UNL A   1      42.243  25.562  27.037  1.00  0.00     0.060 A 
ATOM      9  C   UNL A   1      42.784  26.845  27.127  1.00  0.00     0.016 A 
ATOM     10  C   UNL A   1      41.108  25.277  27.828  1.00  0.00     0.016 A 
ATOM     11  C   UNL A   1      42.227  27.820  27.948  1.00  0.00     0.010 A 
ATOM     12  C   UNL A   1      40.574  26.229  28.703  1.00  0.00     0.010 A 
ATOM     13  C   UNL A   1      41.163  27.493  28.782  1.00  0.00    -0.014 A 
BRANCH  13  14
ATOM     14  C   UNL A   1      40.927  28.377  29.935  1.00  0.00     0.031 A 
ATOM     15  C   UNL A   1      41.840  28.200  31.114  1.00  0.00     0.074 A 
ATOM     16  C   UNL A   1      40.022  29.365  29.877  1.00  0.00     0.049 A 
ATOM     17  N   UNL A   1      41.885  28.859  32.237  1.00  0.00    -0.248 NA
ATOM     18  C   UNL A   1      42.866  27.146  30.991  1.00  0.00     0.031 C 
ATOM     19  C   UNL A   1      39.175  29.664  28.723  1.00  0.00     0.029 A 
ATOM     20  N   UNL A   1      39.670  30.304  30.808  1.00  0.00    -0.354 N 
ATOM     21  C   UNL A   1      42.936  28.300  32.952  1.00  0.00     0.074 A 
ATOM     22  C   UNL A   1      43.511  27.255  32.139  1.00  0.00     0.031 C 
ATOM     23  C   UNL A   1      38.384  30.707  29.024  1.00  0.00     0.029 A 
ATOM     24  C   UNL A   1      38.641  31.118  30.404  1.00  0.00     0.049 A 
ATOM     25  H   UNL A   1      40.111  30.387  31.684  1.00  0.00     0.167 HD
ATOM     26  C   UNL A   1      43.366  28.616  34.194  1.00  0.00     0.037 A 
ATOM     27  C   UNL A   1      37.965  32.055  31.096  1.00  0.00     0.037 A 
ATOM     28  C   UNL A   1      42.722  29.606  35.008  1.00  0.00     0.049 A 
ATOM     29  C   UNL A   1      38.384  32.326  32.518  1.00  0.00     0.074 A 
ATOM     30  C   UNL A   1      42.990  29.964  36.313  1.00  0.00     0.029 A 
ATOM     31  N   UNL A   1      41.648  30.382  34.584  1.00  0.00    -0.354 N 
ATOM     32  N   UNL A   1      39.363  31.775  33.203  1.00  0.00    -0.248 NA
ATOM     33  C   UNL A   1      37.617  33.327  33.268  1.00  0.00     0.031 C 
ATOM     34  C   UNL A   1      42.044  30.923  36.695  1.00  0.00     0.029 A 
ATOM     35  C   UNL A   1      41.224  31.202  35.609  1.00  0.00     0.049 A 
ATOM     36  H   UNL A   1      41.249  30.351  33.684  1.00  0.00     0.167 HD
ATOM     37  C   UNL A   1      39.337  32.371  34.458  1.00  0.00     0.074 A 
ATOM     38  C   UNL A   1      38.249  33.330  34.435  1.00  0.00     0.031 C 
ATOM     39  C   UNL A   1      40.138  32.151  35.530  1.00  0.00     0.037 A 
BRANCH  26  40
ATOM     40  C   UNL A   1      44.495  27.793  34.745  1.00  0.00     0.058 A 
ATOM     41  C   UNL A   1      45.839  28.164  34.569  1.00  0.00     0.135 A 
ATOM     42  C   UNL A   1      44.231  26.558  35.357  1.00  0.00     0.135 A 
ATOM     43  F   UNL A   1      46.148  29.316  33.954  1.00  0.00    -0.206 F 
ATOM     44  C   UNL A   1      46.880  27.315  34.934  1.00  0.00     0.059 A 
ATOM     45  C   UNL A   1      45.256  25.704  35.752  1.00  0.00     0.059 A 
ATOM     46  F   UNL A   1      42.965  26.147  35.533  1.00  0.00    -0.206 F 
ATOM     47  C   UNL A   1      46.578  26.079  35.509  1.00  0.00     0.060 A 
BRANCH  47  48
ATOM     48  S   UNL A   1      47.930  24.948  35.899  1.00  0.00     0.124 S 
ATOM     49  O   UNL A   1      48.068  25.148  37.338  1.00  0.00    -0.237 OA
ATOM     50  O   UNL A   1      47.388  23.657  35.490  1.00  0.00    -0.237 OA
ATOM     51  O   UNL A   1      49.035  25.448  35.086  1.00  0.00    -0.744 OA
ENDBRANCH  47  48
ENDBRANCH  26  40
BRANCH  27  52
ATOM     52  C   UNL A   1      36.807  32.742  30.463  1.00  0.00     0.058 A 
ATOM     53  C   UNL A   1      35.484  32.378  30.750  1.00  0.00     0.135 A 
ATOM     54  C   UNL A   1      37.008  33.835  29.601  1.00  0.00     0.135 A 
ATOM     55  F   UNL A   1      35.236  31.335  31.556  1.00  0.00    -0.206 F 
ATOM     56  C   UNL A   1      34.403  33.081  30.221  1.00  0.00     0.059 A 
ATOM     57  C   UNL A   1      35.946  34.565  29.079  1.00  0.00     0.059 A 
ATOM     58  F   UNL A   1      38.254  34.231  29.300  1.00  0.00    -0.206 F 
ATOM     59  C   UNL A   1      34.646  34.182  29.396  1.00  0.00     0.060 A 
BRANCH  59  60
ATOM     60  S   UNL A   1      33.243  35.153  28.799  1.00  0.00     0.124 S 
ATOM     61  O   UNL A   1      33.914  36.229  28.080  1.00  0.00    -0.237 OA
ATOM     62  O   UNL A   1      32.530  34.181  27.975  1.00  0.00    -0.237 OA
ATOM     63  O   UNL A   1      32.560  35.543  30.028  1.00  0.00    -0.744 OA
ENDBRANCH  59  60
ENDBRANCH  27  52
BRANCH  39  64
ATOM     64  C   UNL A   1      39.896  32.977  36.759  1.00  0.00     0.058 A 
ATOM     65  C   UNL A   1      38.944  32.600  37.717  1.00  0.00     0.135 A 
ATOM     66  C   UNL A   1      40.732  34.068  37.044  1.00  0.00     0.135 A 
ATOM     67  F   UNL A   1      38.122  31.565  37.484  1.00  0.00    -0.206 F 
ATOM     68  C   UNL A   1      38.837  33.274  38.927  1.00  0.00     0.059 A 
ATOM     69  C   UNL A   1      40.655  34.742  38.256  1.00  0.00     0.059 A 
ATOM     70  F   UNL A   1      41.665  34.453  36.160  1.00  0.00    -0.206 F 
ATOM     71  C   UNL A   1      39.707  34.334  39.193  1.00  0.00     0.060 A 
BRANCH  71  72
ATOM     72  S   UNL A   1      39.628  35.133  40.810  1.00  0.00     0.124 S 
ATOM     73  O   UNL A   1      41.040  35.388  41.080  1.00  0.00    -0.237 OA
ATOM     74  O   UNL A   1      38.810  36.311  40.537  1.00  0.00    -0.237 OA
ATOM     75  O   UNL A   1      38.998  34.124  41.656  1.00  0.00    -0.744 OA
ENDBRANCH  71  72
ENDBRANCH  39  64
ENDBRANCH  13  14
ENDBRANCH   6   8
ENDBRANCH   5   6
ENDBRANCH   4   5
ENDBRANCH   3   4
ENDBRANCH   2   3
ENDBRANCH   1   2
BRANCH   1  76
ATOM     76  C   UNL A   1      38.255  21.800  25.387  1.00  0.00     0.188 C 
BRANCH  76  77
ATOM     77  O   UNL A   1      37.618  22.920  25.988  1.00  0.00    -0.376 OA
BRANCH  77  78
ATOM     78  C   UNL A   1      36.190  22.886  26.057  1.00  0.00     0.202 C 
BRANCH  78  79
ATOM     79  C   UNL A   1      35.513  21.508  25.988  1.00  0.00     0.261 C 
BRANCH  79  80
ATOM     80  O   UNL A   1      34.969  21.234  24.685  1.00  0.00    -0.461 OA
BRANCH  80  81
ATOM     81  C   UNL A   1      33.630  21.501  24.547  1.00  0.00     0.335 C 
ATOM     82  O   UNL A   1      32.786  21.210  25.369  1.00  0.00    -0.249 OA
BRANCH  81  83
ATOM     83  C   UNL A   1      33.362  22.244  23.220  1.00  0.00     0.228 C 
ATOM     84  C   UNL A   1      31.932  22.024  22.734  1.00  0.00     0.047 C 
ATOM     85  O   UNL A   1      33.546  23.675  23.330  1.00  0.00    -0.361 OA
ATOM     86  C   UNL A   1      31.233  23.290  23.177  1.00  0.00     0.037 C 
ATOM     87  C   UNL A   1      32.314  24.325  22.927  1.00  0.00     0.138 C 
BRANCH  87  88
ATOM     88  C   UNL A   1      32.129  25.716  23.588  1.00  0.00     0.147 C 
BRANCH  88  89
ATOM     89  N   UNL A   1      31.459  25.722  24.889  1.00  0.00    -0.353 N 
ATOM     90  C   UNL A   1      31.410  26.632  25.906  1.00  0.00     0.229 C 
ATOM     91  H   UNL A   1      30.940  24.904  25.069  1.00  0.00     0.163 HD
ATOM     92  O   UNL A   1      30.629  26.387  26.831  1.00  0.00    -0.275 OA
BRANCH  90  93
ATOM     93  C   UNL A   1      32.154  27.957  25.831  1.00  0.00     0.142 C 
ATOM     94  C   UNL A   1      33.661  27.856  26.030  1.00  0.00     0.084 C 
ATOM     95  C   UNL A   1      31.772  28.925  26.974  1.00  0.00     0.195 C 
ATOM     96  C   UNL A   1      33.957  28.813  27.175  1.00  0.00     0.183 C 
ATOM     97  C   UNL A   1      32.231  30.356  26.646  1.00  0.00     0.072 C 
ATOM     98  N   UNL A   1      32.772  28.567  28.001  1.00  0.00    -0.341 N 
ATOM     99  C   UNL A   1      33.757  30.260  26.740  1.00  0.00     0.071 C 
ATOM    100  H   UNL A   1      32.730  29.178  28.818  1.00  0.00     0.346 HD
ATOM    101  H   UNL A   1      32.687  27.643  28.423  1.00  0.00     0.346 HD
ENDBRANCH  90  93
ENDBRANCH  88  89
ENDBRANCH  87  88
ENDBRANCH  81  83
ENDBRANCH  80  81
ENDBRANCH  79  80
ENDBRANCH  78  79
ENDBRANCH  77  78
ENDBRANCH  76  77
ENDBRANCH   1  76
TORSDOF 23
ENDMDL
