MODEL 1
REMARK VINA RESULT:      -9.0      0.000      0.000
REMARK SMILES CC[N@@H+]1CCO[C@@H](C[N@@H+](CCC(=O)OCCOCCOCCOC(=O)c2ccc(-c3c4nc(c(-c5c(F)cc(S(=O)(=O)[O-])cc5F)c5ccc([nH]5)c(-c5c(F)cc(S(=O)(=O)[O-])cc5F)c5nc(c(-c6c(F)cc(S(=O)(=O)[O-])cc6F)c6ccc3[nH]6)C=C5)C=C4)cc2)C2CC2)C1
REMARK SMILES IDX 18 1 17 2 16 3 15 4 14 5 12 6 13 7 11 8 10 9 9 10 8 12 7 13
REMARK SMILES IDX 3 14 4 15 95 16 5 18 6 19 2 20 1 21 92 22 93 23 94 24 19 25
REMARK SMILES IDX 20 26 21 27 22 28 23 29 24 30 25 31 26 32 27 33 91 34 28 35
REMARK SMILES IDX 90 36 29 37 30 38 31 39 84 40 32 41 89 42 83 43 85 44 33 45
REMARK SMILES IDX 88 46 82 47 81 48 34 50 68 51 47 52 67 53 48 54 51 55 66 56
REMARK SMILES IDX 86 57 49 58 50 59 65 61 87 62 52 63 35 64 36 65 45 66 37 67
REMARK SMILES IDX 38 68 44 69 46 70 39 71 40 72 41 73 42 74 43 75 69 76 70 77
REMARK SMILES IDX 79 78 71 79 72 80 78 81 80 82 73 83 74 84 75 85 76 86 77 87
REMARK SMILES IDX 53 88 54 89 63 90 55 91 56 92 62 93 64 94 57 95 58 96 59 97
REMARK SMILES IDX 60 98 61 99
REMARK H PARENT 9 11 3 17 85 49 51 60
REMARK Flexibility Score: inf
ROOT
ATOM      1  C   UNL A   1      32.172  29.972  26.899  1.00  0.00     0.188 C 
ENDROOT
BRANCH   1   2
ATOM      2  O   UNL A   1      31.948  29.221  25.711  1.00  0.00    -0.376 OA
BRANCH   2   3
ATOM      3  C   UNL A   1      32.958  29.355  24.706  1.00  0.00     0.202 C 
BRANCH   3   4
ATOM      4  C   UNL A   1      33.586  28.020  24.281  1.00  0.00     0.261 C 
BRANCH   4   5
ATOM      5  O   UNL A   1      33.385  27.805  22.868  1.00  0.00    -0.463 OA
BRANCH   5   6
ATOM      6  C   UNL A   1      33.442  26.539  22.391  1.00  0.00     0.311 C 
ATOM      7  O   UNL A   1      33.556  26.257  21.203  1.00  0.00    -0.252 OA
BRANCH   6   8
ATOM      8  C   UNL A   1      33.314  25.472  23.462  1.00  0.00     0.184 C 
BRANCH   8   9
ATOM      9  C   UNL A   1      33.132  23.989  23.079  1.00  0.00     0.274 C 
BRANCH   9  10
ATOM     10  N   UNL A   1      34.165  22.974  23.414  1.00  0.00    -0.330 N 
ATOM     11  H   UNL A   1      34.343  22.328  22.646  1.00  0.00     0.348 HD
BRANCH  10  12
ATOM     12  C   UNL A   1      33.677  22.029  24.434  1.00  0.00     0.300 C 
BRANCH  12  13
ATOM     13  C   UNL A   1      33.608  20.523  24.137  1.00  0.00     0.228 C 
ATOM     14  N   UNL A   1      33.466  18.219  25.160  1.00  0.00    -0.331 N 
ATOM     15  C   UNL A   1      32.355  17.956  24.238  1.00  0.00     0.291 C 
ATOM     16  C   UNL A   1      33.571  19.665  25.417  1.00  0.00     0.300 C 
ATOM     17  H   UNL A   1      33.233  17.766  26.044  1.00  0.00     0.348 HD
ATOM     18  C   UNL A   1      32.242  18.915  23.040  1.00  0.00     0.222 C 
ATOM     19  O   UNL A   1      32.370  20.291  23.413  1.00  0.00    -0.361 OA
BRANCH  14  20
ATOM     20  C   UNL A   1      34.726  17.539  24.860  1.00  0.00     0.258 C 
ATOM     21  C   UNL A   1      34.812  16.017  24.909  1.00  0.00     0.071 C 
ENDBRANCH  14  20
ENDBRANCH  12  13
ENDBRANCH  10  12
BRANCH  10  22
ATOM     22  C   UNL A   1      35.485  23.618  23.561  1.00  0.00     0.184 C 
ATOM     23  C   UNL A   1      36.416  23.441  24.664  1.00  0.00     0.071 C 
ATOM     24  C   UNL A   1      36.694  22.659  23.401  1.00  0.00     0.071 C 
ENDBRANCH  10  22
ENDBRANCH   9  10
ENDBRANCH   8   9
ENDBRANCH   6   8
ENDBRANCH   5   6
ENDBRANCH   4   5
ENDBRANCH   3   4
ENDBRANCH   2   3
ENDBRANCH   1   2
BRANCH   1  25
ATOM     25  C   UNL A   1      33.393  30.880  26.846  1.00  0.00     0.188 C 
BRANCH  25  26
ATOM     26  O   UNL A   1      34.079  30.995  28.094  1.00  0.00    -0.376 OA
BRANCH  26  27
ATOM     27  C   UNL A   1      34.562  32.317  28.350  1.00  0.00     0.202 C 
BRANCH  27  28
ATOM     28  C   UNL A   1      35.022  32.523  29.800  1.00  0.00     0.261 C 
BRANCH  28  29
ATOM     29  O   UNL A   1      36.430  32.265  29.923  1.00  0.00    -0.460 OA
BRANCH  29  30
ATOM     30  C   UNL A   1      36.766  31.152  30.625  1.00  0.00     0.338 C 
ATOM     31  O   UNL A   1      36.067  30.563  31.435  1.00  0.00    -0.246 OA
BRANCH  30  32
ATOM     32  C   UNL A   1      38.047  30.612  30.102  1.00  0.00     0.060 A 
ATOM     33  C   UNL A   1      39.050  30.284  31.027  1.00  0.00     0.016 A 
ATOM     34  C   UNL A   1      38.244  30.360  28.741  1.00  0.00     0.016 A 
ATOM     35  C   UNL A   1      40.260  29.738  30.592  1.00  0.00     0.010 A 
ATOM     36  C   UNL A   1      39.456  29.818  28.306  1.00  0.00     0.010 A 
ATOM     37  C   UNL A   1      40.480  29.537  29.225  1.00  0.00    -0.014 A 
BRANCH  37  38
ATOM     38  C   UNL A   1      41.844  29.243  28.722  1.00  0.00     0.031 A 
ATOM     39  C   UNL A   1      42.143  27.830  28.300  1.00  0.00     0.074 A 
ATOM     40  C   UNL A   1      42.798  30.191  28.661  1.00  0.00     0.049 A 
ATOM     41  N   UNL A   1      43.273  27.298  27.918  1.00  0.00    -0.248 NA
ATOM     42  C   UNL A   1      41.011  26.886  28.324  1.00  0.00     0.031 C 
ATOM     43  C   UNL A   1      42.622  31.598  29.013  1.00  0.00     0.029 A 
ATOM     44  N   UNL A   1      44.118  30.100  28.293  1.00  0.00    -0.354 N 
ATOM     45  C   UNL A   1      42.995  25.957  27.680  1.00  0.00     0.074 A 
ATOM     46  C   UNL A   1      41.596  25.750  27.977  1.00  0.00     0.031 C 
ATOM     47  C   UNL A   1      43.796  32.238  28.856  1.00  0.00     0.029 A 
ATOM     48  C   UNL A   1      44.812  31.279  28.425  1.00  0.00     0.049 A 
ATOM     49  H   UNL A   1      44.528  29.267  27.966  1.00  0.00     0.167 HD
ATOM     50  C   UNL A   1      43.831  24.986  27.247  1.00  0.00     0.037 A 
ATOM     51  C   UNL A   1      46.122  31.542  28.241  1.00  0.00     0.037 A 
ATOM     52  C   UNL A   1      45.218  25.199  26.937  1.00  0.00     0.049 A 
ATOM     53  C   UNL A   1      47.044  30.427  27.806  1.00  0.00     0.074 A 
ATOM     54  C   UNL A   1      46.139  24.289  26.448  1.00  0.00     0.029 A 
ATOM     55  N   UNL A   1      45.886  26.404  27.091  1.00  0.00    -0.354 N 
ATOM     56  N   UNL A   1      46.760  29.172  27.543  1.00  0.00    -0.248 NA
ATOM     57  C   UNL A   1      48.467  30.763  27.645  1.00  0.00     0.031 C 
ATOM     58  C   UNL A   1      47.376  24.932  26.353  1.00  0.00     0.029 A 
ATOM     59  C   UNL A   1      47.214  26.255  26.733  1.00  0.00     0.049 A 
ATOM     60  H   UNL A   1      45.477  27.241  27.407  1.00  0.00     0.167 HD
ATOM     61  C   UNL A   1      47.959  28.584  27.151  1.00  0.00     0.074 A 
ATOM     62  C   UNL A   1      48.971  29.617  27.208  1.00  0.00     0.031 C 
ATOM     63  C   UNL A   1      48.202  27.303  26.775  1.00  0.00     0.037 A 
BRANCH  50  64
ATOM     64  C   UNL A   1      43.275  23.598  27.109  1.00  0.00     0.058 A 
ATOM     65  C   UNL A   1      43.122  22.748  28.214  1.00  0.00     0.135 A 
ATOM     66  C   UNL A   1      42.852  23.129  25.855  1.00  0.00     0.135 A 
ATOM     67  F   UNL A   1      43.534  23.139  29.431  1.00  0.00    -0.206 F 
ATOM     68  C   UNL A   1      42.583  21.472  28.079  1.00  0.00     0.059 A 
ATOM     69  C   UNL A   1      42.287  21.867  25.700  1.00  0.00     0.059 A 
ATOM     70  F   UNL A   1      42.986  23.899  24.764  1.00  0.00    -0.206 F 
ATOM     71  C   UNL A   1      42.165  21.043  26.818  1.00  0.00     0.060 A 
BRANCH  71  72
ATOM     72  S   UNL A   1      41.446  19.394  26.663  1.00  0.00     0.124 S 
ATOM     73  O   UNL A   1      42.594  18.618  26.205  1.00  0.00    -0.237 OA
ATOM     74  O   UNL A   1      40.998  19.120  28.025  1.00  0.00    -0.237 OA
ATOM     75  O   UNL A   1      40.381  19.579  25.682  1.00  0.00    -0.744 OA
ENDBRANCH  71  72
ENDBRANCH  50  64
BRANCH  51  76
ATOM     76  C   UNL A   1      46.661  32.910  28.471  1.00  0.00     0.058 A 
ATOM     77  C   UNL A   1      46.661  33.869  27.446  1.00  0.00     0.135 A 
ATOM     78  C   UNL A   1      47.227  33.274  29.703  1.00  0.00     0.135 A 
ATOM     79  F   UNL A   1      46.145  33.565  26.246  1.00  0.00    -0.206 F 
ATOM     80  C   UNL A   1      47.227  35.128  27.623  1.00  0.00     0.059 A 
ATOM     81  C   UNL A   1      47.775  34.536  29.913  1.00  0.00     0.059 A 
ATOM     82  F   UNL A   1      47.247  32.399  30.719  1.00  0.00    -0.206 F 
ATOM     83  C   UNL A   1      47.786  35.451  28.861  1.00  0.00     0.060 A 
BRANCH  83  84
ATOM     84  S   UNL A   1      48.507  37.092  29.084  1.00  0.00     0.124 S 
ATOM     85  O   UNL A   1      49.094  36.976  30.414  1.00  0.00    -0.237 OA
ATOM     86  O   UNL A   1      49.451  37.167  27.973  1.00  0.00    -0.237 OA
ATOM     87  O   UNL A   1      47.354  37.981  28.979  1.00  0.00    -0.744 OA
ENDBRANCH  83  84
ENDBRANCH  51  76
BRANCH  63  88
ATOM     88  C   UNL A   1      49.600  26.954  26.343  1.00  0.00     0.058 A 
ATOM     89  C   UNL A   1      50.578  26.545  27.262  1.00  0.00     0.135 A 
ATOM     90  C   UNL A   1      49.943  26.966  24.982  1.00  0.00     0.135 A 
ATOM     91  F   UNL A   1      50.303  26.519  28.576  1.00  0.00    -0.206 F 
ATOM     92  C   UNL A   1      51.855  26.179  26.848  1.00  0.00     0.059 A 
ATOM     93  C   UNL A   1      51.204  26.577  24.542  1.00  0.00     0.059 A 
ATOM     94  F   UNL A   1      49.039  27.335  24.060  1.00  0.00    -0.206 F 
ATOM     95  C   UNL A   1      52.158  26.195  25.485  1.00  0.00     0.060 A 
BRANCH  95  96
ATOM     96  S   UNL A   1      53.805  25.679  24.955  1.00  0.00     0.124 S 
ATOM     97  O   UNL A   1      54.571  25.832  26.187  1.00  0.00    -0.237 OA
ATOM     98  O   UNL A   1      53.577  24.307  24.515  1.00  0.00    -0.237 OA
ATOM     99  O   UNL A   1      54.131  26.625  23.892  1.00  0.00    -0.744 OA
ENDBRANCH  95  96
ENDBRANCH  63  88
ENDBRANCH  37  38
ENDBRANCH  30  32
ENDBRANCH  29  30
ENDBRANCH  28  29
ENDBRANCH  27  28
ENDBRANCH  26  27
ENDBRANCH  25  26
ENDBRANCH   1  25
TORSDOF 26
ENDMDL
MODEL 2
REMARK VINA RESULT:      -8.2      4.719     10.380
REMARK SMILES CC[N@@H+]1CCO[C@@H](C[N@@H+](CCC(=O)OCCOCCOCCOC(=O)c2ccc(-c3c4nc(c(-c5c(F)cc(S(=O)(=O)[O-])cc5F)c5ccc([nH]5)c(-c5c(F)cc(S(=O)(=O)[O-])cc5F)c5nc(c(-c6c(F)cc(S(=O)(=O)[O-])cc6F)c6ccc3[nH]6)C=C5)C=C4)cc2)C2CC2)C1
REMARK SMILES IDX 18 1 17 2 16 3 15 4 14 5 12 6 13 7 11 8 10 9 9 10 8 12 7 13
REMARK SMILES IDX 3 14 4 15 95 16 5 18 6 19 2 20 1 21 92 22 93 23 94 24 19 25
REMARK SMILES IDX 20 26 21 27 22 28 23 29 24 30 25 31 26 32 27 33 91 34 28 35
REMARK SMILES IDX 90 36 29 37 30 38 31 39 84 40 32 41 89 42 83 43 85 44 33 45
REMARK SMILES IDX 88 46 82 47 81 48 34 50 68 51 47 52 67 53 48 54 51 55 66 56
REMARK SMILES IDX 86 57 49 58 50 59 65 61 87 62 52 63 35 64 36 65 45 66 37 67
REMARK SMILES IDX 38 68 44 69 46 70 39 71 40 72 41 73 42 74 43 75 69 76 70 77
REMARK SMILES IDX 79 78 71 79 72 80 78 81 80 82 73 83 74 84 75 85 76 86 77 87
REMARK SMILES IDX 53 88 54 89 63 90 55 91 56 92 62 93 64 94 57 95 58 96 59 97
REMARK SMILES IDX 60 98 61 99
REMARK H PARENT 9 11 3 17 85 49 51 60
REMARK Flexibility Score: inf
ROOT
ATOM      1  C   UNL A   1      32.221  36.231  31.180  1.00  0.00     0.188 C 
ENDROOT
BRANCH   1   2
ATOM      2  O   UNL A   1      33.019  37.035  30.320  1.00  0.00    -0.376 OA
BRANCH   2   3
ATOM      3  C   UNL A   1      33.012  36.646  28.942  1.00  0.00     0.202 C 
BRANCH   3   4
ATOM      4  C   UNL A   1      34.253  35.845  28.521  1.00  0.00     0.261 C 
BRANCH   4   5
ATOM      5  O   UNL A   1      33.929  34.442  28.427  1.00  0.00    -0.463 OA
BRANCH   5   6
ATOM      6  C   UNL A   1      34.925  33.536  28.568  1.00  0.00     0.311 C 
ATOM      7  O   UNL A   1      36.118  33.816  28.539  1.00  0.00    -0.252 OA
BRANCH   6   8
ATOM      8  C   UNL A   1      34.438  32.108  28.729  1.00  0.00     0.184 C 
BRANCH   8   9
ATOM      9  C   UNL A   1      34.522  31.110  27.556  1.00  0.00     0.274 C 
BRANCH   9  10
ATOM     10  N   UNL A   1      35.587  30.074  27.500  1.00  0.00    -0.330 N 
ATOM     11  H   UNL A   1      36.270  30.255  26.766  1.00  0.00     0.348 HD
BRANCH  10  12
ATOM     12  C   UNL A   1      35.053  28.780  27.038  1.00  0.00     0.300 C 
BRANCH  12  13
ATOM     13  C   UNL A   1      33.629  28.679  26.470  1.00  0.00     0.228 C 
ATOM     14  N   UNL A   1      32.189  27.633  24.678  1.00  0.00    -0.331 N 
ATOM     15  C   UNL A   1      31.265  27.244  25.750  1.00  0.00     0.291 C 
ATOM     16  C   UNL A   1      33.550  27.777  25.222  1.00  0.00     0.300 C 
ATOM     17  H   UNL A   1      32.206  26.864  24.008  1.00  0.00     0.348 HD
ATOM     18  C   UNL A   1      31.437  27.993  27.084  1.00  0.00     0.222 C 
ATOM     19  O   UNL A   1      32.803  28.078  27.502  1.00  0.00    -0.361 OA
BRANCH  14  20
ATOM     20  C   UNL A   1      31.741  28.716  23.803  1.00  0.00     0.258 C 
ATOM     21  C   UNL A   1      30.679  29.701  24.278  1.00  0.00     0.071 C 
ENDBRANCH  14  20
ENDBRANCH  12  13
ENDBRANCH  10  12
BRANCH  10  22
ATOM     22  C   UNL A   1      36.434  30.146  28.707  1.00  0.00     0.184 C 
ATOM     23  C   UNL A   1      37.602  29.329  28.995  1.00  0.00     0.071 C 
ATOM     24  C   UNL A   1      37.854  30.723  28.467  1.00  0.00     0.071 C 
ENDBRANCH  10  22
ENDBRANCH   9  10
ENDBRANCH   8   9
ENDBRANCH   6   8
ENDBRANCH   5   6
ENDBRANCH   4   5
ENDBRANCH   3   4
ENDBRANCH   2   3
ENDBRANCH   1   2
BRANCH   1  25
ATOM     25  C   UNL A   1      33.003  35.503  32.263  1.00  0.00     0.188 C 
BRANCH  25  26
ATOM     26  O   UNL A   1      33.622  34.296  31.814  1.00  0.00    -0.376 OA
BRANCH  26  27
ATOM     27  C   UNL A   1      34.948  34.120  32.322  1.00  0.00     0.202 C 
BRANCH  27  28
ATOM     28  C   UNL A   1      35.020  33.132  33.494  1.00  0.00     0.261 C 
BRANCH  28  29
ATOM     29  O   UNL A   1      36.023  32.132  33.249  1.00  0.00    -0.460 OA
BRANCH  29  30
ATOM     30  C   UNL A   1      37.092  32.153  34.085  1.00  0.00     0.338 C 
ATOM     31  O   UNL A   1      37.071  32.021  35.299  1.00  0.00    -0.246 OA
BRANCH  30  32
ATOM     32  C   UNL A   1      38.342  32.144  33.282  1.00  0.00     0.060 A 
ATOM     33  C   UNL A   1      39.526  31.728  33.910  1.00  0.00     0.016 A 
ATOM     34  C   UNL A   1      38.350  32.464  31.921  1.00  0.00     0.016 A 
ATOM     35  C   UNL A   1      40.722  31.664  33.191  1.00  0.00     0.010 A 
ATOM     36  C   UNL A   1      39.547  32.406  31.203  1.00  0.00     0.010 A 
ATOM     37  C   UNL A   1      40.743  32.038  31.842  1.00  0.00    -0.014 A 
BRANCH  37  38
ATOM     38  C   UNL A   1      42.033  32.262  31.148  1.00  0.00     0.031 A 
ATOM     39  C   UNL A   1      42.620  33.647  31.196  1.00  0.00     0.074 A 
ATOM     40  C   UNL A   1      42.657  31.279  30.474  1.00  0.00     0.049 A 
ATOM     41  N   UNL A   1      43.677  34.123  30.596  1.00  0.00    -0.248 NA
ATOM     42  C   UNL A   1      41.906  34.632  32.028  1.00  0.00     0.031 C 
ATOM     43  C   UNL A   1      42.205  29.892  30.379  1.00  0.00     0.029 A 
ATOM     44  N   UNL A   1      43.807  31.308  29.723  1.00  0.00    -0.354 N 
ATOM     45  C   UNL A   1      43.743  35.464  30.957  1.00  0.00     0.074 A 
ATOM     46  C   UNL A   1      42.610  35.732  31.813  1.00  0.00     0.031 C 
ATOM     47  C   UNL A   1      43.062  29.205  29.602  1.00  0.00     0.029 A 
ATOM     48  C   UNL A   1      44.104  30.110  29.118  1.00  0.00     0.049 A 
ATOM     49  H   UNL A   1      44.366  32.113  29.627  1.00  0.00     0.167 HD
ATOM     50  C   UNL A   1      44.669  36.387  30.610  1.00  0.00     0.037 A 
ATOM     51  C   UNL A   1      45.091  29.792  28.256  1.00  0.00     0.037 A 
ATOM     52  C   UNL A   1      45.803  36.112  29.773  1.00  0.00     0.049 A 
ATOM     53  C   UNL A   1      46.082  30.856  27.845  1.00  0.00     0.074 A 
ATOM     54  C   UNL A   1      46.824  36.969  29.399  1.00  0.00     0.029 A 
ATOM     55  N   UNL A   1      46.065  34.890  29.173  1.00  0.00    -0.354 N 
ATOM     56  N   UNL A   1      46.158  32.109  28.228  1.00  0.00    -0.248 NA
ATOM     57  C   UNL A   1      47.122  30.462  26.882  1.00  0.00     0.031 C 
ATOM     58  C   UNL A   1      47.676  36.278  28.533  1.00  0.00     0.029 A 
ATOM     59  C   UNL A   1      47.216  34.976  28.409  1.00  0.00     0.049 A 
ATOM     60  H   UNL A   1      45.515  34.080  29.275  1.00  0.00     0.167 HD
ATOM     61  C   UNL A   1      47.272  32.639  27.582  1.00  0.00     0.074 A 
ATOM     62  C   UNL A   1      47.841  31.572  26.788  1.00  0.00     0.031 C 
ATOM     63  C   UNL A   1      47.780  33.895  27.642  1.00  0.00     0.037 A 
BRANCH  50  64
ATOM     64  C   UNL A   1      44.478  37.789  31.115  1.00  0.00     0.058 A 
ATOM     65  C   UNL A   1      43.772  38.751  30.378  1.00  0.00     0.135 A 
ATOM     66  C   UNL A   1      44.978  38.160  32.373  1.00  0.00     0.135 A 
ATOM     67  F   UNL A   1      43.295  38.455  29.159  1.00  0.00    -0.206 F 
ATOM     68  C   UNL A   1      43.580  40.040  30.866  1.00  0.00     0.059 A 
ATOM     69  C   UNL A   1      44.777  39.435  32.891  1.00  0.00     0.059 A 
ATOM     70  F   UNL A   1      45.670  37.279  33.113  1.00  0.00    -0.206 F 
ATOM     71  C   UNL A   1      44.083  40.371  32.125  1.00  0.00     0.060 A 
BRANCH  71  72
ATOM     72  S   UNL A   1      43.806  42.040  32.754  1.00  0.00     0.124 S 
ATOM     73  O   UNL A   1      42.426  42.280  32.343  1.00  0.00    -0.237 OA
ATOM     74  O   UNL A   1      44.020  41.872  34.188  1.00  0.00    -0.237 OA
ATOM     75  O   UNL A   1      44.814  42.836  32.063  1.00  0.00    -0.744 OA
ENDBRANCH  71  72
ENDBRANCH  50  64
BRANCH  51  76
ATOM     76  C   UNL A   1      45.202  28.414  27.703  1.00  0.00     0.058 A 
ATOM     77  C   UNL A   1      44.424  28.010  26.608  1.00  0.00     0.135 A 
ATOM     78  C   UNL A   1      46.053  27.461  28.284  1.00  0.00     0.135 A 
ATOM     79  F   UNL A   1      43.584  28.880  26.026  1.00  0.00    -0.206 F 
ATOM     80  C   UNL A   1      44.461  26.705  26.126  1.00  0.00     0.059 A 
ATOM     81  C   UNL A   1      46.129  26.157  27.803  1.00  0.00     0.059 A 
ATOM     82  F   UNL A   1      46.825  27.796  29.329  1.00  0.00    -0.206 F 
ATOM     83  C   UNL A   1      45.316  25.784  26.734  1.00  0.00     0.060 A 
BRANCH  83  84
ATOM     84  S   UNL A   1      45.367  24.096  26.093  1.00  0.00     0.124 S 
ATOM     85  O   UNL A   1      44.997  24.300  24.698  1.00  0.00    -0.237 OA
ATOM     86  O   UNL A   1      46.756  23.716  26.338  1.00  0.00    -0.237 OA
ATOM     87  O   UNL A   1      44.381  23.397  26.912  1.00  0.00    -0.744 OA
ENDBRANCH  83  84
ENDBRANCH  51  76
BRANCH  63  88
ATOM     88  C   UNL A   1      49.042  34.176  26.875  1.00  0.00     0.058 A 
ATOM     89  C   UNL A   1      49.017  34.732  25.586  1.00  0.00     0.135 A 
ATOM     90  C   UNL A   1      50.296  33.949  27.466  1.00  0.00     0.135 A 
ATOM     91  F   UNL A   1      47.846  34.966  24.974  1.00  0.00    -0.206 F 
ATOM     92  C   UNL A   1      50.191  35.033  24.902  1.00  0.00     0.059 A 
ATOM     93  C   UNL A   1      51.481  34.267  26.813  1.00  0.00     0.059 A 
ATOM     94  F   UNL A   1      50.375  33.433  28.703  1.00  0.00    -0.206 F 
ATOM     95  C   UNL A   1      51.419  34.799  25.525  1.00  0.00     0.060 A 
BRANCH  95  96
ATOM     96  S   UNL A   1      52.934  35.231  24.644  1.00  0.00     0.124 S 
ATOM     97  O   UNL A   1      52.405  35.864  23.441  1.00  0.00    -0.237 OA
ATOM     98  O   UNL A   1      53.603  36.120  25.588  1.00  0.00    -0.237 OA
ATOM     99  O   UNL A   1      53.587  33.941  24.439  1.00  0.00    -0.744 OA
ENDBRANCH  95  96
ENDBRANCH  63  88
ENDBRANCH  37  38
ENDBRANCH  30  32
ENDBRANCH  29  30
ENDBRANCH  28  29
ENDBRANCH  27  28
ENDBRANCH  26  27
ENDBRANCH  25  26
ENDBRANCH   1  25
TORSDOF 26
ENDMDL
MODEL 3
REMARK VINA RESULT:      -8.1      4.565     10.247
REMARK SMILES CC[N@@H+]1CCO[C@@H](C[N@@H+](CCC(=O)OCCOCCOCCOC(=O)c2ccc(-c3c4nc(c(-c5c(F)cc(S(=O)(=O)[O-])cc5F)c5ccc([nH]5)c(-c5c(F)cc(S(=O)(=O)[O-])cc5F)c5nc(c(-c6c(F)cc(S(=O)(=O)[O-])cc6F)c6ccc3[nH]6)C=C5)C=C4)cc2)C2CC2)C1
REMARK SMILES IDX 18 1 17 2 16 3 15 4 14 5 12 6 13 7 11 8 10 9 9 10 8 12 7 13
REMARK SMILES IDX 3 14 4 15 95 16 5 18 6 19 2 20 1 21 92 22 93 23 94 24 19 25
REMARK SMILES IDX 20 26 21 27 22 28 23 29 24 30 25 31 26 32 27 33 91 34 28 35
REMARK SMILES IDX 90 36 29 37 30 38 31 39 84 40 32 41 89 42 83 43 85 44 33 45
REMARK SMILES IDX 88 46 82 47 81 48 34 50 68 51 47 52 67 53 48 54 51 55 66 56
REMARK SMILES IDX 86 57 49 58 50 59 65 61 87 62 52 63 35 64 36 65 45 66 37 67
REMARK SMILES IDX 38 68 44 69 46 70 39 71 40 72 41 73 42 74 43 75 69 76 70 77
REMARK SMILES IDX 79 78 71 79 72 80 78 81 80 82 73 83 74 84 75 85 76 86 77 87
REMARK SMILES IDX 53 88 54 89 63 90 55 91 56 92 62 93 64 94 57 95 58 96 59 97
REMARK SMILES IDX 60 98 61 99
REMARK H PARENT 9 11 3 17 85 49 51 60
REMARK Flexibility Score: inf
ROOT
ATOM      1  C   UNL A   1      32.974  35.623  30.776  1.00  0.00     0.188 C 
ENDROOT
BRANCH   1   2
ATOM      2  O   UNL A   1      33.629  35.279  29.561  1.00  0.00    -0.376 OA
BRANCH   2   3
ATOM      3  C   UNL A   1      32.927  34.345  28.734  1.00  0.00     0.202 C 
BRANCH   3   4
ATOM      4  C   UNL A   1      33.846  33.356  28.003  1.00  0.00     0.261 C 
BRANCH   4   5
ATOM      5  O   UNL A   1      33.069  32.274  27.449  1.00  0.00    -0.463 OA
BRANCH   5   6
ATOM      6  C   UNL A   1      33.632  31.045  27.371  1.00  0.00     0.311 C 
ATOM      7  O   UNL A   1      34.822  30.822  27.562  1.00  0.00    -0.252 OA
BRANCH   6   8
ATOM      8  C   UNL A   1      32.660  29.947  26.982  1.00  0.00     0.184 C 
BRANCH   8   9
ATOM      9  C   UNL A   1      31.936  29.980  25.622  1.00  0.00     0.274 C 
BRANCH   9  10
ATOM     10  N   UNL A   1      32.171  28.930  24.598  1.00  0.00    -0.330 N 
ATOM     11  H   UNL A   1      32.552  29.306  23.730  1.00  0.00     0.348 HD
BRANCH  10  12
ATOM     12  C   UNL A   1      30.901  28.373  24.098  1.00  0.00     0.300 C 
BRANCH  12  13
ATOM     13  C   UNL A   1      29.827  29.292  23.494  1.00  0.00     0.228 C 
ATOM     14  N   UNL A   1      29.277  30.848  21.583  1.00  0.00    -0.331 N 
ATOM     15  C   UNL A   1      28.027  30.095  21.425  1.00  0.00     0.291 C 
ATOM     16  C   UNL A   1      30.300  29.990  22.204  1.00  0.00     0.300 C 
ATOM     17  H   UNL A   1      29.602  31.085  20.646  1.00  0.00     0.348 HD
ATOM     18  C   UNL A   1      27.614  29.229  22.628  1.00  0.00     0.222 C 
ATOM     19  O   UNL A   1      28.695  28.450  23.150  1.00  0.00    -0.361 OA
BRANCH  14  20
ATOM     20  C   UNL A   1      29.152  32.192  22.148  1.00  0.00     0.258 C 
ATOM     21  C   UNL A   1      28.033  32.513  23.133  1.00  0.00     0.071 C 
ENDBRANCH  14  20
ENDBRANCH  12  13
ENDBRANCH  10  12
BRANCH  10  22
ATOM     22  C   UNL A   1      33.263  28.033  25.027  1.00  0.00     0.184 C 
ATOM     23  C   UNL A   1      33.182  26.592  25.201  1.00  0.00     0.071 C 
ATOM     24  C   UNL A   1      33.801  27.092  23.917  1.00  0.00     0.071 C 
ENDBRANCH  10  22
ENDBRANCH   9  10
ENDBRANCH   8   9
ENDBRANCH   6   8
ENDBRANCH   5   6
ENDBRANCH   4   5
ENDBRANCH   3   4
ENDBRANCH   2   3
ENDBRANCH   1   2
BRANCH   1  25
ATOM     25  C   UNL A   1      33.706  35.176  32.033  1.00  0.00     0.188 C 
BRANCH  25  26
ATOM     26  O   UNL A   1      33.893  33.762  32.118  1.00  0.00    -0.376 OA
BRANCH  26  27
ATOM     27  C   UNL A   1      35.248  33.359  31.896  1.00  0.00     0.202 C 
BRANCH  27  28
ATOM     28  C   UNL A   1      35.683  32.183  32.781  1.00  0.00     0.261 C 
BRANCH  28  29
ATOM     29  O   UNL A   1      35.833  30.990  31.994  1.00  0.00    -0.460 OA
BRANCH  29  30
ATOM     30  C   UNL A   1      36.837  30.158  32.374  1.00  0.00     0.338 C 
ATOM     31  O   UNL A   1      36.715  29.049  32.871  1.00  0.00    -0.246 OA
BRANCH  30  32
ATOM     32  C   UNL A   1      38.132  30.703  31.892  1.00  0.00     0.060 A 
ATOM     33  C   UNL A   1      38.212  31.130  30.558  1.00  0.00     0.016 A 
ATOM     34  C   UNL A   1      39.230  30.865  32.743  1.00  0.00     0.016 A 
ATOM     35  C   UNL A   1      39.394  31.685  30.064  1.00  0.00     0.010 A 
ATOM     36  C   UNL A   1      40.414  31.415  32.248  1.00  0.00     0.010 A 
ATOM     37  C   UNL A   1      40.512  31.796  30.899  1.00  0.00    -0.014 A 
BRANCH  37  38
ATOM     38  C   UNL A   1      41.847  32.099  30.327  1.00  0.00     0.031 A 
ATOM     39  C   UNL A   1      42.350  33.513  30.444  1.00  0.00     0.074 A 
ATOM     40  C   UNL A   1      42.582  31.161  29.703  1.00  0.00     0.049 A 
ATOM     41  N   UNL A   1      43.430  34.053  29.948  1.00  0.00    -0.248 NA
ATOM     42  C   UNL A   1      41.511  34.445  31.217  1.00  0.00     0.031 C 
ATOM     43  C   UNL A   1      42.215  29.754  29.553  1.00  0.00     0.029 A 
ATOM     44  N   UNL A   1      43.792  31.263  29.062  1.00  0.00    -0.354 N 
ATOM     45  C   UNL A   1      43.390  35.390  30.328  1.00  0.00     0.074 A 
ATOM     46  C   UNL A   1      42.171  35.585  31.079  1.00  0.00     0.031 C 
ATOM     47  C   UNL A   1      43.176  29.125  28.850  1.00  0.00     0.029 A 
ATOM     48  C   UNL A   1      44.206  30.092  28.474  1.00  0.00     0.049 A 
ATOM     49  H   UNL A   1      44.312  32.097  29.026  1.00  0.00     0.167 HD
ATOM     50  C   UNL A   1      44.292  36.366  30.077  1.00  0.00     0.037 A 
ATOM     51  C   UNL A   1      45.284  29.840  27.702  1.00  0.00     0.037 A 
ATOM     52  C   UNL A   1      45.511  36.165  29.344  1.00  0.00     0.049 A 
ATOM     53  C   UNL A   1      46.249  30.961  27.395  1.00  0.00     0.074 A 
ATOM     54  C   UNL A   1      46.513  37.081  29.074  1.00  0.00     0.029 A 
ATOM     55  N   UNL A   1      45.892  34.967  28.758  1.00  0.00    -0.354 N 
ATOM     56  N   UNL A   1      46.221  32.211  27.796  1.00  0.00    -0.248 NA
ATOM     57  C   UNL A   1      47.392  30.638  26.527  1.00  0.00     0.031 C 
ATOM     58  C   UNL A   1      47.477  36.449  28.283  1.00  0.00     0.029 A 
ATOM     59  C   UNL A   1      47.102  35.127  28.104  1.00  0.00     0.049 A 
ATOM     60  H   UNL A   1      45.380  34.128  28.801  1.00  0.00     0.167 HD
ATOM     61  C   UNL A   1      47.359  32.809  27.261  1.00  0.00     0.074 A 
ATOM     62  C   UNL A   1      48.055  31.786  26.511  1.00  0.00     0.031 C 
ATOM     63  C   UNL A   1      47.791  34.089  27.381  1.00  0.00     0.037 A 
BRANCH  50  64
ATOM     64  C   UNL A   1      43.980  37.748  30.577  1.00  0.00     0.058 A 
ATOM     65  C   UNL A   1      44.286  38.148  31.886  1.00  0.00     0.135 A 
ATOM     66  C   UNL A   1      43.404  38.696  29.717  1.00  0.00     0.135 A 
ATOM     67  F   UNL A   1      44.815  37.272  32.755  1.00  0.00    -0.206 F 
ATOM     68  C   UNL A   1      44.015  39.438  32.332  1.00  0.00     0.059 A 
ATOM     69  C   UNL A   1      43.148  39.998  30.133  1.00  0.00     0.059 A 
ATOM     70  F   UNL A   1      43.083  38.361  28.457  1.00  0.00    -0.206 F 
ATOM     71  C   UNL A   1      43.449  40.357  31.446  1.00  0.00     0.060 A 
BRANCH  71  72
ATOM     72  S   UNL A   1      43.126  42.033  32.032  1.00  0.00     0.124 S 
ATOM     73  O   UNL A   1      41.912  41.838  32.818  1.00  0.00    -0.237 OA
ATOM     74  O   UNL A   1      44.334  42.335  32.795  1.00  0.00    -0.237 OA
ATOM     75  O   UNL A   1      42.960  42.798  30.801  1.00  0.00    -0.744 OA
ENDBRANCH  71  72
ENDBRANCH  50  64
BRANCH  51  76
ATOM     76  C   UNL A   1      45.520  28.478  27.147  1.00  0.00     0.058 A 
ATOM     77  C   UNL A   1      46.517  27.646  27.676  1.00  0.00     0.135 A 
ATOM     78  C   UNL A   1      44.785  28.000  26.052  1.00  0.00     0.135 A 
ATOM     79  F   UNL A   1      47.257  28.063  28.715  1.00  0.00    -0.206 F 
ATOM     80  C   UNL A   1      46.799  26.400  27.123  1.00  0.00     0.059 A 
ATOM     81  C   UNL A   1      45.029  26.746  25.497  1.00  0.00     0.059 A 
ATOM     82  F   UNL A   1      43.814  28.752  25.512  1.00  0.00    -0.206 F 
ATOM     83  C   UNL A   1      46.051  25.961  26.030  1.00  0.00     0.060 A 
BRANCH  83  84
ATOM     84  S   UNL A   1      46.415  24.338  25.326  1.00  0.00     0.124 S 
ATOM     85  O   UNL A   1      47.142  23.701  26.418  1.00  0.00    -0.237 OA
ATOM     86  O   UNL A   1      45.080  23.813  25.055  1.00  0.00    -0.237 OA
ATOM     87  O   UNL A   1      47.208  24.656  24.142  1.00  0.00    -0.744 OA
ENDBRANCH  83  84
ENDBRANCH  51  76
BRANCH  63  88
ATOM     88  C   UNL A   1      49.100  34.449  26.735  1.00  0.00     0.058 A 
ATOM     89  C   UNL A   1      50.326  34.266  27.394  1.00  0.00     0.135 A 
ATOM     90  C   UNL A   1      49.131  34.920  25.412  1.00  0.00     0.135 A 
ATOM     91  F   UNL A   1      50.353  33.822  28.660  1.00  0.00    -0.206 F 
ATOM     92  C   UNL A   1      51.536  34.557  26.770  1.00  0.00     0.059 A 
ATOM     93  C   UNL A   1      50.329  35.190  24.760  1.00  0.00     0.059 A 
ATOM     94  F   UNL A   1      47.987  35.098  24.731  1.00  0.00    -0.206 F 
ATOM     95  C   UNL A   1      51.527  35.017  25.452  1.00  0.00     0.060 A 
BRANCH  95  96
ATOM     96  S   UNL A   1      53.104  35.353  24.639  1.00  0.00     0.124 S 
ATOM     97  O   UNL A   1      54.015  35.409  25.777  1.00  0.00    -0.237 OA
ATOM     98  O   UNL A   1      53.257  34.197  23.761  1.00  0.00    -0.237 OA
ATOM     99  O   UNL A   1      52.871  36.623  23.958  1.00  0.00    -0.744 OA
ENDBRANCH  95  96
ENDBRANCH  63  88
ENDBRANCH  37  38
ENDBRANCH  30  32
ENDBRANCH  29  30
ENDBRANCH  28  29
ENDBRANCH  27  28
ENDBRANCH  26  27
ENDBRANCH  25  26
ENDBRANCH   1  25
TORSDOF 26
ENDMDL
