MODEL 1
REMARK VINA RESULT:      -9.5      0.000      0.000
REMARK SMILES CSc1ccc(Cl)c(C(=O)N[C@@H](CO)C(=O)OCCOCCOCCOC(=O)c2ccc(-c3c4nc(c(-c5c(F)cc(S(=O)(=O)[O-])cc5F)c5ccc([nH]5)c(-c5c(F)cc(S(=O)(=O)[O-])cc5F)c5nc(c(-c6c(F)cc(S(=O)(=O)[O-])cc6F)c6ccc3[nH]6)C=C5)C=C4)cc2)c1
REMARK SMILES IDX 21 1 20 2 19 3 18 4 17 5 15 6 16 7 12 8 11 9 9 10 10 11 8 13
REMARK SMILES IDX 3 14 4 15 95 16 5 17 6 18 7 19 2 20 1 21 13 22 14 23 22 25
REMARK SMILES IDX 23 26 24 27 25 28 26 29 27 30 28 31 29 32 30 33 94 34 31 35
REMARK SMILES IDX 93 36 32 37 33 38 34 39 87 40 35 41 92 42 86 43 88 44 36 45
REMARK SMILES IDX 91 46 85 47 84 48 37 50 71 51 50 52 70 53 51 54 54 55 69 56
REMARK SMILES IDX 89 57 52 58 53 59 68 61 90 62 55 63 38 64 39 65 48 66 40 67
REMARK SMILES IDX 41 68 47 69 49 70 42 71 43 72 44 73 45 74 46 75 72 76 73 77
REMARK SMILES IDX 82 78 74 79 75 80 81 81 83 82 76 83 77 84 78 85 79 86 80 87
REMARK SMILES IDX 56 88 57 89 66 90 58 91 59 92 65 93 67 94 60 95 61 96 62 97
REMARK SMILES IDX 63 98 64 99
REMARK H PARENT 11 12 14 24 88 49 54 60
REMARK Flexibility Score: inf
ROOT
ATOM      1  C   UNL A   1      33.367  35.592  29.500  1.00  0.00     0.188 C 
ENDROOT
BRANCH   1   2
ATOM      2  O   UNL A   1      34.397  35.378  28.538  1.00  0.00    -0.376 OA
BRANCH   2   3
ATOM      3  C   UNL A   1      34.537  34.074  27.975  1.00  0.00     0.202 C 
BRANCH   3   4
ATOM      4  C   UNL A   1      33.346  33.112  28.094  1.00  0.00     0.261 C 
BRANCH   4   5
ATOM      5  O   UNL A   1      33.605  31.784  27.590  1.00  0.00    -0.462 OA
BRANCH   5   6
ATOM      6  C   UNL A   1      32.588  31.263  26.854  1.00  0.00     0.331 C 
ATOM      7  O   UNL A   1      31.558  31.881  26.597  1.00  0.00    -0.250 OA
BRANCH   6   8
ATOM      8  C   UNL A   1      32.928  29.910  26.182  1.00  0.00     0.218 C 
BRANCH   8   9
ATOM      9  N   UNL A   1      32.956  29.719  24.722  1.00  0.00    -0.337 N 
ATOM     10  C   UNL A   1      32.669  28.676  23.866  1.00  0.00     0.253 C 
ATOM     11  O   UNL A   1      33.180  28.818  22.746  1.00  0.00    -0.269 OA
ATOM     12  H   UNL A   1      33.249  30.529  24.244  1.00  0.00     0.164 HD
BRANCH  10  13
ATOM     13  C   UNL A   1      31.739  27.492  24.056  1.00  0.00     0.059 A 
ATOM     14  C   UNL A   1      31.616  25.253  25.152  1.00  0.00     0.008 A 
ATOM     15  C   UNL A   1      30.433  24.990  24.476  1.00  0.00     0.016 A 
ATOM     16  C   UNL A   1      32.281  26.466  24.898  1.00  0.00     0.030 A 
ATOM     17  C   UNL A   1      29.857  25.978  23.689  1.00  0.00     0.022 A 
ATOM     18  C   UNL A   1      30.451  27.248  23.557  1.00  0.00     0.053 A 
ATOM     19  Cl  UNL A   1      29.323  28.430  23.013  1.00  0.00    -0.083 Cl
BRANCH  14  20
ATOM     20  S   UNL A   1      32.080  24.092  26.427  1.00  0.00    -0.130 SA
ATOM     21  C   UNL A   1      31.247  22.567  25.934  1.00  0.00     0.091 C 
ENDBRANCH  14  20
ENDBRANCH  10  13
ENDBRANCH   8   9
BRANCH   8  22
ATOM     22  C   UNL A   1      34.297  29.481  26.733  1.00  0.00     0.193 C 
BRANCH  22  23
ATOM     23  O   UNL A   1      34.150  28.906  28.040  1.00  0.00    -0.394 OA
ATOM     24  H   UNL A   1      34.901  29.170  28.595  1.00  0.00     0.210 HD
ENDBRANCH  22  23
ENDBRANCH   8  22
ENDBRANCH   6   8
ENDBRANCH   5   6
ENDBRANCH   4   5
ENDBRANCH   3   4
ENDBRANCH   2   3
ENDBRANCH   1   2
BRANCH   1  25
ATOM     25  C   UNL A   1      33.717  35.463  30.995  1.00  0.00     0.188 C 
BRANCH  25  26
ATOM     26  O   UNL A   1      34.727  34.516  31.281  1.00  0.00    -0.376 OA
BRANCH  26  27
ATOM     27  C   UNL A   1      34.291  33.216  31.639  1.00  0.00     0.202 C 
BRANCH  27  28
ATOM     28  C   UNL A   1      35.334  32.085  31.590  1.00  0.00     0.261 C 
BRANCH  28  29
ATOM     29  O   UNL A   1      36.551  32.376  30.876  1.00  0.00    -0.460 OA
BRANCH  29  30
ATOM     30  C   UNL A   1      37.691  32.376  31.600  1.00  0.00     0.338 C 
ATOM     31  O   UNL A   1      37.850  32.875  32.708  1.00  0.00    -0.246 OA
BRANCH  30  32
ATOM     32  C   UNL A   1      38.663  31.473  30.950  1.00  0.00     0.060 A 
ATOM     33  C   UNL A   1      39.636  30.858  31.746  1.00  0.00     0.016 A 
ATOM     34  C   UNL A   1      38.648  31.260  29.568  1.00  0.00     0.016 A 
ATOM     35  C   UNL A   1      40.623  30.073  31.156  1.00  0.00     0.010 A 
ATOM     36  C   UNL A   1      39.666  30.498  28.975  1.00  0.00     0.010 A 
ATOM     37  C   UNL A   1      40.688  29.944  29.764  1.00  0.00    -0.014 A 
BRANCH  37  38
ATOM     38  C   UNL A   1      41.960  29.464  29.162  1.00  0.00     0.031 A 
ATOM     39  C   UNL A   1      43.099  30.444  29.033  1.00  0.00     0.074 A 
ATOM     40  C   UNL A   1      42.146  28.178  28.817  1.00  0.00     0.049 A 
ATOM     41  N   UNL A   1      44.306  30.263  28.561  1.00  0.00    -0.248 NA
ATOM     42  C   UNL A   1      42.835  31.812  29.506  1.00  0.00     0.031 C 
ATOM     43  C   UNL A   1      41.149  27.117  28.937  1.00  0.00     0.029 A 
ATOM     44  N   UNL A   1      43.248  27.550  28.291  1.00  0.00    -0.354 N 
ATOM     45  C   UNL A   1      44.941  31.497  28.667  1.00  0.00     0.074 A 
ATOM     46  C   UNL A   1      43.975  32.422  29.221  1.00  0.00     0.031 C 
ATOM     47  C   UNL A   1      41.679  25.970  28.476  1.00  0.00     0.029 A 
ATOM     48  C   UNL A   1      43.043  26.222  28.009  1.00  0.00     0.049 A 
ATOM     49  H   UNL A   1      44.105  28.010  28.131  1.00  0.00     0.167 HD
ATOM     50  C   UNL A   1      46.212  31.833  28.340  1.00  0.00     0.037 A 
ATOM     51  C   UNL A   1      43.855  25.318  27.421  1.00  0.00     0.037 A 
ATOM     52  C   UNL A   1      47.171  30.919  27.779  1.00  0.00     0.049 A 
ATOM     53  C   UNL A   1      45.253  25.717  27.022  1.00  0.00     0.074 A 
ATOM     54  C   UNL A   1      48.483  31.164  27.411  1.00  0.00     0.029 A 
ATOM     55  N   UNL A   1      46.921  29.584  27.497  1.00  0.00    -0.354 N 
ATOM     56  N   UNL A   1      45.843  26.884  27.133  1.00  0.00    -0.248 NA
ATOM     57  C   UNL A   1      46.099  24.671  26.431  1.00  0.00     0.031 C 
ATOM     58  C   UNL A   1      49.010  29.989  26.863  1.00  0.00     0.029 A 
ATOM     59  C   UNL A   1      48.045  28.996  26.941  1.00  0.00     0.049 A 
ATOM     60  H   UNL A   1      46.068  29.122  27.666  1.00  0.00     0.167 HD
ATOM     61  C   UNL A   1      47.136  26.707  26.649  1.00  0.00     0.074 A 
ATOM     62  C   UNL A   1      47.245  25.317  26.254  1.00  0.00     0.031 C 
ATOM     63  C   UNL A   1      48.143  27.611  26.547  1.00  0.00     0.037 A 
BRANCH  50  64
ATOM     64  C   UNL A   1      46.604  33.272  28.537  1.00  0.00     0.058 A 
ATOM     65  C   UNL A   1      46.440  34.233  27.525  1.00  0.00     0.135 A 
ATOM     66  C   UNL A   1      47.196  33.685  29.742  1.00  0.00     0.135 A 
ATOM     67  F   UNL A   1      45.900  33.887  26.345  1.00  0.00    -0.206 F 
ATOM     68  C   UNL A   1      46.900  35.537  27.680  1.00  0.00     0.059 A 
ATOM     69  C   UNL A   1      47.636  34.992  29.930  1.00  0.00     0.059 A 
ATOM     70  F   UNL A   1      47.377  32.809  30.742  1.00  0.00    -0.206 F 
ATOM     71  C   UNL A   1      47.508  35.903  28.883  1.00  0.00     0.060 A 
BRANCH  71  72
ATOM     72  S   UNL A   1      48.157  37.579  29.050  1.00  0.00     0.124 S 
ATOM     73  O   UNL A   1      49.016  37.441  30.222  1.00  0.00    -0.237 OA
ATOM     74  O   UNL A   1      48.846  37.777  27.779  1.00  0.00    -0.237 OA
ATOM     75  O   UNL A   1      46.957  38.389  29.242  1.00  0.00    -0.744 OA
ENDBRANCH  71  72
ENDBRANCH  50  64
BRANCH  51  76
ATOM     76  C   UNL A   1      43.349  23.943  27.167  1.00  0.00     0.058 A 
ATOM     77  C   UNL A   1      43.213  23.011  28.205  1.00  0.00     0.135 A 
ATOM     78  C   UNL A   1      42.953  23.552  25.878  1.00  0.00     0.135 A 
ATOM     79  F   UNL A   1      43.591  23.333  29.451  1.00  0.00    -0.206 F 
ATOM     80  C   UNL A   1      42.694  21.740  27.977  1.00  0.00     0.059 A 
ATOM     81  C   UNL A   1      42.409  22.296  25.630  1.00  0.00     0.059 A 
ATOM     82  F   UNL A   1      43.059  24.412  24.854  1.00  0.00    -0.206 F 
ATOM     83  C   UNL A   1      42.283  21.397  26.687  1.00  0.00     0.060 A 
BRANCH  83  84
ATOM     84  S   UNL A   1      41.509  19.786  26.423  1.00  0.00     0.124 S 
ATOM     85  O   UNL A   1      40.116  20.160  26.206  1.00  0.00    -0.237 OA
ATOM     86  O   UNL A   1      42.228  19.293  25.252  1.00  0.00    -0.237 OA
ATOM     87  O   UNL A   1      41.788  19.073  27.666  1.00  0.00    -0.744 OA
ENDBRANCH  83  84
ENDBRANCH  51  76
BRANCH  63  88
ATOM     88  C   UNL A   1      49.469  27.122  26.024  1.00  0.00     0.058 A 
ATOM     89  C   UNL A   1      50.419  26.510  26.857  1.00  0.00     0.135 A 
ATOM     90  C   UNL A   1      49.778  27.240  24.658  1.00  0.00     0.135 A 
ATOM     91  F   UNL A   1      50.177  26.371  28.170  1.00  0.00    -0.206 F 
ATOM     92  C   UNL A   1      51.643  26.067  26.363  1.00  0.00     0.059 A 
ATOM     93  C   UNL A   1      50.983  26.778  24.138  1.00  0.00     0.059 A 
ATOM     94  F   UNL A   1      48.900  27.801  23.813  1.00  0.00    -0.206 F 
ATOM     95  C   UNL A   1      51.918  26.210  25.001  1.00  0.00     0.060 A 
BRANCH  95  96
ATOM     96  S   UNL A   1      53.508  25.633  24.369  1.00  0.00     0.124 S 
ATOM     97  O   UNL A   1      53.330  25.802  22.931  1.00  0.00    -0.237 OA
ATOM     98  O   UNL A   1      54.450  26.550  25.003  1.00  0.00    -0.237 OA
ATOM     99  O   UNL A   1      53.578  24.251  24.835  1.00  0.00    -0.744 OA
ENDBRANCH  95  96
ENDBRANCH  63  88
ENDBRANCH  37  38
ENDBRANCH  30  32
ENDBRANCH  29  30
ENDBRANCH  28  29
ENDBRANCH  27  28
ENDBRANCH  26  27
ENDBRANCH  25  26
ENDBRANCH   1  25
TORSDOF 25
ENDMDL
MODEL 2
REMARK VINA RESULT:      -9.2      5.656     11.084
REMARK SMILES CSc1ccc(Cl)c(C(=O)N[C@@H](CO)C(=O)OCCOCCOCCOC(=O)c2ccc(-c3c4nc(c(-c5c(F)cc(S(=O)(=O)[O-])cc5F)c5ccc([nH]5)c(-c5c(F)cc(S(=O)(=O)[O-])cc5F)c5nc(c(-c6c(F)cc(S(=O)(=O)[O-])cc6F)c6ccc3[nH]6)C=C5)C=C4)cc2)c1
REMARK SMILES IDX 21 1 20 2 19 3 18 4 17 5 15 6 16 7 12 8 11 9 9 10 10 11 8 13
REMARK SMILES IDX 3 14 4 15 95 16 5 17 6 18 7 19 2 20 1 21 13 22 14 23 22 25
REMARK SMILES IDX 23 26 24 27 25 28 26 29 27 30 28 31 29 32 30 33 94 34 31 35
REMARK SMILES IDX 93 36 32 37 33 38 34 39 87 40 35 41 92 42 86 43 88 44 36 45
REMARK SMILES IDX 91 46 85 47 84 48 37 50 71 51 50 52 70 53 51 54 54 55 69 56
REMARK SMILES IDX 89 57 52 58 53 59 68 61 90 62 55 63 38 64 39 65 48 66 40 67
REMARK SMILES IDX 41 68 47 69 49 70 42 71 43 72 44 73 45 74 46 75 72 76 73 77
REMARK SMILES IDX 82 78 74 79 75 80 81 81 83 82 76 83 77 84 78 85 79 86 80 87
REMARK SMILES IDX 56 88 57 89 66 90 58 91 59 92 65 93 67 94 60 95 61 96 62 97
REMARK SMILES IDX 63 98 64 99
REMARK H PARENT 11 12 14 24 88 49 54 60
REMARK Flexibility Score: inf
ROOT
ATOM      1  C   UNL A   1      34.281  22.664  26.117  1.00  0.00     0.188 C 
ENDROOT
BRANCH   1   2
ATOM      2  O   UNL A   1      33.014  22.598  25.469  1.00  0.00    -0.376 OA
BRANCH   2   3
ATOM      3  C   UNL A   1      32.128  23.709  25.601  1.00  0.00     0.202 C 
BRANCH   3   4
ATOM      4  C   UNL A   1      31.490  24.271  24.321  1.00  0.00     0.261 C 
BRANCH   4   5
ATOM      5  O   UNL A   1      31.945  23.638  23.106  1.00  0.00    -0.462 OA
BRANCH   5   6
ATOM      6  C   UNL A   1      32.914  24.330  22.450  1.00  0.00     0.331 C 
ATOM      7  O   UNL A   1      33.976  23.825  22.095  1.00  0.00    -0.250 OA
BRANCH   6   8
ATOM      8  C   UNL A   1      32.479  25.745  21.995  1.00  0.00     0.218 C 
BRANCH   8   9
ATOM      9  N   UNL A   1      33.328  26.937  22.146  1.00  0.00    -0.337 N 
ATOM     10  C   UNL A   1      33.390  27.989  23.038  1.00  0.00     0.253 C 
ATOM     11  O   UNL A   1      34.008  28.964  22.590  1.00  0.00    -0.269 OA
ATOM     12  H   UNL A   1      34.016  26.999  21.444  1.00  0.00     0.164 HD
BRANCH  10  13
ATOM     13  C   UNL A   1      32.938  28.062  24.484  1.00  0.00     0.059 A 
ATOM     14  C   UNL A   1      33.763  28.642  26.768  1.00  0.00     0.008 A 
ATOM     15  C   UNL A   1      32.596  28.128  27.317  1.00  0.00     0.016 A 
ATOM     16  C   UNL A   1      33.946  28.557  25.376  1.00  0.00     0.030 A 
ATOM     17  C   UNL A   1      31.581  27.684  26.480  1.00  0.00     0.022 A 
ATOM     18  C   UNL A   1      31.709  27.740  25.080  1.00  0.00     0.053 A 
ATOM     19  Cl  UNL A   1      30.179  27.662  24.292  1.00  0.00    -0.083 Cl
BRANCH  14  20
ATOM     20  S   UNL A   1      34.839  29.536  27.877  1.00  0.00    -0.130 SA
ATOM     21  C   UNL A   1      34.445  31.268  27.545  1.00  0.00     0.091 C 
ENDBRANCH  14  20
ENDBRANCH  10  13
ENDBRANCH   8   9
BRANCH   8  22
ATOM     22  C   UNL A   1      32.101  25.628  20.510  1.00  0.00     0.193 C 
BRANCH  22  23
ATOM     23  O   UNL A   1      33.167  25.011  19.773  1.00  0.00    -0.394 OA
ATOM     24  H   UNL A   1      33.012  24.054  19.721  1.00  0.00     0.210 HD
ENDBRANCH  22  23
ENDBRANCH   8  22
ENDBRANCH   6   8
ENDBRANCH   5   6
ENDBRANCH   4   5
ENDBRANCH   3   4
ENDBRANCH   2   3
ENDBRANCH   1   2
BRANCH   1  25
ATOM     25  C   UNL A   1      35.547  22.806  25.249  1.00  0.00     0.188 C 
BRANCH  25  26
ATOM     26  O   UNL A   1      36.290  21.613  25.098  1.00  0.00    -0.376 OA
BRANCH  26  27
ATOM     27  C   UNL A   1      37.666  21.680  25.430  1.00  0.00     0.202 C 
BRANCH  27  28
ATOM     28  C   UNL A   1      38.250  23.073  25.731  1.00  0.00     0.261 C 
BRANCH  28  29
ATOM     29  O   UNL A   1      39.123  23.163  26.872  1.00  0.00    -0.460 OA
BRANCH  29  30
ATOM     30  C   UNL A   1      40.263  23.866  26.707  1.00  0.00     0.338 C 
ATOM     31  O   UNL A   1      41.156  23.627  25.902  1.00  0.00    -0.246 OA
BRANCH  30  32
ATOM     32  C   UNL A   1      40.167  25.114  27.492  1.00  0.00     0.060 A 
ATOM     33  C   UNL A   1      40.969  26.198  27.119  1.00  0.00     0.016 A 
ATOM     34  C   UNL A   1      39.329  25.210  28.607  1.00  0.00     0.016 A 
ATOM     35  C   UNL A   1      40.971  27.359  27.889  1.00  0.00     0.010 A 
ATOM     36  C   UNL A   1      39.363  26.367  29.399  1.00  0.00     0.010 A 
ATOM     37  C   UNL A   1      40.224  27.428  29.070  1.00  0.00    -0.014 A 
BRANCH  37  38
ATOM     38  C   UNL A   1      40.567  28.485  30.057  1.00  0.00     0.031 A 
ATOM     39  C   UNL A   1      39.610  29.638  30.224  1.00  0.00     0.074 A 
ATOM     40  C   UNL A   1      41.646  28.394  30.854  1.00  0.00     0.049 A 
ATOM     41  N   UNL A   1      39.677  30.668  31.029  1.00  0.00    -0.248 NA
ATOM     42  C   UNL A   1      38.415  29.619  29.366  1.00  0.00     0.031 C 
ATOM     43  C   UNL A   1      42.624  27.309  30.835  1.00  0.00     0.029 A 
ATOM     44  N   UNL A   1      42.097  29.239  31.838  1.00  0.00    -0.354 N 
ATOM     45  C   UNL A   1      38.541  31.426  30.765  1.00  0.00     0.074 A 
ATOM     46  C   UNL A   1      37.820  30.752  29.706  1.00  0.00     0.031 C 
ATOM     47  C   UNL A   1      43.574  27.566  31.751  1.00  0.00     0.029 A 
ATOM     48  C   UNL A   1      43.283  28.842  32.405  1.00  0.00     0.049 A 
ATOM     49  H   UNL A   1      41.614  30.054  32.111  1.00  0.00     0.167 HD
ATOM     50  C   UNL A   1      38.128  32.576  31.349  1.00  0.00     0.037 A 
ATOM     51  C   UNL A   1      44.056  29.450  33.329  1.00  0.00     0.037 A 
ATOM     52  C   UNL A   1      38.847  33.256  32.394  1.00  0.00     0.049 A 
ATOM     53  C   UNL A   1      43.607  30.752  33.941  1.00  0.00     0.074 A 
ATOM     54  C   UNL A   1      38.513  34.429  33.049  1.00  0.00     0.029 A 
ATOM     55  N   UNL A   1      40.052  32.828  32.933  1.00  0.00    -0.354 N 
ATOM     56  N   UNL A   1      42.529  31.456  33.687  1.00  0.00    -0.248 NA
ATOM     57  C   UNL A   1      44.473  31.334  34.976  1.00  0.00     0.031 C 
ATOM     58  C   UNL A   1      39.540  34.734  33.950  1.00  0.00     0.029 A 
ATOM     59  C   UNL A   1      40.487  33.722  33.897  1.00  0.00     0.049 A 
ATOM     60  H   UNL A   1      40.529  32.008  32.667  1.00  0.00     0.167 HD
ATOM     61  C   UNL A   1      42.574  32.550  34.546  1.00  0.00     0.074 A 
ATOM     62  C   UNL A   1      43.782  32.410  35.334  1.00  0.00     0.031 C 
ATOM     63  C   UNL A   1      41.693  33.575  34.675  1.00  0.00     0.037 A 
BRANCH  50  64
ATOM     64  C   UNL A   1      36.860  33.190  30.819  1.00  0.00     0.058 A 
ATOM     65  C   UNL A   1      36.819  33.864  29.587  1.00  0.00     0.135 A 
ATOM     66  C   UNL A   1      35.680  33.140  31.577  1.00  0.00     0.135 A 
ATOM     67  F   UNL A   1      37.926  33.961  28.831  1.00  0.00    -0.206 F 
ATOM     68  C   UNL A   1      35.669  34.516  29.153  1.00  0.00     0.059 A 
ATOM     69  C   UNL A   1      34.509  33.760  31.148  1.00  0.00     0.059 A 
ATOM     70  F   UNL A   1      35.662  32.509  32.762  1.00  0.00    -0.206 F 
ATOM     71  C   UNL A   1      34.523  34.468  29.948  1.00  0.00     0.060 A 
BRANCH  71  72
ATOM     72  S   UNL A   1      33.055  35.368  29.407  1.00  0.00     0.124 S 
ATOM     73  O   UNL A   1      32.233  35.334  30.612  1.00  0.00    -0.237 OA
ATOM     74  O   UNL A   1      33.601  36.674  29.050  1.00  0.00    -0.237 OA
ATOM     75  O   UNL A   1      32.562  34.572  28.287  1.00  0.00    -0.744 OA
ENDBRANCH  71  72
ENDBRANCH  50  64
BRANCH  51  76
ATOM     76  C   UNL A   1      45.348  28.826  33.720  1.00  0.00     0.058 A 
ATOM     77  C   UNL A   1      45.412  27.838  34.712  1.00  0.00     0.135 A 
ATOM     78  C   UNL A   1      46.542  29.183  33.073  1.00  0.00     0.135 A 
ATOM     79  F   UNL A   1      44.301  27.473  35.369  1.00  0.00    -0.206 F 
ATOM     80  C   UNL A   1      46.613  27.218  35.045  1.00  0.00     0.059 A 
ATOM     81  C   UNL A   1      47.750  28.562  33.371  1.00  0.00     0.059 A 
ATOM     82  F   UNL A   1      46.530  30.120  32.112  1.00  0.00    -0.206 F 
ATOM     83  C   UNL A   1      47.775  27.579  34.359  1.00  0.00     0.060 A 
BRANCH  83  84
ATOM     84  S   UNL A   1      49.306  26.692  34.720  1.00  0.00     0.124 S 
ATOM     85  O   UNL A   1      50.077  27.711  35.425  1.00  0.00    -0.237 OA
ATOM     86  O   UNL A   1      48.827  25.578  35.532  1.00  0.00    -0.237 OA
ATOM     87  O   UNL A   1      49.802  26.326  33.397  1.00  0.00    -0.744 OA
ENDBRANCH  83  84
ENDBRANCH  51  76
BRANCH  63  88
ATOM     88  C   UNL A   1      41.977  34.609  35.734  1.00  0.00     0.058 A 
ATOM     89  C   UNL A   1      41.410  34.536  37.017  1.00  0.00     0.135 A 
ATOM     90  C   UNL A   1      42.855  35.672  35.468  1.00  0.00     0.135 A 
ATOM     91  F   UNL A   1      40.564  33.541  37.326  1.00  0.00    -0.206 F 
ATOM     92  C   UNL A   1      41.676  35.500  37.985  1.00  0.00     0.059 A 
ATOM     93  C   UNL A   1      43.156  36.631  36.430  1.00  0.00     0.059 A 
ATOM     94  F   UNL A   1      43.438  35.783  34.264  1.00  0.00    -0.206 F 
ATOM     95  C   UNL A   1      42.547  36.548  37.681  1.00  0.00     0.060 A 
BRANCH  95  96
ATOM     96  S   UNL A   1      42.885  37.794  38.943  1.00  0.00     0.124 S 
ATOM     97  O   UNL A   1      43.635  38.787  38.181  1.00  0.00    -0.237 OA
ATOM     98  O   UNL A   1      41.543  38.194  39.356  1.00  0.00    -0.237 OA
ATOM     99  O   UNL A   1      43.651  37.063  39.947  1.00  0.00    -0.744 OA
ENDBRANCH  95  96
ENDBRANCH  63  88
ENDBRANCH  37  38
ENDBRANCH  30  32
ENDBRANCH  29  30
ENDBRANCH  28  29
ENDBRANCH  27  28
ENDBRANCH  26  27
ENDBRANCH  25  26
ENDBRANCH   1  25
TORSDOF 25
ENDMDL
MODEL 3
REMARK VINA RESULT:      -9.2      0.954      8.207
REMARK SMILES CSc1ccc(Cl)c(C(=O)N[C@@H](CO)C(=O)OCCOCCOCCOC(=O)c2ccc(-c3c4nc(c(-c5c(F)cc(S(=O)(=O)[O-])cc5F)c5ccc([nH]5)c(-c5c(F)cc(S(=O)(=O)[O-])cc5F)c5nc(c(-c6c(F)cc(S(=O)(=O)[O-])cc6F)c6ccc3[nH]6)C=C5)C=C4)cc2)c1
REMARK SMILES IDX 21 1 20 2 19 3 18 4 17 5 15 6 16 7 12 8 11 9 9 10 10 11 8 13
REMARK SMILES IDX 3 14 4 15 95 16 5 17 6 18 7 19 2 20 1 21 13 22 14 23 22 25
REMARK SMILES IDX 23 26 24 27 25 28 26 29 27 30 28 31 29 32 30 33 94 34 31 35
REMARK SMILES IDX 93 36 32 37 33 38 34 39 87 40 35 41 92 42 86 43 88 44 36 45
REMARK SMILES IDX 91 46 85 47 84 48 37 50 71 51 50 52 70 53 51 54 54 55 69 56
REMARK SMILES IDX 89 57 52 58 53 59 68 61 90 62 55 63 38 64 39 65 48 66 40 67
REMARK SMILES IDX 41 68 47 69 49 70 42 71 43 72 44 73 45 74 46 75 72 76 73 77
REMARK SMILES IDX 82 78 74 79 75 80 81 81 83 82 76 83 77 84 78 85 79 86 80 87
REMARK SMILES IDX 56 88 57 89 66 90 58 91 59 92 65 93 67 94 60 95 61 96 62 97
REMARK SMILES IDX 63 98 64 99
REMARK H PARENT 11 12 14 24 88 49 54 60
REMARK Flexibility Score: inf
ROOT
ATOM      1  C   UNL A   1      35.172  34.140  29.618  1.00  0.00     0.188 C 
ENDROOT
BRANCH   1   2
ATOM      2  O   UNL A   1      35.961  33.094  29.056  1.00  0.00    -0.376 OA
BRANCH   2   3
ATOM      3  C   UNL A   1      35.484  32.445  27.879  1.00  0.00     0.202 C 
BRANCH   3   4
ATOM      4  C   UNL A   1      33.964  32.300  27.708  1.00  0.00     0.261 C 
BRANCH   4   5
ATOM      5  O   UNL A   1      33.534  30.975  27.329  1.00  0.00    -0.462 OA
BRANCH   5   6
ATOM      6  C   UNL A   1      32.278  30.926  26.812  1.00  0.00     0.331 C 
ATOM      7  O   UNL A   1      31.525  31.897  26.782  1.00  0.00    -0.250 OA
BRANCH   6   8
ATOM      8  C   UNL A   1      31.955  29.608  26.067  1.00  0.00     0.218 C 
BRANCH   8   9
ATOM      9  N   UNL A   1      32.805  29.057  24.998  1.00  0.00    -0.337 N 
ATOM     10  C   UNL A   1      32.993  27.808  24.443  1.00  0.00     0.253 C 
ATOM     11  O   UNL A   1      34.063  27.712  23.827  1.00  0.00    -0.269 OA
ATOM     12  H   UNL A   1      33.374  29.745  24.580  1.00  0.00     0.164 HD
BRANCH  10  13
ATOM     13  C   UNL A   1      32.047  26.625  24.373  1.00  0.00     0.059 A 
ATOM     14  C   UNL A   1      31.832  24.242  25.084  1.00  0.00     0.008 A 
ATOM     15  C   UNL A   1      30.702  24.109  24.290  1.00  0.00     0.016 A 
ATOM     16  C   UNL A   1      32.520  25.469  25.077  1.00  0.00     0.030 A 
ATOM     17  C   UNL A   1      30.191  25.219  23.632  1.00  0.00     0.022 A 
ATOM     18  C   UNL A   1      30.798  26.484  23.748  1.00  0.00     0.053 A 
ATOM     19  Cl  UNL A   1      29.719  27.756  23.320  1.00  0.00    -0.083 Cl
BRANCH  14  20
ATOM     20  S   UNL A   1      32.195  22.885  26.188  1.00  0.00    -0.130 SA
ATOM     21  C   UNL A   1      32.323  21.463  25.082  1.00  0.00     0.091 C 
ENDBRANCH  14  20
ENDBRANCH  10  13
ENDBRANCH   8   9
BRANCH   8  22
ATOM     22  C   UNL A   1      31.804  28.523  27.145  1.00  0.00     0.193 C 
BRANCH  22  23
ATOM     23  O   UNL A   1      32.930  28.546  28.035  1.00  0.00    -0.394 OA
ATOM     24  H   UNL A   1      33.700  28.912  27.572  1.00  0.00     0.210 HD
ENDBRANCH  22  23
ENDBRANCH   8  22
ENDBRANCH   6   8
ENDBRANCH   5   6
ENDBRANCH   4   5
ENDBRANCH   3   4
ENDBRANCH   2   3
ENDBRANCH   1   2
BRANCH   1  25
ATOM     25  C   UNL A   1      34.456  33.883  30.958  1.00  0.00     0.188 C 
BRANCH  25  26
ATOM     26  O   UNL A   1      35.320  33.585  32.037  1.00  0.00    -0.376 OA
BRANCH  26  27
ATOM     27  C   UNL A   1      35.384  32.227  32.437  1.00  0.00     0.202 C 
BRANCH  27  28
ATOM     28  C   UNL A   1      36.563  31.392  31.904  1.00  0.00     0.261 C 
BRANCH  28  29
ATOM     29  O   UNL A   1      36.281  30.010  31.616  1.00  0.00    -0.460 OA
BRANCH  29  30
ATOM     30  C   UNL A   1      36.551  29.586  30.363  1.00  0.00     0.338 C 
ATOM     31  O   UNL A   1      35.731  29.329  29.488  1.00  0.00    -0.246 OA
BRANCH  30  32
ATOM     32  C   UNL A   1      38.005  29.703  30.127  1.00  0.00     0.060 A 
ATOM     33  C   UNL A   1      38.442  30.166  28.880  1.00  0.00     0.016 A 
ATOM     34  C   UNL A   1      38.934  29.328  31.103  1.00  0.00     0.016 A 
ATOM     35  C   UNL A   1      39.804  30.203  28.591  1.00  0.00     0.010 A 
ATOM     36  C   UNL A   1      40.301  29.334  30.793  1.00  0.00     0.010 A 
ATOM     37  C   UNL A   1      40.739  29.723  29.516  1.00  0.00    -0.014 A 
BRANCH  37  38
ATOM     38  C   UNL A   1      42.104  29.394  29.028  1.00  0.00     0.031 A 
ATOM     39  C   UNL A   1      42.359  27.997  28.521  1.00  0.00     0.074 A 
ATOM     40  C   UNL A   1      43.075  30.320  28.947  1.00  0.00     0.049 A 
ATOM     41  N   UNL A   1      43.454  27.474  28.030  1.00  0.00    -0.248 NA
ATOM     42  C   UNL A   1      41.219  27.068  28.574  1.00  0.00     0.031 C 
ATOM     43  C   UNL A   1      42.949  31.717  29.353  1.00  0.00     0.029 A 
ATOM     44  N   UNL A   1      44.367  30.214  28.493  1.00  0.00    -0.354 N 
ATOM     45  C   UNL A   1      43.139  26.153  27.729  1.00  0.00     0.074 A 
ATOM     46  C   UNL A   1      41.760  25.949  28.119  1.00  0.00     0.031 C 
ATOM     47  C   UNL A   1      44.126  32.336  29.149  1.00  0.00     0.029 A 
ATOM     48  C   UNL A   1      45.093  31.373  28.620  1.00  0.00     0.049 A 
ATOM     49  H   UNL A   1      44.738  29.384  28.112  1.00  0.00     0.167 HD
ATOM     50  C   UNL A   1      43.918  25.195  27.173  1.00  0.00     0.037 A 
ATOM     51  C   UNL A   1      46.392  31.623  28.360  1.00  0.00     0.037 A 
ATOM     52  C   UNL A   1      45.293  25.391  26.793  1.00  0.00     0.049 A 
ATOM     53  C   UNL A   1      47.262  30.536  27.782  1.00  0.00     0.074 A 
ATOM     54  C   UNL A   1      46.169  24.482  26.226  1.00  0.00     0.029 A 
ATOM     55  N   UNL A   1      45.996  26.578  26.950  1.00  0.00    -0.354 N 
ATOM     56  N   UNL A   1      46.951  29.293  27.497  1.00  0.00    -0.248 NA
ATOM     57  C   UNL A   1      48.656  30.889  27.478  1.00  0.00     0.031 C 
ATOM     58  C   UNL A   1      47.414  25.105  26.083  1.00  0.00     0.029 A 
ATOM     59  C   UNL A   1      47.299  26.420  26.509  1.00  0.00     0.049 A 
ATOM     60  H   UNL A   1      45.622  27.410  27.321  1.00  0.00     0.167 HD
ATOM     61  C   UNL A   1      48.101  28.724  26.958  1.00  0.00     0.074 A 
ATOM     62  C   UNL A   1      49.113  29.762  26.948  1.00  0.00     0.031 C 
ATOM     63  C   UNL A   1      48.300  27.459  26.506  1.00  0.00     0.037 A 
BRANCH  50  64
ATOM     64  C   UNL A   1      43.302  23.834  27.001  1.00  0.00     0.058 A 
ATOM     65  C   UNL A   1      43.141  22.948  28.080  1.00  0.00     0.135 A 
ATOM     66  C   UNL A   1      42.907  23.393  25.727  1.00  0.00     0.135 A 
ATOM     67  F   UNL A   1      43.523  23.311  29.315  1.00  0.00    -0.206 F 
ATOM     68  C   UNL A   1      42.665  21.654  27.893  1.00  0.00     0.059 A 
ATOM     69  C   UNL A   1      42.399  22.113  25.523  1.00  0.00     0.059 A 
ATOM     70  F   UNL A   1      43.038  24.198  24.662  1.00  0.00    -0.206 F 
ATOM     71  C   UNL A   1      42.308  21.243  26.607  1.00  0.00     0.060 A 
BRANCH  71  72
ATOM     72  S   UNL A   1      41.751  19.543  26.365  1.00  0.00     0.124 S 
ATOM     73  O   UNL A   1      42.505  19.157  25.177  1.00  0.00    -0.237 OA
ATOM     74  O   UNL A   1      42.158  18.899  27.610  1.00  0.00    -0.237 OA
ATOM     75  O   UNL A   1      40.310  19.683  26.178  1.00  0.00    -0.744 OA
ENDBRANCH  71  72
ENDBRANCH  50  64
BRANCH  51  76
ATOM     76  C   UNL A   1      46.949  32.969  28.659  1.00  0.00     0.058 A 
ATOM     77  C   UNL A   1      46.954  33.988  27.697  1.00  0.00     0.135 A 
ATOM     78  C   UNL A   1      47.450  33.270  29.936  1.00  0.00     0.135 A 
ATOM     79  F   UNL A   1      46.499  33.745  26.458  1.00  0.00    -0.206 F 
ATOM     80  C   UNL A   1      47.429  35.263  27.991  1.00  0.00     0.059 A 
ATOM     81  C   UNL A   1      47.907  34.543  30.261  1.00  0.00     0.059 A 
ATOM     82  F   UNL A   1      47.460  32.328  30.892  1.00  0.00    -0.206 F 
ATOM     83  C   UNL A   1      47.892  35.533  29.280  1.00  0.00     0.060 A 
BRANCH  83  84
ATOM     84  S   UNL A   1      48.404  37.218  29.683  1.00  0.00     0.124 S 
ATOM     85  O   UNL A   1      48.110  37.921  28.440  1.00  0.00    -0.237 OA
ATOM     86  O   UNL A   1      47.539  37.534  30.816  1.00  0.00    -0.237 OA
ATOM     87  O   UNL A   1      49.819  37.070  30.008  1.00  0.00    -0.744 OA
ENDBRANCH  83  84
ENDBRANCH  51  76
BRANCH  63  88
ATOM     88  C   UNL A   1      49.651  27.131  25.924  1.00  0.00     0.058 A 
ATOM     89  C   UNL A   1      50.690  26.600  26.705  1.00  0.00     0.135 A 
ATOM     90  C   UNL A   1      49.898  27.324  24.555  1.00  0.00     0.135 A 
ATOM     91  F   UNL A   1      50.510  26.395  28.019  1.00  0.00    -0.206 F 
ATOM     92  C   UNL A   1      51.935  26.306  26.157  1.00  0.00     0.059 A 
ATOM     93  C   UNL A   1      51.126  27.011  23.981  1.00  0.00     0.059 A 
ATOM     94  F   UNL A   1      48.936  27.814  23.757  1.00  0.00    -0.206 F 
ATOM     95  C   UNL A   1      52.146  26.520  24.794  1.00  0.00     0.060 A 
BRANCH  95  96
ATOM     96  S   UNL A   1      53.765  26.137  24.092  1.00  0.00     0.124 S 
ATOM     97  O   UNL A   1      54.491  27.379  24.335  1.00  0.00    -0.237 OA
ATOM     98  O   UNL A   1      54.189  24.989  24.888  1.00  0.00    -0.237 OA
ATOM     99  O   UNL A   1      53.468  25.846  22.692  1.00  0.00    -0.744 OA
ENDBRANCH  95  96
ENDBRANCH  63  88
ENDBRANCH  37  38
ENDBRANCH  30  32
ENDBRANCH  29  30
ENDBRANCH  28  29
ENDBRANCH  27  28
ENDBRANCH  26  27
ENDBRANCH  25  26
ENDBRANCH   1  25
TORSDOF 25
ENDMDL
