MODEL 1
REMARK VINA RESULT:      -9.7      0.000      0.000
REMARK SMILES C[C@@H]1[C@@H](C(=O)OCCOCCOCCOC(=O)c2ccc(-c3c4nc(c(-c5c(F)cc(S(=O)(=O)[O-])cc5F)c5ccc([nH]5)c(-c5c(F)cc(S(=O)(=O)[O-])cc5F)c5nc(c(-c6c(F)cc(S(=O)(=O)[O-])cc6F)c6ccc3[nH]6)C=C5)C=C4)cc2)CCN1C(=O)CC[C@@H]1CCCC[NH2+]1
REMARK SMILES IDX 10 1 9 2 8 3 7 4 6 5 4 6 5 7 3 8 1 9 2 10 86 11 84 12 85 13
REMARK SMILES IDX 87 14 88 15 89 16 90 17 91 18 92 19 96 20 93 21 95 22 94 25
REMARK SMILES IDX 11 26 12 27 13 28 14 29 15 30 16 31 17 32 18 33 19 34 83 35
REMARK SMILES IDX 20 36 82 37 21 38 22 39 23 40 76 41 24 42 81 43 75 44 77 45
REMARK SMILES IDX 25 46 80 47 74 48 73 49 26 51 60 52 39 53 59 54 40 55 43 56
REMARK SMILES IDX 58 57 78 58 41 59 42 60 57 62 79 63 44 64 27 65 28 66 37 67
REMARK SMILES IDX 29 68 30 69 36 70 38 71 31 72 32 73 33 74 34 75 35 76 61 77
REMARK SMILES IDX 62 78 71 79 63 80 64 81 70 82 72 83 65 84 66 85 67 86 68 87
REMARK SMILES IDX 69 88 45 89 46 90 55 91 47 92 48 93 54 94 56 95 49 96 50 97
REMARK SMILES IDX 51 98 52 99 53 100
REMARK H PARENT 96 23 96 24 77 50 43 61
REMARK Flexibility Score: inf
ROOT
ATOM      1  C   UNL A   1      40.761  22.148  27.631  1.00  0.00     0.188 C 
ENDROOT
BRANCH   1   2
ATOM      2  O   UNL A   1      40.366  22.508  26.320  1.00  0.00    -0.376 OA
BRANCH   2   3
ATOM      3  C   UNL A   1      38.981  22.684  26.075  1.00  0.00     0.202 C 
BRANCH   3   4
ATOM      4  C   UNL A   1      38.299  21.437  25.509  1.00  0.00     0.261 C 
BRANCH   4   5
ATOM      5  O   UNL A   1      37.071  21.723  24.811  1.00  0.00    -0.463 OA
BRANCH   5   6
ATOM      6  C   UNL A   1      36.047  22.179  25.580  1.00  0.00     0.311 C 
ATOM      7  O   UNL A   1      35.594  21.572  26.542  1.00  0.00    -0.252 OA
BRANCH   6   8
ATOM      8  C   UNL A   1      35.590  23.555  25.099  1.00  0.00     0.123 C 
ATOM      9  C   UNL A   1      33.789  25.266  25.686  1.00  0.00     0.032 C 
ATOM     10  C   UNL A   1      34.121  23.790  25.481  1.00  0.00     0.096 C 
ATOM     11  N   UNL A   1      33.353  23.181  24.391  1.00  0.00    -0.339 N 
ATOM     12  C   UNL A   1      35.555  23.619  23.586  1.00  0.00     0.039 C 
ATOM     13  C   UNL A   1      34.231  22.937  23.251  1.00  0.00     0.121 C 
BRANCH  11  14
ATOM     14  C   UNL A   1      32.117  22.543  24.420  1.00  0.00     0.223 C 
ATOM     15  O   UNL A   1      31.083  23.211  24.542  1.00  0.00    -0.275 OA
BRANCH  14  16
ATOM     16  C   UNL A   1      32.007  21.014  24.440  1.00  0.00     0.106 C 
BRANCH  16  17
ATOM     17  C   UNL A   1      32.705  20.269  25.595  1.00  0.00     0.075 C 
BRANCH  17  18
ATOM     18  C   UNL A   1      33.124  18.874  25.149  1.00  0.00     0.182 C 
ATOM     19  C   UNL A   1      32.711  18.548  23.712  1.00  0.00     0.065 C 
ATOM     20  N   UNL A   1      32.796  17.753  26.028  1.00  0.00    -0.344 N 
ATOM     21  C   UNL A   1      33.363  17.251  23.237  1.00  0.00     0.012 C 
ATOM     22  C   UNL A   1      33.665  16.633  25.647  1.00  0.00     0.260 C 
ATOM     23  H   UNL A   1      31.817  17.492  25.909  1.00  0.00     0.346 HD
ATOM     24  H   UNL A   1      32.938  18.006  27.006  1.00  0.00     0.346 HD
ATOM     25  C   UNL A   1      33.264  16.131  24.262  1.00  0.00     0.062 C 
ENDBRANCH  17  18
ENDBRANCH  16  17
ENDBRANCH  14  16
ENDBRANCH  11  14
ENDBRANCH   6   8
ENDBRANCH   5   6
ENDBRANCH   4   5
ENDBRANCH   3   4
ENDBRANCH   2   3
ENDBRANCH   1   2
BRANCH   1  26
ATOM     26  C   UNL A   1      41.762  20.982  27.672  1.00  0.00     0.188 C 
BRANCH  26  27
ATOM     27  O   UNL A   1      41.756  19.988  26.657  1.00  0.00    -0.376 OA
BRANCH  27  28
ATOM     28  C   UNL A   1      42.475  18.779  26.848  1.00  0.00     0.202 C 
BRANCH  28  29
ATOM     29  C   UNL A   1      43.362  18.265  25.707  1.00  0.00     0.261 C 
BRANCH  29  30
ATOM     30  O   UNL A   1      43.405  19.061  24.505  1.00  0.00    -0.460 OA
BRANCH  30  31
ATOM     31  C   UNL A   1      44.558  19.749  24.302  1.00  0.00     0.338 C 
ATOM     32  O   UNL A   1      45.487  19.407  23.587  1.00  0.00    -0.246 OA
BRANCH  31  33
ATOM     33  C   UNL A   1      44.539  21.063  24.994  1.00  0.00     0.060 A 
ATOM     34  C   UNL A   1      43.838  22.118  24.398  1.00  0.00     0.016 A 
ATOM     35  C   UNL A   1      45.304  21.303  26.140  1.00  0.00     0.016 A 
ATOM     36  C   UNL A   1      43.928  23.414  24.930  1.00  0.00     0.010 A 
ATOM     37  C   UNL A   1      45.402  22.607  26.662  1.00  0.00     0.010 A 
ATOM     38  C   UNL A   1      44.733  23.680  26.053  1.00  0.00    -0.014 A 
BRANCH  38  39
ATOM     39  C   UNL A   1      44.990  25.098  26.462  1.00  0.00     0.031 A 
ATOM     40  C   UNL A   1      46.324  25.709  26.144  1.00  0.00     0.074 A 
ATOM     41  C   UNL A   1      44.067  25.862  27.082  1.00  0.00     0.049 A 
ATOM     42  N   UNL A   1      46.756  26.918  26.391  1.00  0.00    -0.248 NA
ATOM     43  C   UNL A   1      47.320  24.824  25.519  1.00  0.00     0.031 C 
ATOM     44  C   UNL A   1      42.784  25.383  27.561  1.00  0.00     0.029 A 
ATOM     45  N   UNL A   1      44.035  27.205  27.383  1.00  0.00    -0.354 N 
ATOM     46  C   UNL A   1      48.086  26.931  25.998  1.00  0.00     0.074 A 
ATOM     47  C   UNL A   1      48.385  25.611  25.479  1.00  0.00     0.031 C 
ATOM     48  C   UNL A   1      42.014  26.423  27.912  1.00  0.00     0.029 A 
ATOM     49  C   UNL A   1      42.812  27.640  27.856  1.00  0.00     0.049 A 
ATOM     50  H   UNL A   1      44.811  27.800  27.270  1.00  0.00     0.167 HD
ATOM     51  C   UNL A   1      48.984  27.938  26.095  1.00  0.00     0.037 A 
ATOM     52  C   UNL A   1      42.392  28.865  28.244  1.00  0.00     0.037 A 
ATOM     53  C   UNL A   1      48.694  29.238  26.647  1.00  0.00     0.049 A 
ATOM     54  C   UNL A   1      43.407  29.977  28.314  1.00  0.00     0.074 A 
ATOM     55  C   UNL A   1      49.552  30.312  26.807  1.00  0.00     0.029 A 
ATOM     56  N   UNL A   1      47.460  29.640  27.135  1.00  0.00    -0.354 N 
ATOM     57  N   UNL A   1      44.664  29.970  27.941  1.00  0.00    -0.248 NA
ATOM     58  C   UNL A   1      42.969  31.244  28.920  1.00  0.00     0.031 C 
ATOM     59  C   UNL A   1      48.848  31.348  27.428  1.00  0.00     0.029 A 
ATOM     60  C   UNL A   1      47.535  30.943  27.602  1.00  0.00     0.049 A 
ATOM     61  H   UNL A   1      46.649  29.081  27.149  1.00  0.00     0.167 HD
ATOM     62  C   UNL A   1      45.168  31.221  28.279  1.00  0.00     0.074 A 
ATOM     63  C   UNL A   1      44.070  31.977  28.845  1.00  0.00     0.031 C 
ATOM     64  C   UNL A   1      46.433  31.692  28.153  1.00  0.00     0.037 A 
BRANCH  51  65
ATOM     65  C   UNL A   1      50.385  27.651  25.639  1.00  0.00     0.058 A 
ATOM     66  C   UNL A   1      51.403  27.324  26.548  1.00  0.00     0.135 A 
ATOM     67  C   UNL A   1      50.710  27.690  24.273  1.00  0.00     0.135 A 
ATOM     68  F   UNL A   1      51.151  27.299  27.866  1.00  0.00    -0.206 F 
ATOM     69  C   UNL A   1      52.701  27.069  26.121  1.00  0.00     0.059 A 
ATOM     70  C   UNL A   1      51.996  27.411  23.822  1.00  0.00     0.059 A 
ATOM     71  F   UNL A   1      49.776  28.006  23.363  1.00  0.00    -0.206 F 
ATOM     72  C   UNL A   1      52.988  27.114  24.755  1.00  0.00     0.060 A 
BRANCH  72  73
ATOM     73  S   UNL A   1      54.677  26.776  24.220  1.00  0.00     0.124 S 
ATOM     74  O   UNL A   1      55.403  27.886  24.830  1.00  0.00    -0.237 OA
ATOM     75  O   UNL A   1      54.929  25.461  24.799  1.00  0.00    -0.237 OA
ATOM     76  O   UNL A   1      54.587  26.811  22.764  1.00  0.00    -0.744 OA
ENDBRANCH  72  73
ENDBRANCH  51  65
BRANCH  52  77
ATOM     77  C   UNL A   1      40.981  29.109  28.673  1.00  0.00     0.058 A 
ATOM     78  C   UNL A   1      39.959  29.297  27.727  1.00  0.00     0.135 A 
ATOM     79  C   UNL A   1      40.624  29.205  30.028  1.00  0.00     0.135 A 
ATOM     80  F   UNL A   1      40.240  29.243  26.415  1.00  0.00    -0.206 F 
ATOM     81  C   UNL A   1      38.648  29.589  28.104  1.00  0.00     0.059 A 
ATOM     82  C   UNL A   1      39.315  29.452  30.431  1.00  0.00     0.059 A 
ATOM     83  F   UNL A   1      41.554  29.051  30.983  1.00  0.00    -0.206 F 
ATOM     84  C   UNL A   1      38.336  29.661  29.461  1.00  0.00     0.060 A 
BRANCH  84  85
ATOM     85  S   UNL A   1      36.632  30.012  29.950  1.00  0.00     0.124 S 
ATOM     86  O   UNL A   1      35.886  29.478  28.816  1.00  0.00    -0.237 OA
ATOM     87  O   UNL A   1      36.509  29.270  31.201  1.00  0.00    -0.237 OA
ATOM     88  O   UNL A   1      36.616  31.466  30.088  1.00  0.00    -0.744 OA
ENDBRANCH  84  85
ENDBRANCH  52  77
BRANCH  64  89
ATOM     89  C   UNL A   1      46.696  33.104  28.598  1.00  0.00     0.058 A 
ATOM     90  C   UNL A   1      47.131  33.406  29.899  1.00  0.00     0.135 A 
ATOM     91  C   UNL A   1      46.562  34.168  27.689  1.00  0.00     0.135 A 
ATOM     92  F   UNL A   1      47.268  32.429  30.809  1.00  0.00    -0.206 F 
ATOM     93  C   UNL A   1      47.402  34.714  30.289  1.00  0.00     0.059 A 
ATOM     94  C   UNL A   1      46.855  35.478  28.050  1.00  0.00     0.059 A 
ATOM     95  F   UNL A   1      46.157  33.933  26.430  1.00  0.00    -0.206 F 
ATOM     96  C   UNL A   1      47.266  35.743  29.355  1.00  0.00     0.060 A 
BRANCH  96  97
ATOM     97  S   UNL A   1      47.659  37.431  29.862  1.00  0.00     0.124 S 
ATOM     98  O   UNL A   1      47.446  38.168  28.621  1.00  0.00    -0.237 OA
ATOM     99  O   UNL A   1      46.684  37.675  30.920  1.00  0.00    -0.237 OA
ATOM    100  O   UNL A   1      49.047  37.338  30.305  1.00  0.00    -0.744 OA
ENDBRANCH  96  97
ENDBRANCH  64  89
ENDBRANCH  38  39
ENDBRANCH  31  33
ENDBRANCH  30  31
ENDBRANCH  29  30
ENDBRANCH  28  29
ENDBRANCH  27  28
ENDBRANCH  26  27
ENDBRANCH   1  26
TORSDOF 24
ENDMDL
MODEL 2
REMARK VINA RESULT:      -9.6      6.070      8.660
REMARK SMILES C[C@@H]1[C@@H](C(=O)OCCOCCOCCOC(=O)c2ccc(-c3c4nc(c(-c5c(F)cc(S(=O)(=O)[O-])cc5F)c5ccc([nH]5)c(-c5c(F)cc(S(=O)(=O)[O-])cc5F)c5nc(c(-c6c(F)cc(S(=O)(=O)[O-])cc6F)c6ccc3[nH]6)C=C5)C=C4)cc2)CCN1C(=O)CC[C@@H]1CCCC[NH2+]1
REMARK SMILES IDX 10 1 9 2 8 3 7 4 6 5 4 6 5 7 3 8 1 9 2 10 86 11 84 12 85 13
REMARK SMILES IDX 87 14 88 15 89 16 90 17 91 18 92 19 96 20 93 21 95 22 94 25
REMARK SMILES IDX 11 26 12 27 13 28 14 29 15 30 16 31 17 32 18 33 19 34 83 35
REMARK SMILES IDX 20 36 82 37 21 38 22 39 23 40 76 41 24 42 81 43 75 44 77 45
REMARK SMILES IDX 25 46 80 47 74 48 73 49 26 51 60 52 39 53 59 54 40 55 43 56
REMARK SMILES IDX 58 57 78 58 41 59 42 60 57 62 79 63 44 64 27 65 28 66 37 67
REMARK SMILES IDX 29 68 30 69 36 70 38 71 31 72 32 73 33 74 34 75 35 76 61 77
REMARK SMILES IDX 62 78 71 79 63 80 64 81 70 82 72 83 65 84 66 85 67 86 68 87
REMARK SMILES IDX 69 88 45 89 46 90 55 91 47 92 48 93 54 94 56 95 49 96 50 97
REMARK SMILES IDX 51 98 52 99 53 100
REMARK H PARENT 96 23 96 24 77 50 43 61
REMARK Flexibility Score: inf
ROOT
ATOM      1  C   UNL A   1      40.943  20.821  27.322  1.00  0.00     0.188 C 
ENDROOT
BRANCH   1   2
ATOM      2  O   UNL A   1      40.060  21.729  26.689  1.00  0.00    -0.376 OA
BRANCH   2   3
ATOM      3  C   UNL A   1      39.127  21.202  25.761  1.00  0.00     0.202 C 
BRANCH   3   4
ATOM      4  C   UNL A   1      37.936  22.127  25.502  1.00  0.00     0.261 C 
BRANCH   4   5
ATOM      5  O   UNL A   1      36.711  21.419  25.228  1.00  0.00    -0.463 OA
BRANCH   5   6
ATOM      6  C   UNL A   1      35.574  22.005  25.688  1.00  0.00     0.311 C 
ATOM      7  O   UNL A   1      34.867  21.525  26.565  1.00  0.00    -0.252 OA
BRANCH   6   8
ATOM      8  C   UNL A   1      35.344  23.344  24.990  1.00  0.00     0.123 C 
ATOM      9  C   UNL A   1      34.120  25.536  25.454  1.00  0.00     0.032 C 
ATOM     10  C   UNL A   1      34.071  24.012  25.531  1.00  0.00     0.096 C 
ATOM     11  N   UNL A   1      32.983  23.438  24.732  1.00  0.00    -0.339 N 
ATOM     12  C   UNL A   1      35.019  23.147  23.524  1.00  0.00     0.039 C 
ATOM     13  C   UNL A   1      33.538  22.779  23.553  1.00  0.00     0.121 C 
BRANCH  11  14
ATOM     14  C   UNL A   1      31.670  23.154  25.090  1.00  0.00     0.223 C 
ATOM     15  O   UNL A   1      31.364  22.011  25.452  1.00  0.00    -0.275 OA
BRANCH  14  16
ATOM     16  C   UNL A   1      30.552  24.190  24.921  1.00  0.00     0.106 C 
BRANCH  16  17
ATOM     17  C   UNL A   1      30.350  24.788  23.514  1.00  0.00     0.075 C 
BRANCH  17  18
ATOM     18  C   UNL A   1      30.933  26.194  23.448  1.00  0.00     0.182 C 
ATOM     19  C   UNL A   1      29.872  27.294  23.540  1.00  0.00     0.065 C 
ATOM     20  N   UNL A   1      31.866  26.492  22.363  1.00  0.00    -0.344 N 
ATOM     21  C   UNL A   1      30.521  28.665  23.716  1.00  0.00     0.012 C 
ATOM     22  C   UNL A   1      32.620  27.690  22.755  1.00  0.00     0.260 C 
ATOM     23  H   UNL A   1      31.353  26.669  21.500  1.00  0.00     0.346 HD
ATOM     24  H   UNL A   1      32.494  25.705  22.201  1.00  0.00     0.346 HD
ATOM     25  C   UNL A   1      31.684  28.895  22.762  1.00  0.00     0.062 C 
ENDBRANCH  17  18
ENDBRANCH  16  17
ENDBRANCH  14  16
ENDBRANCH  11  14
ENDBRANCH   6   8
ENDBRANCH   5   6
ENDBRANCH   4   5
ENDBRANCH   3   4
ENDBRANCH   2   3
ENDBRANCH   1   2
BRANCH   1  26
ATOM     26  C   UNL A   1      41.944  20.165  26.356  1.00  0.00     0.188 C 
BRANCH  26  27
ATOM     27  O   UNL A   1      42.676  20.953  25.428  1.00  0.00    -0.376 OA
BRANCH  27  28
ATOM     28  C   UNL A   1      43.930  21.502  25.804  1.00  0.00     0.202 C 
BRANCH  28  29
ATOM     29  C   UNL A   1      43.968  22.930  26.363  1.00  0.00     0.261 C 
BRANCH  29  30
ATOM     30  O   UNL A   1      42.748  23.696  26.279  1.00  0.00    -0.460 OA
BRANCH  30  31
ATOM     31  C   UNL A   1      42.902  25.002  25.943  1.00  0.00     0.338 C 
ATOM     32  O   UNL A   1      43.415  25.431  24.922  1.00  0.00    -0.246 OA
BRANCH  31  33
ATOM     33  C   UNL A   1      42.272  25.901  26.944  1.00  0.00     0.060 A 
ATOM     34  C   UNL A   1      42.666  27.244  26.974  1.00  0.00     0.016 A 
ATOM     35  C   UNL A   1      41.406  25.414  27.929  1.00  0.00     0.016 A 
ATOM     36  C   UNL A   1      42.220  28.087  28.004  1.00  0.00     0.010 A 
ATOM     37  C   UNL A   1      40.973  26.260  28.968  1.00  0.00     0.010 A 
ATOM     38  C   UNL A   1      41.389  27.599  29.029  1.00  0.00    -0.014 A 
BRANCH  38  39
ATOM     39  C   UNL A   1      41.113  28.452  30.229  1.00  0.00     0.031 A 
ATOM     40  C   UNL A   1      42.076  28.409  31.380  1.00  0.00     0.074 A 
ATOM     41  C   UNL A   1      40.049  29.277  30.314  1.00  0.00     0.049 A 
ATOM     42  N   UNL A   1      42.042  29.071  32.507  1.00  0.00    -0.248 NA
ATOM     43  C   UNL A   1      43.189  27.453  31.271  1.00  0.00     0.031 C 
ATOM     44  C   UNL A   1      38.973  29.342  29.343  1.00  0.00     0.029 A 
ATOM     45  N   UNL A   1      39.710  30.251  31.227  1.00  0.00    -0.354 N 
ATOM     46  C   UNL A   1      43.096  28.582  33.263  1.00  0.00     0.074 A 
ATOM     47  C   UNL A   1      43.764  27.579  32.458  1.00  0.00     0.031 C 
ATOM     48  C   UNL A   1      38.204  30.412  29.588  1.00  0.00     0.029 A 
ATOM     49  C   UNL A   1      38.623  31.014  30.847  1.00  0.00     0.049 A 
ATOM     50  H   UNL A   1      40.197  30.390  32.071  1.00  0.00     0.167 HD
ATOM     51  C   UNL A   1      43.453  28.913  34.526  1.00  0.00     0.037 A 
ATOM     52  C   UNL A   1      38.004  32.048  31.459  1.00  0.00     0.037 A 
ATOM     53  C   UNL A   1      42.765  29.884  35.339  1.00  0.00     0.049 A 
ATOM     54  C   UNL A   1      38.441  32.417  32.854  1.00  0.00     0.074 A 
ATOM     55  C   UNL A   1      43.044  30.264  36.640  1.00  0.00     0.029 A 
ATOM     56  N   UNL A   1      41.661  30.621  34.938  1.00  0.00    -0.354 N 
ATOM     57  N   UNL A   1      39.441  31.940  33.556  1.00  0.00    -0.248 NA
ATOM     58  C   UNL A   1      37.629  33.413  33.567  1.00  0.00     0.031 C 
ATOM     59  C   UNL A   1      42.085  31.201  37.039  1.00  0.00     0.029 A 
ATOM     60  C   UNL A   1      41.243  31.449  35.968  1.00  0.00     0.049 A 
ATOM     61  H   UNL A   1      41.235  30.564  34.051  1.00  0.00     0.167 HD
ATOM     62  C   UNL A   1      39.368  32.567  34.795  1.00  0.00     0.074 A 
ATOM     63  C   UNL A   1      38.255  33.491  34.733  1.00  0.00     0.031 C 
ATOM     64  C   UNL A   1      40.140  32.375  35.893  1.00  0.00     0.037 A 
BRANCH  51  65
ATOM     65  C   UNL A   1      44.616  28.174  35.124  1.00  0.00     0.058 A 
ATOM     66  C   UNL A   1      45.925  28.671  35.040  1.00  0.00     0.135 A 
ATOM     67  C   UNL A   1      44.414  26.959  35.800  1.00  0.00     0.135 A 
ATOM     68  F   UNL A   1      46.175  29.813  34.382  1.00  0.00    -0.206 F 
ATOM     69  C   UNL A   1      46.999  27.977  35.586  1.00  0.00     0.059 A 
ATOM     70  C   UNL A   1      45.470  26.263  36.379  1.00  0.00     0.059 A 
ATOM     71  F   UNL A   1      43.182  26.437  35.900  1.00  0.00    -0.206 F 
ATOM     72  C   UNL A   1      46.761  26.774  36.255  1.00  0.00     0.060 A 
BRANCH  72  73
ATOM     73  S   UNL A   1      48.167  25.891  36.961  1.00  0.00     0.124 S 
ATOM     74  O   UNL A   1      48.667  26.866  37.926  1.00  0.00    -0.237 OA
ATOM     75  O   UNL A   1      47.536  24.705  37.528  1.00  0.00    -0.237 OA
ATOM     76  O   UNL A   1      49.030  25.649  35.809  1.00  0.00    -0.744 OA
ENDBRANCH  72  73
ENDBRANCH  51  65
BRANCH  52  77
ATOM     77  C   UNL A   1      36.861  32.767  30.817  1.00  0.00     0.058 A 
ATOM     78  C   UNL A   1      35.531  32.458  31.153  1.00  0.00     0.135 A 
ATOM     79  C   UNL A   1      37.060  33.742  29.825  1.00  0.00     0.135 A 
ATOM     80  F   UNL A   1      35.273  31.517  32.074  1.00  0.00    -0.206 F 
ATOM     81  C   UNL A   1      34.449  33.071  30.521  1.00  0.00     0.059 A 
ATOM     82  C   UNL A   1      35.998  34.399  29.212  1.00  0.00     0.059 A 
ATOM     83  F   UNL A   1      38.305  34.073  29.447  1.00  0.00    -0.206 F 
ATOM     84  C   UNL A   1      34.694  34.044  29.552  1.00  0.00     0.060 A 
BRANCH  84  85
ATOM     85  S   UNL A   1      33.292  34.857  28.754  1.00  0.00     0.124 S 
ATOM     86  O   UNL A   1      32.838  33.821  27.833  1.00  0.00    -0.237 OA
ATOM     87  O   UNL A   1      32.413  35.138  29.883  1.00  0.00    -0.237 OA
ATOM     88  O   UNL A   1      33.897  36.032  28.132  1.00  0.00    -0.744 OA
ENDBRANCH  84  85
ENDBRANCH  52  77
BRANCH  64  89
ATOM     89  C   UNL A   1      39.838  33.208  37.108  1.00  0.00     0.058 A 
ATOM     90  C   UNL A   1      38.849  32.840  38.035  1.00  0.00     0.135 A 
ATOM     91  C   UNL A   1      40.588  34.366  37.376  1.00  0.00     0.135 A 
ATOM     92  F   UNL A   1      38.098  31.748  37.824  1.00  0.00    -0.206 F 
ATOM     93  C   UNL A   1      38.601  33.601  39.173  1.00  0.00     0.059 A 
ATOM     94  C   UNL A   1      40.376  35.125  38.521  1.00  0.00     0.059 A 
ATOM     95  F   UNL A   1      41.551  34.758  36.526  1.00  0.00    -0.206 F 
ATOM     96  C   UNL A   1      39.373  34.740  39.410  1.00  0.00     0.060 A 
BRANCH  96  97
ATOM     97  S   UNL A   1      39.068  35.698  40.910  1.00  0.00     0.124 S 
ATOM     98  O   UNL A   1      38.907  37.045  40.372  1.00  0.00    -0.237 OA
ATOM     99  O   UNL A   1      37.857  35.076  41.437  1.00  0.00    -0.237 OA
ATOM    100  O   UNL A   1      40.274  35.480  41.704  1.00  0.00    -0.744 OA
ENDBRANCH  96  97
ENDBRANCH  64  89
ENDBRANCH  38  39
ENDBRANCH  31  33
ENDBRANCH  30  31
ENDBRANCH  29  30
ENDBRANCH  28  29
ENDBRANCH  27  28
ENDBRANCH  26  27
ENDBRANCH   1  26
TORSDOF 24
ENDMDL
MODEL 3
REMARK VINA RESULT:      -9.6      6.292      8.586
REMARK SMILES C[C@@H]1[C@@H](C(=O)OCCOCCOCCOC(=O)c2ccc(-c3c4nc(c(-c5c(F)cc(S(=O)(=O)[O-])cc5F)c5ccc([nH]5)c(-c5c(F)cc(S(=O)(=O)[O-])cc5F)c5nc(c(-c6c(F)cc(S(=O)(=O)[O-])cc6F)c6ccc3[nH]6)C=C5)C=C4)cc2)CCN1C(=O)CC[C@@H]1CCCC[NH2+]1
REMARK SMILES IDX 10 1 9 2 8 3 7 4 6 5 4 6 5 7 3 8 1 9 2 10 86 11 84 12 85 13
REMARK SMILES IDX 87 14 88 15 89 16 90 17 91 18 92 19 96 20 93 21 95 22 94 25
REMARK SMILES IDX 11 26 12 27 13 28 14 29 15 30 16 31 17 32 18 33 19 34 83 35
REMARK SMILES IDX 20 36 82 37 21 38 22 39 23 40 76 41 24 42 81 43 75 44 77 45
REMARK SMILES IDX 25 46 80 47 74 48 73 49 26 51 60 52 39 53 59 54 40 55 43 56
REMARK SMILES IDX 58 57 78 58 41 59 42 60 57 62 79 63 44 64 27 65 28 66 37 67
REMARK SMILES IDX 29 68 30 69 36 70 38 71 31 72 32 73 33 74 34 75 35 76 61 77
REMARK SMILES IDX 62 78 71 79 63 80 64 81 70 82 72 83 65 84 66 85 67 86 68 87
REMARK SMILES IDX 69 88 45 89 46 90 55 91 47 92 48 93 54 94 56 95 49 96 50 97
REMARK SMILES IDX 51 98 52 99 53 100
REMARK H PARENT 96 23 96 24 77 50 43 61
REMARK Flexibility Score: inf
ROOT
ATOM      1  C   UNL A   1      38.362  21.061  25.622  1.00  0.00     0.188 C 
ENDROOT
BRANCH   1   2
ATOM      2  O   UNL A   1      37.797  21.679  24.479  1.00  0.00    -0.376 OA
BRANCH   2   3
ATOM      3  C   UNL A   1      36.496  22.226  24.602  1.00  0.00     0.202 C 
BRANCH   3   4
ATOM      4  C   UNL A   1      36.387  23.304  25.682  1.00  0.00     0.261 C 
BRANCH   4   5
ATOM      5  O   UNL A   1      35.422  24.329  25.373  1.00  0.00    -0.463 OA
BRANCH   5   6
ATOM      6  C   UNL A   1      34.132  24.041  25.691  1.00  0.00     0.311 C 
ATOM      7  O   UNL A   1      33.801  23.405  26.684  1.00  0.00    -0.252 OA
BRANCH   6   8
ATOM      8  C   UNL A   1      33.179  24.657  24.668  1.00  0.00     0.123 C 
ATOM      9  C   UNL A   1      30.756  24.364  23.919  1.00  0.00     0.032 C 
ATOM     10  C   UNL A   1      32.052  23.669  24.332  1.00  0.00     0.096 C 
ATOM     11  N   UNL A   1      32.606  22.823  23.270  1.00  0.00    -0.339 N 
ATOM     12  C   UNL A   1      33.865  24.847  23.331  1.00  0.00     0.039 C 
ATOM     13  C   UNL A   1      33.802  23.451  22.717  1.00  0.00     0.121 C 
BRANCH  11  14
ATOM     14  C   UNL A   1      32.378  21.479  22.993  1.00  0.00     0.223 C 
ATOM     15  O   UNL A   1      31.771  21.157  21.965  1.00  0.00    -0.275 OA
BRANCH  14  16
ATOM     16  C   UNL A   1      32.746  20.381  23.999  1.00  0.00     0.106 C 
BRANCH  16  17
ATOM     17  C   UNL A   1      32.102  18.995  23.799  1.00  0.00     0.075 C 
BRANCH  17  18
ATOM     18  C   UNL A   1      32.935  17.921  24.488  1.00  0.00     0.182 C 
ATOM     19  C   UNL A   1      34.410  17.943  24.080  1.00  0.00     0.065 C 
ATOM     20  N   UNL A   1      32.431  16.549  24.459  1.00  0.00    -0.344 N 
ATOM     21  C   UNL A   1      35.237  17.021  24.973  1.00  0.00     0.012 C 
ATOM     22  C   UNL A   1      33.114  15.812  25.531  1.00  0.00     0.260 C 
ATOM     23  H   UNL A   1      32.636  16.121  23.555  1.00  0.00     0.346 HD
ATOM     24  H   UNL A   1      31.420  16.532  24.594  1.00  0.00     0.346 HD
ATOM     25  C   UNL A   1      34.591  15.659  25.175  1.00  0.00     0.062 C 
ENDBRANCH  17  18
ENDBRANCH  16  17
ENDBRANCH  14  16
ENDBRANCH  11  14
ENDBRANCH   6   8
ENDBRANCH   5   6
ENDBRANCH   4   5
ENDBRANCH   3   4
ENDBRANCH   2   3
ENDBRANCH   1   2
BRANCH   1  26
ATOM     26  C   UNL A   1      39.528  21.855  26.235  1.00  0.00     0.188 C 
BRANCH  26  27
ATOM     27  O   UNL A   1      40.873  21.520  25.924  1.00  0.00    -0.376 OA
BRANCH  27  28
ATOM     28  C   UNL A   1      41.827  21.391  26.966  1.00  0.00     0.202 C 
BRANCH  28  29
ATOM     29  C   UNL A   1      42.014  22.563  27.939  1.00  0.00     0.261 C 
BRANCH  29  30
ATOM     30  O   UNL A   1      42.888  23.629  27.515  1.00  0.00    -0.460 OA
BRANCH  30  31
ATOM     31  C   UNL A   1      42.299  24.608  26.780  1.00  0.00     0.338 C 
ATOM     32  O   UNL A   1      42.129  24.600  25.571  1.00  0.00    -0.246 OA
BRANCH  31  33
ATOM     33  C   UNL A   1      41.775  25.697  27.642  1.00  0.00     0.060 A 
ATOM     34  C   UNL A   1      42.546  26.857  27.791  1.00  0.00     0.016 A 
ATOM     35  C   UNL A   1      40.613  25.541  28.403  1.00  0.00     0.016 A 
ATOM     36  C   UNL A   1      42.171  27.839  28.720  1.00  0.00     0.010 A 
ATOM     37  C   UNL A   1      40.246  26.522  29.344  1.00  0.00     0.010 A 
ATOM     38  C   UNL A   1      41.030  27.672  29.528  1.00  0.00    -0.014 A 
BRANCH  38  39
ATOM     39  C   UNL A   1      40.778  28.620  30.660  1.00  0.00     0.031 A 
ATOM     40  C   UNL A   1      41.740  28.637  31.813  1.00  0.00     0.074 A 
ATOM     41  C   UNL A   1      39.737  29.478  30.682  1.00  0.00     0.049 A 
ATOM     42  N   UNL A   1      41.725  29.382  32.886  1.00  0.00    -0.248 NA
ATOM     43  C   UNL A   1      42.828  27.646  31.777  1.00  0.00     0.031 C 
ATOM     44  C   UNL A   1      38.663  29.498  29.708  1.00  0.00     0.029 A 
ATOM     45  N   UNL A   1      39.425  30.526  31.519  1.00  0.00    -0.354 N 
ATOM     46  C   UNL A   1      42.767  28.923  33.679  1.00  0.00     0.074 A 
ATOM     47  C   UNL A   1      43.406  27.845  32.952  1.00  0.00     0.031 C 
ATOM     48  C   UNL A   1      37.922  30.604  29.871  1.00  0.00     0.029 A 
ATOM     49  C   UNL A   1      38.359  31.287  31.082  1.00  0.00     0.049 A 
ATOM     50  H   UNL A   1      39.917  30.715  32.351  1.00  0.00     0.167 HD
ATOM     51  C   UNL A   1      43.133  29.338  34.913  1.00  0.00     0.037 A 
ATOM     52  C   UNL A   1      37.769  32.381  31.613  1.00  0.00     0.037 A 
ATOM     53  C   UNL A   1      42.472  30.385  35.651  1.00  0.00     0.049 A 
ATOM     54  C   UNL A   1      38.217  32.841  32.977  1.00  0.00     0.074 A 
ATOM     55  C   UNL A   1      42.762  30.855  36.920  1.00  0.00     0.029 A 
ATOM     56  N   UNL A   1      41.388  31.120  35.194  1.00  0.00    -0.354 N 
ATOM     57  N   UNL A   1      39.203  32.391  33.715  1.00  0.00    -0.248 NA
ATOM     58  C   UNL A   1      37.432  33.909  33.614  1.00  0.00     0.031 C 
ATOM     59  C   UNL A   1      41.830  31.844  37.246  1.00  0.00     0.029 A 
ATOM     60  C   UNL A   1      40.994  32.034  36.159  1.00  0.00     0.049 A 
ATOM     61  H   UNL A   1      40.961  31.008  34.314  1.00  0.00     0.167 HD
ATOM     62  C   UNL A   1      39.149  33.111  34.903  1.00  0.00     0.074 A 
ATOM     63  C   UNL A   1      38.061  34.058  34.771  1.00  0.00     0.031 C 
ATOM     64  C   UNL A   1      39.916  32.981  36.013  1.00  0.00     0.037 A 
BRANCH  51  65
ATOM     65  C   UNL A   1      44.276  28.615  35.566  1.00  0.00     0.058 A 
ATOM     66  C   UNL A   1      45.602  29.045  35.414  1.00  0.00     0.135 A 
ATOM     67  C   UNL A   1      44.037  27.484  36.365  1.00  0.00     0.135 A 
ATOM     68  F   UNL A   1      45.886  30.104  34.640  1.00  0.00    -0.206 F 
ATOM     69  C   UNL A   1      46.657  28.365  36.012  1.00  0.00     0.059 A 
ATOM     70  C   UNL A   1      45.075  26.806  36.996  1.00  0.00     0.059 A 
ATOM     71  F   UNL A   1      42.788  27.026  36.536  1.00  0.00    -0.206 F 
ATOM     72  C   UNL A   1      46.383  27.247  36.803  1.00  0.00     0.060 A 
BRANCH  72  73
ATOM     73  S   UNL A   1      47.765  26.381  37.574  1.00  0.00     0.124 S 
ATOM     74  O   UNL A   1      48.771  27.437  37.637  1.00  0.00    -0.237 OA
ATOM     75  O   UNL A   1      47.199  25.969  38.853  1.00  0.00    -0.237 OA
ATOM     76  O   UNL A   1      48.052  25.297  36.640  1.00  0.00    -0.744 OA
ENDBRANCH  72  73
ENDBRANCH  51  65
BRANCH  52  77
ATOM     77  C   UNL A   1      36.645  33.080  30.918  1.00  0.00     0.058 A 
ATOM     78  C   UNL A   1      36.893  33.994  29.879  1.00  0.00     0.135 A 
ATOM     79  C   UNL A   1      35.306  32.893  31.299  1.00  0.00     0.135 A 
ATOM     80  F   UNL A   1      38.153  34.237  29.485  1.00  0.00    -0.206 F 
ATOM     81  C   UNL A   1      35.865  34.704  29.259  1.00  0.00     0.059 A 
ATOM     82  C   UNL A   1      34.259  33.557  30.667  1.00  0.00     0.059 A 
ATOM     83  F   UNL A   1      35.001  32.047  32.295  1.00  0.00    -0.206 F 
ATOM     84  C   UNL A   1      34.549  34.476  29.660  1.00  0.00     0.060 A 
BRANCH  84  85
ATOM     85  S   UNL A   1      33.215  35.377  28.839  1.00  0.00     0.124 S 
ATOM     86  O   UNL A   1      33.961  36.348  28.048  1.00  0.00    -0.237 OA
ATOM     87  O   UNL A   1      32.545  34.321  28.087  1.00  0.00    -0.237 OA
ATOM     88  O   UNL A   1      32.447  35.927  29.953  1.00  0.00    -0.744 OA
ENDBRANCH  84  85
ENDBRANCH  52  77
BRANCH  64  89
ATOM     89  C   UNL A   1      39.638  33.910  37.162  1.00  0.00     0.058 A 
ATOM     90  C   UNL A   1      38.843  33.526  38.255  1.00  0.00     0.135 A 
ATOM     91  C   UNL A   1      40.220  35.189  37.195  1.00  0.00     0.135 A 
ATOM     92  F   UNL A   1      38.257  32.319  38.271  1.00  0.00    -0.206 F 
ATOM     93  C   UNL A   1      38.619  34.383  39.328  1.00  0.00     0.059 A 
ATOM     94  C   UNL A   1      40.032  36.050  38.270  1.00  0.00     0.059 A 
ATOM     95  F   UNL A   1      40.995  35.604  36.179  1.00  0.00    -0.206 F 
ATOM     96  C   UNL A   1      39.222  35.642  39.328  1.00  0.00     0.060 A 
BRANCH  96  97
ATOM     97  S   UNL A   1      38.956  36.730  40.745  1.00  0.00     0.124 S 
ATOM     98  O   UNL A   1      38.469  37.943  40.097  1.00  0.00    -0.237 OA
ATOM     99  O   UNL A   1      37.972  35.990  41.527  1.00  0.00    -0.237 OA
ATOM    100  O   UNL A   1      40.282  36.832  41.349  1.00  0.00    -0.744 OA
ENDBRANCH  96  97
ENDBRANCH  64  89
ENDBRANCH  38  39
ENDBRANCH  31  33
ENDBRANCH  30  31
ENDBRANCH  29  30
ENDBRANCH  28  29
ENDBRANCH  27  28
ENDBRANCH  26  27
ENDBRANCH   1  26
TORSDOF 24
ENDMDL
