MODEL 1
REMARK VINA RESULT:     -10.0      0.000      0.000
REMARK SMILES CS(=O)(=O)N(Cc1ccc(Cl)cc1)c1ccc(C(=O)Nc2ccccc2C(=O)OCCOCCOCCOC(=O)c2ccc(-c3c4nc(c(-c5c(F)cc(S(=O)(=O)[O-])cc5F)c5ccc([nH]5)c(-c5c(F)cc(S(=O)(=O)[O-])cc5F)c5nc(c(-c6c(F)cc(S(=O)(=O)[O-])cc6F)c6ccc3[nH]6)C=C5)C=C4)cc2)cc1
REMARK SMILES IDX 33 1 32 2 31 3 30 4 29 5 27 6 28 7 26 8 21 9 22 10 23 11
REMARK SMILES IDX 25 12 24 13 20 14 18 15 19 16 17 18 14 19 15 20 108 21 16 22
REMARK SMILES IDX 107 23 5 24 2 25 1 26 3 27 4 28 6 29 7 30 8 31 13 32 9 33
REMARK SMILES IDX 12 34 10 35 11 36 34 37 35 38 36 39 37 40 38 41 39 42 40 43
REMARK SMILES IDX 41 44 42 45 106 46 43 47 105 48 44 49 45 50 46 51 99 52
REMARK SMILES IDX 47 53 104 54 98 55 100 56 48 57 103 58 97 59 96 60 49 62
REMARK SMILES IDX 83 63 62 64 82 65 63 66 66 67 81 68 101 69 64 70 65 71 80 73
REMARK SMILES IDX 102 74 67 75 50 76 51 77 60 78 52 79 53 80 59 81 61 82 54 83
REMARK SMILES IDX 55 84 56 85 57 86 58 87 84 88 85 89 94 90 86 91 87 92 93 93
REMARK SMILES IDX 95 94 88 95 89 96 90 97 91 98 92 99 68 100 69 101 78 102
REMARK SMILES IDX 70 103 71 104 77 105 79 106 72 107 73 108 74 109 75 110
REMARK SMILES IDX 76 111
REMARK H PARENT 20 17 100 61 66 72
REMARK Flexibility Score: inf
ROOT
ATOM      1  C   UNL A   1      34.982  32.209  27.997  1.00  0.00     0.188 C 
ENDROOT
BRANCH   1   2
ATOM      2  O   UNL A   1      33.902  31.303  27.992  1.00  0.00    -0.376 OA
BRANCH   2   3
ATOM      3  C   UNL A   1      33.635  30.518  26.846  1.00  0.00     0.202 C 
BRANCH   3   4
ATOM      4  C   UNL A   1      32.252  30.337  26.210  1.00  0.00     0.261 C 
BRANCH   4   5
ATOM      5  O   UNL A   1      32.004  29.147  25.455  1.00  0.00    -0.460 OA
BRANCH   5   6
ATOM      6  C   UNL A   1      30.968  29.235  24.576  1.00  0.00     0.340 C 
ATOM      7  O   UNL A   1      30.505  30.281  24.148  1.00  0.00    -0.246 OA
BRANCH   6   8
ATOM      8  C   UNL A   1      30.550  27.903  24.051  1.00  0.00     0.083 A 
ATOM      9  C   UNL A   1      31.167  27.172  23.016  1.00  0.00     0.056 A 
ATOM     10  C   UNL A   1      30.524  26.010  22.545  1.00  0.00     0.027 A 
ATOM     11  C   UNL A   1      29.358  25.526  23.141  1.00  0.00     0.002 A 
ATOM     12  C   UNL A   1      29.367  27.404  24.639  1.00  0.00     0.018 A 
ATOM     13  C   UNL A   1      28.783  26.218  24.198  1.00  0.00     0.001 A 
BRANCH   9  14
ATOM     14  N   UNL A   1      32.407  27.425  22.387  1.00  0.00    -0.321 N 
ATOM     15  C   UNL A   1      33.669  26.906  22.568  1.00  0.00     0.255 C 
ATOM     16  O   UNL A   1      34.625  27.421  21.988  1.00  0.00    -0.269 OA
ATOM     17  H   UNL A   1      32.358  28.107  21.678  1.00  0.00     0.170 HD
BRANCH  15  18
ATOM     18  C   UNL A   1      33.903  25.712  23.409  1.00  0.00     0.040 A 
ATOM     19  C   UNL A   1      34.954  23.456  24.755  1.00  0.00     0.052 A 
ATOM     20  C   UNL A   1      34.423  23.362  23.458  1.00  0.00     0.028 A 
ATOM     21  C   UNL A   1      34.776  24.681  25.414  1.00  0.00     0.028 A 
ATOM     22  C   UNL A   1      33.913  24.473  22.782  1.00  0.00     0.016 A 
ATOM     23  C   UNL A   1      34.215  25.789  24.764  1.00  0.00     0.016 A 
BRANCH  19  24
ATOM     24  N   UNL A   1      35.663  22.306  25.355  1.00  0.00    -0.266 N 
BRANCH  24  25
ATOM     25  S   UNL A   1      37.184  21.915  24.674  1.00  0.00     0.232 S 
ATOM     26  C   UNL A   1      37.266  20.135  24.730  1.00  0.00     0.183 C 
ATOM     27  O   UNL A   1      38.203  22.406  25.584  1.00  0.00    -0.207 OA
ATOM     28  O   UNL A   1      37.175  22.315  23.284  1.00  0.00    -0.207 OA
ENDBRANCH  24  25
BRANCH  24  29
ATOM     29  C   UNL A   1      34.801  21.124  25.718  1.00  0.00     0.170 C 
BRANCH  29  30
ATOM     30  C   UNL A   1      33.399  21.560  26.134  1.00  0.00    -0.027 A 
ATOM     31  C   UNL A   1      33.211  22.261  27.340  1.00  0.00     0.007 A 
ATOM     32  C   UNL A   1      32.315  21.414  25.255  1.00  0.00     0.007 A 
ATOM     33  C   UNL A   1      32.012  22.930  27.590  1.00  0.00     0.021 A 
ATOM     34  C   UNL A   1      31.109  22.071  25.517  1.00  0.00     0.021 A 
ATOM     35  C   UNL A   1      30.975  22.853  26.665  1.00  0.00     0.041 A 
ATOM     36  Cl  UNL A   1      29.542  23.771  26.916  1.00  0.00    -0.084 Cl
ENDBRANCH  29  30
ENDBRANCH  24  29
ENDBRANCH  19  24
ENDBRANCH  15  18
ENDBRANCH   9  14
ENDBRANCH   6   8
ENDBRANCH   5   6
ENDBRANCH   4   5
ENDBRANCH   3   4
ENDBRANCH   2   3
ENDBRANCH   1   2
BRANCH   1  37
ATOM     37  C   UNL A   1      34.707  33.655  28.468  1.00  0.00     0.188 C 
BRANCH  37  38
ATOM     38  O   UNL A   1      35.046  34.069  29.776  1.00  0.00    -0.376 OA
BRANCH  38  39
ATOM     39  C   UNL A   1      35.169  33.096  30.799  1.00  0.00     0.202 C 
BRANCH  39  40
ATOM     40  C   UNL A   1      36.533  32.616  31.330  1.00  0.00     0.261 C 
BRANCH  40  41
ATOM     41  O   UNL A   1      36.577  31.306  31.914  1.00  0.00    -0.460 OA
BRANCH  41  42
ATOM     42  C   UNL A   1      36.671  30.271  31.038  1.00  0.00     0.338 C 
ATOM     43  O   UNL A   1      35.747  29.655  30.532  1.00  0.00    -0.246 OA
BRANCH  42  44
ATOM     44  C   UNL A   1      38.076  30.142  30.583  1.00  0.00     0.060 A 
ATOM     45  C   UNL A   1      38.344  30.194  29.205  1.00  0.00     0.016 A 
ATOM     46  C   UNL A   1      39.120  29.979  31.493  1.00  0.00     0.016 A 
ATOM     47  C   UNL A   1      39.650  30.059  28.733  1.00  0.00     0.010 A 
ATOM     48  C   UNL A   1      40.425  29.805  31.017  1.00  0.00     0.010 A 
ATOM     49  C   UNL A   1      40.691  29.812  29.634  1.00  0.00    -0.014 A 
BRANCH  49  50
ATOM     50  C   UNL A   1      41.995  29.311  29.128  1.00  0.00     0.031 A 
ATOM     51  C   UNL A   1      43.132  30.297  29.029  1.00  0.00     0.074 A 
ATOM     52  C   UNL A   1      42.189  28.023  28.789  1.00  0.00     0.049 A 
ATOM     53  N   UNL A   1      44.337  30.135  28.548  1.00  0.00    -0.248 NA
ATOM     54  C   UNL A   1      42.868  31.651  29.547  1.00  0.00     0.031 C 
ATOM     55  C   UNL A   1      41.195  26.957  28.898  1.00  0.00     0.029 A 
ATOM     56  N   UNL A   1      43.299  27.397  28.272  1.00  0.00    -0.354 N 
ATOM     57  C   UNL A   1      44.971  31.363  28.701  1.00  0.00     0.074 A 
ATOM     58  C   UNL A   1      44.009  32.270  29.285  1.00  0.00     0.031 C 
ATOM     59  C   UNL A   1      41.735  25.810  28.444  1.00  0.00     0.029 A 
ATOM     60  C   UNL A   1      43.099  26.067  27.981  1.00  0.00     0.049 A 
ATOM     61  H   UNL A   1      44.156  27.857  28.125  1.00  0.00     0.167 HD
ATOM     62  C   UNL A   1      46.246  31.703  28.396  1.00  0.00     0.037 A 
ATOM     63  C   UNL A   1      43.916  25.174  27.385  1.00  0.00     0.037 A 
ATOM     64  C   UNL A   1      47.200  30.803  27.805  1.00  0.00     0.049 A 
ATOM     65  C   UNL A   1      45.300  25.606  26.955  1.00  0.00     0.074 A 
ATOM     66  C   UNL A   1      48.510  31.056  27.442  1.00  0.00     0.029 A 
ATOM     67  N   UNL A   1      46.947  29.476  27.489  1.00  0.00    -0.354 N 
ATOM     68  N   UNL A   1      45.887  26.770  27.101  1.00  0.00    -0.248 NA
ATOM     69  C   UNL A   1      46.131  24.600  26.277  1.00  0.00     0.031 C 
ATOM     70  C   UNL A   1      49.036  29.898  26.862  1.00  0.00     0.029 A 
ATOM     71  C   UNL A   1      48.072  28.904  26.919  1.00  0.00     0.049 A 
ATOM     72  H   UNL A   1      46.094  29.010  27.647  1.00  0.00     0.167 HD
ATOM     73  C   UNL A   1      47.169  26.621  26.574  1.00  0.00     0.074 A 
ATOM     74  C   UNL A   1      47.273  25.254  26.112  1.00  0.00     0.031 C 
ATOM     75  C   UNL A   1      48.170  27.532  26.484  1.00  0.00     0.037 A 
BRANCH  62  76
ATOM     76  C   UNL A   1      46.675  33.116  28.678  1.00  0.00     0.058 A 
ATOM     77  C   UNL A   1      47.265  33.476  29.900  1.00  0.00     0.135 A 
ATOM     78  C   UNL A   1      46.526  34.116  27.704  1.00  0.00     0.135 A 
ATOM     79  F   UNL A   1      47.409  32.567  30.876  1.00  0.00    -0.206 F 
ATOM     80  C   UNL A   1      47.675  34.781  30.154  1.00  0.00     0.059 A 
ATOM     81  C   UNL A   1      46.956  35.421  27.923  1.00  0.00     0.059 A 
ATOM     82  F   UNL A   1      45.962  33.828  26.520  1.00  0.00    -0.206 F 
ATOM     83  C   UNL A   1      47.520  35.746  29.157  1.00  0.00     0.060 A 
BRANCH  83  84
ATOM     84  S   UNL A   1      48.074  37.430  29.495  1.00  0.00     0.124 S 
ATOM     85  O   UNL A   1      46.805  38.148  29.557  1.00  0.00    -0.237 OA
ATOM     86  O   UNL A   1      48.776  37.275  30.766  1.00  0.00    -0.237 OA
ATOM     87  O   UNL A   1      48.920  37.748  28.350  1.00  0.00    -0.744 OA
ENDBRANCH  83  84
ENDBRANCH  62  76
BRANCH  63  88
ATOM     88  C   UNL A   1      43.457  23.777  27.132  1.00  0.00     0.058 A 
ATOM     89  C   UNL A   1      43.008  23.381  25.863  1.00  0.00     0.135 A 
ATOM     90  C   UNL A   1      43.412  22.826  28.164  1.00  0.00     0.135 A 
ATOM     91  F   UNL A   1      43.013  24.255  24.846  1.00  0.00    -0.206 F 
ATOM     92  C   UNL A   1      42.503  22.104  25.632  1.00  0.00     0.059 A 
ATOM     93  C   UNL A   1      42.940  21.534  27.949  1.00  0.00     0.059 A 
ATOM     94  F   UNL A   1      43.832  23.149  29.396  1.00  0.00    -0.206 F 
ATOM     95  C   UNL A   1      42.472  21.186  26.684  1.00  0.00     0.060 A 
BRANCH  95  96
ATOM     96  S   UNL A   1      41.832  19.527  26.371  1.00  0.00     0.124 S 
ATOM     97  O   UNL A   1      40.398  19.777  26.280  1.00  0.00    -0.237 OA
ATOM     98  O   UNL A   1      42.498  19.171  25.122  1.00  0.00    -0.237 OA
ATOM     99  O   UNL A   1      42.268  18.772  27.542  1.00  0.00    -0.744 OA
ENDBRANCH  95  96
ENDBRANCH  63  88
BRANCH  75 100
ATOM    100  C   UNL A   1      49.490  27.073  25.921  1.00  0.00     0.058 A 
ATOM    101  C   UNL A   1      49.795  27.181  24.555  1.00  0.00     0.135 A 
ATOM    102  C   UNL A   1      50.485  26.568  26.774  1.00  0.00     0.135 A 
ATOM    103  F   UNL A   1      48.881  27.655  23.693  1.00  0.00    -0.206 F 
ATOM    104  C   UNL A   1      51.029  26.779  24.050  1.00  0.00     0.059 A 
ATOM    105  C   UNL A   1      51.738  26.190  26.296  1.00  0.00     0.059 A 
ATOM    106  F   UNL A   1      50.254  26.455  28.092  1.00  0.00    -0.206 F 
ATOM    107  C   UNL A   1      51.995  26.287  24.931  1.00  0.00     0.060 A 
BRANCH 107 108
ATOM    108  S   UNL A   1      53.601  25.797  24.267  1.00  0.00     0.124 S 
ATOM    109  O   UNL A   1      53.389  25.958  22.833  1.00  0.00    -0.237 OA
ATOM    110  O   UNL A   1      54.502  26.763  24.888  1.00  0.00    -0.237 OA
ATOM    111  O   UNL A   1      53.754  24.419  24.728  1.00  0.00    -0.744 OA
ENDBRANCH 107 108
ENDBRANCH  75 100
ENDBRANCH  49  50
ENDBRANCH  42  44
ENDBRANCH  41  42
ENDBRANCH  40  41
ENDBRANCH  39  40
ENDBRANCH  38  39
ENDBRANCH  37  38
ENDBRANCH   1  37
TORSDOF 26
ENDMDL
MODEL 2
REMARK VINA RESULT:      -9.8      1.925      7.944
REMARK SMILES CS(=O)(=O)N(Cc1ccc(Cl)cc1)c1ccc(C(=O)Nc2ccccc2C(=O)OCCOCCOCCOC(=O)c2ccc(-c3c4nc(c(-c5c(F)cc(S(=O)(=O)[O-])cc5F)c5ccc([nH]5)c(-c5c(F)cc(S(=O)(=O)[O-])cc5F)c5nc(c(-c6c(F)cc(S(=O)(=O)[O-])cc6F)c6ccc3[nH]6)C=C5)C=C4)cc2)cc1
REMARK SMILES IDX 33 1 32 2 31 3 30 4 29 5 27 6 28 7 26 8 21 9 22 10 23 11
REMARK SMILES IDX 25 12 24 13 20 14 18 15 19 16 17 18 14 19 15 20 108 21 16 22
REMARK SMILES IDX 107 23 5 24 2 25 1 26 3 27 4 28 6 29 7 30 8 31 13 32 9 33
REMARK SMILES IDX 12 34 10 35 11 36 34 37 35 38 36 39 37 40 38 41 39 42 40 43
REMARK SMILES IDX 41 44 42 45 106 46 43 47 105 48 44 49 45 50 46 51 99 52
REMARK SMILES IDX 47 53 104 54 98 55 100 56 48 57 103 58 97 59 96 60 49 62
REMARK SMILES IDX 83 63 62 64 82 65 63 66 66 67 81 68 101 69 64 70 65 71 80 73
REMARK SMILES IDX 102 74 67 75 50 76 51 77 60 78 52 79 53 80 59 81 61 82 54 83
REMARK SMILES IDX 55 84 56 85 57 86 58 87 84 88 85 89 94 90 86 91 87 92 93 93
REMARK SMILES IDX 95 94 88 95 89 96 90 97 91 98 92 99 68 100 69 101 78 102
REMARK SMILES IDX 70 103 71 104 77 105 79 106 72 107 73 108 74 109 75 110
REMARK SMILES IDX 76 111
REMARK H PARENT 20 17 100 61 66 72
REMARK Flexibility Score: inf
ROOT
ATOM      1  C   UNL A   1      32.034  33.087  27.261  1.00  0.00     0.188 C 
ENDROOT
BRANCH   1   2
ATOM      2  O   UNL A   1      31.753  31.807  26.742  1.00  0.00    -0.376 OA
BRANCH   2   3
ATOM      3  C   UNL A   1      30.654  31.615  25.874  1.00  0.00     0.202 C 
BRANCH   3   4
ATOM      4  C   UNL A   1      30.417  32.391  24.574  1.00  0.00     0.261 C 
BRANCH   4   5
ATOM      5  O   UNL A   1      29.085  32.457  24.056  1.00  0.00    -0.460 OA
BRANCH   5   6
ATOM      6  C   UNL A   1      28.902  31.822  22.866  1.00  0.00     0.340 C 
ATOM      7  O   UNL A   1      29.006  32.353  21.770  1.00  0.00    -0.246 OA
BRANCH   6   8
ATOM      8  C   UNL A   1      28.719  30.351  23.026  1.00  0.00     0.083 A 
ATOM      9  C   UNL A   1      29.665  29.346  22.741  1.00  0.00     0.056 A 
ATOM     10  C   UNL A   1      29.247  28.001  22.794  1.00  0.00     0.027 A 
ATOM     11  C   UNL A   1      27.962  27.650  23.212  1.00  0.00     0.002 A 
ATOM     12  C   UNL A   1      27.421  29.979  23.440  1.00  0.00     0.018 A 
ATOM     13  C   UNL A   1      27.049  28.641  23.546  1.00  0.00     0.001 A 
BRANCH   9  14
ATOM     14  N   UNL A   1      31.036  29.499  22.438  1.00  0.00    -0.321 N 
ATOM     15  C   UNL A   1      32.170  28.862  22.891  1.00  0.00     0.255 C 
ATOM     16  O   UNL A   1      33.278  29.300  22.579  1.00  0.00    -0.269 OA
ATOM     17  H   UNL A   1      31.218  30.198  21.769  1.00  0.00     0.170 HD
BRANCH  15  18
ATOM     18  C   UNL A   1      32.093  27.632  23.709  1.00  0.00     0.040 A 
ATOM     19  C   UNL A   1      32.597  25.263  25.172  1.00  0.00     0.052 A 
ATOM     20  C   UNL A   1      32.404  25.246  23.781  1.00  0.00     0.028 A 
ATOM     21  C   UNL A   1      32.351  26.482  25.820  1.00  0.00     0.028 A 
ATOM     22  C   UNL A   1      32.167  26.412  23.049  1.00  0.00     0.016 A 
ATOM     23  C   UNL A   1      32.059  27.648  25.101  1.00  0.00     0.016 A 
BRANCH  19  24
ATOM     24  N   UNL A   1      33.043  24.042  25.877  1.00  0.00    -0.266 N 
BRANCH  24  25
ATOM     25  S   UNL A   1      31.878  23.269  26.863  1.00  0.00     0.232 S 
ATOM     26  C   UNL A   1      31.133  22.037  25.812  1.00  0.00     0.183 C 
ATOM     27  O   UNL A   1      30.844  24.245  27.156  1.00  0.00    -0.207 OA
ATOM     28  O   UNL A   1      32.571  22.581  27.930  1.00  0.00    -0.207 OA
ENDBRANCH  24  25
BRANCH  24  29
ATOM     29  C   UNL A   1      34.437  24.089  26.448  1.00  0.00     0.170 C 
BRANCH  29  30
ATOM     30  C   UNL A   1      35.351  23.066  25.780  1.00  0.00    -0.027 A 
ATOM     31  C   UNL A   1      36.747  23.247  25.809  1.00  0.00     0.007 A 
ATOM     32  C   UNL A   1      34.831  21.864  25.276  1.00  0.00     0.007 A 
ATOM     33  C   UNL A   1      37.604  22.195  25.486  1.00  0.00     0.021 A 
ATOM     34  C   UNL A   1      35.693  20.816  24.936  1.00  0.00     0.021 A 
ATOM     35  C   UNL A   1      37.073  20.976  25.076  1.00  0.00     0.041 A 
ATOM     36  Cl  UNL A   1      38.124  19.643  24.791  1.00  0.00    -0.084 Cl
ENDBRANCH  29  30
ENDBRANCH  24  29
ENDBRANCH  19  24
ENDBRANCH  15  18
ENDBRANCH   9  14
ENDBRANCH   6   8
ENDBRANCH   5   6
ENDBRANCH   4   5
ENDBRANCH   3   4
ENDBRANCH   2   3
ENDBRANCH   1   2
BRANCH   1  37
ATOM     37  C   UNL A   1      33.457  33.347  27.803  1.00  0.00     0.188 C 
BRANCH  37  38
ATOM     38  O   UNL A   1      34.360  32.280  28.014  1.00  0.00    -0.376 OA
BRANCH  38  39
ATOM     39  C   UNL A   1      35.387  32.424  28.979  1.00  0.00     0.202 C 
BRANCH  39  40
ATOM     40  C   UNL A   1      35.565  31.447  30.157  1.00  0.00     0.261 C 
BRANCH  40  41
ATOM     41  O   UNL A   1      36.251  30.216  29.881  1.00  0.00    -0.460 OA
BRANCH  41  42
ATOM     42  C   UNL A   1      37.037  29.741  30.883  1.00  0.00     0.338 C 
ATOM     43  O   UNL A   1      36.665  29.185  31.904  1.00  0.00    -0.246 OA
BRANCH  42  44
ATOM     44  C   UNL A   1      38.454  29.777  30.451  1.00  0.00     0.060 A 
ATOM     45  C   UNL A   1      38.744  30.116  29.118  1.00  0.00     0.016 A 
ATOM     46  C   UNL A   1      39.489  29.488  31.340  1.00  0.00     0.016 A 
ATOM     47  C   UNL A   1      40.063  30.144  28.666  1.00  0.00     0.010 A 
ATOM     48  C   UNL A   1      40.810  29.480  30.876  1.00  0.00     0.010 A 
ATOM     49  C   UNL A   1      41.101  29.776  29.530  1.00  0.00    -0.014 A 
BRANCH  49  50
ATOM     50  C   UNL A   1      42.439  29.453  28.973  1.00  0.00     0.031 A 
ATOM     51  C   UNL A   1      42.695  28.029  28.547  1.00  0.00     0.074 A 
ATOM     52  C   UNL A   1      43.398  30.385  28.817  1.00  0.00     0.049 A 
ATOM     53  N   UNL A   1      43.795  27.474  28.109  1.00  0.00    -0.248 NA
ATOM     54  C   UNL A   1      41.548  27.108  28.630  1.00  0.00     0.031 C 
ATOM     55  C   UNL A   1      43.258  31.807  29.126  1.00  0.00     0.029 A 
ATOM     56  N   UNL A   1      44.689  30.265  28.363  1.00  0.00    -0.354 N 
ATOM     57  C   UNL A   1      43.475  26.143  27.868  1.00  0.00     0.074 A 
ATOM     58  C   UNL A   1      42.090  25.963  28.242  1.00  0.00     0.031 C 
ATOM     59  C   UNL A   1      44.426  32.425  28.869  1.00  0.00     0.029 A 
ATOM     60  C   UNL A   1      45.405  31.439  28.410  1.00  0.00     0.049 A 
ATOM     61  H   UNL A   1      45.067  29.418  28.034  1.00  0.00     0.167 HD
ATOM     62  C   UNL A   1      44.258  25.159  27.367  1.00  0.00     0.037 A 
ATOM     63  C   UNL A   1      46.705  31.678  28.139  1.00  0.00     0.037 A 
ATOM     64  C   UNL A   1      45.639  25.336  27.003  1.00  0.00     0.049 A 
ATOM     65  C   UNL A   1      47.589  30.540  27.682  1.00  0.00     0.074 A 
ATOM     66  C   UNL A   1      46.524  24.398  26.503  1.00  0.00     0.029 A 
ATOM     67  N   UNL A   1      46.338  26.530  27.104  1.00  0.00    -0.354 N 
ATOM     68  N   UNL A   1      47.276  29.285  27.461  1.00  0.00    -0.248 NA
ATOM     69  C   UNL A   1      49.006  30.853  27.438  1.00  0.00     0.031 C 
ATOM     70  C   UNL A   1      47.770  25.011  26.346  1.00  0.00     0.029 A 
ATOM     71  C   UNL A   1      47.647  26.348  26.691  1.00  0.00     0.049 A 
ATOM     72  H   UNL A   1      45.959  27.382  27.421  1.00  0.00     0.167 HD
ATOM     73  C   UNL A   1      48.445  28.673  27.011  1.00  0.00     0.074 A 
ATOM     74  C   UNL A   1      49.468  29.695  26.987  1.00  0.00     0.031 C 
ATOM     75  C   UNL A   1      48.652  27.382  26.649  1.00  0.00     0.037 A 
BRANCH  62  76
ATOM     76  C   UNL A   1      43.644  23.798  27.200  1.00  0.00     0.058 A 
ATOM     77  C   UNL A   1      43.431  22.946  28.297  1.00  0.00     0.135 A 
ATOM     78  C   UNL A   1      43.230  23.350  25.935  1.00  0.00     0.135 A 
ATOM     79  F   UNL A   1      43.829  23.313  29.524  1.00  0.00    -0.206 F 
ATOM     80  C   UNL A   1      42.848  21.693  28.142  1.00  0.00     0.059 A 
ATOM     81  C   UNL A   1      42.617  22.113  25.761  1.00  0.00     0.059 A 
ATOM     82  F   UNL A   1      43.416  24.122  24.851  1.00  0.00    -0.206 F 
ATOM     83  C   UNL A   1      42.441  21.287  26.870  1.00  0.00     0.060 A 
BRANCH  83  84
ATOM     84  S   UNL A   1      41.670  19.665  26.690  1.00  0.00     0.124 S 
ATOM     85  O   UNL A   1      40.344  19.909  27.251  1.00  0.00    -0.237 OA
ATOM     86  O   UNL A   1      41.719  19.457  25.247  1.00  0.00    -0.237 OA
ATOM     87  O   UNL A   1      42.531  18.788  27.477  1.00  0.00    -0.744 OA
ENDBRANCH  83  84
ENDBRANCH  62  76
BRANCH  63  88
ATOM     88  C   UNL A   1      47.276  33.047  28.307  1.00  0.00     0.058 A 
ATOM     89  C   UNL A   1      47.409  33.916  27.213  1.00  0.00     0.135 A 
ATOM     90  C   UNL A   1      47.744  33.494  29.553  1.00  0.00     0.135 A 
ATOM     91  F   UNL A   1      46.993  33.531  25.997  1.00  0.00    -0.206 F 
ATOM     92  C   UNL A   1      48.011  35.165  27.341  1.00  0.00     0.059 A 
ATOM     93  C   UNL A   1      48.322  34.750  29.711  1.00  0.00     0.059 A 
ATOM     94  F   UNL A   1      47.639  32.706  30.634  1.00  0.00    -0.206 F 
ATOM     95  C   UNL A   1      48.466  35.573  28.595  1.00  0.00     0.060 A 
BRANCH  95  96
ATOM     96  S   UNL A   1      49.230  37.201  28.755  1.00  0.00     0.124 S 
ATOM     97  O   UNL A   1      48.321  37.864  29.683  1.00  0.00    -0.237 OA
ATOM     98  O   UNL A   1      50.551  36.872  29.280  1.00  0.00    -0.237 OA
ATOM     99  O   UNL A   1      49.218  37.713  27.387  1.00  0.00    -0.744 OA
ENDBRANCH  95  96
ENDBRANCH  63  88
BRANCH  75 100
ATOM    100  C   UNL A   1      50.016  27.006  26.134  1.00  0.00     0.058 A 
ATOM    101  C   UNL A   1      50.353  27.103  24.774  1.00  0.00     0.135 A 
ATOM    102  C   UNL A   1      51.021  26.594  27.026  1.00  0.00     0.135 A 
ATOM    103  F   UNL A   1      49.432  27.489  23.876  1.00  0.00    -0.206 F 
ATOM    104  C   UNL A   1      51.625  26.778  24.313  1.00  0.00     0.059 A 
ATOM    105  C   UNL A   1      52.310  26.295  26.592  1.00  0.00     0.059 A 
ATOM    106  F   UNL A   1      50.761  26.496  28.340  1.00  0.00    -0.206 F 
ATOM    107  C   UNL A   1      52.598  26.377  25.232  1.00  0.00     0.060 A 
BRANCH 107 108
ATOM    108  S   UNL A   1      54.254  25.988  24.624  1.00  0.00     0.124 S 
ATOM    109  O   UNL A   1      54.370  24.576  24.970  1.00  0.00    -0.237 OA
ATOM    110  O   UNL A   1      54.140  26.285  23.200  1.00  0.00    -0.237 OA
ATOM    111  O   UNL A   1      55.115  26.893  25.381  1.00  0.00    -0.744 OA
ENDBRANCH 107 108
ENDBRANCH  75 100
ENDBRANCH  49  50
ENDBRANCH  42  44
ENDBRANCH  41  42
ENDBRANCH  40  41
ENDBRANCH  39  40
ENDBRANCH  38  39
ENDBRANCH  37  38
ENDBRANCH   1  37
TORSDOF 26
ENDMDL
MODEL 3
REMARK VINA RESULT:      -9.6      0.658      7.658
REMARK SMILES CS(=O)(=O)N(Cc1ccc(Cl)cc1)c1ccc(C(=O)Nc2ccccc2C(=O)OCCOCCOCCOC(=O)c2ccc(-c3c4nc(c(-c5c(F)cc(S(=O)(=O)[O-])cc5F)c5ccc([nH]5)c(-c5c(F)cc(S(=O)(=O)[O-])cc5F)c5nc(c(-c6c(F)cc(S(=O)(=O)[O-])cc6F)c6ccc3[nH]6)C=C5)C=C4)cc2)cc1
REMARK SMILES IDX 33 1 32 2 31 3 30 4 29 5 27 6 28 7 26 8 21 9 22 10 23 11
REMARK SMILES IDX 25 12 24 13 20 14 18 15 19 16 17 18 14 19 15 20 108 21 16 22
REMARK SMILES IDX 107 23 5 24 2 25 1 26 3 27 4 28 6 29 7 30 8 31 13 32 9 33
REMARK SMILES IDX 12 34 10 35 11 36 34 37 35 38 36 39 37 40 38 41 39 42 40 43
REMARK SMILES IDX 41 44 42 45 106 46 43 47 105 48 44 49 45 50 46 51 99 52
REMARK SMILES IDX 47 53 104 54 98 55 100 56 48 57 103 58 97 59 96 60 49 62
REMARK SMILES IDX 83 63 62 64 82 65 63 66 66 67 81 68 101 69 64 70 65 71 80 73
REMARK SMILES IDX 102 74 67 75 50 76 51 77 60 78 52 79 53 80 59 81 61 82 54 83
REMARK SMILES IDX 55 84 56 85 57 86 58 87 84 88 85 89 94 90 86 91 87 92 93 93
REMARK SMILES IDX 95 94 88 95 89 96 90 97 91 98 92 99 68 100 69 101 78 102
REMARK SMILES IDX 70 103 71 104 77 105 79 106 72 107 73 108 74 109 75 110
REMARK SMILES IDX 76 111
REMARK H PARENT 20 17 100 61 66 72
REMARK Flexibility Score: inf
ROOT
ATOM      1  C   UNL A   1      35.510  31.206  28.138  1.00  0.00     0.188 C 
ENDROOT
BRANCH   1   2
ATOM      2  O   UNL A   1      34.417  30.326  28.006  1.00  0.00    -0.376 OA
BRANCH   2   3
ATOM      3  C   UNL A   1      34.334  29.454  26.896  1.00  0.00     0.202 C 
BRANCH   3   4
ATOM      4  C   UNL A   1      33.590  29.763  25.592  1.00  0.00     0.261 C 
BRANCH   4   5
ATOM      5  O   UNL A   1      32.866  28.705  24.957  1.00  0.00    -0.460 OA
BRANCH   5   6
ATOM      6  C   UNL A   1      31.532  28.932  24.813  1.00  0.00     0.340 C 
ATOM      7  O   UNL A   1      30.985  30.009  25.000  1.00  0.00    -0.246 OA
BRANCH   6   8
ATOM      8  C   UNL A   1      30.811  27.759  24.240  1.00  0.00     0.083 A 
ATOM      9  C   UNL A   1      31.136  27.063  23.058  1.00  0.00     0.056 A 
ATOM     10  C   UNL A   1      30.235  26.088  22.588  1.00  0.00     0.027 A 
ATOM     11  C   UNL A   1      29.094  25.736  23.313  1.00  0.00     0.002 A 
ATOM     12  C   UNL A   1      29.650  27.396  24.958  1.00  0.00     0.018 A 
ATOM     13  C   UNL A   1      28.806  26.384  24.506  1.00  0.00     0.001 A 
BRANCH   9  14
ATOM     14  N   UNL A   1      32.302  27.181  22.268  1.00  0.00    -0.321 N 
ATOM     15  C   UNL A   1      33.546  26.596  22.346  1.00  0.00     0.255 C 
ATOM     16  O   UNL A   1      34.451  26.996  21.615  1.00  0.00    -0.269 OA
ATOM     17  H   UNL A   1      32.206  27.804  21.512  1.00  0.00     0.170 HD
BRANCH  15  18
ATOM     18  C   UNL A   1      33.813  25.462  23.257  1.00  0.00     0.040 A 
ATOM     19  C   UNL A   1      34.911  23.290  24.703  1.00  0.00     0.052 A 
ATOM     20  C   UNL A   1      34.302  23.112  23.449  1.00  0.00     0.028 A 
ATOM     21  C   UNL A   1      34.788  24.562  25.279  1.00  0.00     0.028 A 
ATOM     22  C   UNL A   1      33.768  24.180  22.723  1.00  0.00     0.016 A 
ATOM     23  C   UNL A   1      34.205  25.630  24.583  1.00  0.00     0.016 A 
BRANCH  19  24
ATOM     24  N   UNL A   1      35.638  22.174  25.342  1.00  0.00    -0.266 N 
BRANCH  24  25
ATOM     25  S   UNL A   1      37.139  21.747  24.641  1.00  0.00     0.232 S 
ATOM     26  C   UNL A   1      38.364  22.554  25.655  1.00  0.00     0.183 C 
ATOM     27  O   UNL A   1      37.201  22.378  23.336  1.00  0.00    -0.207 OA
ATOM     28  O   UNL A   1      37.317  20.318  24.783  1.00  0.00    -0.207 OA
ENDBRANCH  24  25
BRANCH  24  29
ATOM     29  C   UNL A   1      34.788  21.014  25.793  1.00  0.00     0.170 C 
BRANCH  29  30
ATOM     30  C   UNL A   1      33.395  21.470  26.215  1.00  0.00    -0.027 A 
ATOM     31  C   UNL A   1      33.226  22.202  27.405  1.00  0.00     0.007 A 
ATOM     32  C   UNL A   1      32.299  21.310  25.353  1.00  0.00     0.007 A 
ATOM     33  C   UNL A   1      32.034  22.885  27.653  1.00  0.00     0.021 A 
ATOM     34  C   UNL A   1      31.101  21.982  25.612  1.00  0.00     0.021 A 
ATOM     35  C   UNL A   1      30.987  22.793  26.742  1.00  0.00     0.041 A 
ATOM     36  Cl  UNL A   1      29.563  23.728  26.987  1.00  0.00    -0.084 Cl
ENDBRANCH  29  30
ENDBRANCH  24  29
ENDBRANCH  19  24
ENDBRANCH  15  18
ENDBRANCH   9  14
ENDBRANCH   6   8
ENDBRANCH   5   6
ENDBRANCH   4   5
ENDBRANCH   3   4
ENDBRANCH   2   3
ENDBRANCH   1   2
BRANCH   1  37
ATOM     37  C   UNL A   1      35.211  32.673  28.522  1.00  0.00     0.188 C 
BRANCH  37  38
ATOM     38  O   UNL A   1      35.518  33.161  29.813  1.00  0.00    -0.376 OA
BRANCH  38  39
ATOM     39  C   UNL A   1      35.513  32.266  30.911  1.00  0.00     0.202 C 
BRANCH  39  40
ATOM     40  C   UNL A   1      36.753  32.025  31.793  1.00  0.00     0.261 C 
BRANCH  40  41
ATOM     41  O   UNL A   1      36.936  30.697  32.305  1.00  0.00    -0.460 OA
BRANCH  41  42
ATOM     42  C   UNL A   1      37.112  29.723  31.373  1.00  0.00     0.338 C 
ATOM     43  O   UNL A   1      36.243  29.029  30.869  1.00  0.00    -0.246 OA
BRANCH  42  44
ATOM     44  C   UNL A   1      38.502  29.779  30.863  1.00  0.00     0.060 A 
ATOM     45  C   UNL A   1      38.713  30.163  29.527  1.00  0.00     0.016 A 
ATOM     46  C   UNL A   1      39.587  29.467  31.681  1.00  0.00     0.016 A 
ATOM     47  C   UNL A   1      40.004  30.212  29.001  1.00  0.00     0.010 A 
ATOM     48  C   UNL A   1      40.879  29.480  31.142  1.00  0.00     0.010 A 
ATOM     49  C   UNL A   1      41.091  29.821  29.792  1.00  0.00    -0.014 A 
BRANCH  49  50
ATOM     50  C   UNL A   1      42.396  29.522  29.148  1.00  0.00     0.031 A 
ATOM     51  C   UNL A   1      42.626  28.118  28.650  1.00  0.00     0.074 A 
ATOM     52  C   UNL A   1      43.346  30.460  28.980  1.00  0.00     0.049 A 
ATOM     53  N   UNL A   1      43.698  27.583  28.129  1.00  0.00    -0.248 NA
ATOM     54  C   UNL A   1      41.483  27.193  28.756  1.00  0.00     0.031 C 
ATOM     55  C   UNL A   1      43.227  31.868  29.356  1.00  0.00     0.029 A 
ATOM     56  N   UNL A   1      44.611  30.360  28.450  1.00  0.00    -0.354 N 
ATOM     57  C   UNL A   1      43.363  26.263  27.849  1.00  0.00     0.074 A 
ATOM     58  C   UNL A   1      42.000  26.067  28.291  1.00  0.00     0.031 C 
ATOM     59  C   UNL A   1      44.380  32.497  29.061  1.00  0.00     0.029 A 
ATOM     60  C   UNL A   1      45.330  31.532  28.508  1.00  0.00     0.049 A 
ATOM     61  H   UNL A   1      44.968  29.528  28.065  1.00  0.00     0.167 HD
ATOM     62  C   UNL A   1      44.116  25.302  27.264  1.00  0.00     0.037 A 
ATOM     63  C   UNL A   1      46.614  31.783  28.177  1.00  0.00     0.037 A 
ATOM     64  C   UNL A   1      45.475  25.494  26.833  1.00  0.00     0.049 A 
ATOM     65  C   UNL A   1      47.469  30.665  27.624  1.00  0.00     0.074 A 
ATOM     66  C   UNL A   1      46.329  24.579  26.246  1.00  0.00     0.029 A 
ATOM     67  N   UNL A   1      46.181  26.683  26.946  1.00  0.00    -0.354 N 
ATOM     68  N   UNL A   1      47.142  29.421  27.367  1.00  0.00    -0.248 NA
ATOM     69  C   UNL A   1      48.871  30.989  27.316  1.00  0.00     0.031 C 
ATOM     70  C   UNL A   1      47.566  25.199  26.047  1.00  0.00     0.029 A 
ATOM     71  C   UNL A   1      47.465  26.519  26.454  1.00  0.00     0.049 A 
ATOM     72  H   UNL A   1      45.821  27.521  27.319  1.00  0.00     0.167 HD
ATOM     73  C   UNL A   1      48.283  28.829  26.828  1.00  0.00     0.074 A 
ATOM     74  C   UNL A   1      49.306  29.852  26.791  1.00  0.00     0.031 C 
ATOM     75  C   UNL A   1      48.467  27.555  26.401  1.00  0.00     0.037 A 
BRANCH  62  76
ATOM     76  C   UNL A   1      43.490  23.948  27.074  1.00  0.00     0.058 A 
ATOM     77  C   UNL A   1      42.914  23.569  25.850  1.00  0.00     0.135 A 
ATOM     78  C   UNL A   1      43.496  23.005  28.114  1.00  0.00     0.135 A 
ATOM     79  F   UNL A   1      42.859  24.438  24.830  1.00  0.00    -0.206 F 
ATOM     80  C   UNL A   1      42.349  22.310  25.671  1.00  0.00     0.059 A 
ATOM     81  C   UNL A   1      42.964  21.730  27.948  1.00  0.00     0.059 A 
ATOM     82  F   UNL A   1      44.028  23.318  29.306  1.00  0.00    -0.206 F 
ATOM     83  C   UNL A   1      42.382  21.396  26.726  1.00  0.00     0.060 A 
BRANCH  83  84
ATOM     84  S   UNL A   1      41.662  19.762  26.470  1.00  0.00     0.124 S 
ATOM     85  O   UNL A   1      42.392  19.302  25.293  1.00  0.00    -0.237 OA
ATOM     86  O   UNL A   1      41.984  19.082  27.721  1.00  0.00    -0.237 OA
ATOM     87  O   UNL A   1      40.245  20.041  26.260  1.00  0.00    -0.744 OA
ENDBRANCH  83  84
ENDBRANCH  62  76
BRANCH  63  88
ATOM     88  C   UNL A   1      47.195  33.143  28.371  1.00  0.00     0.058 A 
ATOM     89  C   UNL A   1      47.781  33.513  29.591  1.00  0.00     0.135 A 
ATOM     90  C   UNL A   1      47.132  34.114  27.360  1.00  0.00     0.135 A 
ATOM     91  F   UNL A   1      47.852  32.629  30.597  1.00  0.00    -0.206 F 
ATOM     92  C   UNL A   1      48.257  34.803  29.813  1.00  0.00     0.059 A 
ATOM     93  C   UNL A   1      47.628  35.401  27.547  1.00  0.00     0.059 A 
ATOM     94  F   UNL A   1      46.586  33.815  26.171  1.00  0.00    -0.206 F 
ATOM     95  C   UNL A   1      48.175  35.742  28.783  1.00  0.00     0.060 A 
BRANCH  95  96
ATOM     96  S   UNL A   1      48.809  37.407  29.073  1.00  0.00     0.124 S 
ATOM     97  O   UNL A   1      47.650  38.065  29.666  1.00  0.00    -0.237 OA
ATOM     98  O   UNL A   1      49.931  37.157  29.973  1.00  0.00    -0.237 OA
ATOM     99  O   UNL A   1      49.178  37.864  27.736  1.00  0.00    -0.744 OA
ENDBRANCH  95  96
ENDBRANCH  63  88
BRANCH  75 100
ATOM    100  C   UNL A   1      49.801  27.202  25.795  1.00  0.00     0.058 A 
ATOM    101  C   UNL A   1      50.060  27.351  24.424  1.00  0.00     0.135 A 
ATOM    102  C   UNL A   1      50.853  26.757  26.614  1.00  0.00     0.135 A 
ATOM    103  F   UNL A   1      49.091  27.770  23.595  1.00  0.00    -0.206 F 
ATOM    104  C   UNL A   1      51.305  27.047  23.881  1.00  0.00     0.059 A 
ATOM    105  C   UNL A   1      52.116  26.478  26.097  1.00  0.00     0.059 A 
ATOM    106  F   UNL A   1      50.667  26.608  27.935  1.00  0.00    -0.206 F 
ATOM    107  C   UNL A   1      52.328  26.613  24.727  1.00  0.00     0.060 A 
BRANCH 107 108
ATOM    108  S   UNL A   1      53.946  26.251  24.013  1.00  0.00     0.124 S 
ATOM    109  O   UNL A   1      54.685  27.471  24.322  1.00  0.00    -0.237 OA
ATOM    110  O   UNL A   1      54.353  25.059  24.751  1.00  0.00    -0.237 OA
ATOM    111  O   UNL A   1      53.654  26.035  22.598  1.00  0.00    -0.744 OA
ENDBRANCH 107 108
ENDBRANCH  75 100
ENDBRANCH  49  50
ENDBRANCH  42  44
ENDBRANCH  41  42
ENDBRANCH  40  41
ENDBRANCH  39  40
ENDBRANCH  38  39
ENDBRANCH  37  38
ENDBRANCH   1  37
TORSDOF 26
ENDMDL
