MODEL 1
REMARK VINA RESULT:     -11.1      0.000      0.000
REMARK SMILES Cc1c(C(=O)Nc2ccc(C(=O)Nc3ccccc3C(=O)OCCOCCOCCOC(=O)c3ccc(-c4c5nc(c(-c6c(F)cc(S(=O)(=O)[O-])cc6F)c6ccc([nH]6)c(-c6c(F)cc(S(=O)(=O)[O-])cc6F)c6nc(c(-c7c(F)cc(S(=O)(=O)[O-])cc7F)c7ccc4[nH]7)C=C6)C=C5)cc3)cc2)cccc1[N+](=O)[O-]
REMARK SMILES IDX 26 1 25 2 24 3 23 4 22 5 20 6 21 7 19 8 14 9 15 10 16 11
REMARK SMILES IDX 18 12 17 13 13 14 11 15 12 16 10 18 7 19 8 20 101 21 9 22
REMARK SMILES IDX 100 23 6 24 4 25 5 26 3 28 1 29 2 30 105 31 102 32 104 33
REMARK SMILES IDX 103 34 106 35 107 36 108 37 27 38 28 39 29 40 30 41 31 42
REMARK SMILES IDX 32 43 33 44 34 45 35 46 99 47 36 48 98 49 37 50 38 51 39 52
REMARK SMILES IDX 92 53 40 54 97 55 91 56 93 57 41 58 96 59 90 60 89 61 42 63
REMARK SMILES IDX 76 64 55 65 75 66 56 67 59 68 74 69 94 70 57 71 58 72 73 74
REMARK SMILES IDX 95 75 60 76 43 77 44 78 53 79 45 80 46 81 52 82 54 83 47 84
REMARK SMILES IDX 48 85 49 86 50 87 51 88 77 89 78 90 87 91 79 92 80 93 86 94
REMARK SMILES IDX 88 95 81 96 82 97 83 98 84 99 85 100 61 101 62 102 71 103
REMARK SMILES IDX 63 104 64 105 70 106 72 107 65 108 66 109 67 110 68 111
REMARK SMILES IDX 69 112
REMARK H PARENT 13 17 6 27 93 62 59 73
REMARK Flexibility Score: inf
ROOT
ATOM      1  C   UNL A   1      37.403  32.716  30.737  1.00  0.00     0.188 C 
ENDROOT
BRANCH   1   2
ATOM      2  O   UNL A   1      36.704  33.703  30.029  1.00  0.00    -0.376 OA
BRANCH   2   3
ATOM      3  C   UNL A   1      35.462  33.346  29.501  1.00  0.00     0.202 C 
BRANCH   3   4
ATOM      4  C   UNL A   1      35.210  33.021  28.002  1.00  0.00     0.261 C 
BRANCH   4   5
ATOM      5  O   UNL A   1      34.244  31.791  27.185  1.00  0.00    -0.460 OA
BRANCH   5   6
ATOM      6  C   UNL A   1      34.002  30.185  26.974  1.00  0.00     0.340 C 
ATOM      7  O   UNL A   1      35.039  29.579  27.237  1.00  0.00    -0.246 OA
BRANCH   6   8
ATOM      8  C   UNL A   1      32.847  29.134  26.903  1.00  0.00     0.083 A 
ATOM      9  C   UNL A   1      32.665  28.693  25.587  1.00  0.00     0.056 A 
ATOM     10  C   UNL A   1      31.664  27.726  25.279  1.00  0.00     0.027 A 
ATOM     11  C   UNL A   1      30.972  27.032  26.280  1.00  0.00     0.002 A 
ATOM     12  C   UNL A   1      31.974  28.541  27.868  1.00  0.00     0.018 A 
ATOM     13  C   UNL A   1      31.141  27.431  27.591  1.00  0.00     0.001 A 
BRANCH   9  14
ATOM     14  N   UNL A   1      33.591  28.999  24.544  1.00  0.00    -0.321 N 
ATOM     15  C   UNL A   1      33.741  28.588  23.158  1.00  0.00     0.255 C 
ATOM     16  O   UNL A   1      34.122  29.575  22.521  1.00  0.00    -0.269 OA
ATOM     17  H   UNL A   1      34.288  29.633  24.828  1.00  0.00     0.170 HD
BRANCH  15  18
ATOM     18  C   UNL A   1      33.054  27.274  22.368  1.00  0.00     0.040 A 
ATOM     19  C   UNL A   1      31.645  23.929  23.699  1.00  0.00     0.041 A 
ATOM     20  C   UNL A   1      33.336  24.296  23.760  1.00  0.00     0.027 A 
ATOM     21  C   UNL A   1      30.705  25.101  22.802  1.00  0.00     0.027 A 
ATOM     22  C   UNL A   1      33.943  26.037  22.949  1.00  0.00     0.016 A 
ATOM     23  C   UNL A   1      31.431  26.719  22.109  1.00  0.00     0.016 A 
BRANCH  19  24
ATOM     24  N   UNL A   1      30.893  23.110  24.528  1.00  0.00    -0.322 N 
ATOM     25  C   UNL A   1      31.264  22.027  25.302  1.00  0.00     0.256 C 
ATOM     26  O   UNL A   1      30.500  21.719  26.221  1.00  0.00    -0.269 OA
ATOM     27  H   UNL A   1      29.936  23.339  24.573  1.00  0.00     0.170 HD
BRANCH  25  28
ATOM     28  C   UNL A   1      32.461  21.157  25.088  1.00  0.00     0.049 A 
ATOM     29  C   UNL A   1      34.003  22.295  26.685  1.00  0.00     0.053 C 
ATOM     30  C   UNL A   1      33.774  21.368  25.550  1.00  0.00     0.039 A 
ATOM     31  C   UNL A   1      34.811  20.498  25.133  1.00  0.00     0.273 A 
ATOM     32  C   UNL A   1      32.160  19.879  24.616  1.00  0.00     0.014 A 
ATOM     33  C   UNL A   1      34.496  19.273  24.562  1.00  0.00     0.086 A 
ATOM     34  C   UNL A   1      33.161  18.930  24.403  1.00  0.00     0.008 A 
BRANCH  31  35
ATOM     35  N   UNL A   1      36.253  20.824  25.199  1.00  0.00     0.063 N 
ATOM     36  O   UNL A   1      36.540  22.034  25.233  1.00  0.00    -0.258 OA
ATOM     37  O   UNL A   1      37.082  19.912  25.203  1.00  0.00    -0.258 OA
ENDBRANCH  31  35
ENDBRANCH  25  28
ENDBRANCH  19  24
ENDBRANCH  15  18
ENDBRANCH   9  14
ENDBRANCH   6   8
ENDBRANCH   5   6
ENDBRANCH   4   5
ENDBRANCH   3   4
ENDBRANCH   2   3
ENDBRANCH   1   2
BRANCH   1  38
ATOM     38  C   UNL A   1      36.806  31.343  30.958  1.00  0.00     0.188 C 
BRANCH  38  39
ATOM     39  O   UNL A   1      36.881  30.201  30.140  1.00  0.00    -0.376 OA
BRANCH  39  40
ATOM     40  C   UNL A   1      37.741  30.501  28.983  1.00  0.00     0.202 C 
BRANCH  40  41
ATOM     41  C   UNL A   1      38.816  29.304  28.415  1.00  0.00     0.261 C 
BRANCH  41  42
ATOM     42  O   UNL A   1      39.040  27.605  28.838  1.00  0.00    -0.460 OA
BRANCH  42  43
ATOM     43  C   UNL A   1      39.436  26.112  28.343  1.00  0.00     0.338 C 
ATOM     44  O   UNL A   1      38.541  25.312  28.595  1.00  0.00    -0.246 OA
BRANCH  43  45
ATOM     45  C   UNL A   1      41.116  25.640  27.547  1.00  0.00     0.060 A 
ATOM     46  C   UNL A   1      42.029  24.011  27.542  1.00  0.00     0.016 A 
ATOM     47  C   UNL A   1      42.332  27.119  26.883  1.00  0.00     0.016 A 
ATOM     48  C   UNL A   1      43.846  24.081  27.033  1.00  0.00     0.010 A 
ATOM     49  C   UNL A   1      43.930  26.951  26.310  1.00  0.00     0.010 A 
ATOM     50  C   UNL A   1      44.750  25.668  26.682  1.00  0.00    -0.014 A 
BRANCH  50  51
ATOM     51  C   UNL A   1      46.135  26.761  27.323  1.00  0.00     0.031 A 
ATOM     52  C   UNL A   1      47.230  26.281  26.475  1.00  0.00     0.074 A 
ATOM     53  C   UNL A   1      46.489  27.963  28.293  1.00  0.00     0.049 A 
ATOM     54  N   UNL A   1      48.380  25.898  26.930  1.00  0.00    -0.248 NA
ATOM     55  C   UNL A   1      46.959  25.808  25.093  1.00  0.00     0.031 C 
ATOM     56  C   UNL A   1      47.411  29.155  28.211  1.00  0.00     0.029 A 
ATOM     57  N   UNL A   1      45.787  28.689  29.403  1.00  0.00    -0.354 N 
ATOM     58  C   UNL A   1      49.068  25.760  25.758  1.00  0.00     0.074 A 
ATOM     59  C   UNL A   1      48.100  25.147  24.903  1.00  0.00     0.031 C 
ATOM     60  C   UNL A   1      47.337  30.043  29.280  1.00  0.00     0.029 A 
ATOM     61  C   UNL A   1      46.265  29.686  30.193  1.00  0.00     0.049 A 
ATOM     62  H   UNL A   1      44.861  28.406  29.581  1.00  0.00     0.167 HD
ATOM     63  C   UNL A   1      49.907  26.788  25.418  1.00  0.00     0.037 A 
ATOM     64  C   UNL A   1      46.108  29.546  31.565  1.00  0.00     0.037 A 
ATOM     65  C   UNL A   1      50.098  27.749  26.548  1.00  0.00     0.049 A 
ATOM     66  C   UNL A   1      47.394  28.822  31.872  1.00  0.00     0.074 A 
ATOM     67  C   UNL A   1      50.070  29.128  26.665  1.00  0.00     0.029 A 
ATOM     68  N   UNL A   1      50.118  27.287  27.880  1.00  0.00    -0.354 N 
ATOM     69  N   UNL A   1      48.017  28.099  30.969  1.00  0.00    -0.248 NA
ATOM     70  C   UNL A   1      48.223  29.165  33.013  1.00  0.00     0.031 C 
ATOM     71  C   UNL A   1      50.204  29.469  28.056  1.00  0.00     0.029 A 
ATOM     72  C   UNL A   1      50.129  28.303  28.819  1.00  0.00     0.049 A 
ATOM     73  H   UNL A   1      50.124  26.332  28.119  1.00  0.00     0.167 HD
ATOM     74  C   UNL A   1      49.352  28.230  31.186  1.00  0.00     0.074 A 
ATOM     75  C   UNL A   1      49.426  28.818  32.526  1.00  0.00     0.031 C 
ATOM     76  C   UNL A   1      50.325  28.002  30.247  1.00  0.00     0.037 A 
BRANCH  63  77
ATOM     77  C   UNL A   1      50.338  27.048  23.968  1.00  0.00     0.058 A 
ATOM     78  C   UNL A   1      51.677  26.813  23.607  1.00  0.00     0.135 A 
ATOM     79  C   UNL A   1      49.525  27.471  22.875  1.00  0.00     0.135 A 
ATOM     80  F   UNL A   1      52.591  26.445  24.513  1.00  0.00    -0.206 F 
ATOM     81  C   UNL A   1      52.145  26.910  22.296  1.00  0.00     0.059 A 
ATOM     82  C   UNL A   1      49.962  27.544  21.557  1.00  0.00     0.059 A 
ATOM     83  F   UNL A   1      48.253  27.860  22.983  1.00  0.00    -0.206 F 
ATOM     84  C   UNL A   1      51.270  27.233  21.272  1.00  0.00     0.060 A 
BRANCH  84  85
ATOM     85  S   UNL A   1      51.835  27.173  19.573  1.00  0.00     0.124 S 
ATOM     86  O   UNL A   1      52.141  28.575  19.310  1.00  0.00    -0.237 OA
ATOM     87  O   UNL A   1      52.977  26.272  19.673  1.00  0.00    -0.237 OA
ATOM     88  O   UNL A   1      50.684  26.640  18.849  1.00  0.00    -0.744 OA
ENDBRANCH  84  85
ENDBRANCH  63  77
BRANCH  64  89
ATOM     89  C   UNL A   1      44.709  29.302  32.262  1.00  0.00     0.058 A 
ATOM     90  C   UNL A   1      44.325  27.986  32.596  1.00  0.00     0.135 A 
ATOM     91  C   UNL A   1      43.836  30.270  32.824  1.00  0.00     0.135 A 
ATOM     92  F   UNL A   1      44.880  26.947  31.954  1.00  0.00    -0.206 F 
ATOM     93  C   UNL A   1      43.406  27.662  33.623  1.00  0.00     0.059 A 
ATOM     94  C   UNL A   1      42.959  29.977  33.927  1.00  0.00     0.059 A 
ATOM     95  F   UNL A   1      43.950  31.559  32.463  1.00  0.00    -0.206 F 
ATOM     96  C   UNL A   1      42.823  28.664  34.378  1.00  0.00     0.060 A 
BRANCH  96  97
ATOM     97  S   UNL A   1      41.940  28.185  35.912  1.00  0.00     0.124 S 
ATOM     98  O   UNL A   1      42.966  28.315  36.940  1.00  0.00    -0.237 OA
ATOM     99  O   UNL A   1      40.849  29.153  35.991  1.00  0.00    -0.237 OA
ATOM    100  O   UNL A   1      41.460  26.856  35.580  1.00  0.00    -0.744 OA
ENDBRANCH  96  97
ENDBRANCH  64  89
BRANCH  76 101
ATOM    101  C   UNL A   1      51.673  27.500  30.653  1.00  0.00     0.058 A 
ATOM    102  C   UNL A   1      51.928  26.170  31.013  1.00  0.00     0.135 A 
ATOM    103  C   UNL A   1      52.811  28.335  30.533  1.00  0.00     0.135 A 
ATOM    104  F   UNL A   1      51.001  25.207  30.942  1.00  0.00    -0.206 F 
ATOM    105  C   UNL A   1      53.181  25.751  31.406  1.00  0.00     0.059 A 
ATOM    106  C   UNL A   1      54.088  27.899  30.797  1.00  0.00     0.059 A 
ATOM    107  F   UNL A   1      52.753  29.606  30.117  1.00  0.00    -0.206 F 
ATOM    108  C   UNL A   1      54.253  26.623  31.292  1.00  0.00     0.060 A 
BRANCH 108 109
ATOM    109  S   UNL A   1      55.871  26.046  31.759  1.00  0.00     0.124 S 
ATOM    110  O   UNL A   1      56.626  27.295  31.750  1.00  0.00    -0.237 OA
ATOM    111  O   UNL A   1      55.615  25.463  33.071  1.00  0.00    -0.237 OA
ATOM    112  O   UNL A   1      56.209  25.093  30.707  1.00  0.00    -0.744 OA
ENDBRANCH 108 109
ENDBRANCH  76 101
ENDBRANCH  50  51
ENDBRANCH  43  45
ENDBRANCH  42  43
ENDBRANCH  41  42
ENDBRANCH  40  41
ENDBRANCH  39  40
ENDBRANCH  38  39
ENDBRANCH   1  38
TORSDOF 25
ENDMDL
MODEL 2
REMARK VINA RESULT:     -11.1      1.687      2.301
REMARK SMILES Cc1c(C(=O)Nc2ccc(C(=O)Nc3ccccc3C(=O)OCCOCCOCCOC(=O)c3ccc(-c4c5nc(c(-c6c(F)cc(S(=O)(=O)[O-])cc6F)c6ccc([nH]6)c(-c6c(F)cc(S(=O)(=O)[O-])cc6F)c6nc(c(-c7c(F)cc(S(=O)(=O)[O-])cc7F)c7ccc4[nH]7)C=C6)C=C5)cc3)cc2)cccc1[N+](=O)[O-]
REMARK SMILES IDX 26 1 25 2 24 3 23 4 22 5 20 6 21 7 19 8 14 9 15 10 16 11
REMARK SMILES IDX 18 12 17 13 13 14 11 15 12 16 10 18 7 19 8 20 101 21 9 22
REMARK SMILES IDX 100 23 6 24 4 25 5 26 3 28 1 29 2 30 105 31 102 32 104 33
REMARK SMILES IDX 103 34 106 35 107 36 108 37 27 38 28 39 29 40 30 41 31 42
REMARK SMILES IDX 32 43 33 44 34 45 35 46 99 47 36 48 98 49 37 50 38 51 39 52
REMARK SMILES IDX 92 53 40 54 97 55 91 56 93 57 41 58 96 59 90 60 89 61 42 63
REMARK SMILES IDX 76 64 55 65 75 66 56 67 59 68 74 69 94 70 57 71 58 72 73 74
REMARK SMILES IDX 95 75 60 76 43 77 44 78 53 79 45 80 46 81 52 82 54 83 47 84
REMARK SMILES IDX 48 85 49 86 50 87 51 88 77 89 78 90 87 91 79 92 80 93 86 94
REMARK SMILES IDX 88 95 81 96 82 97 83 98 84 99 85 100 61 101 62 102 71 103
REMARK SMILES IDX 63 104 64 105 70 106 72 107 65 108 66 109 67 110 68 111
REMARK SMILES IDX 69 112
REMARK H PARENT 13 17 6 27 93 62 59 73
REMARK Flexibility Score: inf
ROOT
ATOM      1  C   UNL A   1      37.912  32.117  30.597  1.00  0.00     0.188 C 
ENDROOT
BRANCH   1   2
ATOM      2  O   UNL A   1      37.297  33.234  30.011  1.00  0.00    -0.376 OA
BRANCH   2   3
ATOM      3  C   UNL A   1      35.971  33.085  29.601  1.00  0.00     0.202 C 
BRANCH   3   4
ATOM      4  C   UNL A   1      35.526  32.941  28.119  1.00  0.00     0.261 C 
BRANCH   4   5
ATOM      5  O   UNL A   1      34.440  31.821  27.294  1.00  0.00    -0.460 OA
BRANCH   5   6
ATOM      6  C   UNL A   1      34.143  30.253  26.926  1.00  0.00     0.340 C 
ATOM      7  O   UNL A   1      35.200  29.624  26.941  1.00  0.00    -0.246 OA
BRANCH   6   8
ATOM      8  C   UNL A   1      32.976  29.214  26.911  1.00  0.00     0.083 A 
ATOM      9  C   UNL A   1      32.795  28.698  25.623  1.00  0.00     0.056 A 
ATOM     10  C   UNL A   1      31.784  27.726  25.367  1.00  0.00     0.027 A 
ATOM     11  C   UNL A   1      31.079  27.100  26.404  1.00  0.00     0.002 A 
ATOM     12  C   UNL A   1      32.093  28.689  27.905  1.00  0.00     0.018 A 
ATOM     13  C   UNL A   1      31.247  27.574  27.690  1.00  0.00     0.001 A 
BRANCH   9  14
ATOM     14  N   UNL A   1      33.729  28.930  24.568  1.00  0.00    -0.321 N 
ATOM     15  C   UNL A   1      33.804  28.551  23.167  1.00  0.00     0.255 C 
ATOM     16  O   UNL A   1      34.281  29.509  22.551  1.00  0.00    -0.269 OA
ATOM     17  H   UNL A   1      34.499  29.472  24.855  1.00  0.00     0.170 HD
BRANCH  15  18
ATOM     18  C   UNL A   1      32.955  27.350  22.354  1.00  0.00     0.040 A 
ATOM     19  C   UNL A   1      31.369  24.046  23.584  1.00  0.00     0.041 A 
ATOM     20  C   UNL A   1      33.085  24.275  23.539  1.00  0.00     0.027 A 
ATOM     21  C   UNL A   1      30.469  25.346  22.833  1.00  0.00     0.027 A 
ATOM     22  C   UNL A   1      33.777  26.011  22.790  1.00  0.00     0.016 A 
ATOM     23  C   UNL A   1      31.278  26.943  22.185  1.00  0.00     0.016 A 
BRANCH  19  24
ATOM     24  N   UNL A   1      30.612  23.237  24.417  1.00  0.00    -0.322 N 
ATOM     25  C   UNL A   1      30.997  22.343  25.398  1.00  0.00     0.256 C 
ATOM     26  O   UNL A   1      30.142  22.042  26.236  1.00  0.00    -0.269 OA
ATOM     27  H   UNL A   1      29.639  23.311  24.287  1.00  0.00     0.170 HD
BRANCH  25  28
ATOM     28  C   UNL A   1      32.322  21.658  25.499  1.00  0.00     0.049 A 
ATOM     29  C   UNL A   1      32.229  20.407  23.343  1.00  0.00     0.053 C 
ATOM     30  C   UNL A   1      32.824  20.626  24.684  1.00  0.00     0.039 A 
ATOM     31  C   UNL A   1      34.053  20.006  25.016  1.00  0.00     0.273 A 
ATOM     32  C   UNL A   1      33.241  22.313  26.318  1.00  0.00     0.014 A 
ATOM     33  C   UNL A   1      34.911  20.617  25.920  1.00  0.00     0.086 A 
ATOM     34  C   UNL A   1      34.539  21.826  26.488  1.00  0.00     0.008 A 
BRANCH  31  35
ATOM     35  N   UNL A   1      34.485  18.683  24.513  1.00  0.00     0.063 N 
ATOM     36  O   UNL A   1      33.584  17.932  24.101  1.00  0.00    -0.258 OA
ATOM     37  O   UNL A   1      35.682  18.387  24.535  1.00  0.00    -0.258 OA
ENDBRANCH  31  35
ENDBRANCH  25  28
ENDBRANCH  19  24
ENDBRANCH  15  18
ENDBRANCH   9  14
ENDBRANCH   6   8
ENDBRANCH   5   6
ENDBRANCH   4   5
ENDBRANCH   3   4
ENDBRANCH   2   3
ENDBRANCH   1   2
BRANCH   1  38
ATOM     38  C   UNL A   1      37.188  30.793  30.702  1.00  0.00     0.188 C 
BRANCH  38  39
ATOM     39  O   UNL A   1      37.222  29.692  29.827  1.00  0.00    -0.376 OA
BRANCH  39  40
ATOM     40  C   UNL A   1      38.116  30.008  28.700  1.00  0.00     0.202 C 
BRANCH  40  41
ATOM     41  C   UNL A   1      39.339  28.897  28.275  1.00  0.00     0.261 C 
BRANCH  41  42
ATOM     42  O   UNL A   1      39.633  27.216  28.726  1.00  0.00    -0.460 OA
BRANCH  42  43
ATOM     43  C   UNL A   1      40.110  25.737  28.260  1.00  0.00     0.338 C 
ATOM     44  O   UNL A   1      39.201  24.923  28.385  1.00  0.00    -0.246 OA
BRANCH  43  45
ATOM     45  C   UNL A   1      41.883  25.300  27.675  1.00  0.00     0.060 A 
ATOM     46  C   UNL A   1      42.721  23.639  27.516  1.00  0.00     0.016 A 
ATOM     47  C   UNL A   1      43.249  26.787  27.504  1.00  0.00     0.016 A 
ATOM     48  C   UNL A   1      44.601  23.674  27.332  1.00  0.00     0.010 A 
ATOM     49  C   UNL A   1      44.915  26.615  27.178  1.00  0.00     0.010 A 
ATOM     50  C   UNL A   1      45.610  25.233  27.433  1.00  0.00    -0.014 A 
BRANCH  50  51
ATOM     51  C   UNL A   1      46.904  26.098  28.483  1.00  0.00     0.031 A 
ATOM     52  C   UNL A   1      48.104  25.757  27.713  1.00  0.00     0.074 A 
ATOM     53  C   UNL A   1      47.132  27.050  29.729  1.00  0.00     0.049 A 
ATOM     54  N   UNL A   1      49.168  25.232  28.230  1.00  0.00    -0.248 NA
ATOM     55  C   UNL A   1      48.031  25.600  26.237  1.00  0.00     0.031 C 
ATOM     56  C   UNL A   1      48.074  28.186  30.037  1.00  0.00     0.029 A 
ATOM     57  N   UNL A   1      46.286  27.557  30.860  1.00  0.00    -0.354 N 
ATOM     58  C   UNL A   1      50.018  25.311  27.165  1.00  0.00     0.074 A 
ATOM     59  C   UNL A   1      49.176  24.940  26.070  1.00  0.00     0.031 C 
ATOM     60  C   UNL A   1      47.859  28.830  31.251  1.00  0.00     0.029 A 
ATOM     61  C   UNL A   1      46.659  28.340  31.907  1.00  0.00     0.049 A 
ATOM     62  H   UNL A   1      45.339  27.288  30.842  1.00  0.00     0.167 HD
ATOM     63  C   UNL A   1      50.914  26.348  27.176  1.00  0.00     0.037 A 
ATOM     64  C   UNL A   1      46.299  27.921  33.179  1.00  0.00     0.037 A 
ATOM     65  C   UNL A   1      50.953  27.037  28.502  1.00  0.00     0.049 A 
ATOM     66  C   UNL A   1      47.514  27.089  33.499  1.00  0.00     0.074 A 
ATOM     67  C   UNL A   1      50.931  28.360  28.910  1.00  0.00     0.029 A 
ATOM     68  N   UNL A   1      50.769  26.304  29.692  1.00  0.00    -0.354 N 
ATOM     69  N   UNL A   1      48.252  26.543  32.558  1.00  0.00    -0.248 NA
ATOM     70  C   UNL A   1      48.172  27.142  34.792  1.00  0.00     0.031 C 
ATOM     71  C   UNL A   1      50.865  28.393  30.346  1.00  0.00     0.029 A 
ATOM     72  C   UNL A   1      50.659  27.097  30.820  1.00  0.00     0.049 A 
ATOM     73  H   UNL A   1      50.725  25.321  29.717  1.00  0.00     0.167 HD
ATOM     74  C   UNL A   1      49.542  26.562  32.983  1.00  0.00     0.074 A 
ATOM     75  C   UNL A   1      49.428  26.849  34.415  1.00  0.00     0.031 C 
ATOM     76  C   UNL A   1      50.639  26.491  32.163  1.00  0.00     0.037 A 
BRANCH  63  77
ATOM     77  C   UNL A   1      51.558  26.888  25.891  1.00  0.00     0.058 A 
ATOM     78  C   UNL A   1      52.916  26.614  25.647  1.00  0.00     0.135 A 
ATOM     79  C   UNL A   1      50.933  27.622  24.840  1.00  0.00     0.135 A 
ATOM     80  F   UNL A   1      53.670  25.965  26.543  1.00  0.00    -0.206 F 
ATOM     81  C   UNL A   1      53.566  26.961  24.463  1.00  0.00     0.059 A 
ATOM     82  C   UNL A   1      51.552  27.951  23.640  1.00  0.00     0.059 A 
ATOM     83  F   UNL A   1      49.687  28.096  24.885  1.00  0.00    -0.206 F 
ATOM     84  C   UNL A   1      52.865  27.590  23.447  1.00  0.00     0.060 A 
BRANCH  84  85
ATOM     85  S   UNL A   1      53.654  27.863  21.862  1.00  0.00     0.124 S 
ATOM     86  O   UNL A   1      54.268  26.564  21.607  1.00  0.00    -0.237 OA
ATOM     87  O   UNL A   1      52.516  28.214  21.021  1.00  0.00    -0.237 OA
ATOM     88  O   UNL A   1      54.590  28.953  22.130  1.00  0.00    -0.744 OA
ENDBRANCH  84  85
ENDBRANCH  63  77
BRANCH  64  89
ATOM     89  C   UNL A   1      44.810  27.602  33.604  1.00  0.00     0.058 A 
ATOM     90  C   UNL A   1      44.395  26.257  33.709  1.00  0.00     0.135 A 
ATOM     91  C   UNL A   1      43.844  28.499  34.131  1.00  0.00     0.135 A 
ATOM     92  F   UNL A   1      45.061  25.302  33.044  1.00  0.00    -0.206 F 
ATOM     93  C   UNL A   1      43.326  25.816  34.525  1.00  0.00     0.059 A 
ATOM     94  C   UNL A   1      42.803  28.079  35.032  1.00  0.00     0.059 A 
ATOM     95  F   UNL A   1      43.996  29.823  33.952  1.00  0.00    -0.206 F 
ATOM     96  C   UNL A   1      42.614  26.721  35.292  1.00  0.00     0.060 A 
BRANCH  96  97
ATOM     97  S   UNL A   1      41.501  26.063  36.591  1.00  0.00     0.124 S 
ATOM     98  O   UNL A   1      40.951  27.269  37.200  1.00  0.00    -0.237 OA
ATOM     99  O   UNL A   1      40.546  25.252  35.840  1.00  0.00    -0.237 OA
ATOM    100  O   UNL A   1      42.406  25.244  37.376  1.00  0.00    -0.744 OA
ENDBRANCH  96  97
ENDBRANCH  64  89
BRANCH  76 101
ATOM    101  C   UNL A   1      51.903  25.852  32.635  1.00  0.00     0.058 A 
ATOM    102  C   UNL A   1      52.922  26.548  33.300  1.00  0.00     0.135 A 
ATOM    103  C   UNL A   1      52.058  24.445  32.574  1.00  0.00     0.135 A 
ATOM    104  F   UNL A   1      52.815  27.837  33.647  1.00  0.00    -0.206 F 
ATOM    105  C   UNL A   1      54.087  25.927  33.699  1.00  0.00     0.059 A 
ATOM    106  C   UNL A   1      53.156  23.791  33.082  1.00  0.00     0.059 A 
ATOM    107  F   UNL A   1      51.139  23.624  32.052  1.00  0.00    -0.206 F 
ATOM    108  C   UNL A   1      54.191  24.549  33.587  1.00  0.00     0.060 A 
BRANCH 108 109
ATOM    109  S   UNL A   1      55.683  23.761  34.154  1.00  0.00     0.124 S 
ATOM    110  O   UNL A   1      56.494  24.921  34.511  1.00  0.00    -0.237 OA
ATOM    111  O   UNL A   1      55.194  22.956  35.268  1.00  0.00    -0.237 OA
ATOM    112  O   UNL A   1      56.133  23.008  32.988  1.00  0.00    -0.744 OA
ENDBRANCH 108 109
ENDBRANCH  76 101
ENDBRANCH  50  51
ENDBRANCH  43  45
ENDBRANCH  42  43
ENDBRANCH  41  42
ENDBRANCH  40  41
ENDBRANCH  39  40
ENDBRANCH  38  39
ENDBRANCH   1  38
TORSDOF 25
ENDMDL
MODEL 3
REMARK VINA RESULT:     -10.9      4.826      9.612
REMARK SMILES Cc1c(C(=O)Nc2ccc(C(=O)Nc3ccccc3C(=O)OCCOCCOCCOC(=O)c3ccc(-c4c5nc(c(-c6c(F)cc(S(=O)(=O)[O-])cc6F)c6ccc([nH]6)c(-c6c(F)cc(S(=O)(=O)[O-])cc6F)c6nc(c(-c7c(F)cc(S(=O)(=O)[O-])cc7F)c7ccc4[nH]7)C=C6)C=C5)cc3)cc2)cccc1[N+](=O)[O-]
REMARK SMILES IDX 26 1 25 2 24 3 23 4 22 5 20 6 21 7 19 8 14 9 15 10 16 11
REMARK SMILES IDX 18 12 17 13 13 14 11 15 12 16 10 18 7 19 8 20 101 21 9 22
REMARK SMILES IDX 100 23 6 24 4 25 5 26 3 28 1 29 2 30 105 31 102 32 104 33
REMARK SMILES IDX 103 34 106 35 107 36 108 37 27 38 28 39 29 40 30 41 31 42
REMARK SMILES IDX 32 43 33 44 34 45 35 46 99 47 36 48 98 49 37 50 38 51 39 52
REMARK SMILES IDX 92 53 40 54 97 55 91 56 93 57 41 58 96 59 90 60 89 61 42 63
REMARK SMILES IDX 76 64 55 65 75 66 56 67 59 68 74 69 94 70 57 71 58 72 73 74
REMARK SMILES IDX 95 75 60 76 43 77 44 78 53 79 45 80 46 81 52 82 54 83 47 84
REMARK SMILES IDX 48 85 49 86 50 87 51 88 77 89 78 90 87 91 79 92 80 93 86 94
REMARK SMILES IDX 88 95 81 96 82 97 83 98 84 99 85 100 61 101 62 102 71 103
REMARK SMILES IDX 63 104 64 105 70 106 72 107 65 108 66 109 67 110 68 111
REMARK SMILES IDX 69 112
REMARK H PARENT 13 17 6 27 93 62 59 73
REMARK Flexibility Score: inf
ROOT
ATOM      1  C   UNL A   1      42.277  28.112  31.178  1.00  0.00     0.188 C 
ENDROOT
BRANCH   1   2
ATOM      2  O   UNL A   1      42.542  29.200  32.022  1.00  0.00    -0.376 OA
BRANCH   2   3
ATOM      3  C   UNL A   1      41.479  29.681  32.789  1.00  0.00     0.202 C 
BRANCH   3   4
ATOM      4  C   UNL A   1      40.073  30.016  32.219  1.00  0.00     0.261 C 
BRANCH   4   5
ATOM      5  O   UNL A   1      39.499  31.225  31.068  1.00  0.00    -0.460 OA
BRANCH   5   6
ATOM      6  C   UNL A   1      38.414  32.421  30.796  1.00  0.00     0.340 C 
ATOM      7  O   UNL A   1      38.448  32.738  29.607  1.00  0.00    -0.246 OA
BRANCH   6   8
ATOM      8  C   UNL A   1      37.123  33.048  31.415  1.00  0.00     0.083 A 
ATOM      9  C   UNL A   1      36.044  32.165  31.299  1.00  0.00     0.056 A 
ATOM     10  C   UNL A   1      34.758  32.522  31.799  1.00  0.00     0.027 A 
ATOM     11  C   UNL A   1      34.563  33.657  32.597  1.00  0.00     0.002 A 
ATOM     12  C   UNL A   1      36.826  34.288  32.063  1.00  0.00     0.018 A 
ATOM     13  C   UNL A   1      35.612  34.542  32.746  1.00  0.00     0.001 A 
BRANCH   9  14
ATOM     14  N   UNL A   1      36.210  30.805  30.896  1.00  0.00    -0.321 N 
ATOM     15  C   UNL A   1      36.080  30.089  29.638  1.00  0.00     0.255 C 
ATOM     16  O   UNL A   1      36.974  29.238  29.605  1.00  0.00    -0.269 OA
ATOM     17  H   UNL A   1      36.472  30.217  31.641  1.00  0.00     0.170 HD
BRANCH  15  18
ATOM     18  C   UNL A   1      35.307  30.571  28.226  1.00  0.00     0.040 A 
ATOM     19  C   UNL A   1      32.652  28.820  26.028  1.00  0.00     0.041 A 
ATOM     20  C   UNL A   1      34.278  28.234  26.138  1.00  0.00     0.027 A 
ATOM     21  C   UNL A   1      32.408  30.362  26.819  1.00  0.00     0.027 A 
ATOM     22  C   UNL A   1      35.581  29.295  27.248  1.00  0.00     0.016 A 
ATOM     23  C   UNL A   1      33.748  31.233  27.854  1.00  0.00     0.016 A 
BRANCH  19  24
ATOM     24  N   UNL A   1      31.483  28.123  25.766  1.00  0.00    -0.322 N 
ATOM     25  C   UNL A   1      31.274  26.786  25.487  1.00  0.00     0.256 C 
ATOM     26  O   UNL A   1      30.131  26.356  25.668  1.00  0.00    -0.269 OA
ATOM     27  H   UNL A   1      30.666  28.672  25.782  1.00  0.00     0.170 HD
BRANCH  25  28
ATOM     28  C   UNL A   1      32.280  25.833  24.924  1.00  0.00     0.049 A 
ATOM     29  C   UNL A   1      32.002  24.008  26.601  1.00  0.00     0.053 C 
ATOM     30  C   UNL A   1      32.774  24.654  25.512  1.00  0.00     0.039 A 
ATOM     31  C   UNL A   1      33.829  23.947  24.883  1.00  0.00     0.273 A 
ATOM     32  C   UNL A   1      32.531  26.008  23.562  1.00  0.00     0.014 A 
ATOM     33  C   UNL A   1      34.141  24.210  23.557  1.00  0.00     0.086 A 
ATOM     34  C   UNL A   1      33.413  25.174  22.874  1.00  0.00     0.008 A 
BRANCH  31  35
ATOM     35  N   UNL A   1      34.698  22.962  25.564  1.00  0.00     0.063 N 
ATOM     36  O   UNL A   1      34.757  21.833  25.046  1.00  0.00    -0.258 OA
ATOM     37  O   UNL A   1      35.298  23.289  26.590  1.00  0.00    -0.258 OA
ENDBRANCH  31  35
ENDBRANCH  25  28
ENDBRANCH  19  24
ENDBRANCH  15  18
ENDBRANCH   9  14
ENDBRANCH   6   8
ENDBRANCH   5   6
ENDBRANCH   4   5
ENDBRANCH   3   4
ENDBRANCH   2   3
ENDBRANCH   1   2
BRANCH   1  38
ATOM     38  C   UNL A   1      41.741  28.321  29.779  1.00  0.00     0.188 C 
BRANCH  38  39
ATOM     39  O   UNL A   1      40.547  27.845  29.206  1.00  0.00    -0.376 OA
BRANCH  39  40
ATOM     40  C   UNL A   1      40.065  28.833  28.226  1.00  0.00     0.202 C 
BRANCH  40  41
ATOM     41  C   UNL A   1      40.692  28.803  26.640  1.00  0.00     0.261 C 
BRANCH  41  42
ATOM     42  O   UNL A   1      41.559  27.567  25.724  1.00  0.00    -0.460 OA
BRANCH  42  43
ATOM     43  C   UNL A   1      42.533  26.270  25.757  1.00  0.00     0.338 C 
ATOM     44  O   UNL A   1      42.825  25.911  24.622  1.00  0.00    -0.246 OA
BRANCH  43  45
ATOM     45  C   UNL A   1      43.085  25.365  27.356  1.00  0.00     0.060 A 
ATOM     46  C   UNL A   1      42.087  24.368  28.578  1.00  0.00     0.016 A 
ATOM     47  C   UNL A   1      44.922  25.758  28.116  1.00  0.00     0.016 A 
ATOM     48  C   UNL A   1      42.916  24.022  30.239  1.00  0.00     0.010 A 
ATOM     49  C   UNL A   1      45.551  25.216  29.606  1.00  0.00     0.010 A 
ATOM     50  C   UNL A   1      44.568  24.727  30.724  1.00  0.00    -0.014 A 
BRANCH  50  51
ATOM     51  C   UNL A   1      45.379  25.915  31.931  1.00  0.00     0.031 A 
ATOM     52  C   UNL A   1      45.044  25.242  33.190  1.00  0.00     0.074 A 
ATOM     53  C   UNL A   1      46.286  27.207  32.060  1.00  0.00     0.049 A 
ATOM     54  N   UNL A   1      44.486  25.833  34.197  1.00  0.00    -0.248 NA
ATOM     55  C   UNL A   1      44.936  23.761  33.245  1.00  0.00     0.031 C 
ATOM     56  C   UNL A   1      47.397  27.634  32.986  1.00  0.00     0.029 A 
ATOM     57  N   UNL A   1      46.770  28.276  31.124  1.00  0.00    -0.354 N 
ATOM     58  C   UNL A   1      44.586  24.849  35.139  1.00  0.00     0.074 A 
ATOM     59  C   UNL A   1      44.264  23.674  34.392  1.00  0.00     0.031 C 
ATOM     60  C   UNL A   1      48.005  28.846  32.673  1.00  0.00     0.029 A 
ATOM     61  C   UNL A   1      47.513  29.377  31.413  1.00  0.00     0.049 A 
ATOM     62  H   UNL A   1      46.516  28.165  30.180  1.00  0.00     0.167 HD
ATOM     63  C   UNL A   1      45.608  24.974  36.044  1.00  0.00     0.037 A 
ATOM     64  C   UNL A   1      47.059  30.598  30.938  1.00  0.00     0.037 A 
ATOM     65  C   UNL A   1      46.254  26.320  35.974  1.00  0.00     0.049 A 
ATOM     66  C   UNL A   1      46.198  30.996  32.109  1.00  0.00     0.074 A 
ATOM     67  C   UNL A   1      47.563  26.769  35.934  1.00  0.00     0.029 A 
ATOM     68  N   UNL A   1      45.486  27.465  35.677  1.00  0.00    -0.354 N 
ATOM     69  N   UNL A   1      45.671  30.105  32.919  1.00  0.00    -0.248 NA
ATOM     70  C   UNL A   1      46.199  32.343  32.651  1.00  0.00     0.031 C 
ATOM     71  C   UNL A   1      47.550  28.194  35.741  1.00  0.00     0.029 A 
ATOM     72  C   UNL A   1      46.243  28.604  35.478  1.00  0.00     0.049 A 
ATOM     73  H   UNL A   1      44.503  27.452  35.618  1.00  0.00     0.167 HD
ATOM     74  C   UNL A   1      45.656  30.641  34.167  1.00  0.00     0.074 A 
ATOM     75  C   UNL A   1      45.899  32.067  33.931  1.00  0.00     0.031 C 
ATOM     76  C   UNL A   1      45.595  29.919  35.331  1.00  0.00     0.037 A 
BRANCH  63  77
ATOM     77  C   UNL A   1      46.179  23.769  36.806  1.00  0.00     0.058 A 
ATOM     78  C   UNL A   1      45.691  23.490  38.095  1.00  0.00     0.135 A 
ATOM     79  C   UNL A   1      47.145  22.824  36.350  1.00  0.00     0.135 A 
ATOM     80  F   UNL A   1      44.804  24.293  38.696  1.00  0.00    -0.206 F 
ATOM     81  C   UNL A   1      46.060  22.360  38.825  1.00  0.00     0.059 A 
ATOM     82  C   UNL A   1      47.504  21.675  37.047  1.00  0.00     0.059 A 
ATOM     83  F   UNL A   1      47.832  22.931  35.212  1.00  0.00    -0.206 F 
ATOM     84  C   UNL A   1      46.933  21.436  38.274  1.00  0.00     0.060 A 
BRANCH  84  85
ATOM     85  S   UNL A   1      47.255  19.899  39.137  1.00  0.00     0.124 S 
ATOM     86  O   UNL A   1      47.478  20.364  40.502  1.00  0.00    -0.237 OA
ATOM     87  O   UNL A   1      46.019  19.163  38.901  1.00  0.00    -0.237 OA
ATOM     88  O   UNL A   1      48.435  19.367  38.459  1.00  0.00    -0.744 OA
ENDBRANCH  84  85
ENDBRANCH  63  77
BRANCH  64  89
ATOM     89  C   UNL A   1      46.749  30.880  29.412  1.00  0.00     0.058 A 
ATOM     90  C   UNL A   1      45.408  30.925  28.977  1.00  0.00     0.135 A 
ATOM     91  C   UNL A   1      47.649  31.330  28.410  1.00  0.00     0.135 A 
ATOM     92  F   UNL A   1      44.455  30.309  29.692  1.00  0.00    -0.206 F 
ATOM     93  C   UNL A   1      44.966  31.633  27.833  1.00  0.00     0.059 A 
ATOM     94  C   UNL A   1      47.227  32.125  27.287  1.00  0.00     0.059 A 
ATOM     95  F   UNL A   1      48.973  31.187  28.591  1.00  0.00    -0.206 F 
ATOM     96  C   UNL A   1      45.868  32.345  27.063  1.00  0.00     0.060 A 
BRANCH  96  97
ATOM     97  S   UNL A   1      45.203  33.527  25.829  1.00  0.00     0.124 S 
ATOM     98  O   UNL A   1      46.384  34.275  25.415  1.00  0.00    -0.237 OA
ATOM     99  O   UNL A   1      44.623  32.658  24.807  1.00  0.00    -0.237 OA
ATOM    100  O   UNL A   1      44.180  34.217  26.594  1.00  0.00    -0.744 OA
ENDBRANCH  96  97
ENDBRANCH  64  89
BRANCH  76 101
ATOM    101  C   UNL A   1      44.921  30.479  36.541  1.00  0.00     0.058 A 
ATOM    102  C   UNL A   1      45.608  30.873  37.698  1.00  0.00     0.135 A 
ATOM    103  C   UNL A   1      43.540  30.794  36.507  1.00  0.00     0.135 A 
ATOM    104  F   UNL A   1      46.943  30.862  37.790  1.00  0.00    -0.206 F 
ATOM    105  C   UNL A   1      44.947  31.363  38.804  1.00  0.00     0.059 A 
ATOM    106  C   UNL A   1      42.887  31.402  37.554  1.00  0.00     0.059 A 
ATOM    107  F   UNL A   1      42.757  30.566  35.446  1.00  0.00    -0.206 F 
ATOM    108  C   UNL A   1      43.588  31.625  38.719  1.00  0.00     0.060 A 
BRANCH 108 109
ATOM    109  S   UNL A   1      42.763  32.304  40.144  1.00  0.00     0.124 S 
ATOM    110  O   UNL A   1      41.387  31.887  39.895  1.00  0.00    -0.237 OA
ATOM    111  O   UNL A   1      43.448  31.625  41.239  1.00  0.00    -0.237 OA
ATOM    112  O   UNL A   1      43.022  33.735  40.036  1.00  0.00    -0.744 OA
ENDBRANCH 108 109
ENDBRANCH  76 101
ENDBRANCH  50  51
ENDBRANCH  43  45
ENDBRANCH  42  43
ENDBRANCH  41  42
ENDBRANCH  40  41
ENDBRANCH  39  40
ENDBRANCH  38  39
ENDBRANCH   1  38
TORSDOF 25
ENDMDL
