MODEL 1
REMARK VINA RESULT:     -10.0      0.000      0.000
REMARK SMILES CCN(CC)S(=O)(=O)c1cccc(C(=O)N2C[C@H](O)C[C@H]2C(=O)OCCOCCOCCOC(=O)c2ccc(-c3c4nc(c(-c5c(F)cc(S(=O)(=O)[O-])cc5F)c5ccc([nH]5)c(-c5c(F)cc(S(=O)(=O)[O-])cc5F)c5nc(c(-c6c(F)cc(S(=O)(=O)[O-])cc6F)c6ccc3[nH]6)C=C5)C=C4)cc2)c1
REMARK SMILES IDX 28 1 27 2 26 3 25 4 24 5 22 6 23 7 21 8 16 9 17 10 18 11
REMARK SMILES IDX 20 12 14 13 15 14 13 15 9 16 10 17 102 18 11 19 12 20 6 21
REMARK SMILES IDX 7 22 8 23 3 24 2 25 1 26 4 27 5 28 19 29 29 31 30 32 31 33
REMARK SMILES IDX 32 34 33 35 34 36 35 37 36 38 37 39 101 40 38 41 100 42
REMARK SMILES IDX 39 43 40 44 41 45 94 46 42 47 99 48 93 49 95 50 43 51 98 52
REMARK SMILES IDX 92 53 91 54 44 56 78 57 57 58 77 59 58 60 61 61 76 62 96 63
REMARK SMILES IDX 59 64 60 65 75 67 97 68 62 69 45 70 46 71 55 72 47 73 48 74
REMARK SMILES IDX 54 75 56 76 49 77 50 78 51 79 52 80 53 81 79 82 80 83 89 84
REMARK SMILES IDX 81 85 82 86 88 87 90 88 83 89 84 90 85 91 86 92 87 93 63 94
REMARK SMILES IDX 64 95 73 96 65 97 66 98 72 99 74 100 67 101 68 102 69 103
REMARK SMILES IDX 70 104 71 105
REMARK H PARENT 19 30 95 55 61 66
REMARK Flexibility Score: inf
ROOT
ATOM      1  C   UNL A   1      41.607  20.719  26.378  1.00  0.00     0.188 C 
ENDROOT
BRANCH   1   2
ATOM      2  O   UNL A   1      40.187  20.759  26.336  1.00  0.00    -0.376 OA
BRANCH   2   3
ATOM      3  C   UNL A   1      39.524  21.970  25.992  1.00  0.00     0.202 C 
BRANCH   3   4
ATOM      4  C   UNL A   1      37.985  21.972  25.917  1.00  0.00     0.261 C 
BRANCH   4   5
ATOM      5  O   UNL A   1      37.379  21.373  24.740  1.00  0.00    -0.462 OA
BRANCH   5   6
ATOM      6  C   UNL A   1      36.691  20.225  24.955  1.00  0.00     0.329 C 
ATOM      7  O   UNL A   1      37.220  19.113  24.944  1.00  0.00    -0.250 OA
BRANCH   6   8
ATOM      8  C   UNL A   1      35.166  20.351  25.273  1.00  0.00     0.198 C 
ATOM      9  N   UNL A   1      34.136  21.332  24.828  1.00  0.00    -0.322 N 
ATOM     10  C   UNL A   1      33.053  20.688  24.109  1.00  0.00     0.152 C 
ATOM     11  C   UNL A   1      33.117  19.238  24.561  1.00  0.00     0.136 C 
ATOM     12  C   UNL A   1      34.602  19.006  24.745  1.00  0.00     0.071 C 
BRANCH   9  13
ATOM     13  C   UNL A   1      34.082  22.684  25.100  1.00  0.00     0.254 C 
ATOM     14  O   UNL A   1      34.957  23.217  25.779  1.00  0.00    -0.269 OA
BRANCH  13  15
ATOM     15  C   UNL A   1      32.993  23.557  24.523  1.00  0.00     0.041 A 
ATOM     16  C   UNL A   1      32.030  25.117  22.931  1.00  0.00     0.083 A 
ATOM     17  C   UNL A   1      30.839  25.193  23.656  1.00  0.00     0.022 A 
ATOM     18  C   UNL A   1      33.075  24.251  23.313  1.00  0.00     0.035 A 
ATOM     19  C   UNL A   1      30.752  24.516  24.862  1.00  0.00     0.002 A 
ATOM     20  C   UNL A   1      31.835  23.742  25.304  1.00  0.00     0.014 A 
BRANCH  16  21
ATOM     21  S   UNL A   1      32.280  26.240  21.568  1.00  0.00     0.243 S 
ATOM     22  O   UNL A   1      31.186  26.083  20.634  1.00  0.00    -0.207 OA
ATOM     23  O   UNL A   1      33.648  26.062  21.142  1.00  0.00    -0.207 OA
BRANCH  21  24
ATOM     24  N   UNL A   1      32.130  27.774  22.338  1.00  0.00    -0.198 NA
BRANCH  24  25
ATOM     25  C   UNL A   1      30.739  28.232  22.621  1.00  0.00     0.099 C 
ATOM     26  C   UNL A   1      30.650  29.105  23.859  1.00  0.00     0.022 C 
ENDBRANCH  24  25
BRANCH  24  27
ATOM     27  C   UNL A   1      33.052  28.077  23.481  1.00  0.00     0.099 C 
ATOM     28  C   UNL A   1      34.242  28.951  23.120  1.00  0.00     0.022 C 
ENDBRANCH  24  27
ENDBRANCH  21  24
ENDBRANCH  16  21
ENDBRANCH  13  15
ENDBRANCH   9  13
BRANCH  11  29
ATOM     29  O   UNL A   1      32.422  19.036  25.785  1.00  0.00    -0.391 OA
ATOM     30  H   UNL A   1      31.498  19.310  25.681  1.00  0.00     0.211 HD
ENDBRANCH  11  29
ENDBRANCH   6   8
ENDBRANCH   5   6
ENDBRANCH   4   5
ENDBRANCH   3   4
ENDBRANCH   2   3
ENDBRANCH   1   2
BRANCH   1  31
ATOM     31  C   UNL A   1      42.401  22.026  26.332  1.00  0.00     0.188 C 
BRANCH  31  32
ATOM     32  O   UNL A   1      43.066  22.343  27.535  1.00  0.00    -0.376 OA
BRANCH  32  33
ATOM     33  C   UNL A   1      44.311  23.004  27.407  1.00  0.00     0.202 C 
BRANCH  33  34
ATOM     34  C   UNL A   1      44.361  23.909  26.171  1.00  0.00     0.261 C 
BRANCH  34  35
ATOM     35  O   UNL A   1      44.145  25.309  26.447  1.00  0.00    -0.460 OA
BRANCH  35  36
ATOM     36  C   UNL A   1      42.955  25.827  26.058  1.00  0.00     0.338 C 
ATOM     37  O   UNL A   1      42.337  25.554  25.046  1.00  0.00    -0.246 OA
BRANCH  36  38
ATOM     38  C   UNL A   1      42.416  26.643  27.172  1.00  0.00     0.060 A 
ATOM     39  C   UNL A   1      42.979  27.896  27.454  1.00  0.00     0.016 A 
ATOM     40  C   UNL A   1      41.371  26.157  27.954  1.00  0.00     0.016 A 
ATOM     41  C   UNL A   1      42.533  28.653  28.537  1.00  0.00     0.010 A 
ATOM     42  C   UNL A   1      40.931  26.910  29.049  1.00  0.00     0.010 A 
ATOM     43  C   UNL A   1      41.528  28.145  29.365  1.00  0.00    -0.014 A 
BRANCH  43  44
ATOM     44  C   UNL A   1      41.203  28.814  30.649  1.00  0.00     0.031 A 
ATOM     45  C   UNL A   1      40.036  29.763  30.681  1.00  0.00     0.074 A 
ATOM     46  C   UNL A   1      41.941  28.605  31.754  1.00  0.00     0.049 A 
ATOM     47  N   UNL A   1      39.662  30.584  31.625  1.00  0.00    -0.248 NA
ATOM     48  C   UNL A   1      39.182  29.797  29.481  1.00  0.00     0.031 C 
ATOM     49  C   UNL A   1      43.063  27.674  31.860  1.00  0.00     0.029 A 
ATOM     50  N   UNL A   1      41.874  29.193  32.994  1.00  0.00    -0.354 N 
ATOM     51  C   UNL A   1      38.556  31.261  31.122  1.00  0.00     0.074 A 
ATOM     52  C   UNL A   1      38.320  30.756  29.788  1.00  0.00     0.031 C 
ATOM     53  C   UNL A   1      43.605  27.782  33.087  1.00  0.00     0.029 A 
ATOM     54  C   UNL A   1      42.897  28.821  33.834  1.00  0.00     0.049 A 
ATOM     55  H   UNL A   1      41.161  29.820  33.256  1.00  0.00     0.167 HD
ATOM     56  C   UNL A   1      37.812  32.219  31.720  1.00  0.00     0.037 A 
ATOM     57  C   UNL A   1      43.251  29.299  35.045  1.00  0.00     0.037 A 
ATOM     58  C   UNL A   1      38.040  32.695  33.060  1.00  0.00     0.049 A 
ATOM     59  C   UNL A   1      42.431  30.401  35.671  1.00  0.00     0.074 A 
ATOM     60  C   UNL A   1      37.308  33.629  33.773  1.00  0.00     0.029 A 
ATOM     61  N   UNL A   1      39.078  32.285  33.884  1.00  0.00    -0.354 N 
ATOM     62  N   UNL A   1      41.369  31.013  35.199  1.00  0.00    -0.248 NA
ATOM     63  C   UNL A   1      42.854  30.880  36.996  1.00  0.00     0.031 C 
ATOM     64  C   UNL A   1      37.941  33.832  35.002  1.00  0.00     0.029 A 
ATOM     65  C   UNL A   1      39.025  32.972  35.085  1.00  0.00     0.049 A 
ATOM     66  H   UNL A   1      39.751  31.606  33.650  1.00  0.00     0.167 HD
ATOM     67  C   UNL A   1      40.981  31.920  36.182  1.00  0.00     0.074 A 
ATOM     68  C   UNL A   1      41.913  31.769  37.279  1.00  0.00     0.031 C 
ATOM     69  C   UNL A   1      39.948  32.798  36.178  1.00  0.00     0.037 A 
BRANCH  56  70
ATOM     70  C   UNL A   1      36.702  32.854  30.932  1.00  0.00     0.058 A 
ATOM     71  C   UNL A   1      35.350  32.597  31.204  1.00  0.00     0.135 A 
ATOM     72  C   UNL A   1      37.002  33.808  29.943  1.00  0.00     0.135 A 
ATOM     73  F   UNL A   1      35.008  31.679  32.121  1.00  0.00    -0.206 F 
ATOM     74  C   UNL A   1      34.334  33.263  30.525  1.00  0.00     0.059 A 
ATOM     75  C   UNL A   1      36.003  34.505  29.273  1.00  0.00     0.059 A 
ATOM     76  F   UNL A   1      38.279  34.085  29.638  1.00  0.00    -0.206 F 
ATOM     77  C   UNL A   1      34.671  34.223  29.569  1.00  0.00     0.060 A 
BRANCH  77  78
ATOM     78  S   UNL A   1      33.340  35.115  28.738  1.00  0.00     0.124 S 
ATOM     79  O   UNL A   1      34.086  36.119  27.984  1.00  0.00    -0.237 OA
ATOM     80  O   UNL A   1      32.712  34.065  27.943  1.00  0.00    -0.237 OA
ATOM     81  O   UNL A   1      32.535  35.632  29.840  1.00  0.00    -0.744 OA
ENDBRANCH  77  78
ENDBRANCH  56  70
BRANCH  57  82
ATOM     82  C   UNL A   1      44.469  28.784  35.732  1.00  0.00     0.058 A 
ATOM     83  C   UNL A   1      44.409  27.679  36.595  1.00  0.00     0.135 A 
ATOM     84  C   UNL A   1      45.713  29.418  35.575  1.00  0.00     0.135 A 
ATOM     85  F   UNL A   1      43.244  27.045  36.791  1.00  0.00    -0.206 F 
ATOM     86  C   UNL A   1      45.526  27.243  37.303  1.00  0.00     0.059 A 
ATOM     87  C   UNL A   1      46.851  28.980  36.244  1.00  0.00     0.059 A 
ATOM     88  F   UNL A   1      45.831  30.474  34.755  1.00  0.00    -0.206 F 
ATOM     89  C   UNL A   1      46.743  27.903  37.122  1.00  0.00     0.060 A 
BRANCH  89  90
ATOM     90  S   UNL A   1      48.187  27.325  38.039  1.00  0.00     0.124 S 
ATOM     91  O   UNL A   1      47.920  25.895  38.136  1.00  0.00    -0.237 OA
ATOM     92  O   UNL A   1      49.284  27.711  37.157  1.00  0.00    -0.237 OA
ATOM     93  O   UNL A   1      48.109  28.068  39.293  1.00  0.00    -0.744 OA
ENDBRANCH  89  90
ENDBRANCH  57  82
BRANCH  69  94
ATOM     94  C   UNL A   1      39.727  33.629  37.414  1.00  0.00     0.058 A 
ATOM     95  C   UNL A   1      40.373  34.859  37.611  1.00  0.00     0.135 A 
ATOM     96  C   UNL A   1      38.804  33.212  38.389  1.00  0.00     0.135 A 
ATOM     97  F   UNL A   1      41.268  35.304  36.715  1.00  0.00    -0.206 F 
ATOM     98  C   UNL A   1      40.133  35.633  38.743  1.00  0.00     0.059 A 
ATOM     99  C   UNL A   1      38.523  33.986  39.511  1.00  0.00     0.059 A 
ATOM    100  F   UNL A   1      38.147  32.050  38.245  1.00  0.00    -0.206 F 
ATOM    101  C   UNL A   1      39.202  35.190  39.685  1.00  0.00     0.060 A 
BRANCH 101 102
ATOM    102  S   UNL A   1      38.875  36.222  41.130  1.00  0.00     0.124 S 
ATOM    103  O   UNL A   1      38.592  37.513  40.512  1.00  0.00    -0.237 OA
ATOM    104  O   UNL A   1      37.735  35.548  41.744  1.00  0.00    -0.237 OA
ATOM    105  O   UNL A   1      40.121  36.150  41.889  1.00  0.00    -0.744 OA
ENDBRANCH 101 102
ENDBRANCH  69  94
ENDBRANCH  43  44
ENDBRANCH  36  38
ENDBRANCH  35  36
ENDBRANCH  34  35
ENDBRANCH  33  34
ENDBRANCH  32  33
ENDBRANCH  31  32
ENDBRANCH   1  31
TORSDOF 27
ENDMDL
MODEL 2
REMARK VINA RESULT:      -8.9      1.633      2.258
REMARK SMILES CCN(CC)S(=O)(=O)c1cccc(C(=O)N2C[C@H](O)C[C@H]2C(=O)OCCOCCOCCOC(=O)c2ccc(-c3c4nc(c(-c5c(F)cc(S(=O)(=O)[O-])cc5F)c5ccc([nH]5)c(-c5c(F)cc(S(=O)(=O)[O-])cc5F)c5nc(c(-c6c(F)cc(S(=O)(=O)[O-])cc6F)c6ccc3[nH]6)C=C5)C=C4)cc2)c1
REMARK SMILES IDX 28 1 27 2 26 3 25 4 24 5 22 6 23 7 21 8 16 9 17 10 18 11
REMARK SMILES IDX 20 12 14 13 15 14 13 15 9 16 10 17 102 18 11 19 12 20 6 21
REMARK SMILES IDX 7 22 8 23 3 24 2 25 1 26 4 27 5 28 19 29 29 31 30 32 31 33
REMARK SMILES IDX 32 34 33 35 34 36 35 37 36 38 37 39 101 40 38 41 100 42
REMARK SMILES IDX 39 43 40 44 41 45 94 46 42 47 99 48 93 49 95 50 43 51 98 52
REMARK SMILES IDX 92 53 91 54 44 56 78 57 57 58 77 59 58 60 61 61 76 62 96 63
REMARK SMILES IDX 59 64 60 65 75 67 97 68 62 69 45 70 46 71 55 72 47 73 48 74
REMARK SMILES IDX 54 75 56 76 49 77 50 78 51 79 52 80 53 81 79 82 80 83 89 84
REMARK SMILES IDX 81 85 82 86 88 87 90 88 83 89 84 90 85 91 86 92 87 93 63 94
REMARK SMILES IDX 64 95 73 96 65 97 66 98 72 99 74 100 67 101 68 102 69 103
REMARK SMILES IDX 70 104 71 105
REMARK H PARENT 19 30 95 55 61 66
REMARK Flexibility Score: inf
ROOT
ATOM      1  C   UNL A   1      40.571  22.185  26.432  1.00  0.00     0.188 C 
ENDROOT
BRANCH   1   2
ATOM      2  O   UNL A   1      39.192  22.441  26.206  1.00  0.00    -0.376 OA
BRANCH   2   3
ATOM      3  C   UNL A   1      38.706  23.778  26.239  1.00  0.00     0.202 C 
BRANCH   3   4
ATOM      4  C   UNL A   1      37.185  24.011  26.174  1.00  0.00     0.261 C 
BRANCH   4   5
ATOM      5  O   UNL A   1      36.558  23.925  24.866  1.00  0.00    -0.462 OA
BRANCH   5   6
ATOM      6  C   UNL A   1      35.920  22.760  24.597  1.00  0.00     0.329 C 
ATOM      7  O   UNL A   1      36.392  21.891  23.863  1.00  0.00    -0.250 OA
BRANCH   6   8
ATOM      8  C   UNL A   1      34.546  22.515  25.299  1.00  0.00     0.198 C 
ATOM      9  N   UNL A   1      33.198  22.182  24.757  1.00  0.00    -0.322 N 
ATOM     10  C   UNL A   1      32.708  20.915  25.266  1.00  0.00     0.152 C 
ATOM     11  C   UNL A   1      33.500  20.698  26.545  1.00  0.00     0.136 C 
ATOM     12  C   UNL A   1      34.850  21.300  26.214  1.00  0.00     0.071 C 
BRANCH   9  13
ATOM     13  C   UNL A   1      32.398  22.962  23.945  1.00  0.00     0.254 C 
ATOM     14  O   UNL A   1      31.970  22.516  22.883  1.00  0.00    -0.269 OA
BRANCH  13  15
ATOM     15  C   UNL A   1      31.972  24.348  24.365  1.00  0.00     0.041 A 
ATOM     16  C   UNL A   1      31.326  26.661  24.002  1.00  0.00     0.083 A 
ATOM     17  C   UNL A   1      31.263  26.907  25.375  1.00  0.00     0.022 A 
ATOM     18  C   UNL A   1      31.603  25.375  23.493  1.00  0.00     0.035 A 
ATOM     19  C   UNL A   1      31.637  25.898  26.248  1.00  0.00     0.002 A 
ATOM     20  C   UNL A   1      32.025  24.649  25.741  1.00  0.00     0.014 A 
BRANCH  16  21
ATOM     21  S   UNL A   1      31.180  28.035  22.875  1.00  0.00     0.243 S 
ATOM     22  O   UNL A   1      30.720  27.536  21.596  1.00  0.00    -0.207 OA
ATOM     23  O   UNL A   1      32.414  28.777  22.978  1.00  0.00    -0.207 OA
BRANCH  21  24
ATOM     24  N   UNL A   1      29.913  28.953  23.594  1.00  0.00    -0.198 NA
BRANCH  24  25
ATOM     25  C   UNL A   1      30.242  30.367  23.939  1.00  0.00     0.099 C 
ATOM     26  C   UNL A   1      30.965  30.493  25.267  1.00  0.00     0.022 C 
ENDBRANCH  24  25
BRANCH  24  27
ATOM     27  C   UNL A   1      28.541  28.837  23.002  1.00  0.00     0.099 C 
ATOM     28  C   UNL A   1      28.179  29.939  22.019  1.00  0.00     0.022 C 
ENDBRANCH  24  27
ENDBRANCH  21  24
ENDBRANCH  16  21
ENDBRANCH  13  15
ENDBRANCH   9  13
BRANCH  11  29
ATOM     29  O   UNL A   1      32.910  21.369  27.652  1.00  0.00    -0.391 OA
ATOM     30  H   UNL A   1      33.558  21.974  28.045  1.00  0.00     0.211 HD
ENDBRANCH  11  29
ENDBRANCH   6   8
ENDBRANCH   5   6
ENDBRANCH   4   5
ENDBRANCH   3   4
ENDBRANCH   2   3
ENDBRANCH   1   2
BRANCH   1  31
ATOM     31  C   UNL A   1      41.481  23.319  26.911  1.00  0.00     0.188 C 
BRANCH  31  32
ATOM     32  O   UNL A   1      42.051  23.106  28.184  1.00  0.00    -0.376 OA
BRANCH  32  33
ATOM     33  C   UNL A   1      43.413  22.723  28.204  1.00  0.00     0.202 C 
BRANCH  33  34
ATOM     34  C   UNL A   1      44.244  23.488  27.167  1.00  0.00     0.261 C 
BRANCH  34  35
ATOM     35  O   UNL A   1      44.708  24.781  27.611  1.00  0.00    -0.460 OA
BRANCH  35  36
ATOM     36  C   UNL A   1      44.183  25.861  26.984  1.00  0.00     0.338 C 
ATOM     37  O   UNL A   1      44.078  26.027  25.782  1.00  0.00    -0.246 OA
BRANCH  36  38
ATOM     38  C   UNL A   1      43.564  26.737  28.006  1.00  0.00     0.060 A 
ATOM     39  C   UNL A   1      43.764  28.125  27.949  1.00  0.00     0.016 A 
ATOM     40  C   UNL A   1      42.807  26.186  29.036  1.00  0.00     0.016 A 
ATOM     41  C   UNL A   1      43.247  28.963  28.936  1.00  0.00     0.010 A 
ATOM     42  C   UNL A   1      42.297  27.025  30.034  1.00  0.00     0.010 A 
ATOM     43  C   UNL A   1      42.540  28.412  30.007  1.00  0.00    -0.014 A 
BRANCH  43  44
ATOM     44  C   UNL A   1      42.186  29.245  31.183  1.00  0.00     0.031 A 
ATOM     45  C   UNL A   1      40.945  30.092  31.108  1.00  0.00     0.074 A 
ATOM     46  C   UNL A   1      42.962  29.269  32.282  1.00  0.00     0.049 A 
ATOM     47  N   UNL A   1      40.523  31.017  31.926  1.00  0.00    -0.248 NA
ATOM     48  C   UNL A   1      40.067  29.870  29.945  1.00  0.00     0.031 C 
ATOM     49  C   UNL A   1      44.160  28.458  32.493  1.00  0.00     0.029 A 
ATOM     50  N   UNL A   1      42.871  30.036  33.418  1.00  0.00    -0.354 N 
ATOM     51  C   UNL A   1      39.356  31.518  31.362  1.00  0.00     0.074 A 
ATOM     52  C   UNL A   1      39.134  30.794  30.130  1.00  0.00     0.031 C 
ATOM     53  C   UNL A   1      44.716  28.798  33.669  1.00  0.00     0.029 A 
ATOM     54  C   UNL A   1      43.939  29.882  34.271  1.00  0.00     0.049 A 
ATOM     55  H   UNL A   1      42.114  30.638  33.605  1.00  0.00     0.167 HD
ATOM     56  C   UNL A   1      38.547  32.496  31.830  1.00  0.00     0.037 A 
ATOM     57  C   UNL A   1      44.277  30.569  35.382  1.00  0.00     0.037 A 
ATOM     58  C   UNL A   1      38.761  33.191  33.072  1.00  0.00     0.049 A 
ATOM     59  C   UNL A   1      43.380  31.687  35.858  1.00  0.00     0.074 A 
ATOM     60  C   UNL A   1      37.969  34.164  33.658  1.00  0.00     0.029 A 
ATOM     61  N   UNL A   1      39.846  32.999  33.915  1.00  0.00    -0.354 N 
ATOM     62  N   UNL A   1      42.262  32.132  35.333  1.00  0.00    -0.248 NA
ATOM     63  C   UNL A   1      43.790  32.398  37.079  1.00  0.00     0.031 C 
ATOM     64  C   UNL A   1      38.608  34.606  34.819  1.00  0.00     0.029 A 
ATOM     65  C   UNL A   1      39.761  33.858  34.997  1.00  0.00     0.049 A 
ATOM     66  H   UNL A   1      40.569  32.346  33.766  1.00  0.00     0.167 HD
ATOM     67  C   UNL A   1      41.821  33.147  36.178  1.00  0.00     0.074 A 
ATOM     68  C   UNL A   1      42.784  33.243  37.253  1.00  0.00     0.031 C 
ATOM     69  C   UNL A   1      40.718  33.930  36.073  1.00  0.00     0.037 A 
BRANCH  56  70
ATOM     70  C   UNL A   1      37.371  32.911  30.991  1.00  0.00     0.058 A 
ATOM     71  C   UNL A   1      37.517  33.695  29.836  1.00  0.00     0.135 A 
ATOM     72  C   UNL A   1      36.086  32.436  31.304  1.00  0.00     0.135 A 
ATOM     73  F   UNL A   1      38.717  34.194  29.504  1.00  0.00    -0.206 F 
ATOM     74  C   UNL A   1      36.429  33.993  29.021  1.00  0.00     0.059 A 
ATOM     75  C   UNL A   1      34.990  32.698  30.488  1.00  0.00     0.059 A 
ATOM     76  F   UNL A   1      35.891  31.689  32.402  1.00  0.00    -0.206 F 
ATOM     77  C   UNL A   1      35.172  33.481  29.350  1.00  0.00     0.060 A 
BRANCH  77  78
ATOM     78  S   UNL A   1      33.784  33.833  28.251  1.00  0.00     0.124 S 
ATOM     79  O   UNL A   1      32.814  34.407  29.179  1.00  0.00    -0.237 OA
ATOM     80  O   UNL A   1      34.374  34.765  27.295  1.00  0.00    -0.237 OA
ATOM     81  O   UNL A   1      33.434  32.523  27.712  1.00  0.00    -0.744 OA
ENDBRANCH  77  78
ENDBRANCH  56  70
BRANCH  57  82
ATOM     82  C   UNL A   1      45.548  30.266  36.099  1.00  0.00     0.058 A 
ATOM     83  C   UNL A   1      45.591  29.329  37.143  1.00  0.00     0.135 A 
ATOM     84  C   UNL A   1      46.737  30.942  35.785  1.00  0.00     0.135 A 
ATOM     85  F   UNL A   1      44.480  28.663  37.493  1.00  0.00    -0.206 F 
ATOM     86  C   UNL A   1      46.755  29.099  37.871  1.00  0.00     0.059 A 
ATOM     87  C   UNL A   1      47.922  30.706  36.474  1.00  0.00     0.059 A 
ATOM     88  F   UNL A   1      46.756  31.843  34.789  1.00  0.00    -0.206 F 
ATOM     89  C   UNL A   1      47.916  29.796  37.530  1.00  0.00     0.060 A 
BRANCH  89  90
ATOM     90  S   UNL A   1      49.423  29.486  38.475  1.00  0.00     0.124 S 
ATOM     91  O   UNL A   1      50.452  29.919  37.537  1.00  0.00    -0.237 OA
ATOM     92  O   UNL A   1      49.230  30.334  39.647  1.00  0.00    -0.237 OA
ATOM     93  O   UNL A   1      49.369  28.050  38.733  1.00  0.00    -0.744 OA
ENDBRANCH  89  90
ENDBRANCH  57  82
BRANCH  69  94
ATOM     94  C   UNL A   1      40.454  34.923  37.173  1.00  0.00     0.058 A 
ATOM     95  C   UNL A   1      41.099  36.168  37.225  1.00  0.00     0.135 A 
ATOM     96  C   UNL A   1      39.491  34.645  38.159  1.00  0.00     0.135 A 
ATOM     97  F   UNL A   1      42.031  36.484  36.311  1.00  0.00    -0.206 F 
ATOM     98  C   UNL A   1      40.820  37.091  38.229  1.00  0.00     0.059 A 
ATOM     99  C   UNL A   1      39.171  35.566  39.152  1.00  0.00     0.059 A 
ATOM    100  F   UNL A   1      38.832  33.474  38.150  1.00  0.00    -0.206 F 
ATOM    101  C   UNL A   1      39.850  36.782  39.185  1.00  0.00     0.060 A 
BRANCH 101 102
ATOM    102  S   UNL A   1      39.473  38.003  40.460  1.00  0.00     0.124 S 
ATOM    103  O   UNL A   1      39.515  37.189  41.670  1.00  0.00    -0.237 OA
ATOM    104  O   UNL A   1      40.561  38.964  40.304  1.00  0.00    -0.237 OA
ATOM    105  O   UNL A   1      38.151  38.495  40.081  1.00  0.00    -0.744 OA
ENDBRANCH 101 102
ENDBRANCH  69  94
ENDBRANCH  43  44
ENDBRANCH  36  38
ENDBRANCH  35  36
ENDBRANCH  34  35
ENDBRANCH  33  34
ENDBRANCH  32  33
ENDBRANCH  31  32
ENDBRANCH   1  31
TORSDOF 27
ENDMDL
MODEL 3
REMARK VINA RESULT:      -8.2      6.044     14.323
REMARK SMILES CCN(CC)S(=O)(=O)c1cccc(C(=O)N2C[C@H](O)C[C@H]2C(=O)OCCOCCOCCOC(=O)c2ccc(-c3c4nc(c(-c5c(F)cc(S(=O)(=O)[O-])cc5F)c5ccc([nH]5)c(-c5c(F)cc(S(=O)(=O)[O-])cc5F)c5nc(c(-c6c(F)cc(S(=O)(=O)[O-])cc6F)c6ccc3[nH]6)C=C5)C=C4)cc2)c1
REMARK SMILES IDX 28 1 27 2 26 3 25 4 24 5 22 6 23 7 21 8 16 9 17 10 18 11
REMARK SMILES IDX 20 12 14 13 15 14 13 15 9 16 10 17 102 18 11 19 12 20 6 21
REMARK SMILES IDX 7 22 8 23 3 24 2 25 1 26 4 27 5 28 19 29 29 31 30 32 31 33
REMARK SMILES IDX 32 34 33 35 34 36 35 37 36 38 37 39 101 40 38 41 100 42
REMARK SMILES IDX 39 43 40 44 41 45 94 46 42 47 99 48 93 49 95 50 43 51 98 52
REMARK SMILES IDX 92 53 91 54 44 56 78 57 57 58 77 59 58 60 61 61 76 62 96 63
REMARK SMILES IDX 59 64 60 65 75 67 97 68 62 69 45 70 46 71 55 72 47 73 48 74
REMARK SMILES IDX 54 75 56 76 49 77 50 78 51 79 52 80 53 81 79 82 80 83 89 84
REMARK SMILES IDX 81 85 82 86 88 87 90 88 83 89 84 90 85 91 86 92 87 93 63 94
REMARK SMILES IDX 64 95 73 96 65 97 66 98 72 99 74 100 67 101 68 102 69 103
REMARK SMILES IDX 70 104 71 105
REMARK H PARENT 19 30 95 55 61 66
REMARK Flexibility Score: inf
ROOT
ATOM      1  C   UNL A   1      36.952  32.529  34.218  1.00  0.00     0.188 C 
ENDROOT
BRANCH   1   2
ATOM      2  O   UNL A   1      38.177  33.247  34.245  1.00  0.00    -0.376 OA
BRANCH   2   3
ATOM      3  C   UNL A   1      38.192  34.604  34.670  1.00  0.00     0.202 C 
BRANCH   3   4
ATOM      4  C   UNL A   1      39.465  35.152  35.343  1.00  0.00     0.261 C 
BRANCH   4   5
ATOM      5  O   UNL A   1      40.144  34.279  36.285  1.00  0.00    -0.462 OA
BRANCH   5   6
ATOM      6  C   UNL A   1      41.489  34.196  36.142  1.00  0.00     0.329 C 
ATOM      7  O   UNL A   1      42.281  34.674  36.956  1.00  0.00    -0.250 OA
BRANCH   6   8
ATOM      8  C   UNL A   1      42.034  33.414  34.903  1.00  0.00     0.198 C 
ATOM      9  N   UNL A   1      41.436  32.334  34.069  1.00  0.00    -0.322 N 
ATOM     10  C   UNL A   1      41.309  32.732  32.680  1.00  0.00     0.152 C 
ATOM     11  C   UNL A   1      42.318  33.858  32.523  1.00  0.00     0.136 C 
ATOM     12  C   UNL A   1      42.268  34.547  33.871  1.00  0.00     0.071 C 
BRANCH   9  13
ATOM     13  C   UNL A   1      41.102  31.052  34.458  1.00  0.00     0.254 C 
ATOM     14  O   UNL A   1      40.064  30.841  35.081  1.00  0.00    -0.269 OA
BRANCH  13  15
ATOM     15  C   UNL A   1      41.960  29.870  34.074  1.00  0.00     0.041 A 
ATOM     16  C   UNL A   1      43.848  28.765  33.020  1.00  0.00     0.083 A 
ATOM     17  C   UNL A   1      43.380  27.504  33.395  1.00  0.00     0.022 A 
ATOM     18  C   UNL A   1      43.191  29.948  33.417  1.00  0.00     0.035 A 
ATOM     19  C   UNL A   1      42.155  27.416  34.038  1.00  0.00     0.002 A 
ATOM     20  C   UNL A   1      41.440  28.585  34.334  1.00  0.00     0.014 A 
BRANCH  16  21
ATOM     21  S   UNL A   1      45.236  28.870  31.905  1.00  0.00     0.243 S 
ATOM     22  O   UNL A   1      45.486  30.265  31.609  1.00  0.00    -0.207 OA
ATOM     23  O   UNL A   1      44.978  27.924  30.845  1.00  0.00    -0.207 OA
BRANCH  21  24
ATOM     24  N   UNL A   1      46.525  28.277  32.882  1.00  0.00    -0.198 NA
BRANCH  24  25
ATOM     25  C   UNL A   1      46.617  28.843  34.259  1.00  0.00     0.099 C 
ATOM     26  C   UNL A   1      46.770  27.773  35.324  1.00  0.00     0.022 C 
ENDBRANCH  24  25
BRANCH  24  27
ATOM     27  C   UNL A   1      46.785  26.800  32.877  1.00  0.00     0.099 C 
ATOM     28  C   UNL A   1      48.200  26.408  32.483  1.00  0.00     0.022 C 
ENDBRANCH  24  27
ENDBRANCH  21  24
ENDBRANCH  16  21
ENDBRANCH  13  15
ENDBRANCH   9  13
BRANCH  11  29
ATOM     29  O   UNL A   1      43.625  33.363  32.260  1.00  0.00    -0.391 OA
ATOM     30  H   UNL A   1      44.180  33.483  33.047  1.00  0.00     0.211 HD
ENDBRANCH  11  29
ENDBRANCH   6   8
ENDBRANCH   5   6
ENDBRANCH   4   5
ENDBRANCH   3   4
ENDBRANCH   2   3
ENDBRANCH   1   2
BRANCH   1  31
ATOM     31  C   UNL A   1      35.658  33.256  33.846  1.00  0.00     0.188 C 
BRANCH  31  32
ATOM     32  O   UNL A   1      35.494  33.478  32.462  1.00  0.00    -0.376 OA
BRANCH  32  33
ATOM     33  C   UNL A   1      34.562  32.645  31.800  1.00  0.00     0.202 C 
BRANCH  33  34
ATOM     34  C   UNL A   1      35.200  31.862  30.647  1.00  0.00     0.261 C 
BRANCH  34  35
ATOM     35  O   UNL A   1      36.624  31.665  30.776  1.00  0.00    -0.460 OA
BRANCH  35  36
ATOM     36  C   UNL A   1      37.044  30.392  30.975  1.00  0.00     0.338 C 
ATOM     37  O   UNL A   1      36.366  29.449  31.339  1.00  0.00    -0.246 OA
BRANCH  36  38
ATOM     38  C   UNL A   1      38.437  30.279  30.482  1.00  0.00     0.060 A 
ATOM     39  C   UNL A   1      38.760  30.731  29.194  1.00  0.00     0.016 A 
ATOM     40  C   UNL A   1      39.419  29.702  31.283  1.00  0.00     0.016 A 
ATOM     41  C   UNL A   1      40.048  30.576  28.683  1.00  0.00     0.010 A 
ATOM     42  C   UNL A   1      40.709  29.534  30.767  1.00  0.00     0.010 A 
ATOM     43  C   UNL A   1      41.023  29.940  29.456  1.00  0.00    -0.014 A 
BRANCH  43  44
ATOM     44  C   UNL A   1      42.323  29.552  28.855  1.00  0.00     0.031 A 
ATOM     45  C   UNL A   1      42.488  28.139  28.366  1.00  0.00     0.074 A 
ATOM     46  C   UNL A   1      43.343  30.426  28.770  1.00  0.00     0.049 A 
ATOM     47  N   UNL A   1      43.567  27.523  27.963  1.00  0.00    -0.248 NA
ATOM     48  C   UNL A   1      41.272  27.307  28.337  1.00  0.00     0.031 C 
ATOM     49  C   UNL A   1      43.290  31.833  29.164  1.00  0.00     0.029 A 
ATOM     50  N   UNL A   1      44.638  30.244  28.350  1.00  0.00    -0.354 N 
ATOM     51  C   UNL A   1      43.172  26.222  27.671  1.00  0.00     0.074 A 
ATOM     52  C   UNL A   1      41.754  26.136  27.944  1.00  0.00     0.031 C 
ATOM     53  C   UNL A   1      44.509  32.377  29.005  1.00  0.00     0.029 A 
ATOM     54  C   UNL A   1      45.438  31.346  28.543  1.00  0.00     0.049 A 
ATOM     55  H   UNL A   1      44.964  29.404  27.951  1.00  0.00     0.167 HD
ATOM     56  C   UNL A   1      43.927  25.194  27.222  1.00  0.00     0.037 A 
ATOM     57  C   UNL A   1      46.773  31.491  28.408  1.00  0.00     0.037 A 
ATOM     58  C   UNL A   1      45.333  25.298  26.928  1.00  0.00     0.049 A 
ATOM     59  C   UNL A   1      47.600  30.315  27.949  1.00  0.00     0.074 A 
ATOM     60  C   UNL A   1      46.176  24.325  26.419  1.00  0.00     0.029 A 
ATOM     61  N   UNL A   1      46.105  26.434  27.122  1.00  0.00    -0.354 N 
ATOM     62  N   UNL A   1      47.212  29.098  27.647  1.00  0.00    -0.248 NA
ATOM     63  C   UNL A   1      49.048  30.530  27.810  1.00  0.00     0.031 C 
ATOM     64  C   UNL A   1      47.469  24.851  26.368  1.00  0.00     0.029 A 
ATOM     65  C   UNL A   1      47.420  26.174  26.776  1.00  0.00     0.049 A 
ATOM     66  H   UNL A   1      45.767  27.296  27.455  1.00  0.00     0.167 HD
ATOM     67  C   UNL A   1      48.361  28.417  27.251  1.00  0.00     0.074 A 
ATOM     68  C   UNL A   1      49.455  29.360  27.340  1.00  0.00     0.031 C 
ATOM     69  C   UNL A   1      48.498  27.129  26.850  1.00  0.00     0.037 A 
BRANCH  56  70
ATOM     70  C   UNL A   1      43.275  23.852  27.051  1.00  0.00     0.058 A 
ATOM     71  C   UNL A   1      42.909  23.054  28.146  1.00  0.00     0.135 A 
ATOM     72  C   UNL A   1      42.930  23.400  25.766  1.00  0.00     0.135 A 
ATOM     73  F   UNL A   1      43.234  23.426  29.393  1.00  0.00    -0.206 F 
ATOM     74  C   UNL A   1      42.223  21.855  27.972  1.00  0.00     0.059 A 
ATOM     75  C   UNL A   1      42.220  22.220  25.570  1.00  0.00     0.059 A 
ATOM     76  F   UNL A   1      43.264  24.121  24.684  1.00  0.00    -0.206 F 
ATOM     77  C   UNL A   1      41.874  21.452  26.681  1.00  0.00     0.060 A 
BRANCH  77  78
ATOM     78  S   UNL A   1      40.938  19.923  26.480  1.00  0.00     0.124 S 
ATOM     79  O   UNL A   1      39.638  20.429  26.049  1.00  0.00    -0.237 OA
ATOM     80  O   UNL A   1      41.711  19.218  25.462  1.00  0.00    -0.237 OA
ATOM     81  O   UNL A   1      40.967  19.326  27.811  1.00  0.00    -0.744 OA
ENDBRANCH  77  78
ENDBRANCH  56  70
BRANCH  57  82
ATOM     82  C   UNL A   1      47.430  32.782  28.762  1.00  0.00     0.058 A 
ATOM     83  C   UNL A   1      47.912  33.025  30.058  1.00  0.00     0.135 A 
ATOM     84  C   UNL A   1      47.547  33.817  27.822  1.00  0.00     0.135 A 
ATOM     85  F   UNL A   1      47.813  32.074  30.999  1.00  0.00    -0.206 F 
ATOM     86  C   UNL A   1      48.452  34.256  30.417  1.00  0.00     0.059 A 
ATOM     87  C   UNL A   1      48.114  35.045  28.146  1.00  0.00     0.059 A 
ATOM     88  F   UNL A   1      47.111  33.638  26.564  1.00  0.00    -0.206 F 
ATOM     89  C   UNL A   1      48.546  35.262  29.454  1.00  0.00     0.060 A 
BRANCH  89  90
ATOM     90  S   UNL A   1      49.256  36.854  29.927  1.00  0.00     0.124 S 
ATOM     91  O   UNL A   1      50.389  36.437  30.746  1.00  0.00    -0.237 OA
ATOM     92  O   UNL A   1      49.585  37.440  28.632  1.00  0.00    -0.237 OA
ATOM     93  O   UNL A   1      48.166  37.507  30.646  1.00  0.00    -0.744 OA
ENDBRANCH  89  90
ENDBRANCH  57  82
BRANCH  69  94
ATOM     94  C   UNL A   1      49.866  26.668  26.421  1.00  0.00     0.058 A 
ATOM     95  C   UNL A   1      50.369  26.920  25.136  1.00  0.00     0.135 A 
ATOM     96  C   UNL A   1      50.710  26.018  27.338  1.00  0.00     0.135 A 
ATOM     97  F   UNL A   1      49.604  27.535  24.220  1.00  0.00    -0.206 F 
ATOM     98  C   UNL A   1      51.649  26.519  24.765  1.00  0.00     0.059 A 
ATOM     99  C   UNL A   1      52.006  25.639  26.999  1.00  0.00     0.059 A 
ATOM    100  F   UNL A   1      50.286  25.763  28.586  1.00  0.00    -0.206 F 
ATOM    101  C   UNL A   1      52.462  25.883  25.705  1.00  0.00     0.060 A 
BRANCH 101 102
ATOM    102  S   UNL A   1      54.133  25.401  25.220  1.00  0.00     0.124 S 
ATOM    103  O   UNL A   1      54.110  23.964  25.473  1.00  0.00    -0.237 OA
ATOM    104  O   UNL A   1      54.177  25.798  23.816  1.00  0.00    -0.237 OA
ATOM    105  O   UNL A   1      54.985  26.182  26.112  1.00  0.00    -0.744 OA
ENDBRANCH 101 102
ENDBRANCH  69  94
ENDBRANCH  43  44
ENDBRANCH  36  38
ENDBRANCH  35  36
ENDBRANCH  34  35
ENDBRANCH  33  34
ENDBRANCH  32  33
ENDBRANCH  31  32
ENDBRANCH   1  31
TORSDOF 27
ENDMDL
