MODEL 1
REMARK VINA RESULT:      -9.7      0.000      0.000
REMARK SMILES CCC[C@H](Nc1cc(C)c(N)c(C(=O)OCCOCCOCCOC(=O)c2ccc(-c3c4nc(c(-c5c(F)cc(S(=O)(=O)[O-])cc5F)c5ccc([nH]5)c(-c5c(F)cc(S(=O)(=O)[O-])cc5F)c5nc(c(-c6c(F)cc(S(=O)(=O)[O-])cc6F)c6ccc3[nH]6)C=C5)C=C4)cc2)c1)c1cccs1
REMARK SMILES IDX 19 1 18 2 17 3 16 4 15 5 13 6 14 7 12 8 6 9 7 10 93 11 8 12
REMARK SMILES IDX 9 13 10 14 5 15 4 17 3 18 2 19 1 20 94 21 95 22 98 23 96 24
REMARK SMILES IDX 97 25 11 26 20 29 21 30 22 31 23 32 24 33 25 34 26 35 27 36
REMARK SMILES IDX 28 37 92 38 29 39 91 40 30 41 31 42 32 43 85 44 33 45 90 46
REMARK SMILES IDX 84 47 86 48 34 49 89 50 83 51 82 52 35 54 69 55 48 56 68 57
REMARK SMILES IDX 49 58 52 59 67 60 87 61 50 62 51 63 66 65 88 66 53 67 36 68
REMARK SMILES IDX 37 69 46 70 38 71 39 72 45 73 47 74 40 75 41 76 42 77 43 78
REMARK SMILES IDX 44 79 70 80 71 81 80 82 72 83 73 84 79 85 81 86 74 87 75 88
REMARK SMILES IDX 76 89 77 90 78 91 54 92 55 93 64 94 56 95 57 96 63 97 65 98
REMARK SMILES IDX 58 99 59 100 60 101 61 102 62 103
REMARK H PARENT 5 16 11 27 11 28 86 53 52 64
REMARK Flexibility Score: inf
ROOT
ATOM      1  C   UNL A   1      32.832  29.209  27.100  1.00  0.00     0.188 C 
ENDROOT
BRANCH   1   2
ATOM      2  O   UNL A   1      32.869  28.434  25.919  1.00  0.00    -0.376 OA
BRANCH   2   3
ATOM      3  C   UNL A   1      32.864  29.106  24.673  1.00  0.00     0.202 C 
BRANCH   3   4
ATOM      4  C   UNL A   1      32.212  28.478  23.426  1.00  0.00     0.261 C 
BRANCH   4   5
ATOM      5  O   UNL A   1      32.157  27.048  23.360  1.00  0.00    -0.460 OA
BRANCH   5   6
ATOM      6  C   UNL A   1      30.978  26.451  23.689  1.00  0.00     0.340 C 
ATOM      7  O   UNL A   1      29.880  26.780  23.311  1.00  0.00    -0.246 OA
BRANCH   6   8
ATOM      8  C   UNL A   1      31.290  25.213  24.459  1.00  0.00     0.085 A 
ATOM      9  C   UNL A   1      32.758  23.273  24.793  1.00  0.00     0.036 A 
ATOM     10  C   UNL A   1      31.800  22.794  25.684  1.00  0.00     0.031 A 
ATOM     11  C   UNL A   1      32.454  24.481  24.151  1.00  0.00     0.043 A 
ATOM     12  C   UNL A   1      30.667  23.542  26.071  1.00  0.00    -0.025 A 
ATOM     13  C   UNL A   1      29.789  22.982  27.161  1.00  0.00     0.047 C 
ATOM     14  C   UNL A   1      30.406  24.783  25.467  1.00  0.00     0.049 A 
BRANCH   9  15
ATOM     15  N   UNL A   1      33.955  22.652  24.508  1.00  0.00    -0.377 N 
ATOM     16  H   UNL A   1      34.295  22.829  23.601  1.00  0.00     0.161 HD
BRANCH  15  17
ATOM     17  C   UNL A   1      34.814  21.771  25.314  1.00  0.00     0.119 C 
BRANCH  17  18
ATOM     18  C   UNL A   1      34.915  20.376  24.627  1.00  0.00     0.030 C 
BRANCH  18  19
ATOM     19  C   UNL A   1      33.787  19.377  24.921  1.00  0.00    -0.001 C 
ATOM     20  C   UNL A   1      32.581  19.465  24.000  1.00  0.00     0.004 C 
ENDBRANCH  18  19
ENDBRANCH  17  18
BRANCH  17  21
ATOM     21  C   UNL A   1      36.221  22.252  25.637  1.00  0.00     0.027 A 
ATOM     22  C   UNL A   1      36.593  23.488  26.139  1.00  0.00     0.017 A 
ATOM     23  S   UNL A   1      37.597  21.249  25.384  1.00  0.00    -0.147 S 
ATOM     24  C   UNL A   1      38.007  23.651  26.193  1.00  0.00     0.012 A 
ATOM     25  C   UNL A   1      38.672  22.521  25.775  1.00  0.00     0.065 A 
ENDBRANCH  17  21
ENDBRANCH  15  17
ENDBRANCH   9  15
BRANCH  14  26
ATOM     26  N   UNL A   1      29.210  25.454  25.730  1.00  0.00    -0.398 N 
ATOM     27  H   UNL A   1      28.432  24.958  26.072  1.00  0.00     0.156 HD
ATOM     28  H   UNL A   1      29.145  26.423  25.572  1.00  0.00     0.156 HD
ENDBRANCH  14  26
ENDBRANCH   6   8
ENDBRANCH   5   6
ENDBRANCH   4   5
ENDBRANCH   3   4
ENDBRANCH   2   3
ENDBRANCH   1   2
BRANCH   1  29
ATOM     29  C   UNL A   1      32.357  30.656  26.852  1.00  0.00     0.188 C 
BRANCH  29  30
ATOM     30  O   UNL A   1      33.123  31.755  27.342  1.00  0.00    -0.376 OA
BRANCH  30  31
ATOM     31  C   UNL A   1      34.422  31.525  27.870  1.00  0.00     0.202 C 
BRANCH  31  32
ATOM     32  C   UNL A   1      34.956  32.404  29.012  1.00  0.00     0.261 C 
BRANCH  32  33
ATOM     33  O   UNL A   1      36.365  32.312  29.269  1.00  0.00    -0.460 OA
BRANCH  33  34
ATOM     34  C   UNL A   1      36.711  31.480  30.283  1.00  0.00     0.338 C 
ATOM     35  O   UNL A   1      36.120  31.316  31.336  1.00  0.00    -0.246 OA
BRANCH  34  36
ATOM     36  C   UNL A   1      37.857  30.639  29.879  1.00  0.00     0.060 A 
ATOM     37  C   UNL A   1      38.873  30.419  30.815  1.00  0.00     0.016 A 
ATOM     38  C   UNL A   1      37.981  30.155  28.573  1.00  0.00     0.016 A 
ATOM     39  C   UNL A   1      40.039  29.752  30.441  1.00  0.00     0.010 A 
ATOM     40  C   UNL A   1      39.160  29.502  28.194  1.00  0.00     0.010 A 
ATOM     41  C   UNL A   1      40.210  29.336  29.118  1.00  0.00    -0.014 A 
BRANCH  41  42
ATOM     42  C   UNL A   1      41.563  28.921  28.667  1.00  0.00     0.031 A 
ATOM     43  C   UNL A   1      42.665  29.946  28.653  1.00  0.00     0.074 A 
ATOM     44  C   UNL A   1      41.827  27.641  28.343  1.00  0.00     0.049 A 
ATOM     45  N   UNL A   1      43.928  29.807  28.339  1.00  0.00    -0.248 NA
ATOM     46  C   UNL A   1      42.293  31.315  29.048  1.00  0.00     0.031 C 
ATOM     47  C   UNL A   1      40.855  26.548  28.350  1.00  0.00     0.029 A 
ATOM     48  N   UNL A   1      42.999  27.048  27.946  1.00  0.00    -0.354 N 
ATOM     49  C   UNL A   1      44.499  31.064  28.501  1.00  0.00     0.074 A 
ATOM     50  C   UNL A   1      43.438  31.963  28.902  1.00  0.00     0.031 C 
ATOM     51  C   UNL A   1      41.473  25.416  27.969  1.00  0.00     0.029 A 
ATOM     52  C   UNL A   1      42.876  25.707  27.676  1.00  0.00     0.049 A 
ATOM     53  H   UNL A   1      43.849  27.537  27.864  1.00  0.00     0.167 HD
ATOM     54  C   UNL A   1      45.793  31.437  28.345  1.00  0.00     0.037 A 
ATOM     55  C   UNL A   1      43.791  24.819  27.236  1.00  0.00     0.037 A 
ATOM     56  C   UNL A   1      46.847  30.545  27.939  1.00  0.00     0.049 A 
ATOM     57  C   UNL A   1      45.213  25.268  27.016  1.00  0.00     0.074 A 
ATOM     58  C   UNL A   1      48.190  30.825  27.753  1.00  0.00     0.029 A 
ATOM     59  N   UNL A   1      46.677  29.198  27.650  1.00  0.00    -0.354 N 
ATOM     60  N   UNL A   1      45.744  26.456  27.194  1.00  0.00    -0.248 NA
ATOM     61  C   UNL A   1      46.166  24.251  26.549  1.00  0.00     0.031 C 
ATOM     62  C   UNL A   1      48.824  29.657  27.310  1.00  0.00     0.029 A 
ATOM     63  C   UNL A   1      47.887  28.638  27.274  1.00  0.00     0.049 A 
ATOM     64  H   UNL A   1      45.823  28.713  27.704  1.00  0.00     0.167 HD
ATOM     65  C   UNL A   1      47.098  26.317  26.897  1.00  0.00     0.074 A 
ATOM     66  C   UNL A   1      47.304  24.929  26.537  1.00  0.00     0.031 C 
ATOM     67  C   UNL A   1      48.082  27.251  26.926  1.00  0.00     0.037 A 
BRANCH  54  68
ATOM     68  C   UNL A   1      46.131  32.881  28.595  1.00  0.00     0.058 A 
ATOM     69  C   UNL A   1      46.531  33.338  29.862  1.00  0.00     0.135 A 
ATOM     70  C   UNL A   1      46.070  33.818  27.551  1.00  0.00     0.135 A 
ATOM     71  F   UNL A   1      46.589  32.488  30.900  1.00  0.00    -0.206 F 
ATOM     72  C   UNL A   1      46.831  34.677  30.091  1.00  0.00     0.059 A 
ATOM     73  C   UNL A   1      46.392  35.157  27.752  1.00  0.00     0.059 A 
ATOM     74  F   UNL A   1      45.691  33.437  26.322  1.00  0.00    -0.206 F 
ATOM     75  C   UNL A   1      46.757  35.579  29.029  1.00  0.00     0.060 A 
BRANCH  75  76
ATOM     76  S   UNL A   1      47.148  37.314  29.342  1.00  0.00     0.124 S 
ATOM     77  O   UNL A   1      45.861  37.954  29.081  1.00  0.00    -0.237 OA
ATOM     78  O   UNL A   1      47.572  37.293  30.737  1.00  0.00    -0.237 OA
ATOM     79  O   UNL A   1      48.200  37.605  28.374  1.00  0.00    -0.744 OA
ENDBRANCH  75  76
ENDBRANCH  54  68
BRANCH  55  80
ATOM     80  C   UNL A   1      43.396  23.408  26.980  1.00  0.00     0.058 A 
ATOM     81  C   UNL A   1      43.226  22.927  25.673  1.00  0.00     0.135 A 
ATOM     82  C   UNL A   1      43.167  22.515  28.038  1.00  0.00     0.135 A 
ATOM     83  F   UNL A   1      43.423  23.745  24.627  1.00  0.00    -0.206 F 
ATOM     84  C   UNL A   1      42.825  21.619  25.423  1.00  0.00     0.059 A 
ATOM     85  C   UNL A   1      42.791  21.195  27.814  1.00  0.00     0.059 A 
ATOM     86  F   UNL A   1      43.325  22.923  29.307  1.00  0.00    -0.206 F 
ATOM     87  C   UNL A   1      42.611  20.759  26.502  1.00  0.00     0.060 A 
BRANCH  87  88
ATOM     88  S   UNL A   1      42.132  19.050  26.165  1.00  0.00     0.124 S 
ATOM     89  O   UNL A   1      42.399  18.412  27.448  1.00  0.00    -0.237 OA
ATOM     90  O   UNL A   1      40.726  19.194  25.802  1.00  0.00    -0.237 OA
ATOM     91  O   UNL A   1      43.018  18.664  25.071  1.00  0.00    -0.744 OA
ENDBRANCH  87  88
ENDBRANCH  55  80
BRANCH  67  92
ATOM     92  C   UNL A   1      49.482  26.793  26.614  1.00  0.00     0.058 A 
ATOM     93  C   UNL A   1      50.352  26.320  27.609  1.00  0.00     0.135 A 
ATOM     94  C   UNL A   1      49.952  26.811  25.290  1.00  0.00     0.135 A 
ATOM     95  F   UNL A   1      49.955  26.281  28.891  1.00  0.00    -0.206 F 
ATOM     96  C   UNL A   1      51.653  25.925  27.310  1.00  0.00     0.059 A 
ATOM     97  C   UNL A   1      51.238  26.392  24.963  1.00  0.00     0.059 A 
ATOM     98  F   UNL A   1      49.158  27.237  24.296  1.00  0.00    -0.206 F 
ATOM     99  C   UNL A   1      52.089  25.970  25.985  1.00  0.00     0.060 A 
BRANCH  99 100
ATOM    100  S   UNL A   1      53.781  25.464  25.608  1.00  0.00     0.124 S 
ATOM    101  O   UNL A   1      53.555  24.291  24.770  1.00  0.00    -0.237 OA
ATOM    102  O   UNL A   1      54.316  26.638  24.925  1.00  0.00    -0.237 OA
ATOM    103  O   UNL A   1      54.356  25.196  26.923  1.00  0.00    -0.744 OA
ENDBRANCH  99 100
ENDBRANCH  67  92
ENDBRANCH  41  42
ENDBRANCH  34  36
ENDBRANCH  33  34
ENDBRANCH  32  33
ENDBRANCH  31  32
ENDBRANCH  30  31
ENDBRANCH  29  30
ENDBRANCH   1  29
TORSDOF 26
ENDMDL
MODEL 2
REMARK VINA RESULT:      -9.5      5.786      7.808
REMARK SMILES CCC[C@H](Nc1cc(C)c(N)c(C(=O)OCCOCCOCCOC(=O)c2ccc(-c3c4nc(c(-c5c(F)cc(S(=O)(=O)[O-])cc5F)c5ccc([nH]5)c(-c5c(F)cc(S(=O)(=O)[O-])cc5F)c5nc(c(-c6c(F)cc(S(=O)(=O)[O-])cc6F)c6ccc3[nH]6)C=C5)C=C4)cc2)c1)c1cccs1
REMARK SMILES IDX 19 1 18 2 17 3 16 4 15 5 13 6 14 7 12 8 6 9 7 10 93 11 8 12
REMARK SMILES IDX 9 13 10 14 5 15 4 17 3 18 2 19 1 20 94 21 95 22 98 23 96 24
REMARK SMILES IDX 97 25 11 26 20 29 21 30 22 31 23 32 24 33 25 34 26 35 27 36
REMARK SMILES IDX 28 37 92 38 29 39 91 40 30 41 31 42 32 43 85 44 33 45 90 46
REMARK SMILES IDX 84 47 86 48 34 49 89 50 83 51 82 52 35 54 69 55 48 56 68 57
REMARK SMILES IDX 49 58 52 59 67 60 87 61 50 62 51 63 66 65 88 66 53 67 36 68
REMARK SMILES IDX 37 69 46 70 38 71 39 72 45 73 47 74 40 75 41 76 42 77 43 78
REMARK SMILES IDX 44 79 70 80 71 81 80 82 72 83 73 84 79 85 81 86 74 87 75 88
REMARK SMILES IDX 76 89 77 90 78 91 54 92 55 93 64 94 56 95 57 96 63 97 65 98
REMARK SMILES IDX 58 99 59 100 60 101 61 102 62 103
REMARK H PARENT 5 16 11 27 11 28 86 53 52 64
REMARK Flexibility Score: inf
ROOT
ATOM      1  C   UNL A   1      33.523  28.578  25.768  1.00  0.00     0.188 C 
ENDROOT
BRANCH   1   2
ATOM      2  O   UNL A   1      34.173  28.161  24.584  1.00  0.00    -0.376 OA
BRANCH   2   3
ATOM      3  C   UNL A   1      33.951  28.902  23.399  1.00  0.00     0.202 C 
BRANCH   3   4
ATOM      4  C   UNL A   1      33.774  28.203  22.037  1.00  0.00     0.261 C 
BRANCH   4   5
ATOM      5  O   UNL A   1      34.031  26.794  21.981  1.00  0.00    -0.460 OA
BRANCH   5   6
ATOM      6  C   UNL A   1      32.958  25.967  21.849  1.00  0.00     0.340 C 
ATOM      7  O   UNL A   1      32.453  25.610  20.813  1.00  0.00    -0.246 OA
BRANCH   6   8
ATOM      8  C   UNL A   1      32.618  25.437  23.201  1.00  0.00     0.085 A 
ATOM      9  C   UNL A   1      33.183  23.938  25.062  1.00  0.00     0.036 A 
ATOM     10  C   UNL A   1      31.932  24.246  25.593  1.00  0.00     0.031 A 
ATOM     11  C   UNL A   1      33.489  24.522  23.824  1.00  0.00     0.043 A 
ATOM     12  C   UNL A   1      31.077  25.219  25.033  1.00  0.00    -0.025 A 
ATOM     13  C   UNL A   1      29.822  25.575  25.789  1.00  0.00     0.047 C 
ATOM     14  C   UNL A   1      31.423  25.846  23.825  1.00  0.00     0.049 A 
BRANCH   9  15
ATOM     15  N   UNL A   1      34.116  23.117  25.657  1.00  0.00    -0.377 N 
ATOM     16  H   UNL A   1      34.678  23.566  26.330  1.00  0.00     0.161 HD
BRANCH  15  17
ATOM     17  C   UNL A   1      34.425  21.691  25.467  1.00  0.00     0.119 C 
BRANCH  17  18
ATOM     18  C   UNL A   1      33.624  21.147  24.246  1.00  0.00     0.030 C 
BRANCH  18  19
ATOM     19  C   UNL A   1      32.521  20.122  24.543  1.00  0.00    -0.001 C 
ATOM     20  C   UNL A   1      32.866  18.678  24.218  1.00  0.00     0.004 C 
ENDBRANCH  18  19
ENDBRANCH  17  18
BRANCH  17  21
ATOM     21  C   UNL A   1      35.885  21.296  25.300  1.00  0.00     0.027 A 
ATOM     22  C   UNL A   1      36.385  20.052  24.952  1.00  0.00     0.017 A 
ATOM     23  S   UNL A   1      37.160  22.425  25.556  1.00  0.00    -0.147 S 
ATOM     24  C   UNL A   1      37.807  19.998  25.022  1.00  0.00     0.012 A 
ATOM     25  C   UNL A   1      38.352  21.211  25.375  1.00  0.00     0.065 A 
ENDBRANCH  17  21
ENDBRANCH  15  17
ENDBRANCH   9  15
BRANCH  14  26
ATOM     26  N   UNL A   1      30.514  26.691  23.187  1.00  0.00    -0.398 N 
ATOM     27  H   UNL A   1      29.582  26.402  23.053  1.00  0.00     0.156 HD
ATOM     28  H   UNL A   1      30.804  27.577  22.870  1.00  0.00     0.156 HD
ENDBRANCH  14  26
ENDBRANCH   6   8
ENDBRANCH   5   6
ENDBRANCH   4   5
ENDBRANCH   3   4
ENDBRANCH   2   3
ENDBRANCH   1   2
BRANCH   1  29
ATOM     29  C   UNL A   1      32.502  29.708  25.524  1.00  0.00     0.188 C 
BRANCH  29  30
ATOM     30  O   UNL A   1      32.053  30.514  26.612  1.00  0.00    -0.376 OA
BRANCH  30  31
ATOM     31  C   UNL A   1      31.400  31.748  26.348  1.00  0.00     0.202 C 
BRANCH  31  32
ATOM     32  C   UNL A   1      31.907  33.044  27.001  1.00  0.00     0.261 C 
BRANCH  32  33
ATOM     33  O   UNL A   1      32.980  32.894  27.943  1.00  0.00    -0.460 OA
BRANCH  33  34
ATOM     34  C   UNL A   1      33.457  34.052  28.461  1.00  0.00     0.338 C 
ATOM     35  O   UNL A   1      33.001  35.172  28.303  1.00  0.00    -0.246 OA
BRANCH  34  36
ATOM     36  C   UNL A   1      34.554  33.770  29.409  1.00  0.00     0.060 A 
ATOM     37  C   UNL A   1      35.842  34.201  29.073  1.00  0.00     0.016 A 
ATOM     38  C   UNL A   1      34.340  33.010  30.563  1.00  0.00     0.016 A 
ATOM     39  C   UNL A   1      36.931  33.839  29.864  1.00  0.00     0.010 A 
ATOM     40  C   UNL A   1      35.438  32.630  31.346  1.00  0.00     0.010 A 
ATOM     41  C   UNL A   1      36.742  33.010  30.974  1.00  0.00    -0.014 A 
BRANCH  41  42
ATOM     42  C   UNL A   1      37.929  32.383  31.609  1.00  0.00     0.031 A 
ATOM     43  C   UNL A   1      38.385  32.895  32.949  1.00  0.00     0.074 A 
ATOM     44  C   UNL A   1      38.549  31.332  31.042  1.00  0.00     0.049 A 
ATOM     45  N   UNL A   1      39.365  32.479  33.710  1.00  0.00    -0.248 NA
ATOM     46  C   UNL A   1      37.632  34.031  33.508  1.00  0.00     0.031 C 
ATOM     47  C   UNL A   1      38.181  30.720  29.764  1.00  0.00     0.029 A 
ATOM     48  N   UNL A   1      39.620  30.591  31.475  1.00  0.00    -0.354 N 
ATOM     49  C   UNL A   1      39.345  33.297  34.834  1.00  0.00     0.074 A 
ATOM     50  C   UNL A   1      38.282  34.259  34.639  1.00  0.00     0.031 C 
ATOM     51  C   UNL A   1      39.019  29.698  29.515  1.00  0.00     0.029 A 
ATOM     52  C   UNL A   1      39.990  29.594  30.605  1.00  0.00     0.049 A 
ATOM     53  H   UNL A   1      40.079  30.757  32.329  1.00  0.00     0.167 HD
ATOM     54  C   UNL A   1      40.130  33.245  35.938  1.00  0.00     0.037 A 
ATOM     55  C   UNL A   1      41.002  28.706  30.678  1.00  0.00     0.037 A 
ATOM     56  C   UNL A   1      41.192  32.292  36.129  1.00  0.00     0.049 A 
ATOM     57  C   UNL A   1      41.899  28.701  31.890  1.00  0.00     0.074 A 
ATOM     58  C   UNL A   1      42.044  32.156  37.212  1.00  0.00     0.029 A 
ATOM     59  N   UNL A   1      41.553  31.314  35.213  1.00  0.00    -0.354 N 
ATOM     60  N   UNL A   1      41.854  29.467  32.956  1.00  0.00    -0.248 NA
ATOM     61  C   UNL A   1      42.974  27.699  31.917  1.00  0.00     0.031 C 
ATOM     62  C   UNL A   1      42.948  31.124  36.932  1.00  0.00     0.029 A 
ATOM     63  C   UNL A   1      42.623  30.581  35.700  1.00  0.00     0.049 A 
ATOM     64  H   UNL A   1      41.113  31.164  34.346  1.00  0.00     0.167 HD
ATOM     65  C   UNL A   1      42.871  29.014  33.794  1.00  0.00     0.074 A 
ATOM     66  C   UNL A   1      43.506  27.904  33.114  1.00  0.00     0.031 C 
ATOM     67  C   UNL A   1      43.241  29.470  35.017  1.00  0.00     0.037 A 
BRANCH  54  68
ATOM     68  C   UNL A   1      39.878  34.265  37.014  1.00  0.00     0.058 A 
ATOM     69  C   UNL A   1      39.033  33.997  38.104  1.00  0.00     0.135 A 
ATOM     70  C   UNL A   1      40.502  35.522  36.964  1.00  0.00     0.135 A 
ATOM     71  F   UNL A   1      38.397  32.818  38.192  1.00  0.00    -0.206 F 
ATOM     72  C   UNL A   1      38.794  34.948  39.091  1.00  0.00     0.059 A 
ATOM     73  C   UNL A   1      40.298  36.479  37.954  1.00  0.00     0.059 A 
ATOM     74  F   UNL A   1      41.316  35.832  35.944  1.00  0.00    -0.206 F 
ATOM     75  C   UNL A   1      39.430  36.187  39.005  1.00  0.00     0.060 A 
BRANCH  75  76
ATOM     76  S   UNL A   1      39.109  37.413  40.292  1.00  0.00     0.124 S 
ATOM     77  O   UNL A   1      40.446  37.957  40.516  1.00  0.00    -0.237 OA
ATOM     78  O   UNL A   1      38.162  38.311  39.640  1.00  0.00    -0.237 OA
ATOM     79  O   UNL A   1      38.563  36.620  41.388  1.00  0.00    -0.744 OA
ENDBRANCH  75  76
ENDBRANCH  54  68
BRANCH  55  80
ATOM     80  C   UNL A   1      41.223  27.735  29.572  1.00  0.00     0.058 A 
ATOM     81  C   UNL A   1      40.357  26.648  29.378  1.00  0.00     0.135 A 
ATOM     82  C   UNL A   1      42.313  27.866  28.698  1.00  0.00     0.135 A 
ATOM     83  F   UNL A   1      39.308  26.473  30.195  1.00  0.00    -0.206 F 
ATOM     84  C   UNL A   1      40.574  25.715  28.369  1.00  0.00     0.059 A 
ATOM     85  C   UNL A   1      42.535  26.961  27.665  1.00  0.00     0.059 A 
ATOM     86  F   UNL A   1      43.165  28.894  28.835  1.00  0.00    -0.206 F 
ATOM     87  C   UNL A   1      41.665  25.882  27.516  1.00  0.00     0.060 A 
BRANCH  87  88
ATOM     88  S   UNL A   1      41.913  24.689  26.183  1.00  0.00     0.124 S 
ATOM     89  O   UNL A   1      43.109  23.988  26.633  1.00  0.00    -0.237 OA
ATOM     90  O   UNL A   1      40.670  23.924  26.223  1.00  0.00    -0.237 OA
ATOM     91  O   UNL A   1      42.081  25.535  25.005  1.00  0.00    -0.744 OA
ENDBRANCH  87  88
ENDBRANCH  55  80
BRANCH  67  92
ATOM     92  C   UNL A   1      44.348  28.735  35.725  1.00  0.00     0.058 A 
ATOM     93  C   UNL A   1      44.095  27.660  36.591  1.00  0.00     0.135 A 
ATOM     94  C   UNL A   1      45.688  29.105  35.517  1.00  0.00     0.135 A 
ATOM     95  F   UNL A   1      42.833  27.264  36.827  1.00  0.00    -0.206 F 
ATOM     96  C   UNL A   1      45.126  27.007  37.261  1.00  0.00     0.059 A 
ATOM     97  C   UNL A   1      46.736  28.446  36.151  1.00  0.00     0.059 A 
ATOM     98  F   UNL A   1      45.989  30.115  34.686  1.00  0.00    -0.206 F 
ATOM     99  C   UNL A   1      46.444  27.411  37.039  1.00  0.00     0.060 A 
BRANCH  99 100
ATOM    100  S   UNL A   1      47.774  26.563  37.918  1.00  0.00     0.124 S 
ATOM    101  O   UNL A   1      47.674  25.215  37.370  1.00  0.00    -0.237 OA
ATOM    102  O   UNL A   1      48.952  27.326  37.516  1.00  0.00    -0.237 OA
ATOM    103  O   UNL A   1      47.395  26.701  39.321  1.00  0.00    -0.744 OA
ENDBRANCH  99 100
ENDBRANCH  67  92
ENDBRANCH  41  42
ENDBRANCH  34  36
ENDBRANCH  33  34
ENDBRANCH  32  33
ENDBRANCH  31  32
ENDBRANCH  30  31
ENDBRANCH  29  30
ENDBRANCH   1  29
TORSDOF 26
ENDMDL
MODEL 3
REMARK VINA RESULT:      -9.5      2.954      9.057
REMARK SMILES CCC[C@H](Nc1cc(C)c(N)c(C(=O)OCCOCCOCCOC(=O)c2ccc(-c3c4nc(c(-c5c(F)cc(S(=O)(=O)[O-])cc5F)c5ccc([nH]5)c(-c5c(F)cc(S(=O)(=O)[O-])cc5F)c5nc(c(-c6c(F)cc(S(=O)(=O)[O-])cc6F)c6ccc3[nH]6)C=C5)C=C4)cc2)c1)c1cccs1
REMARK SMILES IDX 19 1 18 2 17 3 16 4 15 5 13 6 14 7 12 8 6 9 7 10 93 11 8 12
REMARK SMILES IDX 9 13 10 14 5 15 4 17 3 18 2 19 1 20 94 21 95 22 98 23 96 24
REMARK SMILES IDX 97 25 11 26 20 29 21 30 22 31 23 32 24 33 25 34 26 35 27 36
REMARK SMILES IDX 28 37 92 38 29 39 91 40 30 41 31 42 32 43 85 44 33 45 90 46
REMARK SMILES IDX 84 47 86 48 34 49 89 50 83 51 82 52 35 54 69 55 48 56 68 57
REMARK SMILES IDX 49 58 52 59 67 60 87 61 50 62 51 63 66 65 88 66 53 67 36 68
REMARK SMILES IDX 37 69 46 70 38 71 39 72 45 73 47 74 40 75 41 76 42 77 43 78
REMARK SMILES IDX 44 79 70 80 71 81 80 82 72 83 73 84 79 85 81 86 74 87 75 88
REMARK SMILES IDX 76 89 77 90 78 91 54 92 55 93 64 94 56 95 57 96 63 97 65 98
REMARK SMILES IDX 58 99 59 100 60 101 61 102 62 103
REMARK H PARENT 5 16 11 27 11 28 86 53 52 64
REMARK Flexibility Score: inf
ROOT
ATOM      1  C   UNL A   1      33.730  24.812  26.132  1.00  0.00     0.188 C 
ENDROOT
BRANCH   1   2
ATOM      2  O   UNL A   1      34.886  24.396  25.434  1.00  0.00    -0.376 OA
BRANCH   2   3
ATOM      3  C   UNL A   1      34.890  24.492  24.021  1.00  0.00     0.202 C 
BRANCH   3   4
ATOM      4  C   UNL A   1      34.598  23.266  23.134  1.00  0.00     0.261 C 
BRANCH   4   5
ATOM      5  O   UNL A   1      33.819  22.208  23.706  1.00  0.00    -0.460 OA
BRANCH   5   6
ATOM      6  C   UNL A   1      32.572  22.004  23.199  1.00  0.00     0.340 C 
ATOM      7  O   UNL A   1      32.264  21.189  22.364  1.00  0.00    -0.246 OA
BRANCH   6   8
ATOM      8  C   UNL A   1      31.617  22.843  23.978  1.00  0.00     0.085 A 
ATOM      9  C   UNL A   1      30.329  24.926  24.158  1.00  0.00     0.036 A 
ATOM     10  C   UNL A   1      30.035  24.546  25.466  1.00  0.00     0.031 A 
ATOM     11  C   UNL A   1      31.170  24.065  23.438  1.00  0.00     0.043 A 
ATOM     12  C   UNL A   1      30.401  23.292  26.002  1.00  0.00    -0.025 A 
ATOM     13  C   UNL A   1      29.889  22.935  27.375  1.00  0.00     0.047 C 
ATOM     14  C   UNL A   1      31.191  22.409  25.248  1.00  0.00     0.049 A 
BRANCH   9  15
ATOM     15  N   UNL A   1      29.859  26.064  23.540  1.00  0.00    -0.377 N 
ATOM     16  H   UNL A   1      28.978  25.958  23.113  1.00  0.00     0.161 HD
BRANCH  15  17
ATOM     17  C   UNL A   1      30.438  27.410  23.403  1.00  0.00     0.119 C 
BRANCH  17  18
ATOM     18  C   UNL A   1      31.359  27.452  22.147  1.00  0.00     0.030 C 
BRANCH  18  19
ATOM     19  C   UNL A   1      32.829  27.060  22.354  1.00  0.00    -0.001 C 
ATOM     20  C   UNL A   1      33.848  28.119  21.966  1.00  0.00     0.004 C 
ENDBRANCH  18  19
ENDBRANCH  17  18
BRANCH  17  21
ATOM     21  C   UNL A   1      29.481  28.592  23.338  1.00  0.00     0.027 A 
ATOM     22  C   UNL A   1      28.159  28.582  22.924  1.00  0.00     0.017 A 
ATOM     23  S   UNL A   1      29.976  30.178  23.789  1.00  0.00    -0.147 S 
ATOM     24  C   UNL A   1      27.600  29.891  22.858  1.00  0.00     0.012 A 
ATOM     25  C   UNL A   1      28.493  30.854  23.266  1.00  0.00     0.065 A 
ENDBRANCH  17  21
ENDBRANCH  15  17
ENDBRANCH   9  15
BRANCH  14  26
ATOM     26  N   UNL A   1      31.685  21.239  25.828  1.00  0.00    -0.398 N 
ATOM     27  H   UNL A   1      32.614  20.960  25.660  1.00  0.00     0.156 HD
ATOM     28  H   UNL A   1      31.105  20.693  26.406  1.00  0.00     0.156 HD
ENDBRANCH  14  26
ENDBRANCH   6   8
ENDBRANCH   5   6
ENDBRANCH   4   5
ENDBRANCH   3   4
ENDBRANCH   2   3
ENDBRANCH   1   2
BRANCH   1  29
ATOM     29  C   UNL A   1      33.269  26.230  25.734  1.00  0.00     0.188 C 
BRANCH  29  30
ATOM     30  O   UNL A   1      34.006  27.371  26.168  1.00  0.00    -0.376 OA
BRANCH  30  31
ATOM     31  C   UNL A   1      33.774  28.632  25.556  1.00  0.00     0.202 C 
BRANCH  31  32
ATOM     32  C   UNL A   1      33.329  29.831  26.408  1.00  0.00     0.261 C 
BRANCH  32  33
ATOM     33  O   UNL A   1      33.663  29.770  27.802  1.00  0.00    -0.460 OA
BRANCH  33  34
ATOM     34  C   UNL A   1      34.563  30.695  28.218  1.00  0.00     0.338 C 
ATOM     35  O   UNL A   1      34.334  31.840  28.568  1.00  0.00    -0.246 OA
BRANCH  34  36
ATOM     36  C   UNL A   1      35.899  30.078  28.353  1.00  0.00     0.060 A 
ATOM     37  C   UNL A   1      36.289  29.623  29.617  1.00  0.00     0.016 A 
ATOM     38  C   UNL A   1      36.791  30.033  27.277  1.00  0.00     0.016 A 
ATOM     39  C   UNL A   1      37.588  29.162  29.825  1.00  0.00     0.010 A 
ATOM     40  C   UNL A   1      38.101  29.588  27.493  1.00  0.00     0.010 A 
ATOM     41  C   UNL A   1      38.515  29.190  28.779  1.00  0.00    -0.014 A 
BRANCH  41  42
ATOM     42  C   UNL A   1      39.954  29.000  29.092  1.00  0.00     0.031 A 
ATOM     43  C   UNL A   1      40.596  27.679  28.758  1.00  0.00     0.074 A 
ATOM     44  C   UNL A   1      40.696  30.003  29.597  1.00  0.00     0.049 A 
ATOM     45  N   UNL A   1      41.840  27.299  28.902  1.00  0.00    -0.248 NA
ATOM     46  C   UNL A   1      39.716  26.648  28.184  1.00  0.00     0.031 C 
ATOM     47  C   UNL A   1      40.200  31.338  29.930  1.00  0.00     0.029 A 
ATOM     48  N   UNL A   1      42.030  30.049  29.915  1.00  0.00    -0.354 N 
ATOM     49  C   UNL A   1      41.892  25.990  28.434  1.00  0.00     0.074 A 
ATOM     50  C   UNL A   1      40.548  25.628  28.040  1.00  0.00     0.031 C 
ATOM     51  C   UNL A   1      41.219  32.072  30.411  1.00  0.00     0.029 A 
ATOM     52  C   UNL A   1      42.432  31.255  30.437  1.00  0.00     0.049 A 
ATOM     53  H   UNL A   1      42.642  29.290  29.782  1.00  0.00     0.167 HD
ATOM     54  C   UNL A   1      42.963  25.167  28.328  1.00  0.00     0.037 A 
ATOM     55  C   UNL A   1      43.640  31.649  30.889  1.00  0.00     0.037 A 
ATOM     56  C   UNL A   1      44.300  25.525  28.727  1.00  0.00     0.049 A 
ATOM     57  C   UNL A   1      44.807  30.698  30.811  1.00  0.00     0.074 A 
ATOM     58  C   UNL A   1      45.453  24.763  28.658  1.00  0.00     0.029 A 
ATOM     59  N   UNL A   1      44.662  26.748  29.274  1.00  0.00    -0.354 N 
ATOM     60  N   UNL A   1      44.846  29.470  30.347  1.00  0.00    -0.248 NA
ATOM     61  C   UNL A   1      46.100  31.192  31.306  1.00  0.00     0.031 C 
ATOM     62  C   UNL A   1      46.505  25.509  29.204  1.00  0.00     0.029 A 
ATOM     63  C   UNL A   1      46.017  26.756  29.561  1.00  0.00     0.049 A 
ATOM     64  H   UNL A   1      44.047  27.498  29.434  1.00  0.00     0.167 HD
ATOM     65  C   UNL A   1      46.173  29.061  30.459  1.00  0.00     0.074 A 
ATOM     66  C   UNL A   1      46.904  30.175  31.028  1.00  0.00     0.031 C 
ATOM     67  C   UNL A   1      46.737  27.875  30.118  1.00  0.00     0.037 A 
BRANCH  54  68
ATOM     68  C   UNL A   1      42.724  23.789  27.776  1.00  0.00     0.058 A 
ATOM     69  C   UNL A   1      42.531  22.679  28.616  1.00  0.00     0.135 A 
ATOM     70  C   UNL A   1      42.670  23.576  26.389  1.00  0.00     0.135 A 
ATOM     71  F   UNL A   1      42.591  22.823  29.950  1.00  0.00    -0.206 F 
ATOM     72  C   UNL A   1      42.322  21.404  28.101  1.00  0.00     0.059 A 
ATOM     73  C   UNL A   1      42.435  22.313  25.852  1.00  0.00     0.059 A 
ATOM     74  F   UNL A   1      42.850  24.599  25.540  1.00  0.00    -0.206 F 
ATOM     75  C   UNL A   1      42.277  21.231  26.717  1.00  0.00     0.060 A 
BRANCH  75  76
ATOM     76  S   UNL A   1      42.006  19.570  26.062  1.00  0.00     0.124 S 
ATOM     77  O   UNL A   1      40.581  19.611  25.746  1.00  0.00    -0.237 OA
ATOM     78  O   UNL A   1      42.908  19.535  24.916  1.00  0.00    -0.237 OA
ATOM     79  O   UNL A   1      42.377  18.702  27.175  1.00  0.00    -0.744 OA
ENDBRANCH  75  76
ENDBRANCH  54  68
BRANCH  55  80
ATOM     80  C   UNL A   1      43.816  33.016  31.449  1.00  0.00     0.058 A 
ATOM     81  C   UNL A   1      44.187  34.094  30.631  1.00  0.00     0.135 A 
ATOM     82  C   UNL A   1      43.632  33.269  32.818  1.00  0.00     0.135 A 
ATOM     83  F   UNL A   1      44.385  33.901  29.318  1.00  0.00    -0.206 F 
ATOM     84  C   UNL A   1      44.387  35.368  31.150  1.00  0.00     0.059 A 
ATOM     85  C   UNL A   1      43.801  34.540  33.356  1.00  0.00     0.059 A 
ATOM     86  F   UNL A   1      43.268  32.273  33.641  1.00  0.00    -0.206 F 
ATOM     87  C   UNL A   1      44.190  35.582  32.515  1.00  0.00     0.060 A 
BRANCH  87  88
ATOM     88  S   UNL A   1      44.411  37.250  33.172  1.00  0.00     0.124 S 
ATOM     89  O   UNL A   1      43.403  37.287  34.225  1.00  0.00    -0.237 OA
ATOM     90  O   UNL A   1      45.800  37.220  33.617  1.00  0.00    -0.237 OA
ATOM     91  O   UNL A   1      44.149  38.101  32.016  1.00  0.00    -0.744 OA
ENDBRANCH  87  88
ENDBRANCH  55  80
BRANCH  67  92
ATOM     92  C   UNL A   1      48.225  27.738  30.296  1.00  0.00     0.058 A 
ATOM     93  C   UNL A   1      49.132  28.063  29.275  1.00  0.00     0.135 A 
ATOM     94  C   UNL A   1      48.752  27.291  31.520  1.00  0.00     0.135 A 
ATOM     95  F   UNL A   1      48.684  28.495  28.086  1.00  0.00    -0.206 F 
ATOM     96  C   UNL A   1      50.505  27.905  29.445  1.00  0.00     0.059 A 
ATOM     97  C   UNL A   1      50.122  27.156  31.723  1.00  0.00     0.059 A 
ATOM     98  F   UNL A   1      47.932  26.983  32.537  1.00  0.00    -0.206 F 
ATOM     99  C   UNL A   1      50.990  27.445  30.671  1.00  0.00     0.060 A 
BRANCH  99 100
ATOM    100  S   UNL A   1      52.772  27.237  30.878  1.00  0.00     0.124 S 
ATOM    101  O   UNL A   1      52.892  25.783  30.931  1.00  0.00    -0.237 OA
ATOM    102  O   UNL A   1      53.305  27.874  29.678  1.00  0.00    -0.237 OA
ATOM    103  O   UNL A   1      53.052  27.936  32.129  1.00  0.00    -0.744 OA
ENDBRANCH  99 100
ENDBRANCH  67  92
ENDBRANCH  41  42
ENDBRANCH  34  36
ENDBRANCH  33  34
ENDBRANCH  32  33
ENDBRANCH  31  32
ENDBRANCH  30  31
ENDBRANCH  29  30
ENDBRANCH   1  29
TORSDOF 26
ENDMDL
