MODEL 1
REMARK VINA RESULT:      -9.6      0.000      0.000
REMARK SMILES COC(=O)[C@@H](CC(=O)OCCOCCOCCOC(=O)c1ccc(-c2c3nc(c(-c4c(F)cc(S(=O)(=O)[O-])cc4F)c4ccc([nH]4)c(-c4c(F)cc(S(=O)(=O)[O-])cc4F)c4nc(c(-c5c(F)cc(S(=O)(=O)[O-])cc5F)c5ccc2[nH]5)C=C4)C=C3)cc1)C1CCCCC1
REMARK SMILES IDX 13 1 12 2 11 3 10 4 9 5 7 6 8 7 6 8 5 9 3 10 4 11 2 12 1 13
REMARK SMILES IDX 87 14 88 15 92 16 89 17 91 18 90 19 14 20 15 21 16 22 17 23
REMARK SMILES IDX 18 24 19 25 20 26 21 27 22 28 86 29 23 30 85 31 24 32 25 33
REMARK SMILES IDX 26 34 79 35 27 36 84 37 78 38 80 39 28 40 83 41 77 42 76 43
REMARK SMILES IDX 29 45 63 46 42 47 62 48 43 49 46 50 61 51 81 52 44 53 45 54
REMARK SMILES IDX 60 56 82 57 47 58 30 59 31 60 40 61 32 62 33 63 39 64 41 65
REMARK SMILES IDX 34 66 35 67 36 68 37 69 38 70 64 71 65 72 74 73 66 74 67 75
REMARK SMILES IDX 73 76 75 77 68 78 69 79 70 80 71 81 72 82 48 83 49 84 58 85
REMARK SMILES IDX 50 86 51 87 57 88 59 89 52 90 53 91 54 92 55 93 56 94
REMARK H PARENT 80 44 46 55
REMARK Flexibility Score: inf
ROOT
ATOM      1  C   UNL A   1      35.230  23.215  24.593  1.00  0.00     0.188 C 
ENDROOT
BRANCH   1   2
ATOM      2  O   UNL A   1      34.345  22.146  24.257  1.00  0.00    -0.376 OA
BRANCH   2   3
ATOM      3  C   UNL A   1      32.945  22.379  24.385  1.00  0.00     0.202 C 
BRANCH   3   4
ATOM      4  C   UNL A   1      32.541  23.855  24.352  1.00  0.00     0.261 C 
BRANCH   4   5
ATOM      5  O   UNL A   1      31.194  23.999  24.841  1.00  0.00    -0.463 OA
BRANCH   5   6
ATOM      6  C   UNL A   1      30.995  24.851  25.870  1.00  0.00     0.306 C 
ATOM      7  O   UNL A   1      30.001  24.857  26.584  1.00  0.00    -0.252 OA
BRANCH   6   8
ATOM      8  C   UNL A   1      32.230  25.695  26.136  1.00  0.00     0.138 C 
BRANCH   8   9
ATOM      9  C   UNL A   1      32.220  27.232  25.957  1.00  0.00     0.113 C 
BRANCH   9  10
ATOM     10  C   UNL A   1      32.168  28.057  27.230  1.00  0.00     0.309 C 
ATOM     11  O   UNL A   1      31.190  28.086  27.968  1.00  0.00    -0.252 OA
BRANCH  10  12
ATOM     12  O   UNL A   1      33.368  28.614  27.521  1.00  0.00    -0.469 OA
ATOM     13  C   UNL A   1      33.473  30.000  27.196  1.00  0.00     0.282 C 
ENDBRANCH  10  12
ENDBRANCH   9  10
BRANCH   9  14
ATOM     14  C   UNL A   1      31.223  27.746  24.849  1.00  0.00     0.004 C 
ATOM     15  C   UNL A   1      31.045  29.279  24.778  1.00  0.00     0.004 C 
ATOM     16  C   UNL A   1      31.655  27.251  23.447  1.00  0.00     0.004 C 
ATOM     17  C   UNL A   1      30.066  29.697  23.686  1.00  0.00     0.000 C 
ATOM     18  C   UNL A   1      30.678  27.670  22.345  1.00  0.00     0.000 C 
ATOM     19  C   UNL A   1      30.456  29.177  22.315  1.00  0.00     0.000 C 
ENDBRANCH   9  14
ENDBRANCH   8   9
ENDBRANCH   6   8
ENDBRANCH   5   6
ENDBRANCH   4   5
ENDBRANCH   3   4
ENDBRANCH   2   3
ENDBRANCH   1   2
BRANCH   1  20
ATOM     20  C   UNL A   1      36.605  23.228  23.916  1.00  0.00     0.188 C 
BRANCH  20  21
ATOM     21  O   UNL A   1      37.450  22.209  24.440  1.00  0.00    -0.376 OA
BRANCH  21  22
ATOM     22  C   UNL A   1      37.591  22.275  25.854  1.00  0.00     0.202 C 
BRANCH  22  23
ATOM     23  C   UNL A   1      39.027  22.662  26.202  1.00  0.00     0.261 C 
BRANCH  23  24
ATOM     24  O   UNL A   1      39.105  23.907  26.921  1.00  0.00    -0.460 OA
BRANCH  24  25
ATOM     25  C   UNL A   1      40.218  24.646  26.724  1.00  0.00     0.338 C 
ATOM     26  O   UNL A   1      41.007  24.565  25.804  1.00  0.00    -0.246 OA
BRANCH  25  27
ATOM     27  C   UNL A   1      40.302  25.639  27.809  1.00  0.00     0.060 A 
ATOM     28  C   UNL A   1      39.291  25.734  28.774  1.00  0.00     0.016 A 
ATOM     29  C   UNL A   1      41.384  26.516  27.821  1.00  0.00     0.016 A 
ATOM     30  C   UNL A   1      39.350  26.736  29.747  1.00  0.00     0.010 A 
ATOM     31  C   UNL A   1      41.442  27.512  28.792  1.00  0.00     0.010 A 
ATOM     32  C   UNL A   1      40.418  27.642  29.746  1.00  0.00    -0.014 A 
BRANCH  32  33
ATOM     33  C   UNL A   1      40.483  28.792  30.680  1.00  0.00     0.031 A 
ATOM     34  C   UNL A   1      41.415  28.714  31.856  1.00  0.00     0.074 A 
ATOM     35  C   UNL A   1      39.635  29.825  30.535  1.00  0.00     0.049 A 
ATOM     36  N   UNL A   1      41.439  29.432  32.946  1.00  0.00    -0.248 NA
ATOM     37  C   UNL A   1      42.448  27.667  31.798  1.00  0.00     0.031 C 
ATOM     38  C   UNL A   1      38.723  30.018  29.409  1.00  0.00     0.029 A 
ATOM     39  N   UNL A   1      39.374  30.886  31.365  1.00  0.00    -0.354 N 
ATOM     40  C   UNL A   1      42.465  28.906  33.723  1.00  0.00     0.074 A 
ATOM     41  C   UNL A   1      43.035  27.802  32.979  1.00  0.00     0.031 C 
ATOM     42  C   UNL A   1      37.981  31.115  29.630  1.00  0.00     0.029 A 
ATOM     43  C   UNL A   1      38.322  31.663  30.940  1.00  0.00     0.049 A 
ATOM     44  H   UNL A   1      39.889  31.073  32.184  1.00  0.00     0.167 HD
ATOM     45  C   UNL A   1      42.881  29.306  34.950  1.00  0.00     0.037 A 
ATOM     46  C   UNL A   1      37.674  32.667  31.563  1.00  0.00     0.037 A 
ATOM     47  C   UNL A   1      42.289  30.405  35.667  1.00  0.00     0.049 A 
ATOM     48  C   UNL A   1      38.108  33.056  32.950  1.00  0.00     0.074 A 
ATOM     49  C   UNL A   1      42.622  30.906  36.913  1.00  0.00     0.029 A 
ATOM     50  N   UNL A   1      41.234  31.176  35.196  1.00  0.00    -0.354 N 
ATOM     51  N   UNL A   1      39.063  32.540  33.690  1.00  0.00    -0.248 NA
ATOM     52  C   UNL A   1      37.373  34.153  33.595  1.00  0.00     0.031 C 
ATOM     53  C   UNL A   1      41.743  31.953  37.211  1.00  0.00     0.029 A 
ATOM     54  C   UNL A   1      40.892  32.138  36.131  1.00  0.00     0.049 A 
ATOM     55  H   UNL A   1      40.793  31.057  34.324  1.00  0.00     0.167 HD
ATOM     56  C   UNL A   1      39.057  33.262  34.878  1.00  0.00     0.074 A 
ATOM     57  C   UNL A   1      38.009  34.256  34.754  1.00  0.00     0.031 C 
ATOM     58  C   UNL A   1      39.845  33.118  35.973  1.00  0.00     0.037 A 
BRANCH  45  59
ATOM     59  C   UNL A   1      43.996  28.529  35.597  1.00  0.00     0.058 A 
ATOM     60  C   UNL A   1      43.746  27.438  36.444  1.00  0.00     0.135 A 
ATOM     61  C   UNL A   1      45.338  28.875  35.362  1.00  0.00     0.135 A 
ATOM     62  F   UNL A   1      42.484  27.070  36.719  1.00  0.00    -0.206 F 
ATOM     63  C   UNL A   1      44.781  26.742  37.063  1.00  0.00     0.059 A 
ATOM     64  C   UNL A   1      46.390  28.177  35.950  1.00  0.00     0.059 A 
ATOM     65  F   UNL A   1      45.639  29.909  34.561  1.00  0.00    -0.206 F 
ATOM     66  C   UNL A   1      46.101  27.123  36.814  1.00  0.00     0.060 A 
BRANCH  66  67
ATOM     67  S   UNL A   1      47.432  26.226  37.642  1.00  0.00     0.124 S 
ATOM     68  O   UNL A   1      48.120  27.307  38.342  1.00  0.00    -0.237 OA
ATOM     69  O   UNL A   1      46.699  25.290  38.491  1.00  0.00    -0.237 OA
ATOM     70  O   UNL A   1      48.172  25.621  36.540  1.00  0.00    -0.744 OA
ENDBRANCH  66  67
ENDBRANCH  45  59
BRANCH  46  71
ATOM     71  C   UNL A   1      36.540  33.351  30.885  1.00  0.00     0.058 A 
ATOM     72  C   UNL A   1      35.225  33.177  31.336  1.00  0.00     0.135 A 
ATOM     73  C   UNL A   1      36.749  34.222  29.803  1.00  0.00     0.135 A 
ATOM     74  F   UNL A   1      34.972  32.345  32.360  1.00  0.00    -0.206 F 
ATOM     75  C   UNL A   1      34.155  33.841  30.744  1.00  0.00     0.059 A 
ATOM     76  C   UNL A   1      35.699  34.918  29.210  1.00  0.00     0.059 A 
ATOM     77  F   UNL A   1      37.990  34.432  29.338  1.00  0.00    -0.206 F 
ATOM     78  C   UNL A   1      34.404  34.716  29.685  1.00  0.00     0.060 A 
BRANCH  78  79
ATOM     79  S   UNL A   1      33.016  35.628  28.973  1.00  0.00     0.124 S 
ATOM     80  O   UNL A   1      32.410  34.617  28.114  1.00  0.00    -0.237 OA
ATOM     81  O   UNL A   1      32.251  35.999  30.161  1.00  0.00    -0.237 OA
ATOM     82  O   UNL A   1      33.665  36.739  28.282  1.00  0.00    -0.744 OA
ENDBRANCH  78  79
ENDBRANCH  46  71
BRANCH  58  83
ATOM     83  C   UNL A   1      39.627  34.082  37.105  1.00  0.00     0.058 A 
ATOM     84  C   UNL A   1      38.888  33.727  38.243  1.00  0.00     0.135 A 
ATOM     85  C   UNL A   1      40.213  35.357  37.071  1.00  0.00     0.135 A 
ATOM     86  F   UNL A   1      38.301  32.522  38.318  1.00  0.00    -0.206 F 
ATOM     87  C   UNL A   1      38.725  34.609  39.305  1.00  0.00     0.059 A 
ATOM     88  C   UNL A   1      40.083  36.248  38.131  1.00  0.00     0.059 A 
ATOM     89  F   UNL A   1      40.936  35.741  36.007  1.00  0.00    -0.206 F 
ATOM     90  C   UNL A   1      39.329  35.867  39.240  1.00  0.00     0.060 A 
BRANCH  90  91
ATOM     91  S   UNL A   1      39.147  36.987  40.644  1.00  0.00     0.124 S 
ATOM     92  O   UNL A   1      40.538  37.292  40.960  1.00  0.00    -0.237 OA
ATOM     93  O   UNL A   1      38.372  38.085  40.071  1.00  0.00    -0.237 OA
ATOM     94  O   UNL A   1      38.439  36.180  41.633  1.00  0.00    -0.744 OA
ENDBRANCH  90  91
ENDBRANCH  58  83
ENDBRANCH  32  33
ENDBRANCH  25  27
ENDBRANCH  24  25
ENDBRANCH  23  24
ENDBRANCH  22  23
ENDBRANCH  21  22
ENDBRANCH  20  21
ENDBRANCH   1  20
TORSDOF 24
ENDMDL
MODEL 2
REMARK VINA RESULT:      -9.4      1.186      2.037
REMARK SMILES COC(=O)[C@@H](CC(=O)OCCOCCOCCOC(=O)c1ccc(-c2c3nc(c(-c4c(F)cc(S(=O)(=O)[O-])cc4F)c4ccc([nH]4)c(-c4c(F)cc(S(=O)(=O)[O-])cc4F)c4nc(c(-c5c(F)cc(S(=O)(=O)[O-])cc5F)c5ccc2[nH]5)C=C4)C=C3)cc1)C1CCCCC1
REMARK SMILES IDX 13 1 12 2 11 3 10 4 9 5 7 6 8 7 6 8 5 9 3 10 4 11 2 12 1 13
REMARK SMILES IDX 87 14 88 15 92 16 89 17 91 18 90 19 14 20 15 21 16 22 17 23
REMARK SMILES IDX 18 24 19 25 20 26 21 27 22 28 86 29 23 30 85 31 24 32 25 33
REMARK SMILES IDX 26 34 79 35 27 36 84 37 78 38 80 39 28 40 83 41 77 42 76 43
REMARK SMILES IDX 29 45 63 46 42 47 62 48 43 49 46 50 61 51 81 52 44 53 45 54
REMARK SMILES IDX 60 56 82 57 47 58 30 59 31 60 40 61 32 62 33 63 39 64 41 65
REMARK SMILES IDX 34 66 35 67 36 68 37 69 38 70 64 71 65 72 74 73 66 74 67 75
REMARK SMILES IDX 73 76 75 77 68 78 69 79 70 80 71 81 72 82 48 83 49 84 58 85
REMARK SMILES IDX 50 86 51 87 57 88 59 89 52 90 53 91 54 92 55 93 56 94
REMARK H PARENT 80 44 46 55
REMARK Flexibility Score: inf
ROOT
ATOM      1  C   UNL A   1      33.777  22.467  24.902  1.00  0.00     0.188 C 
ENDROOT
BRANCH   1   2
ATOM      2  O   UNL A   1      33.645  22.961  23.569  1.00  0.00    -0.376 OA
BRANCH   2   3
ATOM      3  C   UNL A   1      34.082  24.292  23.307  1.00  0.00     0.202 C 
BRANCH   3   4
ATOM      4  C   UNL A   1      33.478  25.351  24.232  1.00  0.00     0.261 C 
BRANCH   4   5
ATOM      5  O   UNL A   1      34.001  26.648  23.887  1.00  0.00    -0.463 OA
BRANCH   5   6
ATOM      6  C   UNL A   1      33.302  27.382  22.994  1.00  0.00     0.306 C 
ATOM      7  O   UNL A   1      33.704  27.688  21.880  1.00  0.00    -0.252 OA
BRANCH   6   8
ATOM      8  C   UNL A   1      31.886  27.644  23.482  1.00  0.00     0.138 C 
BRANCH   8   9
ATOM      9  C   UNL A   1      31.490  28.980  24.154  1.00  0.00     0.113 C 
BRANCH   9  10
ATOM     10  C   UNL A   1      31.800  29.106  25.634  1.00  0.00     0.309 C 
ATOM     11  O   UNL A   1      31.536  28.230  26.449  1.00  0.00    -0.252 OA
BRANCH  10  12
ATOM     12  O   UNL A   1      32.532  30.214  25.905  1.00  0.00    -0.469 OA
ATOM     13  C   UNL A   1      33.540  30.029  26.899  1.00  0.00     0.282 C 
ENDBRANCH  10  12
ENDBRANCH   9  10
BRANCH   9  14
ATOM     14  C   UNL A   1      30.044  29.487  23.781  1.00  0.00     0.004 C 
ATOM     15  C   UNL A   1      29.775  30.982  24.058  1.00  0.00     0.004 C 
ATOM     16  C   UNL A   1      29.733  29.215  22.289  1.00  0.00     0.004 C 
ATOM     17  C   UNL A   1      28.358  31.395  23.675  1.00  0.00     0.000 C 
ATOM     18  C   UNL A   1      28.312  29.629  21.896  1.00  0.00     0.000 C 
ATOM     19  C   UNL A   1      28.026  31.089  22.226  1.00  0.00     0.000 C 
ENDBRANCH   9  14
ENDBRANCH   8   9
ENDBRANCH   6   8
ENDBRANCH   5   6
ENDBRANCH   4   5
ENDBRANCH   3   4
ENDBRANCH   2   3
ENDBRANCH   1   2
BRANCH   1  20
ATOM     20  C   UNL A   1      35.061  21.703  25.245  1.00  0.00     0.188 C 
BRANCH  20  21
ATOM     21  O   UNL A   1      35.989  22.535  25.935  1.00  0.00    -0.376 OA
BRANCH  21  22
ATOM     22  C   UNL A   1      37.119  22.883  25.144  1.00  0.00     0.202 C 
BRANCH  22  23
ATOM     23  C   UNL A   1      37.885  24.014  25.825  1.00  0.00     0.261 C 
BRANCH  23  24
ATOM     24  O   UNL A   1      38.680  23.553  26.934  1.00  0.00    -0.460 OA
BRANCH  24  25
ATOM     25  C   UNL A   1      39.972  23.947  26.953  1.00  0.00     0.338 C 
ATOM     26  O   UNL A   1      40.917  23.409  26.413  1.00  0.00    -0.246 OA
BRANCH  25  27
ATOM     27  C   UNL A   1      40.052  25.207  27.711  1.00  0.00     0.060 A 
ATOM     28  C   UNL A   1      40.995  26.187  27.375  1.00  0.00     0.016 A 
ATOM     29  C   UNL A   1      39.205  25.378  28.803  1.00  0.00     0.016 A 
ATOM     30  C   UNL A   1      41.109  27.340  28.158  1.00  0.00     0.010 A 
ATOM     31  C   UNL A   1      39.318  26.527  29.580  1.00  0.00     0.010 A 
ATOM     32  C   UNL A   1      40.283  27.504  29.277  1.00  0.00    -0.014 A 
BRANCH  32  33
ATOM     33  C   UNL A   1      40.428  28.648  30.209  1.00  0.00     0.031 A 
ATOM     34  C   UNL A   1      41.429  28.547  31.325  1.00  0.00     0.074 A 
ATOM     35  C   UNL A   1      39.594  29.699  30.120  1.00  0.00     0.049 A 
ATOM     36  N   UNL A   1      41.534  29.260  32.414  1.00  0.00    -0.248 NA
ATOM     37  C   UNL A   1      42.435  27.480  31.200  1.00  0.00     0.031 C 
ATOM     38  C   UNL A   1      38.618  29.914  29.052  1.00  0.00     0.029 A 
ATOM     39  N   UNL A   1      39.405  30.761  30.967  1.00  0.00    -0.354 N 
ATOM     40  C   UNL A   1      42.595  28.709  33.124  1.00  0.00     0.074 A 
ATOM     41  C   UNL A   1      43.096  27.598  32.343  1.00  0.00     0.031 C 
ATOM     42  C   UNL A   1      37.912  31.025  29.322  1.00  0.00     0.029 A 
ATOM     43  C   UNL A   1      38.344  31.560  30.610  1.00  0.00     0.049 A 
ATOM     44  H   UNL A   1      39.973  30.934  31.753  1.00  0.00     0.167 HD
ATOM     45  C   UNL A   1      43.094  29.096  34.324  1.00  0.00     0.037 A 
ATOM     46  C   UNL A   1      37.757  32.574  31.275  1.00  0.00     0.037 A 
ATOM     47  C   UNL A   1      42.569  30.204  35.080  1.00  0.00     0.049 A 
ATOM     48  C   UNL A   1      38.283  32.949  32.634  1.00  0.00     0.074 A 
ATOM     49  C   UNL A   1      42.988  30.692  36.305  1.00  0.00     0.029 A 
ATOM     50  N   UNL A   1      41.503  30.997  34.677  1.00  0.00    -0.354 N 
ATOM     51  N   UNL A   1      39.271  32.410  33.312  1.00  0.00    -0.248 NA
ATOM     52  C   UNL A   1      37.611  34.057  33.326  1.00  0.00     0.031 C 
ATOM     53  C   UNL A   1      42.150  31.756  36.660  1.00  0.00     0.029 A 
ATOM     54  C   UNL A   1      41.238  31.962  35.634  1.00  0.00     0.049 A 
ATOM     55  H   UNL A   1      41.006  30.891  33.833  1.00  0.00     0.167 HD
ATOM     56  C   UNL A   1      39.352  33.127  34.500  1.00  0.00     0.074 A 
ATOM     57  C   UNL A   1      38.319  34.143  34.444  1.00  0.00     0.031 C 
ATOM     58  C   UNL A   1      40.204  32.963  35.545  1.00  0.00     0.037 A 
BRANCH  45  59
ATOM     59  C   UNL A   1      44.231  28.294  34.899  1.00  0.00     0.058 A 
ATOM     60  C   UNL A   1      45.572  28.632  34.660  1.00  0.00     0.135 A 
ATOM     61  C   UNL A   1      43.977  27.173  35.707  1.00  0.00     0.135 A 
ATOM     62  F   UNL A   1      45.877  29.683  33.882  1.00  0.00    -0.206 F 
ATOM     63  C   UNL A   1      46.619  27.869  35.171  1.00  0.00     0.059 A 
ATOM     64  C   UNL A   1      45.008  26.410  36.250  1.00  0.00     0.059 A 
ATOM     65  F   UNL A   1      42.714  26.801  35.970  1.00  0.00    -0.206 F 
ATOM     66  C   UNL A   1      46.327  26.755  35.960  1.00  0.00     0.060 A 
BRANCH  66  67
ATOM     67  S   UNL A   1      47.694  25.761  36.596  1.00  0.00     0.124 S 
ATOM     68  O   UNL A   1      48.761  26.099  35.657  1.00  0.00    -0.237 OA
ATOM     69  O   UNL A   1      47.857  26.281  37.950  1.00  0.00    -0.237 OA
ATOM     70  O   UNL A   1      47.192  24.394  36.508  1.00  0.00    -0.744 OA
ENDBRANCH  66  67
ENDBRANCH  45  59
BRANCH  46  71
ATOM     71  C   UNL A   1      36.597  33.283  30.670  1.00  0.00     0.058 A 
ATOM     72  C   UNL A   1      35.303  33.100  31.175  1.00  0.00     0.135 A 
ATOM     73  C   UNL A   1      36.762  34.187  29.608  1.00  0.00     0.135 A 
ATOM     74  F   UNL A   1      35.092  32.238  32.182  1.00  0.00    -0.206 F 
ATOM     75  C   UNL A   1      34.211  33.787  30.652  1.00  0.00     0.059 A 
ATOM     76  C   UNL A   1      35.690  34.905  29.084  1.00  0.00     0.059 A 
ATOM     77  F   UNL A   1      37.982  34.407  29.095  1.00  0.00    -0.206 F 
ATOM     78  C   UNL A   1      34.416  34.694  29.611  1.00  0.00     0.060 A 
BRANCH  78  79
ATOM     79  S   UNL A   1      33.003  35.633  28.990  1.00  0.00     0.124 S 
ATOM     80  O   UNL A   1      32.360  34.655  28.119  1.00  0.00    -0.237 OA
ATOM     81  O   UNL A   1      32.288  35.959  30.221  1.00  0.00    -0.237 OA
ATOM     82  O   UNL A   1      33.625  36.768  28.316  1.00  0.00    -0.744 OA
ENDBRANCH  78  79
ENDBRANCH  46  71
BRANCH  58  83
ATOM     83  C   UNL A   1      40.074  33.926  36.690  1.00  0.00     0.058 A 
ATOM     84  C   UNL A   1      40.633  35.211  36.639  1.00  0.00     0.135 A 
ATOM     85  C   UNL A   1      39.331  33.574  37.829  1.00  0.00     0.135 A 
ATOM     86  F   UNL A   1      41.360  35.591  35.576  1.00  0.00    -0.206 F 
ATOM     87  C   UNL A   1      40.474  36.113  37.686  1.00  0.00     0.059 A 
ATOM     88  C   UNL A   1      39.138  34.467  38.877  1.00  0.00     0.059 A 
ATOM     89  F   UNL A   1      38.770  32.359  37.921  1.00  0.00    -0.206 F 
ATOM     90  C   UNL A   1      39.721  35.732  38.800  1.00  0.00     0.060 A 
BRANCH  90  91
ATOM     91  S   UNL A   1      39.484  36.925  40.133  1.00  0.00     0.124 S 
ATOM     92  O   UNL A   1      40.780  36.880  40.802  1.00  0.00    -0.237 OA
ATOM     93  O   UNL A   1      39.189  38.156  39.404  1.00  0.00    -0.237 OA
ATOM     94  O   UNL A   1      38.366  36.371  40.891  1.00  0.00    -0.744 OA
ENDBRANCH  90  91
ENDBRANCH  58  83
ENDBRANCH  32  33
ENDBRANCH  25  27
ENDBRANCH  24  25
ENDBRANCH  23  24
ENDBRANCH  22  23
ENDBRANCH  21  22
ENDBRANCH  20  21
ENDBRANCH   1  20
TORSDOF 24
ENDMDL
MODEL 3
REMARK VINA RESULT:      -9.3      6.501     10.996
REMARK SMILES COC(=O)[C@@H](CC(=O)OCCOCCOCCOC(=O)c1ccc(-c2c3nc(c(-c4c(F)cc(S(=O)(=O)[O-])cc4F)c4ccc([nH]4)c(-c4c(F)cc(S(=O)(=O)[O-])cc4F)c4nc(c(-c5c(F)cc(S(=O)(=O)[O-])cc5F)c5ccc2[nH]5)C=C4)C=C3)cc1)C1CCCCC1
REMARK SMILES IDX 13 1 12 2 11 3 10 4 9 5 7 6 8 7 6 8 5 9 3 10 4 11 2 12 1 13
REMARK SMILES IDX 87 14 88 15 92 16 89 17 91 18 90 19 14 20 15 21 16 22 17 23
REMARK SMILES IDX 18 24 19 25 20 26 21 27 22 28 86 29 23 30 85 31 24 32 25 33
REMARK SMILES IDX 26 34 79 35 27 36 84 37 78 38 80 39 28 40 83 41 77 42 76 43
REMARK SMILES IDX 29 45 63 46 42 47 62 48 43 49 46 50 61 51 81 52 44 53 45 54
REMARK SMILES IDX 60 56 82 57 47 58 30 59 31 60 40 61 32 62 33 63 39 64 41 65
REMARK SMILES IDX 34 66 35 67 36 68 37 69 38 70 64 71 65 72 74 73 66 74 67 75
REMARK SMILES IDX 73 76 75 77 68 78 69 79 70 80 71 81 72 82 48 83 49 84 58 85
REMARK SMILES IDX 50 86 51 87 57 88 59 89 52 90 53 91 54 92 55 93 56 94
REMARK H PARENT 80 44 46 55
REMARK Flexibility Score: inf
ROOT
ATOM      1  C   UNL A   1      36.216  22.602  25.177  1.00  0.00     0.188 C 
ENDROOT
BRANCH   1   2
ATOM      2  O   UNL A   1      35.548  23.487  24.277  1.00  0.00    -0.376 OA
BRANCH   2   3
ATOM      3  C   UNL A   1      34.141  23.653  24.432  1.00  0.00     0.202 C 
BRANCH   3   4
ATOM      4  C   UNL A   1      33.589  24.959  23.855  1.00  0.00     0.261 C 
BRANCH   4   5
ATOM      5  O   UNL A   1      32.296  24.719  23.267  1.00  0.00    -0.463 OA
BRANCH   5   6
ATOM      6  C   UNL A   1      31.716  25.745  22.606  1.00  0.00     0.306 C 
ATOM      7  O   UNL A   1      32.154  26.246  21.579  1.00  0.00    -0.252 OA
BRANCH   6   8
ATOM      8  C   UNL A   1      30.363  26.094  23.205  1.00  0.00     0.138 C 
BRANCH   8   9
ATOM      9  C   UNL A   1      30.079  27.486  23.819  1.00  0.00     0.113 C 
BRANCH   9  10
ATOM     10  C   UNL A   1      29.522  28.536  22.877  1.00  0.00     0.309 C 
ATOM     11  O   UNL A   1      30.007  28.773  21.777  1.00  0.00    -0.252 OA
BRANCH  10  12
ATOM     12  O   UNL A   1      28.352  29.050  23.327  1.00  0.00    -0.469 OA
ATOM     13  C   UNL A   1      27.662  29.869  22.383  1.00  0.00     0.282 C 
ENDBRANCH  10  12
ENDBRANCH   9  10
BRANCH   9  14
ATOM     14  C   UNL A   1      31.238  28.035  24.737  1.00  0.00     0.004 C 
ATOM     15  C   UNL A   1      31.245  29.564  24.951  1.00  0.00     0.004 C 
ATOM     16  C   UNL A   1      31.206  27.359  26.129  1.00  0.00     0.004 C 
ATOM     17  C   UNL A   1      32.394  30.018  25.845  1.00  0.00     0.000 C 
ATOM     18  C   UNL A   1      32.356  27.812  27.034  1.00  0.00     0.000 C 
ATOM     19  C   UNL A   1      32.399  29.326  27.195  1.00  0.00     0.000 C 
ENDBRANCH   9  14
ENDBRANCH   8   9
ENDBRANCH   6   8
ENDBRANCH   5   6
ENDBRANCH   4   5
ENDBRANCH   3   4
ENDBRANCH   2   3
ENDBRANCH   1   2
BRANCH   1  20
ATOM     20  C   UNL A   1      37.523  23.095  25.808  1.00  0.00     0.188 C 
BRANCH  20  21
ATOM     21  O   UNL A   1      38.533  22.093  25.755  1.00  0.00    -0.376 OA
BRANCH  21  22
ATOM     22  C   UNL A   1      38.047  20.837  25.296  1.00  0.00     0.202 C 
BRANCH  22  23
ATOM     23  C   UNL A   1      39.186  19.820  25.302  1.00  0.00     0.261 C 
BRANCH  23  24
ATOM     24  O   UNL A   1      40.048  19.962  26.447  1.00  0.00    -0.460 OA
BRANCH  24  25
ATOM     25  C   UNL A   1      41.376  19.993  26.200  1.00  0.00     0.338 C 
ATOM     26  O   UNL A   1      42.056  19.117  25.705  1.00  0.00    -0.246 OA
BRANCH  25  27
ATOM     27  C   UNL A   1      41.880  21.320  26.588  1.00  0.00     0.060 A 
ATOM     28  C   UNL A   1      41.957  22.360  25.652  1.00  0.00     0.016 A 
ATOM     29  C   UNL A   1      42.330  21.503  27.894  1.00  0.00     0.016 A 
ATOM     30  C   UNL A   1      42.514  23.588  26.021  1.00  0.00     0.010 A 
ATOM     31  C   UNL A   1      42.883  22.726  28.259  1.00  0.00     0.010 A 
ATOM     32  C   UNL A   1      42.998  23.768  27.323  1.00  0.00    -0.014 A 
BRANCH  32  33
ATOM     33  C   UNL A   1      43.698  25.005  27.744  1.00  0.00     0.031 A 
ATOM     34  C   UNL A   1      42.882  26.155  28.264  1.00  0.00     0.074 A 
ATOM     35  C   UNL A   1      45.023  25.129  27.549  1.00  0.00     0.049 A 
ATOM     36  N   UNL A   1      43.213  27.409  28.411  1.00  0.00    -0.248 NA
ATOM     37  C   UNL A   1      41.496  25.845  28.652  1.00  0.00     0.031 C 
ATOM     38  C   UNL A   1      45.912  24.062  27.091  1.00  0.00     0.029 A 
ATOM     39  N   UNL A   1      45.843  26.221  27.671  1.00  0.00    -0.354 N 
ATOM     40  C   UNL A   1      42.069  28.049  28.875  1.00  0.00     0.074 A 
ATOM     41  C   UNL A   1      41.034  27.042  28.978  1.00  0.00     0.031 C 
ATOM     42  C   UNL A   1      47.151  24.558  26.943  1.00  0.00     0.029 A 
ATOM     43  C   UNL A   1      47.127  25.989  27.234  1.00  0.00     0.049 A 
ATOM     44  H   UNL A   1      45.543  27.086  28.035  1.00  0.00     0.167 HD
ATOM     45  C   UNL A   1      41.903  29.361  29.176  1.00  0.00     0.037 A 
ATOM     46  C   UNL A   1      48.148  26.846  27.041  1.00  0.00     0.037 A 
ATOM     47  C   UNL A   1      42.953  30.339  29.056  1.00  0.00     0.049 A 
ATOM     48  C   UNL A   1      47.927  28.309  27.319  1.00  0.00     0.074 A 
ATOM     49  C   UNL A   1      42.908  31.695  29.331  1.00  0.00     0.029 A 
ATOM     50  N   UNL A   1      44.243  30.062  28.624  1.00  0.00    -0.354 N 
ATOM     51  N   UNL A   1      46.837  28.913  27.734  1.00  0.00    -0.248 NA
ATOM     52  C   UNL A   1      49.066  29.209  27.091  1.00  0.00     0.031 C 
ATOM     53  C   UNL A   1      44.160  32.243  29.026  1.00  0.00     0.029 A 
ATOM     54  C   UNL A   1      45.000  31.221  28.608  1.00  0.00     0.049 A 
ATOM     55  H   UNL A   1      44.573  29.170  28.366  1.00  0.00     0.167 HD
ATOM     56  C   UNL A   1      47.164  30.260  27.838  1.00  0.00     0.074 A 
ATOM     57  C   UNL A   1      48.556  30.380  27.450  1.00  0.00     0.031 C 
ATOM     58  C   UNL A   1      46.387  31.305  28.220  1.00  0.00     0.037 A 
BRANCH  45  59
ATOM     59  C   UNL A   1      40.536  29.808  29.621  1.00  0.00     0.058 A 
ATOM     60  C   UNL A   1      39.456  29.895  28.728  1.00  0.00     0.135 A 
ATOM     61  C   UNL A   1      40.298  30.149  30.963  1.00  0.00     0.135 A 
ATOM     62  F   UNL A   1      39.627  29.597  27.430  1.00  0.00    -0.206 F 
ATOM     63  C   UNL A   1      38.202  30.337  29.140  1.00  0.00     0.059 A 
ATOM     64  C   UNL A   1      39.046  30.570  31.403  1.00  0.00     0.059 A 
ATOM     65  F   UNL A   1      41.293  30.086  31.863  1.00  0.00    -0.206 F 
ATOM     66  C   UNL A   1      38.008  30.679  30.480  1.00  0.00     0.060 A 
BRANCH  66  67
ATOM     67  S   UNL A   1      36.382  31.273  30.995  1.00  0.00     0.124 S 
ATOM     68  O   UNL A   1      36.742  32.383  31.872  1.00  0.00    -0.237 OA
ATOM     69  O   UNL A   1      35.768  31.646  29.725  1.00  0.00    -0.237 OA
ATOM     70  O   UNL A   1      35.791  30.115  31.658  1.00  0.00    -0.744 OA
ENDBRANCH  66  67
ENDBRANCH  45  59
BRANCH  46  71
ATOM     71  C   UNL A   1      49.455  26.342  26.541  1.00  0.00     0.058 A 
ATOM     72  C   UNL A   1      49.806  26.475  25.191  1.00  0.00     0.135 A 
ATOM     73  C   UNL A   1      50.395  25.755  27.404  1.00  0.00     0.135 A 
ATOM     74  F   UNL A   1      48.937  27.018  24.323  1.00  0.00    -0.206 F 
ATOM     75  C   UNL A   1      51.041  26.048  24.711  1.00  0.00     0.059 A 
ATOM     76  C   UNL A   1      51.646  25.343  26.954  1.00  0.00     0.059 A 
ATOM     77  F   UNL A   1      50.113  25.612  28.709  1.00  0.00    -0.206 F 
ATOM     78  C   UNL A   1      51.958  25.491  25.603  1.00  0.00     0.060 A 
BRANCH  78  79
ATOM     79  S   UNL A   1      53.585  25.008  24.982  1.00  0.00     0.124 S 
ATOM     80  O   UNL A   1      54.470  25.646  25.950  1.00  0.00    -0.237 OA
ATOM     81  O   UNL A   1      53.516  23.551  25.044  1.00  0.00    -0.237 OA
ATOM     82  O   UNL A   1      53.609  25.571  23.635  1.00  0.00    -0.744 OA
ENDBRANCH  78  79
ENDBRANCH  46  71
BRANCH  58  83
ATOM     83  C   UNL A   1      47.037  32.658  28.270  1.00  0.00     0.058 A 
ATOM     84  C   UNL A   1      47.770  33.083  29.387  1.00  0.00     0.135 A 
ATOM     85  C   UNL A   1      46.970  33.516  27.160  1.00  0.00     0.135 A 
ATOM     86  F   UNL A   1      47.856  32.301  30.476  1.00  0.00    -0.206 F 
ATOM     87  C   UNL A   1      48.404  34.320  29.411  1.00  0.00     0.059 A 
ATOM     88  C   UNL A   1      47.615  34.748  27.152  1.00  0.00     0.059 A 
ATOM     89  F   UNL A   1      46.287  33.152  26.064  1.00  0.00    -0.206 F 
ATOM     90  C   UNL A   1      48.323  35.144  28.285  1.00  0.00     0.060 A 
BRANCH  90  91
ATOM     91  S   UNL A   1      49.187  36.729  28.310  1.00  0.00     0.124 S 
ATOM     92  O   UNL A   1      49.221  37.068  26.891  1.00  0.00    -0.237 OA
ATOM     93  O   UNL A   1      48.309  37.552  29.138  1.00  0.00    -0.237 OA
ATOM     94  O   UNL A   1      50.478  36.403  28.910  1.00  0.00    -0.744 OA
ENDBRANCH  90  91
ENDBRANCH  58  83
ENDBRANCH  32  33
ENDBRANCH  25  27
ENDBRANCH  24  25
ENDBRANCH  23  24
ENDBRANCH  22  23
ENDBRANCH  21  22
ENDBRANCH  20  21
ENDBRANCH   1  20
TORSDOF 24
ENDMDL
