MODEL 1
REMARK VINA RESULT:      -9.3      0.000      0.000
REMARK SMILES N#CCc1ccc(OCC(=O)OCCOCCOCCOC(=O)c2ccc(-c3c4nc(c(-c5c(F)cc(S(=O)(=O)[O-])cc5F)c5ccc([nH]5)c(-c5c(F)cc(S(=O)(=O)[O-])cc5F)c5nc(c(-c6c(F)cc(S(=O)(=O)[O-])cc6F)c6ccc3[nH]6)C=C5)C=C4)cc2)cc1
REMARK SMILES IDX 16 1 15 2 14 3 13 4 12 5 10 6 11 7 9 8 8 9 7 10 4 11 5 12
REMARK SMILES IDX 91 13 6 14 90 15 3 16 2 17 1 18 17 19 18 20 19 21 20 22
REMARK SMILES IDX 21 23 22 24 23 25 24 26 25 27 89 28 26 29 88 30 27 31 28 32
REMARK SMILES IDX 29 33 82 34 30 35 87 36 81 37 83 38 31 39 86 40 80 41 79 42
REMARK SMILES IDX 32 44 66 45 45 46 65 47 46 48 49 49 64 50 84 51 47 52 48 53
REMARK SMILES IDX 63 55 85 56 50 57 33 58 34 59 43 60 35 61 36 62 42 63 44 64
REMARK SMILES IDX 37 65 38 66 39 67 40 68 41 69 67 70 68 71 77 72 69 73 70 74
REMARK SMILES IDX 76 75 78 76 71 77 72 78 73 79 74 80 75 81 51 82 52 83 61 84
REMARK SMILES IDX 53 85 54 86 60 87 62 88 55 89 56 90 57 91 58 92 59 93
REMARK H PARENT 83 43 49 54
REMARK Flexibility Score: inf
ROOT
ATOM      1  C   UNL A   1      44.127  20.986  25.312  1.00  0.00     0.188 C 
ENDROOT
BRANCH   1   2
ATOM      2  O   UNL A   1      43.745  19.646  25.016  1.00  0.00    -0.376 OA
BRANCH   2   3
ATOM      3  C   UNL A   1      42.635  19.102  25.721  1.00  0.00     0.202 C 
BRANCH   3   4
ATOM      4  C   UNL A   1      42.099  19.980  26.854  1.00  0.00     0.261 C 
BRANCH   4   5
ATOM      5  O   UNL A   1      40.726  20.355  26.612  1.00  0.00    -0.461 OA
BRANCH   5   6
ATOM      6  C   UNL A   1      40.430  21.675  26.716  1.00  0.00     0.344 C 
ATOM      7  O   UNL A   1      41.206  22.526  27.139  1.00  0.00    -0.248 OA
BRANCH   6   8
ATOM      8  C   UNL A   1      39.037  22.031  26.174  1.00  0.00     0.351 C 
BRANCH   8   9
ATOM      9  O   UNL A   1      38.435  21.169  25.210  1.00  0.00    -0.482 OA
BRANCH   9  10
ATOM     10  C   UNL A   1      37.154  21.408  24.785  1.00  0.00     0.120 A 
ATOM     11  C   UNL A   1      34.542  22.343  24.080  1.00  0.00    -0.034 A 
ATOM     12  C   UNL A   1      35.683  23.042  23.677  1.00  0.00     0.008 A 
ATOM     13  C   UNL A   1      34.759  21.114  24.744  1.00  0.00     0.008 A 
ATOM     14  C   UNL A   1      36.969  22.570  24.019  1.00  0.00     0.047 A 
ATOM     15  C   UNL A   1      36.035  20.646  25.082  1.00  0.00     0.047 A 
BRANCH  11  16
ATOM     16  C   UNL A   1      33.110  22.863  23.814  1.00  0.00     0.155 C 
BRANCH  16  17
ATOM     17  C   UNL A   1      33.198  23.671  22.530  1.00  0.00     0.067 C 
ATOM     18  N   UNL A   1      33.271  24.342  21.464  1.00  0.00    -0.198 NA
ENDBRANCH  16  17
ENDBRANCH  11  16
ENDBRANCH   9  10
ENDBRANCH   8   9
ENDBRANCH   6   8
ENDBRANCH   5   6
ENDBRANCH   4   5
ENDBRANCH   3   4
ENDBRANCH   2   3
ENDBRANCH   1   2
BRANCH   1  19
ATOM     19  C   UNL A   1      45.621  21.324  25.262  1.00  0.00     0.188 C 
BRANCH  19  20
ATOM     20  O   UNL A   1      46.013  22.308  26.213  1.00  0.00    -0.376 OA
BRANCH  20  21
ATOM     21  C   UNL A   1      45.801  23.644  25.775  1.00  0.00     0.202 C 
BRANCH  21  22
ATOM     22  C   UNL A   1      44.951  24.396  26.791  1.00  0.00     0.261 C 
BRANCH  22  23
ATOM     23  O   UNL A   1      44.547  25.676  26.259  1.00  0.00    -0.460 OA
BRANCH  23  24
ATOM     24  C   UNL A   1      43.221  25.883  26.127  1.00  0.00     0.338 C 
ATOM     25  O   UNL A   1      42.513  25.470  25.225  1.00  0.00    -0.246 OA
BRANCH  24  26
ATOM     26  C   UNL A   1      42.693  26.669  27.271  1.00  0.00     0.060 A 
ATOM     27  C   UNL A   1      43.219  27.913  27.631  1.00  0.00     0.016 A 
ATOM     28  C   UNL A   1      41.723  26.079  28.081  1.00  0.00     0.016 A 
ATOM     29  C   UNL A   1      42.825  28.530  28.827  1.00  0.00     0.010 A 
ATOM     30  C   UNL A   1      41.273  26.736  29.232  1.00  0.00     0.010 A 
ATOM     31  C   UNL A   1      41.835  27.959  29.638  1.00  0.00    -0.014 A 
BRANCH  31  32
ATOM     32  C   UNL A   1      41.360  28.600  30.902  1.00  0.00     0.031 A 
ATOM     33  C   UNL A   1      40.186  29.551  30.877  1.00  0.00     0.074 A 
ATOM     34  C   UNL A   1      42.016  28.408  32.066  1.00  0.00     0.049 A 
ATOM     35  N   UNL A   1      39.813  30.439  31.763  1.00  0.00    -0.248 NA
ATOM     36  C   UNL A   1      39.322  29.496  29.690  1.00  0.00     0.031 C 
ATOM     37  C   UNL A   1      43.129  27.482  32.280  1.00  0.00     0.029 A 
ATOM     38  N   UNL A   1      41.859  29.021  33.288  1.00  0.00    -0.354 N 
ATOM     39  C   UNL A   1      38.702  31.079  31.217  1.00  0.00     0.074 A 
ATOM     40  C   UNL A   1      38.450  30.464  29.933  1.00  0.00     0.031 C 
ATOM     41  C   UNL A   1      43.564  27.599  33.543  1.00  0.00     0.029 A 
ATOM     42  C   UNL A   1      42.829  28.673  34.200  1.00  0.00     0.049 A 
ATOM     43  H   UNL A   1      41.126  29.647  33.489  1.00  0.00     0.167 HD
ATOM     44  C   UNL A   1      37.974  32.099  31.730  1.00  0.00     0.037 A 
ATOM     45  C   UNL A   1      43.152  29.206  35.396  1.00  0.00     0.037 A 
ATOM     46  C   UNL A   1      38.205  32.691  33.021  1.00  0.00     0.049 A 
ATOM     47  C   UNL A   1      42.385  30.391  35.915  1.00  0.00     0.074 A 
ATOM     48  C   UNL A   1      37.508  33.719  33.634  1.00  0.00     0.029 A 
ATOM     49  N   UNL A   1      39.208  32.311  33.898  1.00  0.00    -0.354 N 
ATOM     50  N   UNL A   1      41.371  31.020  35.371  1.00  0.00    -0.248 NA
ATOM     51  C   UNL A   1      42.824  30.955  37.200  1.00  0.00     0.031 C 
ATOM     52  C   UNL A   1      38.118  33.990  34.864  1.00  0.00     0.029 A 
ATOM     53  C   UNL A   1      39.167  33.101  35.034  1.00  0.00     0.049 A 
ATOM     54  H   UNL A   1      39.854  31.586  33.736  1.00  0.00     0.167 HD
ATOM     55  C   UNL A   1      41.044  32.044  36.254  1.00  0.00     0.074 A 
ATOM     56  C   UNL A   1      41.955  31.943  37.373  1.00  0.00     0.031 C 
ATOM     57  C   UNL A   1      40.076  32.987  36.145  1.00  0.00     0.037 A 
BRANCH  44  58
ATOM     58  C   UNL A   1      36.888  32.690  30.876  1.00  0.00     0.058 A 
ATOM     59  C   UNL A   1      37.123  33.762  30.002  1.00  0.00     0.135 A 
ATOM     60  C   UNL A   1      35.604  32.118  30.883  1.00  0.00     0.135 A 
ATOM     61  F   UNL A   1      38.327  34.351  29.965  1.00  0.00    -0.206 F 
ATOM     62  C   UNL A   1      36.118  34.253  29.171  1.00  0.00     0.059 A 
ATOM     63  C   UNL A   1      34.593  32.579  30.047  1.00  0.00     0.059 A 
ATOM     64  F   UNL A   1      35.328  31.090  31.701  1.00  0.00    -0.206 F 
ATOM     65  C   UNL A   1      34.857  33.653  29.199  1.00  0.00     0.060 A 
BRANCH  65  66
ATOM     66  S   UNL A   1      33.573  34.274  28.091  1.00  0.00     0.124 S 
ATOM     67  O   UNL A   1      34.370  34.921  27.053  1.00  0.00    -0.237 OA
ATOM     68  O   UNL A   1      32.883  33.053  27.690  1.00  0.00    -0.237 OA
ATOM     69  O   UNL A   1      32.799  35.177  28.940  1.00  0.00    -0.744 OA
ENDBRANCH  65  66
ENDBRANCH  44  58
BRANCH  45  70
ATOM     70  C   UNL A   1      44.322  28.679  36.149  1.00  0.00     0.058 A 
ATOM     71  C   UNL A   1      45.598  29.236  35.989  1.00  0.00     0.135 A 
ATOM     72  C   UNL A   1      44.184  27.601  37.038  1.00  0.00     0.135 A 
ATOM     73  F   UNL A   1      45.782  30.258  35.138  1.00  0.00    -0.206 F 
ATOM     74  C   UNL A   1      46.701  28.737  36.676  1.00  0.00     0.059 A 
ATOM     75  C   UNL A   1      45.265  27.104  37.757  1.00  0.00     0.059 A 
ATOM     76  F   UNL A   1      42.982  27.038  37.234  1.00  0.00    -0.206 F 
ATOM     77  C   UNL A   1      46.523  27.670  37.558  1.00  0.00     0.060 A 
BRANCH  77  78
ATOM     78  S   UNL A   1      47.946  27.054  38.482  1.00  0.00     0.124 S 
ATOM     79  O   UNL A   1      48.045  25.686  37.988  1.00  0.00    -0.237 OA
ATOM     80  O   UNL A   1      49.008  27.963  38.062  1.00  0.00    -0.237 OA
ATOM     81  O   UNL A   1      47.527  27.196  39.873  1.00  0.00    -0.744 OA
ENDBRANCH  77  78
ENDBRANCH  45  70
BRANCH  57  82
ATOM     82  C   UNL A   1      39.931  33.963  37.276  1.00  0.00     0.058 A 
ATOM     83  C   UNL A   1      40.594  35.199  37.270  1.00  0.00     0.135 A 
ATOM     84  C   UNL A   1      39.083  33.677  38.358  1.00  0.00     0.135 A 
ATOM     85  F   UNL A   1      41.422  35.518  36.261  1.00  0.00    -0.206 F 
ATOM     86  C   UNL A   1      40.441  36.110  38.310  1.00  0.00     0.059 A 
ATOM     87  C   UNL A   1      38.897  34.582  39.398  1.00  0.00     0.059 A 
ATOM     88  F   UNL A   1      38.419  32.511  38.406  1.00  0.00    -0.206 F 
ATOM     89  C   UNL A   1      39.590  35.791  39.371  1.00  0.00     0.060 A 
BRANCH  89  90
ATOM     90  S   UNL A   1      39.375  36.990  40.703  1.00  0.00     0.124 S 
ATOM     91  O   UNL A   1      38.884  36.143  41.785  1.00  0.00    -0.237 OA
ATOM     92  O   UNL A   1      40.726  37.518  40.875  1.00  0.00    -0.237 OA
ATOM     93  O   UNL A   1      38.407  37.935  40.155  1.00  0.00    -0.744 OA
ENDBRANCH  89  90
ENDBRANCH  57  82
ENDBRANCH  31  32
ENDBRANCH  24  26
ENDBRANCH  23  24
ENDBRANCH  22  23
ENDBRANCH  21  22
ENDBRANCH  20  21
ENDBRANCH  19  20
ENDBRANCH   1  19
TORSDOF 24
ENDMDL
MODEL 2
REMARK VINA RESULT:      -9.2      3.083      9.599
REMARK SMILES N#CCc1ccc(OCC(=O)OCCOCCOCCOC(=O)c2ccc(-c3c4nc(c(-c5c(F)cc(S(=O)(=O)[O-])cc5F)c5ccc([nH]5)c(-c5c(F)cc(S(=O)(=O)[O-])cc5F)c5nc(c(-c6c(F)cc(S(=O)(=O)[O-])cc6F)c6ccc3[nH]6)C=C5)C=C4)cc2)cc1
REMARK SMILES IDX 16 1 15 2 14 3 13 4 12 5 10 6 11 7 9 8 8 9 7 10 4 11 5 12
REMARK SMILES IDX 91 13 6 14 90 15 3 16 2 17 1 18 17 19 18 20 19 21 20 22
REMARK SMILES IDX 21 23 22 24 23 25 24 26 25 27 89 28 26 29 88 30 27 31 28 32
REMARK SMILES IDX 29 33 82 34 30 35 87 36 81 37 83 38 31 39 86 40 80 41 79 42
REMARK SMILES IDX 32 44 66 45 45 46 65 47 46 48 49 49 64 50 84 51 47 52 48 53
REMARK SMILES IDX 63 55 85 56 50 57 33 58 34 59 43 60 35 61 36 62 42 63 44 64
REMARK SMILES IDX 37 65 38 66 39 67 40 68 41 69 67 70 68 71 77 72 69 73 70 74
REMARK SMILES IDX 76 75 78 76 71 77 72 78 73 79 74 80 75 81 51 82 52 83 61 84
REMARK SMILES IDX 53 85 54 86 60 87 62 88 55 89 56 90 57 91 58 92 59 93
REMARK H PARENT 83 43 49 54
REMARK Flexibility Score: inf
ROOT
ATOM      1  C   UNL A   1      34.988  23.401  26.090  1.00  0.00     0.188 C 
ENDROOT
BRANCH   1   2
ATOM      2  O   UNL A   1      34.164  24.203  25.250  1.00  0.00    -0.376 OA
BRANCH   2   3
ATOM      3  C   UNL A   1      32.759  23.976  25.287  1.00  0.00     0.202 C 
BRANCH   3   4
ATOM      4  C   UNL A   1      32.007  24.769  26.358  1.00  0.00     0.261 C 
BRANCH   4   5
ATOM      5  O   UNL A   1      31.386  25.943  25.791  1.00  0.00    -0.461 OA
BRANCH   5   6
ATOM      6  C   UNL A   1      31.683  27.130  26.378  1.00  0.00     0.344 C 
ATOM      7  O   UNL A   1      31.306  27.461  27.497  1.00  0.00    -0.248 OA
BRANCH   6   8
ATOM      8  C   UNL A   1      32.616  28.010  25.531  1.00  0.00     0.351 C 
BRANCH   8   9
ATOM      9  O   UNL A   1      32.212  29.344  25.226  1.00  0.00    -0.482 OA
BRANCH   9  10
ATOM     10  C   UNL A   1      31.123  29.560  24.422  1.00  0.00     0.120 A 
ATOM     11  C   UNL A   1      29.164  30.015  22.385  1.00  0.00    -0.034 A 
ATOM     12  C   UNL A   1      30.043  28.933  22.300  1.00  0.00     0.008 A 
ATOM     13  C   UNL A   1      29.227  30.786  23.569  1.00  0.00     0.008 A 
ATOM     14  C   UNL A   1      31.001  28.707  23.313  1.00  0.00     0.047 A 
ATOM     15  C   UNL A   1      30.177  30.561  24.574  1.00  0.00     0.047 A 
BRANCH  11  16
ATOM     16  C   UNL A   1      28.160  30.363  21.261  1.00  0.00     0.155 C 
BRANCH  16  17
ATOM     17  C   UNL A   1      28.026  31.877  21.284  1.00  0.00     0.067 C 
ATOM     18  N   UNL A   1      27.914  33.133  21.304  1.00  0.00    -0.198 NA
ENDBRANCH  16  17
ENDBRANCH  11  16
ENDBRANCH   9  10
ENDBRANCH   8   9
ENDBRANCH   6   8
ENDBRANCH   5   6
ENDBRANCH   4   5
ENDBRANCH   3   4
ENDBRANCH   2   3
ENDBRANCH   1   2
BRANCH   1  19
ATOM     19  C   UNL A   1      35.013  21.891  25.823  1.00  0.00     0.188 C 
BRANCH  19  20
ATOM     20  O   UNL A   1      36.328  21.346  25.769  1.00  0.00    -0.376 OA
BRANCH  20  21
ATOM     21  C   UNL A   1      37.269  22.185  25.113  1.00  0.00     0.202 C 
BRANCH  21  22
ATOM     22  C   UNL A   1      38.605  22.139  25.843  1.00  0.00     0.261 C 
BRANCH  22  23
ATOM     23  O   UNL A   1      38.882  23.413  26.464  1.00  0.00    -0.460 OA
BRANCH  23  24
ATOM     24  C   UNL A   1      40.180  23.699  26.698  1.00  0.00     0.338 C 
ATOM     25  O   UNL A   1      41.141  23.064  26.302  1.00  0.00    -0.246 OA
BRANCH  24  26
ATOM     26  C   UNL A   1      40.309  24.946  27.494  1.00  0.00     0.060 A 
ATOM     27  C   UNL A   1      41.468  25.728  27.479  1.00  0.00     0.016 A 
ATOM     28  C   UNL A   1      39.280  25.270  28.378  1.00  0.00     0.016 A 
ATOM     29  C   UNL A   1      41.621  26.785  28.387  1.00  0.00     0.010 A 
ATOM     30  C   UNL A   1      39.404  26.376  29.227  1.00  0.00     0.010 A 
ATOM     31  C   UNL A   1      40.586  27.135  29.264  1.00  0.00    -0.014 A 
BRANCH  31  32
ATOM     32  C   UNL A   1      40.695  28.277  30.224  1.00  0.00     0.031 A 
ATOM     33  C   UNL A   1      41.658  28.203  31.385  1.00  0.00     0.074 A 
ATOM     34  C   UNL A   1      39.885  29.351  30.119  1.00  0.00     0.049 A 
ATOM     35  N   UNL A   1      41.693  28.910  32.486  1.00  0.00    -0.248 NA
ATOM     36  C   UNL A   1      42.719  27.191  31.294  1.00  0.00     0.031 C 
ATOM     37  C   UNL A   1      38.941  29.610  29.030  1.00  0.00     0.029 A 
ATOM     38  N   UNL A   1      39.700  30.413  30.973  1.00  0.00    -0.354 N 
ATOM     39  C   UNL A   1      42.748  28.394  33.237  1.00  0.00     0.074 A 
ATOM     40  C   UNL A   1      43.339  27.330  32.458  1.00  0.00     0.031 C 
ATOM     41  C   UNL A   1      38.269  30.741  29.289  1.00  0.00     0.029 A 
ATOM     42  C   UNL A   1      38.661  31.237  30.603  1.00  0.00     0.049 A 
ATOM     43  H   UNL A   1      40.256  30.569  31.771  1.00  0.00     0.167 HD
ATOM     44  C   UNL A   1      43.170  28.761  34.470  1.00  0.00     0.037 A 
ATOM     45  C   UNL A   1      38.033  32.225  31.271  1.00  0.00     0.037 A 
ATOM     46  C   UNL A   1      42.601  29.841  35.234  1.00  0.00     0.049 A 
ATOM     47  C   UNL A   1      38.461  32.566  32.672  1.00  0.00     0.074 A 
ATOM     48  C   UNL A   1      42.974  30.298  36.487  1.00  0.00     0.029 A 
ATOM     49  N   UNL A   1      41.544  30.633  34.818  1.00  0.00    -0.354 N 
ATOM     50  N   UNL A   1      39.423  32.042  33.391  1.00  0.00    -0.248 NA
ATOM     51  C   UNL A   1      37.699  33.617  33.361  1.00  0.00     0.031 C 
ATOM     52  C   UNL A   1      42.110  31.339  36.847  1.00  0.00     0.029 A 
ATOM     53  C   UNL A   1      41.230  31.556  35.800  1.00  0.00     0.049 A 
ATOM     54  H   UNL A   1      41.082  30.550  33.952  1.00  0.00     0.167 HD
ATOM     55  C   UNL A   1      39.390  32.708  34.612  1.00  0.00     0.074 A 
ATOM     56  C   UNL A   1      38.323  33.684  34.529  1.00  0.00     0.031 C 
ATOM     57  C   UNL A   1      40.170  32.526  35.705  1.00  0.00     0.037 A 
BRANCH  44  58
ATOM     58  C   UNL A   1      44.266  27.956  35.110  1.00  0.00     0.058 A 
ATOM     59  C   UNL A   1      45.615  28.330  35.025  1.00  0.00     0.135 A 
ATOM     60  C   UNL A   1      43.944  26.829  35.885  1.00  0.00     0.135 A 
ATOM     61  F   UNL A   1      45.977  29.392  34.289  1.00  0.00    -0.206 F 
ATOM     62  C   UNL A   1      46.610  27.607  35.680  1.00  0.00     0.059 A 
ATOM     63  C   UNL A   1      44.919  26.105  36.563  1.00  0.00     0.059 A 
ATOM     64  F   UNL A   1      42.668  26.429  35.997  1.00  0.00    -0.206 F 
ATOM     65  C   UNL A   1      46.251  26.498  36.449  1.00  0.00     0.060 A 
BRANCH  65  66
ATOM     66  S   UNL A   1      47.545  25.589  37.322  1.00  0.00     0.124 S 
ATOM     67  O   UNL A   1      48.734  26.357  36.965  1.00  0.00    -0.237 OA
ATOM     68  O   UNL A   1      47.119  25.692  38.714  1.00  0.00    -0.237 OA
ATOM     69  O   UNL A   1      47.469  24.250  36.746  1.00  0.00    -0.744 OA
ENDBRANCH  65  66
ENDBRANCH  44  58
BRANCH  45  70
ATOM     70  C   UNL A   1      36.863  32.906  30.655  1.00  0.00     0.058 A 
ATOM     71  C   UNL A   1      37.031  33.964  29.752  1.00  0.00     0.135 A 
ATOM     72  C   UNL A   1      35.551  32.512  30.967  1.00  0.00     0.135 A 
ATOM     73  F   UNL A   1      38.265  34.386  29.436  1.00  0.00    -0.206 F 
ATOM     74  C   UNL A   1      35.940  34.618  29.187  1.00  0.00     0.059 A 
ATOM     75  C   UNL A   1      34.446  33.132  30.393  1.00  0.00     0.059 A 
ATOM     76  F   UNL A   1      35.335  31.498  31.819  1.00  0.00    -0.206 F 
ATOM     77  C   UNL A   1      34.651  34.194  29.513  1.00  0.00     0.060 A 
BRANCH  77  78
ATOM     78  S   UNL A   1      33.240  35.014  28.744  1.00  0.00     0.124 S 
ATOM     79  O   UNL A   1      33.894  36.085  28.002  1.00  0.00    -0.237 OA
ATOM     80  O   UNL A   1      32.657  33.944  27.940  1.00  0.00    -0.237 OA
ATOM     81  O   UNL A   1      32.436  35.435  29.888  1.00  0.00    -0.744 OA
ENDBRANCH  77  78
ENDBRANCH  45  70
BRANCH  57  82
ATOM     82  C   UNL A   1      39.924  33.418  36.887  1.00  0.00     0.058 A 
ATOM     83  C   UNL A   1      40.622  34.624  37.056  1.00  0.00     0.135 A 
ATOM     84  C   UNL A   1      38.948  33.084  37.839  1.00  0.00     0.135 A 
ATOM     85  F   UNL A   1      41.570  34.985  36.177  1.00  0.00    -0.206 F 
ATOM     86  C   UNL A   1      40.377  35.458  38.142  1.00  0.00     0.059 A 
ATOM     87  C   UNL A   1      38.671  33.914  38.921  1.00  0.00     0.059 A 
ATOM     88  F   UNL A   1      38.247  31.946  37.718  1.00  0.00    -0.206 F 
ATOM     89  C   UNL A   1      39.399  35.093  39.071  1.00  0.00     0.060 A 
BRANCH  89  90
ATOM     90  S   UNL A   1      39.069  36.194  40.462  1.00  0.00     0.124 S 
ATOM     91  O   UNL A   1      38.102  35.416  41.229  1.00  0.00    -0.237 OA
ATOM     92  O   UNL A   1      40.388  36.341  41.070  1.00  0.00    -0.237 OA
ATOM     93  O   UNL A   1      38.543  37.397  39.824  1.00  0.00    -0.744 OA
ENDBRANCH  89  90
ENDBRANCH  57  82
ENDBRANCH  31  32
ENDBRANCH  24  26
ENDBRANCH  23  24
ENDBRANCH  22  23
ENDBRANCH  21  22
ENDBRANCH  20  21
ENDBRANCH  19  20
ENDBRANCH   1  19
TORSDOF 24
ENDMDL
MODEL 3
REMARK VINA RESULT:      -9.2      2.462      9.185
REMARK SMILES N#CCc1ccc(OCC(=O)OCCOCCOCCOC(=O)c2ccc(-c3c4nc(c(-c5c(F)cc(S(=O)(=O)[O-])cc5F)c5ccc([nH]5)c(-c5c(F)cc(S(=O)(=O)[O-])cc5F)c5nc(c(-c6c(F)cc(S(=O)(=O)[O-])cc6F)c6ccc3[nH]6)C=C5)C=C4)cc2)cc1
REMARK SMILES IDX 16 1 15 2 14 3 13 4 12 5 10 6 11 7 9 8 8 9 7 10 4 11 5 12
REMARK SMILES IDX 91 13 6 14 90 15 3 16 2 17 1 18 17 19 18 20 19 21 20 22
REMARK SMILES IDX 21 23 22 24 23 25 24 26 25 27 89 28 26 29 88 30 27 31 28 32
REMARK SMILES IDX 29 33 82 34 30 35 87 36 81 37 83 38 31 39 86 40 80 41 79 42
REMARK SMILES IDX 32 44 66 45 45 46 65 47 46 48 49 49 64 50 84 51 47 52 48 53
REMARK SMILES IDX 63 55 85 56 50 57 33 58 34 59 43 60 35 61 36 62 42 63 44 64
REMARK SMILES IDX 37 65 38 66 39 67 40 68 41 69 67 70 68 71 77 72 69 73 70 74
REMARK SMILES IDX 76 75 78 76 71 77 72 78 73 79 74 80 75 81 51 82 52 83 61 84
REMARK SMILES IDX 53 85 54 86 60 87 62 88 55 89 56 90 57 91 58 92 59 93
REMARK H PARENT 83 43 49 54
REMARK Flexibility Score: inf
ROOT
ATOM      1  C   UNL A   1      35.807  20.893  25.113  1.00  0.00     0.188 C 
ENDROOT
BRANCH   1   2
ATOM      2  O   UNL A   1      34.417  21.173  25.243  1.00  0.00    -0.376 OA
BRANCH   2   3
ATOM      3  C   UNL A   1      33.907  22.321  24.573  1.00  0.00     0.202 C 
BRANCH   3   4
ATOM      4  C   UNL A   1      32.381  22.435  24.564  1.00  0.00     0.261 C 
BRANCH   4   5
ATOM      5  O   UNL A   1      31.814  21.896  25.777  1.00  0.00    -0.461 OA
BRANCH   5   6
ATOM      6  C   UNL A   1      31.538  22.783  26.765  1.00  0.00     0.344 C 
ATOM      7  O   UNL A   1      32.320  23.086  27.660  1.00  0.00    -0.248 OA
BRANCH   6   8
ATOM      8  C   UNL A   1      30.159  23.447  26.620  1.00  0.00     0.351 C 
BRANCH   8   9
ATOM      9  O   UNL A   1      30.065  24.866  26.734  1.00  0.00    -0.482 OA
BRANCH   9  10
ATOM     10  C   UNL A   1      30.422  25.661  25.677  1.00  0.00     0.120 A 
ATOM     11  C   UNL A   1      30.919  27.664  23.693  1.00  0.00    -0.034 A 
ATOM     12  C   UNL A   1      31.227  27.898  25.035  1.00  0.00     0.008 A 
ATOM     13  C   UNL A   1      30.463  26.365  23.369  1.00  0.00     0.008 A 
ATOM     14  C   UNL A   1      30.990  26.903  26.009  1.00  0.00     0.047 A 
ATOM     15  C   UNL A   1      30.228  25.378  24.335  1.00  0.00     0.047 A 
BRANCH  11  16
ATOM     16  C   UNL A   1      31.072  28.749  22.602  1.00  0.00     0.155 C 
BRANCH  16  17
ATOM     17  C   UNL A   1      29.656  29.173  22.244  1.00  0.00     0.067 C 
ATOM     18  N   UNL A   1      28.482  29.525  21.947  1.00  0.00    -0.198 NA
ENDBRANCH  16  17
ENDBRANCH  11  16
ENDBRANCH   9  10
ENDBRANCH   8   9
ENDBRANCH   6   8
ENDBRANCH   5   6
ENDBRANCH   4   5
ENDBRANCH   3   4
ENDBRANCH   2   3
ENDBRANCH   1   2
BRANCH   1  19
ATOM     19  C   UNL A   1      36.670  21.918  24.368  1.00  0.00     0.188 C 
BRANCH  19  20
ATOM     20  O   UNL A   1      37.763  22.408  25.138  1.00  0.00    -0.376 OA
BRANCH  20  21
ATOM     21  C   UNL A   1      38.597  21.384  25.664  1.00  0.00     0.202 C 
BRANCH  21  22
ATOM     22  C   UNL A   1      39.597  21.980  26.646  1.00  0.00     0.261 C 
BRANCH  22  23
ATOM     23  O   UNL A   1      39.653  23.415  26.497  1.00  0.00    -0.460 OA
BRANCH  23  24
ATOM     24  C   UNL A   1      40.881  23.974  26.503  1.00  0.00     0.338 C 
ATOM     25  O   UNL A   1      41.855  23.581  25.885  1.00  0.00    -0.246 OA
BRANCH  24  26
ATOM     26  C   UNL A   1      40.901  25.194  27.350  1.00  0.00     0.060 A 
ATOM     27  C   UNL A   1      41.896  26.169  27.237  1.00  0.00     0.016 A 
ATOM     28  C   UNL A   1      39.959  25.297  28.374  1.00  0.00     0.016 A 
ATOM     29  C   UNL A   1      41.988  27.201  28.181  1.00  0.00     0.010 A 
ATOM     30  C   UNL A   1      40.006  26.374  29.266  1.00  0.00     0.010 A 
ATOM     31  C   UNL A   1      41.035  27.329  29.201  1.00  0.00    -0.014 A 
BRANCH  31  32
ATOM     32  C   UNL A   1      41.075  28.435  30.207  1.00  0.00     0.031 A 
ATOM     33  C   UNL A   1      42.026  28.360  31.379  1.00  0.00     0.074 A 
ATOM     34  C   UNL A   1      40.216  29.472  30.132  1.00  0.00     0.049 A 
ATOM     35  N   UNL A   1      42.012  29.023  32.507  1.00  0.00    -0.248 NA
ATOM     36  C   UNL A   1      43.136  27.405  31.264  1.00  0.00     0.031 C 
ATOM     37  C   UNL A   1      39.275  29.729  29.041  1.00  0.00     0.029 A 
ATOM     38  N   UNL A   1      39.968  30.489  31.025  1.00  0.00    -0.354 N 
ATOM     39  C   UNL A   1      43.080  28.529  33.253  1.00  0.00     0.074 A 
ATOM     40  C   UNL A   1      43.733  27.526  32.442  1.00  0.00     0.031 C 
ATOM     41  C   UNL A   1      38.545  30.815  29.334  1.00  0.00     0.029 A 
ATOM     42  C   UNL A   1      38.895  31.275  30.672  1.00  0.00     0.049 A 
ATOM     43  H   UNL A   1      40.504  30.639  31.837  1.00  0.00     0.167 HD
ATOM     44  C   UNL A   1      43.467  28.865  34.506  1.00  0.00     0.037 A 
ATOM     45  C   UNL A   1      38.210  32.204  31.369  1.00  0.00     0.037 A 
ATOM     46  C   UNL A   1      42.837  29.885  35.303  1.00  0.00     0.049 A 
ATOM     47  C   UNL A   1      38.602  32.509  32.789  1.00  0.00     0.074 A 
ATOM     48  C   UNL A   1      43.169  30.309  36.579  1.00  0.00     0.029 A 
ATOM     49  N   UNL A   1      41.747  30.641  34.903  1.00  0.00    -0.354 N 
ATOM     50  N   UNL A   1      39.579  32.003  33.501  1.00  0.00    -0.248 NA
ATOM     51  C   UNL A   1      37.781  33.493  33.508  1.00  0.00     0.031 C 
ATOM     52  C   UNL A   1      42.252  31.291  36.968  1.00  0.00     0.029 A 
ATOM     53  C   UNL A   1      41.376  31.508  35.917  1.00  0.00     0.049 A 
ATOM     54  H   UNL A   1      41.302  30.571  34.028  1.00  0.00     0.167 HD
ATOM     55  C   UNL A   1      39.497  32.617  34.747  1.00  0.00     0.074 A 
ATOM     56  C   UNL A   1      38.386  33.542  34.687  1.00  0.00     0.031 C 
ATOM     57  C   UNL A   1      40.271  32.429  35.844  1.00  0.00     0.037 A 
BRANCH  44  58
ATOM     58  C   UNL A   1      44.592  28.089  35.130  1.00  0.00     0.058 A 
ATOM     59  C   UNL A   1      44.378  26.893  35.831  1.00  0.00     0.135 A 
ATOM     60  C   UNL A   1      45.919  28.519  34.956  1.00  0.00     0.135 A 
ATOM     61  F   UNL A   1      43.130  26.444  36.035  1.00  0.00    -0.206 F 
ATOM     62  C   UNL A   1      45.441  26.154  36.345  1.00  0.00     0.059 A 
ATOM     63  C   UNL A   1      46.996  27.786  35.443  1.00  0.00     0.059 A 
ATOM     64  F   UNL A   1      46.178  29.658  34.294  1.00  0.00    -0.206 F 
ATOM     65  C   UNL A   1      46.746  26.608  36.144  1.00  0.00     0.060 A 
BRANCH  65  66
ATOM     66  S   UNL A   1      48.119  25.623  36.785  1.00  0.00     0.124 S 
ATOM     67  O   UNL A   1      49.241  26.541  36.616  1.00  0.00    -0.237 OA
ATOM     68  O   UNL A   1      47.710  25.370  38.162  1.00  0.00    -0.237 OA
ATOM     69  O   UNL A   1      48.133  24.451  35.914  1.00  0.00    -0.744 OA
ENDBRANCH  65  66
ENDBRANCH  44  58
BRANCH  45  70
ATOM     70  C   UNL A   1      37.016  32.852  30.763  1.00  0.00     0.058 A 
ATOM     71  C   UNL A   1      37.147  33.933  29.881  1.00  0.00     0.135 A 
ATOM     72  C   UNL A   1      35.720  32.404  31.064  1.00  0.00     0.135 A 
ATOM     73  F   UNL A   1      38.365  34.407  29.576  1.00  0.00    -0.206 F 
ATOM     74  C   UNL A   1      36.034  34.557  29.325  1.00  0.00     0.059 A 
ATOM     75  C   UNL A   1      34.594  32.992  30.499  1.00  0.00     0.059 A 
ATOM     76  F   UNL A   1      35.541  31.366  31.896  1.00  0.00    -0.206 F 
ATOM     77  C   UNL A   1      34.761  34.077  29.640  1.00  0.00     0.060 A 
BRANCH  77  78
ATOM     78  S   UNL A   1      33.321  34.859  28.882  1.00  0.00     0.124 S 
ATOM     79  O   UNL A   1      32.481  35.113  30.046  1.00  0.00    -0.237 OA
ATOM     80  O   UNL A   1      33.904  36.036  28.246  1.00  0.00    -0.237 OA
ATOM     81  O   UNL A   1      32.834  33.836  27.961  1.00  0.00    -0.744 OA
ENDBRANCH  77  78
ENDBRANCH  45  70
BRANCH  57  82
ATOM     82  C   UNL A   1      39.967  33.259  37.056  1.00  0.00     0.058 A 
ATOM     83  C   UNL A   1      40.680  34.433  37.342  1.00  0.00     0.135 A 
ATOM     84  C   UNL A   1      38.919  32.900  37.920  1.00  0.00     0.135 A 
ATOM     85  F   UNL A   1      41.695  34.816  36.551  1.00  0.00    -0.206 F 
ATOM     86  C   UNL A   1      40.382  35.211  38.456  1.00  0.00     0.059 A 
ATOM     87  C   UNL A   1      38.589  33.675  39.027  1.00  0.00     0.059 A 
ATOM     88  F   UNL A   1      38.201  31.790  37.685  1.00  0.00    -0.206 F 
ATOM     89  C   UNL A   1      39.333  34.822  39.294  1.00  0.00     0.060 A 
BRANCH  89  90
ATOM     90  S   UNL A   1      38.935  35.852  40.722  1.00  0.00     0.124 S 
ATOM     91  O   UNL A   1      37.852  35.093  41.338  1.00  0.00    -0.237 OA
ATOM     92  O   UNL A   1      40.195  35.871  41.459  1.00  0.00    -0.237 OA
ATOM     93  O   UNL A   1      38.549  37.126  40.123  1.00  0.00    -0.744 OA
ENDBRANCH  89  90
ENDBRANCH  57  82
ENDBRANCH  31  32
ENDBRANCH  24  26
ENDBRANCH  23  24
ENDBRANCH  22  23
ENDBRANCH  21  22
ENDBRANCH  20  21
ENDBRANCH  19  20
ENDBRANCH   1  19
TORSDOF 24
ENDMDL
