MODEL 1
REMARK VINA RESULT:      -9.9      0.000      0.000
REMARK SMILES O=C(OCCOCCOCCOC(=O)[C@]1(CCc2cccnc2)CCC[NH2+]C1)c1ccc(-c2c3nc(c(-c4c(F)cc(S(=O)(=O)[O-])cc4F)c4ccc([nH]4)c(-c4c(F)cc(S(=O)(=O)[O-])cc4F)c4nc(c(-c5c(F)cc(S(=O)(=O)[O-])cc5F)c5ccc2[nH]5)C=C4)C=C3)cc1
REMARK SMILES IDX 7 1 6 2 5 3 4 4 3 5 2 6 1 7 29 8 30 9 94 10 31 11 93 12
REMARK SMILES IDX 32 13 33 14 34 15 87 16 35 17 92 18 86 19 88 20 36 21 91 22
REMARK SMILES IDX 85 23 84 24 37 26 71 27 50 28 70 29 51 30 54 31 69 32 89 33
REMARK SMILES IDX 52 34 53 35 68 37 90 38 55 39 38 40 39 41 48 42 40 43 41 44
REMARK SMILES IDX 47 45 49 46 42 47 43 48 44 49 45 50 46 51 72 52 73 53 82 54
REMARK SMILES IDX 74 55 75 56 81 57 83 58 76 59 77 60 78 61 79 62 80 63 56 64
REMARK SMILES IDX 57 65 66 66 58 67 59 68 65 69 67 70 60 71 61 72 62 73 63 74
REMARK SMILES IDX 64 75 8 76 9 77 10 78 11 79 12 80 13 81 14 82 15 83 24 84
REMARK SMILES IDX 28 85 25 86 27 87 26 88 16 91 17 92 18 93 19 94 23 95 20 96
REMARK SMILES IDX 22 97 21 98
REMARK H PARENT 88 25 54 36 27 89 27 90
REMARK Flexibility Score: inf
ROOT
ATOM      1  C   UNL A   1      33.511  26.574  22.947  1.00  0.00     0.188 C 
ENDROOT
BRANCH   1   2
ATOM      2  O   UNL A   1      32.980  27.888  22.825  1.00  0.00    -0.376 OA
BRANCH   2   3
ATOM      3  C   UNL A   1      32.766  28.604  24.035  1.00  0.00     0.202 C 
BRANCH   3   4
ATOM      4  C   UNL A   1      33.977  28.814  24.954  1.00  0.00     0.261 C 
BRANCH   4   5
ATOM      5  O   UNL A   1      33.666  29.031  26.338  1.00  0.00    -0.460 OA
BRANCH   5   6
ATOM      6  C   UNL A   1      34.169  29.945  27.203  1.00  0.00     0.338 C 
ATOM      7  O   UNL A   1      33.486  30.944  27.433  1.00  0.00    -0.246 OA
BRANCH   6   8
ATOM      8  C   UNL A   1      35.536  29.878  27.828  1.00  0.00     0.060 A 
ATOM      9  C   UNL A   1      36.748  30.157  27.193  1.00  0.00     0.016 A 
ATOM     10  C   UNL A   1      35.591  29.501  29.186  1.00  0.00     0.016 A 
ATOM     11  C   UNL A   1      37.966  30.046  27.856  1.00  0.00     0.010 A 
ATOM     12  C   UNL A   1      36.811  29.395  29.865  1.00  0.00     0.010 A 
ATOM     13  C   UNL A   1      38.009  29.647  29.186  1.00  0.00    -0.014 A 
BRANCH  13  14
ATOM     14  C   UNL A   1      39.326  29.304  29.757  1.00  0.00     0.031 A 
ATOM     15  C   UNL A   1      39.808  30.138  30.901  1.00  0.00     0.074 A 
ATOM     16  C   UNL A   1      39.988  28.193  29.381  1.00  0.00     0.049 A 
ATOM     17  N   UNL A   1      40.863  29.971  31.648  1.00  0.00    -0.248 NA
ATOM     18  C   UNL A   1      38.952  31.269  31.304  1.00  0.00     0.031 C 
ATOM     19  C   UNL A   1      39.500  27.211  28.419  1.00  0.00     0.029 A 
ATOM     20  N   UNL A   1      41.205  27.691  29.757  1.00  0.00    -0.354 N 
ATOM     21  C   UNL A   1      40.753  30.920  32.652  1.00  0.00     0.074 A 
ATOM     22  C   UNL A   1      39.587  31.723  32.372  1.00  0.00     0.031 C 
ATOM     23  C   UNL A   1      40.452  26.296  28.177  1.00  0.00     0.029 A 
ATOM     24  C   UNL A   1      41.596  26.591  29.025  1.00  0.00     0.049 A 
ATOM     25  H   UNL A   1      41.748  28.078  30.481  1.00  0.00     0.167 HD
ATOM     26  C   UNL A   1      41.532  31.064  33.746  1.00  0.00     0.037 A 
ATOM     27  C   UNL A   1      42.748  25.897  29.052  1.00  0.00     0.037 A 
ATOM     28  C   UNL A   1      42.711  30.280  33.979  1.00  0.00     0.049 A 
ATOM     29  C   UNL A   1      43.722  26.226  30.149  1.00  0.00     0.074 A 
ATOM     30  C   UNL A   1      43.630  30.390  35.004  1.00  0.00     0.029 A 
ATOM     31  N   UNL A   1      43.138  29.243  33.159  1.00  0.00    -0.354 N 
ATOM     32  N   UNL A   1      43.610  27.129  31.095  1.00  0.00    -0.248 NA
ATOM     33  C   UNL A   1      44.941  25.415  30.226  1.00  0.00     0.031 C 
ATOM     34  C   UNL A   1      44.645  29.454  34.772  1.00  0.00     0.029 A 
ATOM     35  C   UNL A   1      44.328  28.723  33.636  1.00  0.00     0.049 A 
ATOM     36  H   UNL A   1      42.665  28.926  32.357  1.00  0.00     0.167 HD
ATOM     37  C   UNL A   1      44.715  26.960  31.915  1.00  0.00     0.074 A 
ATOM     38  C   UNL A   1      45.482  25.865  31.350  1.00  0.00     0.031 C 
ATOM     39  C   UNL A   1      45.062  27.634  33.040  1.00  0.00     0.037 A 
BRANCH  26  40
ATOM     40  C   UNL A   1      41.125  32.120  34.727  1.00  0.00     0.058 A 
ATOM     41  C   UNL A   1      41.626  33.430  34.642  1.00  0.00     0.135 A 
ATOM     42  C   UNL A   1      40.257  31.815  35.785  1.00  0.00     0.135 A 
ATOM     43  F   UNL A   1      42.495  33.761  33.673  1.00  0.00    -0.206 F 
ATOM     44  C   UNL A   1      41.292  34.397  35.583  1.00  0.00     0.059 A 
ATOM     45  C   UNL A   1      39.892  32.773  36.725  1.00  0.00     0.059 A 
ATOM     46  F   UNL A   1      39.775  30.571  35.925  1.00  0.00    -0.206 F 
ATOM     47  C   UNL A   1      40.422  34.059  36.621  1.00  0.00     0.060 A 
BRANCH  47  48
ATOM     48  S   UNL A   1      39.993  35.329  37.829  1.00  0.00     0.124 S 
ATOM     49  O   UNL A   1      38.783  34.771  38.423  1.00  0.00    -0.237 OA
ATOM     50  O   UNL A   1      41.170  35.352  38.686  1.00  0.00    -0.237 OA
ATOM     51  O   UNL A   1      39.794  36.523  37.007  1.00  0.00    -0.744 OA
ENDBRANCH  47  48
ENDBRANCH  26  40
BRANCH  27  52
ATOM     52  C   UNL A   1      43.035  24.844  28.039  1.00  0.00     0.058 A 
ATOM     53  C   UNL A   1      42.729  23.493  28.258  1.00  0.00     0.135 A 
ATOM     54  C   UNL A   1      43.678  25.174  26.832  1.00  0.00     0.135 A 
ATOM     55  F   UNL A   1      42.107  23.123  29.388  1.00  0.00    -0.206 F 
ATOM     56  C   UNL A   1      43.093  22.502  27.349  1.00  0.00     0.059 A 
ATOM     57  C   UNL A   1      44.033  24.205  25.898  1.00  0.00     0.059 A 
ATOM     58  F   UNL A   1      43.973  26.453  26.554  1.00  0.00    -0.206 F 
ATOM     59  C   UNL A   1      43.757  22.868  26.176  1.00  0.00     0.060 A 
BRANCH  59  60
ATOM     60  S   UNL A   1      44.252  21.574  25.016  1.00  0.00     0.124 S 
ATOM     61  O   UNL A   1      44.170  22.275  23.740  1.00  0.00    -0.237 OA
ATOM     62  O   UNL A   1      45.596  21.246  25.481  1.00  0.00    -0.237 OA
ATOM     63  O   UNL A   1      43.251  20.533  25.229  1.00  0.00    -0.744 OA
ENDBRANCH  59  60
ENDBRANCH  27  52
BRANCH  39  64
ATOM     64  C   UNL A   1      46.310  27.182  33.737  1.00  0.00     0.058 A 
ATOM     65  C   UNL A   1      46.282  26.169  34.709  1.00  0.00     0.135 A 
ATOM     66  C   UNL A   1      47.551  27.744  33.401  1.00  0.00     0.135 A 
ATOM     67  F   UNL A   1      45.117  25.607  35.067  1.00  0.00    -0.206 F 
ATOM     68  C   UNL A   1      47.441  25.755  35.352  1.00  0.00     0.059 A 
ATOM     69  C   UNL A   1      48.728  27.318  34.006  1.00  0.00     0.059 A 
ATOM     70  F   UNL A   1      47.631  28.706  32.469  1.00  0.00    -0.206 F 
ATOM     71  C   UNL A   1      48.659  26.335  34.992  1.00  0.00     0.060 A 
BRANCH  71  72
ATOM     72  S   UNL A   1      50.158  25.770  35.818  1.00  0.00     0.124 S 
ATOM     73  O   UNL A   1      51.179  26.574  35.153  1.00  0.00    -0.237 OA
ATOM     74  O   UNL A   1      49.892  26.109  37.213  1.00  0.00    -0.237 OA
ATOM     75  O   UNL A   1      50.192  24.341  35.521  1.00  0.00    -0.744 OA
ENDBRANCH  71  72
ENDBRANCH  39  64
ENDBRANCH  13  14
ENDBRANCH   6   8
ENDBRANCH   5   6
ENDBRANCH   4   5
ENDBRANCH   3   4
ENDBRANCH   2   3
ENDBRANCH   1   2
BRANCH   1  76
ATOM     76  C   UNL A   1      32.595  25.347  22.867  1.00  0.00     0.188 C 
BRANCH  76  77
ATOM     77  O   UNL A   1      31.325  25.353  23.486  1.00  0.00    -0.376 OA
BRANCH  77  78
ATOM     78  C   UNL A   1      31.254  25.627  24.872  1.00  0.00     0.202 C 
BRANCH  78  79
ATOM     79  C   UNL A   1      30.683  24.611  25.862  1.00  0.00     0.261 C 
BRANCH  79  80
ATOM     80  O   UNL A   1      31.034  23.222  25.723  1.00  0.00    -0.463 OA
BRANCH  80  81
ATOM     81  C   UNL A   1      32.077  22.836  26.504  1.00  0.00     0.317 C 
ATOM     82  O   UNL A   1      32.064  22.905  27.733  1.00  0.00    -0.251 OA
BRANCH  81  83
ATOM     83  C   UNL A   1      33.325  22.364  25.743  1.00  0.00     0.117 C 
ATOM     84  C   UNL A   1      33.172  21.909  24.280  1.00  0.00     0.030 C 
ATOM     85  C   UNL A   1      33.917  21.209  26.592  1.00  0.00     0.279 C 
ATOM     86  C   UNL A   1      32.804  20.446  24.046  1.00  0.00     0.063 C 
ATOM     87  N   UNL A   1      33.199  19.939  26.408  1.00  0.00    -0.345 N 
ATOM     88  C   UNL A   1      33.384  19.464  25.043  1.00  0.00     0.260 C 
ATOM     89  H   UNL A   1      33.563  19.246  27.062  1.00  0.00     0.346 HD
ATOM     90  H   UNL A   1      32.205  20.084  26.584  1.00  0.00     0.346 HD
BRANCH  83  91
ATOM     91  C   UNL A   1      34.312  23.584  25.757  1.00  0.00     0.029 C 
BRANCH  91  92
ATOM     92  C   UNL A   1      35.503  23.536  24.764  1.00  0.00     0.038 C 
BRANCH  92  93
ATOM     93  C   UNL A   1      36.834  23.121  25.331  1.00  0.00    -0.030 A 
ATOM     94  C   UNL A   1      37.570  23.968  26.163  1.00  0.00     0.007 A 
ATOM     95  C   UNL A   1      37.376  21.863  25.072  1.00  0.00     0.114 A 
ATOM     96  C   UNL A   1      38.805  23.558  26.660  1.00  0.00     0.020 A 
ATOM     97  N   UNL A   1      38.576  21.439  25.536  1.00  0.00    -0.264 NA
ATOM     98  C   UNL A   1      39.261  22.297  26.321  1.00  0.00     0.111 A 
ENDBRANCH  92  93
ENDBRANCH  91  92
ENDBRANCH  83  91
ENDBRANCH  81  83
ENDBRANCH  80  81
ENDBRANCH  79  80
ENDBRANCH  78  79
ENDBRANCH  77  78
ENDBRANCH  76  77
ENDBRANCH   1  76
TORSDOF 23
ENDMDL
MODEL 2
REMARK VINA RESULT:      -9.6      3.592      9.606
REMARK SMILES O=C(OCCOCCOCCOC(=O)[C@]1(CCc2cccnc2)CCC[NH2+]C1)c1ccc(-c2c3nc(c(-c4c(F)cc(S(=O)(=O)[O-])cc4F)c4ccc([nH]4)c(-c4c(F)cc(S(=O)(=O)[O-])cc4F)c4nc(c(-c5c(F)cc(S(=O)(=O)[O-])cc5F)c5ccc2[nH]5)C=C4)C=C3)cc1
REMARK SMILES IDX 7 1 6 2 5 3 4 4 3 5 2 6 1 7 29 8 30 9 94 10 31 11 93 12
REMARK SMILES IDX 32 13 33 14 34 15 87 16 35 17 92 18 86 19 88 20 36 21 91 22
REMARK SMILES IDX 85 23 84 24 37 26 71 27 50 28 70 29 51 30 54 31 69 32 89 33
REMARK SMILES IDX 52 34 53 35 68 37 90 38 55 39 38 40 39 41 48 42 40 43 41 44
REMARK SMILES IDX 47 45 49 46 42 47 43 48 44 49 45 50 46 51 72 52 73 53 82 54
REMARK SMILES IDX 74 55 75 56 81 57 83 58 76 59 77 60 78 61 79 62 80 63 56 64
REMARK SMILES IDX 57 65 66 66 58 67 59 68 65 69 67 70 60 71 61 72 62 73 63 74
REMARK SMILES IDX 64 75 8 76 9 77 10 78 11 79 12 80 13 81 14 82 15 83 24 84
REMARK SMILES IDX 28 85 25 86 27 87 26 88 16 91 17 92 18 93 19 94 23 95 20 96
REMARK SMILES IDX 22 97 21 98
REMARK H PARENT 88 25 54 36 27 89 27 90
REMARK Flexibility Score: inf
ROOT
ATOM      1  C   UNL A   1      37.082  21.795  24.055  1.00  0.00     0.188 C 
ENDROOT
BRANCH   1   2
ATOM      2  O   UNL A   1      38.169  21.913  24.965  1.00  0.00    -0.376 OA
BRANCH   2   3
ATOM      3  C   UNL A   1      37.947  22.703  26.127  1.00  0.00     0.202 C 
BRANCH   3   4
ATOM      4  C   UNL A   1      38.539  24.119  26.140  1.00  0.00     0.261 C 
BRANCH   4   5
ATOM      5  O   UNL A   1      39.970  24.186  26.080  1.00  0.00    -0.460 OA
BRANCH   5   6
ATOM      6  C   UNL A   1      40.805  25.183  26.462  1.00  0.00     0.338 C 
ATOM      7  O   UNL A   1      41.792  25.397  25.758  1.00  0.00    -0.246 OA
BRANCH   6   8
ATOM      8  C   UNL A   1      40.668  25.982  27.730  1.00  0.00     0.060 A 
ATOM      9  C   UNL A   1      39.661  25.845  28.687  1.00  0.00     0.016 A 
ATOM     10  C   UNL A   1      41.658  26.957  27.970  1.00  0.00     0.016 A 
ATOM     11  C   UNL A   1      39.612  26.649  29.821  1.00  0.00     0.010 A 
ATOM     12  C   UNL A   1      41.623  27.766  29.113  1.00  0.00     0.010 A 
ATOM     13  C   UNL A   1      40.577  27.625  30.033  1.00  0.00    -0.014 A 
BRANCH  13  14
ATOM     14  C   UNL A   1      40.336  28.607  31.109  1.00  0.00     0.031 A 
ATOM     15  C   UNL A   1      41.131  28.447  32.365  1.00  0.00     0.074 A 
ATOM     16  C   UNL A   1      39.563  29.692  30.910  1.00  0.00     0.049 A 
ATOM     17  N   UNL A   1      41.193  29.236  33.400  1.00  0.00    -0.248 NA
ATOM     18  C   UNL A   1      42.031  27.281  32.436  1.00  0.00     0.031 C 
ATOM     19  C   UNL A   1      38.910  30.037  29.652  1.00  0.00     0.029 A 
ATOM     20  N   UNL A   1      39.193  30.708  31.749  1.00  0.00    -0.354 N 
ATOM     21  C   UNL A   1      42.191  28.708  34.203  1.00  0.00     0.074 A 
ATOM     22  C   UNL A   1      42.645  27.482  33.591  1.00  0.00     0.031 C 
ATOM     23  C   UNL A   1      38.117  31.106  29.827  1.00  0.00     0.029 A 
ATOM     24  C   UNL A   1      38.262  31.563  31.201  1.00  0.00     0.049 A 
ATOM     25  H   UNL A   1      39.558  30.818  32.657  1.00  0.00     0.167 HD
ATOM     26  C   UNL A   1      42.722  29.240  35.325  1.00  0.00     0.037 A 
ATOM     27  C   UNL A   1      37.613  32.605  31.750  1.00  0.00     0.037 A 
ATOM     28  C   UNL A   1      42.224  30.439  35.937  1.00  0.00     0.049 A 
ATOM     29  C   UNL A   1      38.061  33.052  33.114  1.00  0.00     0.074 A 
ATOM     30  C   UNL A   1      42.619  31.030  37.121  1.00  0.00     0.029 A 
ATOM     31  N   UNL A   1      41.206  31.224  35.410  1.00  0.00    -0.354 N 
ATOM     32  N   UNL A   1      39.008  32.543  33.868  1.00  0.00    -0.248 NA
ATOM     33  C   UNL A   1      37.408  34.237  33.677  1.00  0.00     0.031 C 
ATOM     34  C   UNL A   1      41.800  32.144  37.338  1.00  0.00     0.029 A 
ATOM     35  C   UNL A   1      40.934  32.279  36.262  1.00  0.00     0.049 A 
ATOM     36  H   UNL A   1      40.745  31.053  34.558  1.00  0.00     0.167 HD
ATOM     37  C   UNL A   1      39.105  33.378  34.971  1.00  0.00     0.074 A 
ATOM     38  C   UNL A   1      38.118  34.425  34.781  1.00  0.00     0.031 C 
ATOM     39  C   UNL A   1      39.940  33.299  36.037  1.00  0.00     0.037 A 
BRANCH  26  40
ATOM     40  C   UNL A   1      43.868  28.500  35.944  1.00  0.00     0.058 A 
ATOM     41  C   UNL A   1      45.200  28.834  35.647  1.00  0.00     0.135 A 
ATOM     42  C   UNL A   1      43.637  27.424  36.812  1.00  0.00     0.135 A 
ATOM     43  F   UNL A   1      45.473  29.829  34.787  1.00  0.00    -0.206 F 
ATOM     44  C   UNL A   1      46.264  28.115  36.179  1.00  0.00     0.059 A 
ATOM     45  C   UNL A   1      44.687  26.704  37.373  1.00  0.00     0.059 A 
ATOM     46  F   UNL A   1      42.382  27.049  37.104  1.00  0.00    -0.206 F 
ATOM     47  C   UNL A   1      45.996  27.051  37.043  1.00  0.00     0.060 A 
BRANCH  47  48
ATOM     48  S   UNL A   1      47.390  26.134  37.730  1.00  0.00     0.124 S 
ATOM     49  O   UNL A   1      47.532  25.049  36.764  1.00  0.00    -0.237 OA
ATOM     50  O   UNL A   1      48.452  27.132  37.725  1.00  0.00    -0.237 OA
ATOM     51  O   UNL A   1      46.913  25.735  39.054  1.00  0.00    -0.744 OA
ENDBRANCH  47  48
ENDBRANCH  26  40
BRANCH  27  52
ATOM     52  C   UNL A   1      36.504  33.287  31.027  1.00  0.00     0.058 A 
ATOM     53  C   UNL A   1      36.735  34.159  29.953  1.00  0.00     0.135 A 
ATOM     54  C   UNL A   1      35.171  33.112  31.441  1.00  0.00     0.135 A 
ATOM     55  F   UNL A   1      37.987  34.357  29.511  1.00  0.00    -0.206 F 
ATOM     56  C   UNL A   1      35.701  34.870  29.350  1.00  0.00     0.059 A 
ATOM     57  C   UNL A   1      34.117  33.795  30.841  1.00  0.00     0.059 A 
ATOM     58  F   UNL A   1      34.884  32.270  32.447  1.00  0.00    -0.206 F 
ATOM     59  C   UNL A   1      34.395  34.690  29.810  1.00  0.00     0.060 A 
BRANCH  59  60
ATOM     60  S   UNL A   1      33.062  35.639  29.043  1.00  0.00     0.124 S 
ATOM     61  O   UNL A   1      33.810  36.633  28.282  1.00  0.00    -0.237 OA
ATOM     62  O   UNL A   1      32.372  34.619  28.260  1.00  0.00    -0.237 OA
ATOM     63  O   UNL A   1      32.315  36.153  30.187  1.00  0.00    -0.744 OA
ENDBRANCH  59  60
ENDBRANCH  27  52
BRANCH  39  64
ATOM     64  C   UNL A   1      39.830  34.391  37.059  1.00  0.00     0.058 A 
ATOM     65  C   UNL A   1      40.472  35.627  36.884  1.00  0.00     0.135 A 
ATOM     66  C   UNL A   1      39.044  34.210  38.207  1.00  0.00     0.135 A 
ATOM     67  F   UNL A   1      41.240  35.843  35.804  1.00  0.00    -0.206 F 
ATOM     68  C   UNL A   1      40.368  36.634  37.833  1.00  0.00     0.059 A 
ATOM     69  C   UNL A   1      38.896  35.218  39.152  1.00  0.00     0.059 A 
ATOM     70  F   UNL A   1      38.399  33.050  38.413  1.00  0.00    -0.206 F 
ATOM     71  C   UNL A   1      39.576  36.420  38.963  1.00  0.00     0.060 A 
BRANCH  71  72
ATOM     72  S   UNL A   1      39.431  37.746  40.176  1.00  0.00     0.124 S 
ATOM     73  O   UNL A   1      38.447  38.617  39.541  1.00  0.00    -0.237 OA
ATOM     74  O   UNL A   1      38.973  37.032  41.364  1.00  0.00    -0.237 OA
ATOM     75  O   UNL A   1      40.786  38.283  40.257  1.00  0.00    -0.744 OA
ENDBRANCH  71  72
ENDBRANCH  39  64
ENDBRANCH  13  14
ENDBRANCH   6   8
ENDBRANCH   5   6
ENDBRANCH   4   5
ENDBRANCH   3   4
ENDBRANCH   2   3
ENDBRANCH   1   2
BRANCH   1  76
ATOM     76  C   UNL A   1      36.405  23.044  23.478  1.00  0.00     0.188 C 
BRANCH  76  77
ATOM     77  O   UNL A   1      35.338  22.928  22.559  1.00  0.00    -0.376 OA
BRANCH  77  78
ATOM     78  C   UNL A   1      34.113  23.566  22.867  1.00  0.00     0.202 C 
BRANCH  78  79
ATOM     79  C   UNL A   1      34.012  24.613  23.976  1.00  0.00     0.261 C 
BRANCH  79  80
ATOM     80  O   UNL A   1      32.713  25.048  24.415  1.00  0.00    -0.463 OA
BRANCH  80  81
ATOM     81  C   UNL A   1      32.380  26.299  24.000  1.00  0.00     0.317 C 
ATOM     82  O   UNL A   1      32.952  26.880  23.076  1.00  0.00    -0.251 OA
BRANCH  81  83
ATOM     83  C   UNL A   1      31.272  26.986  24.812  1.00  0.00     0.117 C 
ATOM     84  C   UNL A   1      29.946  26.237  25.035  1.00  0.00     0.030 C 
ATOM     85  C   UNL A   1      30.999  28.330  24.090  1.00  0.00     0.279 C 
ATOM     86  C   UNL A   1      28.877  26.386  23.956  1.00  0.00     0.063 C 
ATOM     87  N   UNL A   1      30.165  28.175  22.889  1.00  0.00    -0.345 N 
ATOM     88  C   UNL A   1      28.828  27.739  23.275  1.00  0.00     0.260 C 
ATOM     89  H   UNL A   1      30.103  29.068  22.400  1.00  0.00     0.346 HD
ATOM     90  H   UNL A   1      30.583  27.478  22.274  1.00  0.00     0.346 HD
BRANCH  83  91
ATOM     91  C   UNL A   1      31.899  27.267  26.223  1.00  0.00     0.029 C 
BRANCH  91  92
ATOM     92  C   UNL A   1      33.401  27.650  26.261  1.00  0.00     0.038 C 
BRANCH  92  93
ATOM     93  C   UNL A   1      33.737  28.994  26.848  1.00  0.00    -0.030 A 
ATOM     94  C   UNL A   1      34.972  29.238  27.454  1.00  0.00     0.007 A 
ATOM     95  C   UNL A   1      32.841  30.060  26.788  1.00  0.00     0.114 A 
ATOM     96  C   UNL A   1      35.247  30.490  27.999  1.00  0.00     0.020 A 
ATOM     97  N   UNL A   1      33.078  31.286  27.315  1.00  0.00    -0.264 NA
ATOM     98  C   UNL A   1      34.276  31.472  27.906  1.00  0.00     0.111 A 
ENDBRANCH  92  93
ENDBRANCH  91  92
ENDBRANCH  83  91
ENDBRANCH  81  83
ENDBRANCH  80  81
ENDBRANCH  79  80
ENDBRANCH  78  79
ENDBRANCH  77  78
ENDBRANCH  76  77
ENDBRANCH   1  76
TORSDOF 23
ENDMDL
MODEL 3
REMARK VINA RESULT:      -9.3      3.070      9.443
REMARK SMILES O=C(OCCOCCOCCOC(=O)[C@]1(CCc2cccnc2)CCC[NH2+]C1)c1ccc(-c2c3nc(c(-c4c(F)cc(S(=O)(=O)[O-])cc4F)c4ccc([nH]4)c(-c4c(F)cc(S(=O)(=O)[O-])cc4F)c4nc(c(-c5c(F)cc(S(=O)(=O)[O-])cc5F)c5ccc2[nH]5)C=C4)C=C3)cc1
REMARK SMILES IDX 7 1 6 2 5 3 4 4 3 5 2 6 1 7 29 8 30 9 94 10 31 11 93 12
REMARK SMILES IDX 32 13 33 14 34 15 87 16 35 17 92 18 86 19 88 20 36 21 91 22
REMARK SMILES IDX 85 23 84 24 37 26 71 27 50 28 70 29 51 30 54 31 69 32 89 33
REMARK SMILES IDX 52 34 53 35 68 37 90 38 55 39 38 40 39 41 48 42 40 43 41 44
REMARK SMILES IDX 47 45 49 46 42 47 43 48 44 49 45 50 46 51 72 52 73 53 82 54
REMARK SMILES IDX 74 55 75 56 81 57 83 58 76 59 77 60 78 61 79 62 80 63 56 64
REMARK SMILES IDX 57 65 66 66 58 67 59 68 65 69 67 70 60 71 61 72 62 73 63 74
REMARK SMILES IDX 64 75 8 76 9 77 10 78 11 79 12 80 13 81 14 82 15 83 24 84
REMARK SMILES IDX 28 85 25 86 27 87 26 88 16 91 17 92 18 93 19 94 23 95 20 96
REMARK SMILES IDX 22 97 21 98
REMARK H PARENT 88 25 54 36 27 89 27 90
REMARK Flexibility Score: inf
ROOT
ATOM      1  C   UNL A   1      40.313  21.077  26.696  1.00  0.00     0.188 C 
ENDROOT
BRANCH   1   2
ATOM      2  O   UNL A   1      41.435  20.390  26.154  1.00  0.00    -0.376 OA
BRANCH   2   3
ATOM      3  C   UNL A   1      42.703  21.013  26.315  1.00  0.00     0.202 C 
BRANCH   3   4
ATOM      4  C   UNL A   1      42.758  22.294  27.158  1.00  0.00     0.261 C 
BRANCH   4   5
ATOM      5  O   UNL A   1      42.531  23.513  26.438  1.00  0.00    -0.460 OA
BRANCH   5   6
ATOM      6  C   UNL A   1      43.113  24.727  26.589  1.00  0.00     0.338 C 
ATOM      7  O   UNL A   1      44.146  24.943  25.956  1.00  0.00    -0.246 OA
BRANCH   6   8
ATOM      8  C   UNL A   1      42.644  25.794  27.542  1.00  0.00     0.060 A 
ATOM      9  C   UNL A   1      43.315  26.980  27.847  1.00  0.00     0.016 A 
ATOM     10  C   UNL A   1      41.407  25.569  28.180  1.00  0.00     0.016 A 
ATOM     11  C   UNL A   1      42.804  27.897  28.760  1.00  0.00     0.010 A 
ATOM     12  C   UNL A   1      40.880  26.491  29.094  1.00  0.00     0.010 A 
ATOM     13  C   UNL A   1      41.598  27.652  29.403  1.00  0.00    -0.014 A 
BRANCH  13  14
ATOM     14  C   UNL A   1      41.235  28.525  30.537  1.00  0.00     0.031 A 
ATOM     15  C   UNL A   1      42.022  28.362  31.798  1.00  0.00     0.074 A 
ATOM     16  C   UNL A   1      40.354  29.533  30.394  1.00  0.00     0.049 A 
ATOM     17  N   UNL A   1      41.983  29.079  32.886  1.00  0.00    -0.248 NA
ATOM     18  C   UNL A   1      43.041  27.296  31.811  1.00  0.00     0.031 C 
ATOM     19  C   UNL A   1      39.689  29.895  29.148  1.00  0.00     0.029 A 
ATOM     20  N   UNL A   1      39.864  30.444  31.292  1.00  0.00    -0.354 N 
ATOM     21  C   UNL A   1      43.019  28.605  33.674  1.00  0.00     0.074 A 
ATOM     22  C   UNL A   1      43.611  27.480  32.991  1.00  0.00     0.031 C 
ATOM     23  C   UNL A   1      38.783  30.859  29.376  1.00  0.00     0.029 A 
ATOM     24  C   UNL A   1      38.855  31.231  30.781  1.00  0.00     0.049 A 
ATOM     25  H   UNL A   1      40.199  30.528  32.213  1.00  0.00     0.167 HD
ATOM     26  C   UNL A   1      43.470  29.110  34.842  1.00  0.00     0.037 A 
ATOM     27  C   UNL A   1      38.089  32.158  31.384  1.00  0.00     0.037 A 
ATOM     28  C   UNL A   1      42.837  30.203  35.522  1.00  0.00     0.049 A 
ATOM     29  C   UNL A   1      38.465  32.552  32.785  1.00  0.00     0.074 A 
ATOM     30  C   UNL A   1      43.147  30.749  36.753  1.00  0.00     0.029 A 
ATOM     31  N   UNL A   1      41.749  30.911  35.026  1.00  0.00    -0.354 N 
ATOM     32  N   UNL A   1      39.449  32.095  33.525  1.00  0.00    -0.248 NA
ATOM     33  C   UNL A   1      37.679  33.619  33.412  1.00  0.00     0.031 C 
ATOM     34  C   UNL A   1      42.210  31.752  37.026  1.00  0.00     0.029 A 
ATOM     35  C   UNL A   1      41.352  31.869  35.941  1.00  0.00     0.049 A 
ATOM     36  H   UNL A   1      41.324  30.753  34.153  1.00  0.00     0.167 HD
ATOM     37  C   UNL A   1      39.437  32.856  34.685  1.00  0.00     0.074 A 
ATOM     38  C   UNL A   1      38.347  33.804  34.543  1.00  0.00     0.031 C 
ATOM     39  C   UNL A   1      40.258  32.792  35.762  1.00  0.00     0.037 A 
BRANCH  26  40
ATOM     40  C   UNL A   1      44.679  28.454  35.437  1.00  0.00     0.058 A 
ATOM     41  C   UNL A   1      45.978  28.888  35.120  1.00  0.00     0.135 A 
ATOM     42  C   UNL A   1      44.544  27.358  36.300  1.00  0.00     0.135 A 
ATOM     43  F   UNL A   1      46.161  29.906  34.263  1.00  0.00    -0.206 F 
ATOM     44  C   UNL A   1      47.101  28.247  35.628  1.00  0.00     0.059 A 
ATOM     45  C   UNL A   1      45.654  26.715  36.838  1.00  0.00     0.059 A 
ATOM     46  F   UNL A   1      43.325  26.888  36.610  1.00  0.00    -0.206 F 
ATOM     47  C   UNL A   1      46.928  27.161  36.489  1.00  0.00     0.060 A 
BRANCH  47  48
ATOM     48  S   UNL A   1      48.399  26.346  37.146  1.00  0.00     0.124 S 
ATOM     49  O   UNL A   1      48.820  25.539  36.006  1.00  0.00    -0.237 OA
ATOM     50  O   UNL A   1      49.257  27.476  37.478  1.00  0.00    -0.237 OA
ATOM     51  O   UNL A   1      47.884  25.593  38.289  1.00  0.00    -0.744 OA
ENDBRANCH  47  48
ENDBRANCH  26  40
BRANCH  27  52
ATOM     52  C   UNL A   1      36.925  32.768  30.683  1.00  0.00     0.058 A 
ATOM     53  C   UNL A   1      37.071  33.819  29.767  1.00  0.00     0.135 A 
ATOM     54  C   UNL A   1      35.618  32.332  30.964  1.00  0.00     0.135 A 
ATOM     55  F   UNL A   1      38.296  34.269  29.455  1.00  0.00    -0.206 F 
ATOM     56  C   UNL A   1      35.970  34.450  29.194  1.00  0.00     0.059 A 
ATOM     57  C   UNL A   1      34.502  32.932  30.388  1.00  0.00     0.059 A 
ATOM     58  F   UNL A   1      35.416  31.312  31.813  1.00  0.00    -0.206 F 
ATOM     59  C   UNL A   1      34.687  34.006  29.521  1.00  0.00     0.060 A 
BRANCH  59  60
ATOM     60  S   UNL A   1      33.262  34.850  28.797  1.00  0.00     0.124 S 
ATOM     61  O   UNL A   1      32.466  35.152  29.981  1.00  0.00    -0.237 OA
ATOM     62  O   UNL A   1      33.887  35.992  28.138  1.00  0.00    -0.237 OA
ATOM     63  O   UNL A   1      32.700  33.847  27.899  1.00  0.00    -0.744 OA
ENDBRANCH  59  60
ENDBRANCH  27  52
BRANCH  39  64
ATOM     64  C   UNL A   1      40.015  33.792  36.853  1.00  0.00     0.058 A 
ATOM     65  C   UNL A   1      40.624  35.056  36.838  1.00  0.00     0.135 A 
ATOM     66  C   UNL A   1      39.135  33.492  37.905  1.00  0.00     0.135 A 
ATOM     67  F   UNL A   1      41.478  35.384  35.855  1.00  0.00    -0.206 F 
ATOM     68  C   UNL A   1      40.396  35.978  37.851  1.00  0.00     0.059 A 
ATOM     69  C   UNL A   1      38.865  34.414  38.909  1.00  0.00     0.059 A 
ATOM     70  F   UNL A   1      38.519  32.301  37.956  1.00  0.00    -0.206 F 
ATOM     71  C   UNL A   1      39.514  35.648  38.881  1.00  0.00     0.060 A 
BRANCH  71  72
ATOM     72  S   UNL A   1      39.209  36.864  40.177  1.00  0.00     0.124 S 
ATOM     73  O   UNL A   1      40.559  37.102  40.677  1.00  0.00    -0.237 OA
ATOM     74  O   UNL A   1      38.605  37.965  39.433  1.00  0.00    -0.237 OA
ATOM     75  O   UNL A   1      38.313  36.166  41.093  1.00  0.00    -0.744 OA
ENDBRANCH  71  72
ENDBRANCH  39  64
ENDBRANCH  13  14
ENDBRANCH   6   8
ENDBRANCH   5   6
ENDBRANCH   4   5
ENDBRANCH   3   4
ENDBRANCH   2   3
ENDBRANCH   1   2
BRANCH   1  76
ATOM     76  C   UNL A   1      39.355  21.854  25.785  1.00  0.00     0.188 C 
BRANCH  76  77
ATOM     77  O   UNL A   1      37.991  21.498  25.700  1.00  0.00    -0.376 OA
BRANCH  77  78
ATOM     78  C   UNL A   1      37.084  22.438  25.154  1.00  0.00     0.202 C 
BRANCH  78  79
ATOM     79  C   UNL A   1      36.020  23.118  26.015  1.00  0.00     0.261 C 
BRANCH  79  80
ATOM     80  O   UNL A   1      34.755  22.464  26.216  1.00  0.00    -0.463 OA
BRANCH  80  81
ATOM     81  C   UNL A   1      33.681  23.217  25.859  1.00  0.00     0.317 C 
ATOM     82  O   UNL A   1      33.378  24.271  26.420  1.00  0.00    -0.251 OA
BRANCH  81  83
ATOM     83  C   UNL A   1      32.812  22.630  24.737  1.00  0.00     0.117 C 
ATOM     84  C   UNL A   1      33.412  22.502  23.326  1.00  0.00     0.030 C 
ATOM     85  C   UNL A   1      31.541  23.517  24.688  1.00  0.00     0.279 C 
ATOM     86  C   UNL A   1      33.296  23.719  22.412  1.00  0.00     0.063 C 
ATOM     87  N   UNL A   1      31.761  24.792  23.990  1.00  0.00    -0.345 N 
ATOM     88  C   UNL A   1      32.032  24.537  22.580  1.00  0.00     0.260 C 
ATOM     89  H   UNL A   1      30.929  25.374  24.076  1.00  0.00     0.346 HD
ATOM     90  H   UNL A   1      32.558  25.272  24.406  1.00  0.00     0.346 HD
BRANCH  83  91
ATOM     91  C   UNL A   1      32.425  21.187  25.218  1.00  0.00     0.029 C 
BRANCH  91  92
ATOM     92  C   UNL A   1      32.322  20.087  24.130  1.00  0.00     0.038 C 
BRANCH  92  93
ATOM     93  C   UNL A   1      33.009  18.781  24.426  1.00  0.00    -0.030 A 
ATOM     94  C   UNL A   1      34.400  18.661  24.381  1.00  0.00     0.007 A 
ATOM     95  C   UNL A   1      32.287  17.644  24.785  1.00  0.00     0.114 A 
ATOM     96  C   UNL A   1      35.003  17.434  24.648  1.00  0.00     0.020 A 
ATOM     97  N   UNL A   1      32.846  16.437  25.044  1.00  0.00    -0.264 NA
ATOM     98  C   UNL A   1      34.191  16.362  24.971  1.00  0.00     0.111 A 
ENDBRANCH  92  93
ENDBRANCH  91  92
ENDBRANCH  83  91
ENDBRANCH  81  83
ENDBRANCH  80  81
ENDBRANCH  79  80
ENDBRANCH  78  79
ENDBRANCH  77  78
ENDBRANCH  76  77
ENDBRANCH   1  76
TORSDOF 23
ENDMDL
