MODEL 1
REMARK VINA RESULT:      -9.6      0.000      0.000
REMARK SMILES C[C@](NC(=O)[C@](C)([NH3+])C(F)(F)F)(C(=O)OCCOCCOCCOC(=O)c1ccc(-c2c3nc(c(-c4c(F)cc(S(=O)(=O)[O-])cc4F)c4ccc([nH]4)c(-c4c(F)cc(S(=O)(=O)[O-])cc4F)c4nc(c(-c5c(F)cc(S(=O)(=O)[O-])cc5F)c5ccc2[nH]5)C=C4)C=C3)cc1)c1ccccc1
REMARK SMILES IDX 19 1 18 2 17 3 16 4 15 5 13 6 14 7 2 8 1 9 93 10 94 11 98 12
REMARK SMILES IDX 95 13 97 14 96 15 3 16 4 17 5 19 6 20 7 21 8 22 9 26 10 27
REMARK SMILES IDX 11 28 12 29 20 30 21 31 22 32 23 33 24 34 25 35 26 36 27 37
REMARK SMILES IDX 28 38 92 39 29 40 91 41 30 42 31 43 32 44 85 45 33 46 90 47
REMARK SMILES IDX 84 48 86 49 34 50 89 51 83 52 82 53 35 55 69 56 48 57 68 58
REMARK SMILES IDX 49 59 52 60 67 61 87 62 50 63 51 64 66 66 88 67 53 68 36 69
REMARK SMILES IDX 37 70 46 71 38 72 39 73 45 74 47 75 40 76 41 77 42 78 43 79
REMARK SMILES IDX 44 80 70 81 71 82 80 83 72 84 73 85 79 86 81 87 74 88 75 89
REMARK SMILES IDX 76 90 77 91 78 92 54 93 55 94 64 95 56 96 57 97 63 98 65 99
REMARK SMILES IDX 58 100 59 101 60 102 61 103 62 104
REMARK H PARENT 3 18 8 23 8 24 8 25 86 54 52 65
REMARK Flexibility Score: inf
ROOT
ATOM      1  C   UNL A   1      34.515  30.003  27.702  1.00  0.00     0.188 C 
ENDROOT
BRANCH   1   2
ATOM      2  O   UNL A   1      33.359  30.824  27.616  1.00  0.00    -0.376 OA
BRANCH   2   3
ATOM      3  C   UNL A   1      32.563  30.624  26.456  1.00  0.00     0.202 C 
BRANCH   3   4
ATOM      4  C   UNL A   1      33.070  29.536  25.487  1.00  0.00     0.261 C 
BRANCH   4   5
ATOM      5  O   UNL A   1      32.237  29.255  24.334  1.00  0.00    -0.461 OA
BRANCH   5   6
ATOM      6  C   UNL A   1      31.197  28.429  24.592  1.00  0.00     0.336 C 
ATOM      7  O   UNL A   1      31.026  27.927  25.704  1.00  0.00    -0.249 OA
BRANCH   6   8
ATOM      8  C   UNL A   1      30.314  28.023  23.341  1.00  0.00     0.161 C 
ATOM      9  C   UNL A   1      29.705  26.779  24.046  1.00  0.00     0.053 C 
BRANCH   8  10
ATOM     10  C   UNL A   1      29.597  29.337  22.923  1.00  0.00    -0.012 A 
ATOM     11  C   UNL A   1      28.623  29.953  23.717  1.00  0.00     0.007 A 
ATOM     12  C   UNL A   1      29.924  29.990  21.703  1.00  0.00     0.007 A 
ATOM     13  C   UNL A   1      27.907  31.064  23.251  1.00  0.00     0.000 A 
ATOM     14  C   UNL A   1      29.166  31.056  21.212  1.00  0.00     0.000 A 
ATOM     15  C   UNL A   1      28.146  31.585  21.983  1.00  0.00     0.000 A 
ENDBRANCH   8  10
BRANCH   8  16
ATOM     16  N   UNL A   1      30.748  27.418  22.057  1.00  0.00    -0.331 N 
ATOM     17  C   UNL A   1      31.610  26.362  21.834  1.00  0.00     0.291 C 
ATOM     18  H   UNL A   1      30.367  27.828  21.248  1.00  0.00     0.165 HD
ATOM     19  O   UNL A   1      31.688  26.061  20.628  1.00  0.00    -0.267 OA
BRANCH  17  20
ATOM     20  C   UNL A   1      32.350  25.397  22.905  1.00  0.00     0.267 C 
ATOM     21  C   UNL A   1      32.966  24.241  22.076  1.00  0.00     0.100 C 
BRANCH  20  22
ATOM     22  N   UNL A   1      31.292  24.681  23.707  1.00  0.00    -0.337 N 
ATOM     23  H   UNL A   1      30.621  25.361  24.067  1.00  0.00     0.345 HD
ATOM     24  H   UNL A   1      31.729  24.191  24.486  1.00  0.00     0.345 HD
ATOM     25  H   UNL A   1      30.809  24.010  23.110  1.00  0.00     0.345 HD
ENDBRANCH  20  22
BRANCH  20  26
ATOM     26  C   UNL A   1      33.552  25.881  23.768  1.00  0.00     0.453 C 
ATOM     27  F   UNL A   1      34.598  25.017  23.677  1.00  0.00    -0.164 F 
ATOM     28  F   UNL A   1      34.025  27.083  23.353  1.00  0.00    -0.164 F 
ATOM     29  F   UNL A   1      33.305  25.990  25.081  1.00  0.00    -0.164 F 
ENDBRANCH  20  26
ENDBRANCH  17  20
ENDBRANCH   8  16
ENDBRANCH   6   8
ENDBRANCH   5   6
ENDBRANCH   4   5
ENDBRANCH   3   4
ENDBRANCH   2   3
ENDBRANCH   1   2
BRANCH   1  30
ATOM     30  C   UNL A   1      35.626  30.575  28.609  1.00  0.00     0.188 C 
BRANCH  30  31
ATOM     31  O   UNL A   1      35.500  31.865  29.186  1.00  0.00    -0.376 OA
BRANCH  31  32
ATOM     32  C   UNL A   1      34.918  31.968  30.476  1.00  0.00     0.202 C 
BRANCH  32  33
ATOM     33  C   UNL A   1      35.806  32.212  31.714  1.00  0.00     0.261 C 
BRANCH  33  34
ATOM     34  O   UNL A   1      37.210  31.917  31.579  1.00  0.00    -0.460 OA
BRANCH  34  35
ATOM     35  C   UNL A   1      37.565  30.607  31.707  1.00  0.00     0.338 C 
ATOM     36  O   UNL A   1      36.859  29.698  32.093  1.00  0.00    -0.246 OA
BRANCH  35  37
ATOM     37  C   UNL A   1      38.900  30.387  31.090  1.00  0.00     0.060 A 
ATOM     38  C   UNL A   1      39.026  30.539  29.702  1.00  0.00     0.016 A 
ATOM     39  C   UNL A   1      40.006  29.993  31.843  1.00  0.00     0.016 A 
ATOM     40  C   UNL A   1      40.257  30.338  29.078  1.00  0.00     0.010 A 
ATOM     41  C   UNL A   1      41.237  29.757  31.203  1.00  0.00     0.010 A 
ATOM     42  C   UNL A   1      41.372  29.937  29.816  1.00  0.00    -0.014 A 
BRANCH  42  43
ATOM     43  C   UNL A   1      42.613  29.557  29.092  1.00  0.00     0.031 A 
ATOM     44  C   UNL A   1      42.722  28.164  28.541  1.00  0.00     0.074 A 
ATOM     45  C   UNL A   1      43.605  30.441  28.865  1.00  0.00     0.049 A 
ATOM     46  N   UNL A   1      43.755  27.558  28.018  1.00  0.00    -0.248 NA
ATOM     47  C   UNL A   1      41.496  27.350  28.573  1.00  0.00     0.031 C 
ATOM     48  C   UNL A   1      43.573  31.858  29.216  1.00  0.00     0.029 A 
ATOM     49  N   UNL A   1      44.842  30.268  28.288  1.00  0.00    -0.354 N 
ATOM     50  C   UNL A   1      43.320  26.277  27.702  1.00  0.00     0.074 A 
ATOM     51  C   UNL A   1      41.921  26.202  28.062  1.00  0.00     0.031 C 
ATOM     52  C   UNL A   1      44.749  32.418  28.882  1.00  0.00     0.029 A 
ATOM     53  C   UNL A   1      45.642  31.387  28.357  1.00  0.00     0.049 A 
ATOM     54  H   UNL A   1      45.129  29.426  27.865  1.00  0.00     0.167 HD
ATOM     55  C   UNL A   1      44.032  25.252  27.181  1.00  0.00     0.037 A 
ATOM     56  C   UNL A   1      46.958  31.542  28.092  1.00  0.00     0.037 A 
ATOM     57  C   UNL A   1      45.420  25.340  26.809  1.00  0.00     0.049 A 
ATOM     58  C   UNL A   1      47.764  30.351  27.623  1.00  0.00     0.074 A 
ATOM     59  C   UNL A   1      46.225  24.354  26.266  1.00  0.00     0.029 A 
ATOM     60  N   UNL A   1      46.211  26.469  26.954  1.00  0.00    -0.354 N 
ATOM     61  N   UNL A   1      47.355  29.134  27.349  1.00  0.00    -0.248 NA
ATOM     62  C   UNL A   1      49.212  30.543  27.448  1.00  0.00     0.031 C 
ATOM     63  C   UNL A   1      47.520  24.864  26.150  1.00  0.00     0.029 A 
ATOM     64  C   UNL A   1      47.508  26.189  26.554  1.00  0.00     0.049 A 
ATOM     65  H   UNL A   1      45.899  27.340  27.290  1.00  0.00     0.167 HD
ATOM     66  C   UNL A   1      48.489  28.427  26.956  1.00  0.00     0.074 A 
ATOM     67  C   UNL A   1      49.598  29.355  27.005  1.00  0.00     0.031 C 
ATOM     68  C   UNL A   1      48.603  27.126  26.593  1.00  0.00     0.037 A 
BRANCH  55  69
ATOM     69  C   UNL A   1      43.357  23.917  27.058  1.00  0.00     0.058 A 
ATOM     70  C   UNL A   1      43.137  23.080  28.160  1.00  0.00     0.135 A 
ATOM     71  C   UNL A   1      42.863  23.505  25.808  1.00  0.00     0.135 A 
ATOM     72  F   UNL A   1      43.611  23.415  29.371  1.00  0.00    -0.206 F 
ATOM     73  C   UNL A   1      42.449  21.878  28.028  1.00  0.00     0.059 A 
ATOM     74  C   UNL A   1      42.151  22.321  25.659  1.00  0.00     0.059 A 
ATOM     75  F   UNL A   1      43.059  24.266  24.720  1.00  0.00    -0.206 F 
ATOM     76  C   UNL A   1      41.954  21.511  26.774  1.00  0.00     0.060 A 
BRANCH  76  77
ATOM     77  S   UNL A   1      41.028  19.968  26.628  1.00  0.00     0.124 S 
ATOM     78  O   UNL A   1      40.991  19.518  28.016  1.00  0.00    -0.237 OA
ATOM     79  O   UNL A   1      39.757  20.421  26.073  1.00  0.00    -0.237 OA
ATOM     80  O   UNL A   1      41.850  19.161  25.730  1.00  0.00    -0.744 OA
ENDBRANCH  76  77
ENDBRANCH  55  69
BRANCH  56  81
ATOM     81  C   UNL A   1      47.640  32.842  28.366  1.00  0.00     0.058 A 
ATOM     82  C   UNL A   1      47.790  33.820  27.370  1.00  0.00     0.135 A 
ATOM     83  C   UNL A   1      48.214  33.105  29.622  1.00  0.00     0.135 A 
ATOM     84  F   UNL A   1      47.283  33.613  26.145  1.00  0.00    -0.206 F 
ATOM     85  C   UNL A   1      48.505  34.993  27.599  1.00  0.00     0.059 A 
ATOM     86  C   UNL A   1      48.901  34.285  29.886  1.00  0.00     0.059 A 
ATOM     87  F   UNL A   1      48.106  32.206  30.613  1.00  0.00    -0.206 F 
ATOM     88  C   UNL A   1      49.057  35.217  28.862  1.00  0.00     0.060 A 
BRANCH  88  89
ATOM     89  S   UNL A   1      49.968  36.748  29.157  1.00  0.00     0.124 S 
ATOM     90  O   UNL A   1      48.933  37.600  29.731  1.00  0.00    -0.237 OA
ATOM     91  O   UNL A   1      51.015  36.308  30.074  1.00  0.00    -0.237 OA
ATOM     92  O   UNL A   1      50.430  37.126  27.825  1.00  0.00    -0.744 OA
ENDBRANCH  88  89
ENDBRANCH  56  81
BRANCH  68  93
ATOM     93  C   UNL A   1      49.961  26.618  26.188  1.00  0.00     0.058 A 
ATOM     94  C   UNL A   1      50.443  26.762  24.878  1.00  0.00     0.135 A 
ATOM     95  C   UNL A   1      50.830  26.069  27.148  1.00  0.00     0.135 A 
ATOM     96  F   UNL A   1      49.652  27.273  23.921  1.00  0.00    -0.206 F 
ATOM     97  C   UNL A   1      51.734  26.376  24.531  1.00  0.00     0.059 A 
ATOM     98  C   UNL A   1      52.135  25.704  26.830  1.00  0.00     0.059 A 
ATOM     99  F   UNL A   1      50.425  25.917  28.419  1.00  0.00    -0.206 F 
ATOM    100  C   UNL A   1      52.577  25.857  25.517  1.00  0.00     0.060 A 
BRANCH 100 101
ATOM    101  S   UNL A   1      54.271  25.426  25.065  1.00  0.00     0.124 S 
ATOM    102  O   UNL A   1      54.445  26.174  23.825  1.00  0.00    -0.237 OA
ATOM    103  O   UNL A   1      55.032  25.911  26.212  1.00  0.00    -0.237 OA
ATOM    104  O   UNL A   1      54.225  23.973  24.920  1.00  0.00    -0.744 OA
ENDBRANCH 100 101
ENDBRANCH  68  93
ENDBRANCH  42  43
ENDBRANCH  35  37
ENDBRANCH  34  35
ENDBRANCH  33  34
ENDBRANCH  32  33
ENDBRANCH  31  32
ENDBRANCH  30  31
ENDBRANCH   1  30
TORSDOF 25
ENDMDL
MODEL 2
REMARK VINA RESULT:      -8.5      5.513      8.889
REMARK SMILES C[C@](NC(=O)[C@](C)([NH3+])C(F)(F)F)(C(=O)OCCOCCOCCOC(=O)c1ccc(-c2c3nc(c(-c4c(F)cc(S(=O)(=O)[O-])cc4F)c4ccc([nH]4)c(-c4c(F)cc(S(=O)(=O)[O-])cc4F)c4nc(c(-c5c(F)cc(S(=O)(=O)[O-])cc5F)c5ccc2[nH]5)C=C4)C=C3)cc1)c1ccccc1
REMARK SMILES IDX 19 1 18 2 17 3 16 4 15 5 13 6 14 7 2 8 1 9 93 10 94 11 98 12
REMARK SMILES IDX 95 13 97 14 96 15 3 16 4 17 5 19 6 20 7 21 8 22 9 26 10 27
REMARK SMILES IDX 11 28 12 29 20 30 21 31 22 32 23 33 24 34 25 35 26 36 27 37
REMARK SMILES IDX 28 38 92 39 29 40 91 41 30 42 31 43 32 44 85 45 33 46 90 47
REMARK SMILES IDX 84 48 86 49 34 50 89 51 83 52 82 53 35 55 69 56 48 57 68 58
REMARK SMILES IDX 49 59 52 60 67 61 87 62 50 63 51 64 66 66 88 67 53 68 36 69
REMARK SMILES IDX 37 70 46 71 38 72 39 73 45 74 47 75 40 76 41 77 42 78 43 79
REMARK SMILES IDX 44 80 70 81 71 82 80 83 72 84 73 85 79 86 81 87 74 88 75 89
REMARK SMILES IDX 76 90 77 91 78 92 54 93 55 94 64 95 56 96 57 97 63 98 65 99
REMARK SMILES IDX 58 100 59 101 60 102 61 103 62 104
REMARK H PARENT 3 18 8 23 8 24 8 25 86 54 52 65
REMARK Flexibility Score: inf
ROOT
ATOM      1  C   UNL A   1      42.502  31.735  36.187  1.00  0.00     0.188 C 
ENDROOT
BRANCH   1   2
ATOM      2  O   UNL A   1      42.870  30.797  35.187  1.00  0.00    -0.376 OA
BRANCH   2   3
ATOM      3  C   UNL A   1      44.022  31.144  34.430  1.00  0.00     0.202 C 
BRANCH   3   4
ATOM      4  C   UNL A   1      44.313  30.236  33.217  1.00  0.00     0.261 C 
BRANCH   4   5
ATOM      5  O   UNL A   1      45.040  29.010  33.484  1.00  0.00    -0.461 OA
BRANCH   5   6
ATOM      6  C   UNL A   1      44.249  27.951  33.772  1.00  0.00     0.336 C 
ATOM      7  O   UNL A   1      43.107  27.849  33.321  1.00  0.00    -0.249 OA
BRANCH   6   8
ATOM      8  C   UNL A   1      44.821  26.938  34.849  1.00  0.00     0.161 C 
ATOM      9  C   UNL A   1      45.741  28.002  35.509  1.00  0.00     0.053 C 
BRANCH   8  10
ATOM     10  C   UNL A   1      43.562  26.251  35.449  1.00  0.00    -0.012 A 
ATOM     11  C   UNL A   1      42.870  26.768  36.549  1.00  0.00     0.007 A 
ATOM     12  C   UNL A   1      43.041  25.058  34.878  1.00  0.00     0.007 A 
ATOM     13  C   UNL A   1      41.819  26.055  37.143  1.00  0.00     0.000 A 
ATOM     14  C   UNL A   1      42.038  24.317  35.508  1.00  0.00     0.000 A 
ATOM     15  C   UNL A   1      41.435  24.812  36.651  1.00  0.00     0.000 A 
ENDBRANCH   8  10
BRANCH   8  16
ATOM     16  N   UNL A   1      45.788  25.829  34.657  1.00  0.00    -0.331 N 
ATOM     17  C   UNL A   1      46.509  25.482  33.532  1.00  0.00     0.291 C 
ATOM     18  H   UNL A   1      45.936  25.258  35.444  1.00  0.00     0.165 HD
ATOM     19  O   UNL A   1      47.295  24.539  33.745  1.00  0.00    -0.267 OA
BRANCH  17  20
ATOM     20  C   UNL A   1      46.593  26.229  32.096  1.00  0.00     0.267 C 
ATOM     21  C   UNL A   1      47.699  25.488  31.299  1.00  0.00     0.100 C 
BRANCH  20  22
ATOM     22  N   UNL A   1      47.211  27.588  32.305  1.00  0.00    -0.337 N 
ATOM     23  H   UNL A   1      46.969  28.195  31.521  1.00  0.00     0.345 HD
ATOM     24  H   UNL A   1      48.225  27.496  32.361  1.00  0.00     0.345 HD
ATOM     25  H   UNL A   1      46.858  27.993  33.171  1.00  0.00     0.345 HD
ENDBRANCH  20  22
BRANCH  20  26
ATOM     26  C   UNL A   1      45.400  26.243  31.096  1.00  0.00     0.453 C 
ATOM     27  F   UNL A   1      45.005  27.516  30.824  1.00  0.00    -0.164 F 
ATOM     28  F   UNL A   1      45.732  25.694  29.900  1.00  0.00    -0.164 F 
ATOM     29  F   UNL A   1      44.292  25.619  31.519  1.00  0.00    -0.164 F 
ENDBRANCH  20  26
ENDBRANCH  17  20
ENDBRANCH   8  16
ENDBRANCH   6   8
ENDBRANCH   5   6
ENDBRANCH   4   5
ENDBRANCH   3   4
ENDBRANCH   2   3
ENDBRANCH   1   2
BRANCH   1  30
ATOM     30  C   UNL A   1      41.008  31.688  36.573  1.00  0.00     0.188 C 
BRANCH  30  31
ATOM     31  O   UNL A   1      40.143  30.714  36.011  1.00  0.00    -0.376 OA
BRANCH  31  32
ATOM     32  C   UNL A   1      38.755  31.002  35.956  1.00  0.00     0.202 C 
BRANCH  32  33
ATOM     33  C   UNL A   1      38.092  31.388  34.617  1.00  0.00     0.261 C 
BRANCH  33  34
ATOM     34  O   UNL A   1      37.888  30.330  33.660  1.00  0.00    -0.460 OA
BRANCH  34  35
ATOM     35  C   UNL A   1      37.641  30.717  32.377  1.00  0.00     0.338 C 
ATOM     36  O   UNL A   1      36.733  31.428  31.994  1.00  0.00    -0.246 OA
BRANCH  35  37
ATOM     37  C   UNL A   1      38.783  30.327  31.507  1.00  0.00     0.060 A 
ATOM     38  C   UNL A   1      39.828  29.584  32.072  1.00  0.00     0.016 A 
ATOM     39  C   UNL A   1      38.859  30.718  30.170  1.00  0.00     0.016 A 
ATOM     40  C   UNL A   1      40.921  29.200  31.297  1.00  0.00     0.010 A 
ATOM     41  C   UNL A   1      39.981  30.357  29.402  1.00  0.00     0.010 A 
ATOM     42  C   UNL A   1      41.017  29.588  29.960  1.00  0.00    -0.014 A 
BRANCH  42  43
ATOM     43  C   UNL A   1      42.278  29.316  29.221  1.00  0.00     0.031 A 
ATOM     44  C   UNL A   1      42.469  27.959  28.606  1.00  0.00     0.074 A 
ATOM     45  C   UNL A   1      43.215  30.268  29.037  1.00  0.00     0.049 A 
ATOM     46  N   UNL A   1      43.535  27.442  28.057  1.00  0.00    -0.248 NA
ATOM     47  C   UNL A   1      41.294  27.073  28.598  1.00  0.00     0.031 C 
ATOM     48  C   UNL A   1      43.099  31.663  29.454  1.00  0.00     0.029 A 
ATOM     49  N   UNL A   1      44.459  30.196  28.454  1.00  0.00    -0.354 N 
ATOM     50  C   UNL A   1      43.177  26.153  27.681  1.00  0.00     0.074 A 
ATOM     51  C   UNL A   1      41.785  25.978  28.035  1.00  0.00     0.031 C 
ATOM     52  C   UNL A   1      44.240  32.307  29.147  1.00  0.00     0.029 A 
ATOM     53  C   UNL A   1      45.192  31.356  28.576  1.00  0.00     0.049 A 
ATOM     54  H   UNL A   1      44.795  29.393  27.993  1.00  0.00     0.167 HD
ATOM     55  C   UNL A   1      43.948  25.198  27.114  1.00  0.00     0.037 A 
ATOM     56  C   UNL A   1      46.495  31.601  28.320  1.00  0.00     0.037 A 
ATOM     57  C   UNL A   1      45.328  25.385  26.748  1.00  0.00     0.049 A 
ATOM     58  C   UNL A   1      47.370  30.483  27.797  1.00  0.00     0.074 A 
ATOM     59  C   UNL A   1      46.189  24.476  26.161  1.00  0.00     0.029 A 
ATOM     60  N   UNL A   1      46.051  26.551  26.946  1.00  0.00    -0.354 N 
ATOM     61  N   UNL A   1      47.033  29.258  27.467  1.00  0.00    -0.248 NA
ATOM     62  C   UNL A   1      48.804  30.770  27.633  1.00  0.00     0.031 C 
ATOM     63  C   UNL A   1      47.451  25.066  26.070  1.00  0.00     0.029 A 
ATOM     64  C   UNL A   1      47.361  26.368  26.536  1.00  0.00     0.049 A 
ATOM     65  H   UNL A   1      45.688  27.385  27.322  1.00  0.00     0.167 HD
ATOM     66  C   UNL A   1      48.207  28.640  27.042  1.00  0.00     0.074 A 
ATOM     67  C   UNL A   1      49.259  29.629  27.136  1.00  0.00     0.031 C 
ATOM     68  C   UNL A   1      48.398  27.366  26.619  1.00  0.00     0.037 A 
BRANCH  55  69
ATOM     69  C   UNL A   1      43.354  23.831  26.927  1.00  0.00     0.058 A 
ATOM     70  C   UNL A   1      43.039  23.314  25.664  1.00  0.00     0.135 A 
ATOM     71  C   UNL A   1      43.162  23.003  28.046  1.00  0.00     0.135 A 
ATOM     72  F   UNL A   1      43.180  24.073  24.565  1.00  0.00    -0.206 F 
ATOM     73  C   UNL A   1      42.551  22.019  25.514  1.00  0.00     0.059 A 
ATOM     74  C   UNL A   1      42.701  21.699  27.918  1.00  0.00     0.059 A 
ATOM     75  F   UNL A   1      43.438  23.457  29.278  1.00  0.00    -0.206 F 
ATOM     76  C   UNL A   1      42.393  21.217  26.648  1.00  0.00     0.060 A 
BRANCH  76  77
ATOM     77  S   UNL A   1      41.799  19.526  26.433  1.00  0.00     0.124 S 
ATOM     78  O   UNL A   1      40.354  19.712  26.514  1.00  0.00    -0.237 OA
ATOM     79  O   UNL A   1      42.321  19.179  25.116  1.00  0.00    -0.237 OA
ATOM     80  O   UNL A   1      42.401  18.807  27.553  1.00  0.00    -0.744 OA
ENDBRANCH  76  77
ENDBRANCH  55  69
BRANCH  56  81
ATOM     81  C   UNL A   1      47.099  32.925  28.655  1.00  0.00     0.058 A 
ATOM     82  C   UNL A   1      47.560  33.219  29.948  1.00  0.00     0.135 A 
ATOM     83  C   UNL A   1      47.169  33.950  27.695  1.00  0.00     0.135 A 
ATOM     84  F   UNL A   1      47.497  32.287  30.911  1.00  0.00    -0.206 F 
ATOM     85  C   UNL A   1      48.040  34.484  30.284  1.00  0.00     0.059 A 
ATOM     86  C   UNL A   1      47.678  35.209  27.997  1.00  0.00     0.059 A 
ATOM     87  F   UNL A   1      46.741  33.729  26.443  1.00  0.00    -0.206 F 
ATOM     88  C   UNL A   1      48.095  35.472  29.300  1.00  0.00     0.060 A 
BRANCH  88  89
ATOM     89  S   UNL A   1      48.734  37.104  29.737  1.00  0.00     0.124 S 
ATOM     90  O   UNL A   1      48.074  37.952  28.752  1.00  0.00    -0.237 OA
ATOM     91  O   UNL A   1      48.277  37.251  31.115  1.00  0.00    -0.237 OA
ATOM     92  O   UNL A   1      50.177  36.954  29.576  1.00  0.00    -0.744 OA
ENDBRANCH  88  89
ENDBRANCH  56  81
BRANCH  68  93
ATOM     93  C   UNL A   1      49.784  26.959  26.193  1.00  0.00     0.058 A 
ATOM     94  C   UNL A   1      50.215  27.090  24.864  1.00  0.00     0.135 A 
ATOM     95  C   UNL A   1      50.723  26.526  27.146  1.00  0.00     0.135 A 
ATOM     96  F   UNL A   1      49.358  27.491  23.912  1.00  0.00    -0.206 F 
ATOM     97  C   UNL A   1      51.525  26.801  24.493  1.00  0.00     0.059 A 
ATOM     98  C   UNL A   1      52.045  26.261  26.803  1.00  0.00     0.059 A 
ATOM     99  F   UNL A   1      50.367  26.393  28.434  1.00  0.00    -0.206 F 
ATOM    100  C   UNL A   1      52.436  26.397  25.472  1.00  0.00     0.060 A 
BRANCH 100 101
ATOM    101  S   UNL A   1      54.148  26.093  24.985  1.00  0.00     0.124 S 
ATOM    102  O   UNL A   1      54.402  24.792  25.595  1.00  0.00    -0.237 OA
ATOM    103  O   UNL A   1      54.064  26.106  23.528  1.00  0.00    -0.237 OA
ATOM    104  O   UNL A   1      54.874  27.214  25.576  1.00  0.00    -0.744 OA
ENDBRANCH 100 101
ENDBRANCH  68  93
ENDBRANCH  42  43
ENDBRANCH  35  37
ENDBRANCH  34  35
ENDBRANCH  33  34
ENDBRANCH  32  33
ENDBRANCH  31  32
ENDBRANCH  30  31
ENDBRANCH   1  30
TORSDOF 25
ENDMDL
MODEL 3
REMARK VINA RESULT:      -8.5      8.547     16.942
REMARK SMILES C[C@](NC(=O)[C@](C)([NH3+])C(F)(F)F)(C(=O)OCCOCCOCCOC(=O)c1ccc(-c2c3nc(c(-c4c(F)cc(S(=O)(=O)[O-])cc4F)c4ccc([nH]4)c(-c4c(F)cc(S(=O)(=O)[O-])cc4F)c4nc(c(-c5c(F)cc(S(=O)(=O)[O-])cc5F)c5ccc2[nH]5)C=C4)C=C3)cc1)c1ccccc1
REMARK SMILES IDX 19 1 18 2 17 3 16 4 15 5 13 6 14 7 2 8 1 9 93 10 94 11 98 12
REMARK SMILES IDX 95 13 97 14 96 15 3 16 4 17 5 19 6 20 7 21 8 22 9 26 10 27
REMARK SMILES IDX 11 28 12 29 20 30 21 31 22 32 23 33 24 34 25 35 26 36 27 37
REMARK SMILES IDX 28 38 92 39 29 40 91 41 30 42 31 43 32 44 85 45 33 46 90 47
REMARK SMILES IDX 84 48 86 49 34 50 89 51 83 52 82 53 35 55 69 56 48 57 68 58
REMARK SMILES IDX 49 59 52 60 67 61 87 62 50 63 51 64 66 66 88 67 53 68 36 69
REMARK SMILES IDX 37 70 46 71 38 72 39 73 45 74 47 75 40 76 41 77 42 78 43 79
REMARK SMILES IDX 44 80 70 81 71 82 80 83 72 84 73 85 79 86 81 87 74 88 75 89
REMARK SMILES IDX 76 90 77 91 78 92 54 93 55 94 64 95 56 96 57 97 63 98 65 99
REMARK SMILES IDX 58 100 59 101 60 102 61 103 62 104
REMARK H PARENT 3 18 8 23 8 24 8 25 86 54 52 65
REMARK Flexibility Score: inf
ROOT
ATOM      1  C   UNL A   1      51.966  23.945  40.263  1.00  0.00     0.188 C 
ENDROOT
BRANCH   1   2
ATOM      2  O   UNL A   1      50.827  23.389  39.623  1.00  0.00    -0.376 OA
BRANCH   2   3
ATOM      3  C   UNL A   1      49.623  23.454  40.373  1.00  0.00     0.202 C 
BRANCH   3   4
ATOM      4  C   UNL A   1      48.344  23.056  39.606  1.00  0.00     0.261 C 
BRANCH   4   5
ATOM      5  O   UNL A   1      48.410  21.836  38.826  1.00  0.00    -0.461 OA
BRANCH   5   6
ATOM      6  C   UNL A   1      47.372  20.992  39.034  1.00  0.00     0.336 C 
ATOM      7  O   UNL A   1      46.559  21.173  39.941  1.00  0.00    -0.249 OA
BRANCH   6   8
ATOM      8  C   UNL A   1      47.366  19.678  38.147  1.00  0.00     0.161 C 
ATOM      9  C   UNL A   1      48.686  20.043  37.416  1.00  0.00     0.053 C 
BRANCH   8  10
ATOM     10  C   UNL A   1      47.114  18.524  39.158  1.00  0.00    -0.012 A 
ATOM     11  C   UNL A   1      45.923  17.792  39.188  1.00  0.00     0.007 A 
ATOM     12  C   UNL A   1      48.114  18.145  40.095  1.00  0.00     0.007 A 
ATOM     13  C   UNL A   1      45.681  16.847  40.195  1.00  0.00     0.000 A 
ATOM     14  C   UNL A   1      47.847  17.252  41.136  1.00  0.00     0.000 A 
ATOM     15  C   UNL A   1      46.622  16.611  41.193  1.00  0.00     0.000 A 
ENDBRANCH   8  10
BRANCH   8  16
ATOM     16  N   UNL A   1      46.499  19.347  36.989  1.00  0.00    -0.331 N 
ATOM     17  C   UNL A   1      45.804  20.191  36.145  1.00  0.00     0.291 C 
ATOM     18  H   UNL A   1      46.407  18.387  36.793  1.00  0.00     0.165 HD
ATOM     19  O   UNL A   1      45.240  19.578  35.220  1.00  0.00    -0.267 OA
BRANCH  17  20
ATOM     20  C   UNL A   1      45.785  21.811  36.102  1.00  0.00     0.267 C 
ATOM     21  C   UNL A   1      47.245  22.243  35.807  1.00  0.00     0.100 C 
BRANCH  20  22
ATOM     22  N   UNL A   1      45.584  22.320  37.508  1.00  0.00    -0.337 N 
ATOM     23  H   UNL A   1      44.625  22.650  37.615  1.00  0.00     0.345 HD
ATOM     24  H   UNL A   1      46.229  23.088  37.687  1.00  0.00     0.345 HD
ATOM     25  H   UNL A   1      45.760  21.566  38.171  1.00  0.00     0.345 HD
ENDBRANCH  20  22
BRANCH  20  26
ATOM     26  C   UNL A   1      44.971  22.605  35.039  1.00  0.00     0.453 C 
ATOM     27  F   UNL A   1      43.635  22.404  35.196  1.00  0.00    -0.164 F 
ATOM     28  F   UNL A   1      45.160  23.944  35.150  1.00  0.00    -0.164 F 
ATOM     29  F   UNL A   1      45.224  22.278  33.765  1.00  0.00    -0.164 F 
ENDBRANCH  20  26
ENDBRANCH  17  20
ENDBRANCH   8  16
ENDBRANCH   6   8
ENDBRANCH   5   6
ENDBRANCH   4   5
ENDBRANCH   3   4
ENDBRANCH   2   3
ENDBRANCH   1   2
BRANCH   1  30
ATOM     30  C   UNL A   1      52.066  25.481  40.145  1.00  0.00     0.188 C 
BRANCH  30  31
ATOM     31  O   UNL A   1      51.461  26.166  39.060  1.00  0.00    -0.376 OA
BRANCH  31  32
ATOM     32  C   UNL A   1      50.597  27.253  39.352  1.00  0.00     0.202 C 
BRANCH  32  33
ATOM     33  C   UNL A   1      49.123  26.996  39.733  1.00  0.00     0.261 C 
BRANCH  33  34
ATOM     34  O   UNL A   1      48.122  27.389  38.773  1.00  0.00    -0.460 OA
BRANCH  34  35
ATOM     35  C   UNL A   1      46.871  26.886  38.967  1.00  0.00     0.338 C 
ATOM     36  O   UNL A   1      46.494  26.220  39.910  1.00  0.00    -0.246 OA
BRANCH  35  37
ATOM     37  C   UNL A   1      45.939  27.454  37.957  1.00  0.00     0.060 A 
ATOM     38  C   UNL A   1      46.355  28.574  37.222  1.00  0.00     0.016 A 
ATOM     39  C   UNL A   1      44.660  26.935  37.756  1.00  0.00     0.016 A 
ATOM     40  C   UNL A   1      45.514  29.144  36.267  1.00  0.00     0.010 A 
ATOM     41  C   UNL A   1      43.804  27.537  36.817  1.00  0.00     0.010 A 
ATOM     42  C   UNL A   1      44.229  28.642  36.059  1.00  0.00    -0.014 A 
BRANCH  42  43
ATOM     43  C   UNL A   1      43.302  29.387  35.169  1.00  0.00     0.031 A 
ATOM     44  C   UNL A   1      42.465  30.483  35.763  1.00  0.00     0.074 A 
ATOM     45  C   UNL A   1      43.242  29.149  33.843  1.00  0.00     0.049 A 
ATOM     46  N   UNL A   1      41.483  31.159  35.228  1.00  0.00    -0.248 NA
ATOM     47  C   UNL A   1      42.790  30.880  37.143  1.00  0.00     0.031 C 
ATOM     48  C   UNL A   1      44.094  28.216  33.110  1.00  0.00     0.029 A 
ATOM     49  N   UNL A   1      42.412  29.672  32.877  1.00  0.00    -0.354 N 
ATOM     50  C   UNL A   1      41.039  32.026  36.219  1.00  0.00     0.074 A 
ATOM     51  C   UNL A   1      41.880  31.815  37.377  1.00  0.00     0.031 C 
ATOM     52  C   UNL A   1      43.720  28.206  31.818  1.00  0.00     0.029 A 
ATOM     53  C   UNL A   1      42.559  29.077  31.645  1.00  0.00     0.049 A 
ATOM     54  H   UNL A   1      41.775  30.403  33.051  1.00  0.00     0.167 HD
ATOM     55  C   UNL A   1      40.009  32.901  36.170  1.00  0.00     0.037 A 
ATOM     56  C   UNL A   1      41.804  29.172  30.529  1.00  0.00     0.037 A 
ATOM     57  C   UNL A   1      39.188  33.118  35.008  1.00  0.00     0.049 A 
ATOM     58  C   UNL A   1      40.584  30.068  30.535  1.00  0.00     0.074 A 
ATOM     59  C   UNL A   1      38.124  33.990  34.862  1.00  0.00     0.029 A 
ATOM     60  N   UNL A   1      39.327  32.450  33.801  1.00  0.00    -0.354 N 
ATOM     61  N   UNL A   1      40.153  30.868  31.482  1.00  0.00    -0.248 NA
ATOM     62  C   UNL A   1      39.735  30.058  29.333  1.00  0.00     0.031 C 
ATOM     63  C   UNL A   1      37.574  33.799  33.593  1.00  0.00     0.029 A 
ATOM     64  C   UNL A   1      38.338  32.858  32.921  1.00  0.00     0.049 A 
ATOM     65  H   UNL A   1      40.025  31.786  33.598  1.00  0.00     0.167 HD
ATOM     66  C   UNL A   1      38.998  31.465  30.983  1.00  0.00     0.074 A 
ATOM     67  C   UNL A   1      38.807  30.953  29.643  1.00  0.00     0.031 C 
ATOM     68  C   UNL A   1      38.166  32.352  31.582  1.00  0.00     0.037 A 
BRANCH  55  69
ATOM     69  C   UNL A   1      39.647  33.633  37.430  1.00  0.00     0.058 A 
ATOM     70  C   UNL A   1      38.763  33.104  38.380  1.00  0.00     0.135 A 
ATOM     71  C   UNL A   1      40.259  34.865  37.713  1.00  0.00     0.135 A 
ATOM     72  F   UNL A   1      38.132  31.941  38.146  1.00  0.00    -0.206 F 
ATOM     73  C   UNL A   1      38.496  33.773  39.571  1.00  0.00     0.059 A 
ATOM     74  C   UNL A   1      40.028  35.538  38.907  1.00  0.00     0.059 A 
ATOM     75  F   UNL A   1      41.104  35.419  36.830  1.00  0.00    -0.206 F 
ATOM     76  C   UNL A   1      39.140  34.986  39.828  1.00  0.00     0.060 A 
BRANCH  76  77
ATOM     77  S   UNL A   1      38.815  35.822  41.395  1.00  0.00     0.124 S 
ATOM     78  O   UNL A   1      38.850  37.223  40.990  1.00  0.00    -0.237 OA
ATOM     79  O   UNL A   1      37.503  35.299  41.758  1.00  0.00    -0.237 OA
ATOM     80  O   UNL A   1      39.919  35.390  42.248  1.00  0.00    -0.744 OA
ENDBRANCH  76  77
ENDBRANCH  55  69
BRANCH  56  81
ATOM     81  C   UNL A   1      42.096  28.320  29.338  1.00  0.00     0.058 A 
ATOM     82  C   UNL A   1      41.402  27.124  29.098  1.00  0.00     0.135 A 
ATOM     83  C   UNL A   1      43.127  28.659  28.444  1.00  0.00     0.135 A 
ATOM     84  F   UNL A   1      40.423  26.739  29.931  1.00  0.00    -0.206 F 
ATOM     85  C   UNL A   1      41.736  26.284  28.038  1.00  0.00     0.059 A 
ATOM     86  C   UNL A   1      43.455  27.855  27.358  1.00  0.00     0.059 A 
ATOM     87  F   UNL A   1      43.829  29.789  28.623  1.00  0.00    -0.206 F 
ATOM     88  C   UNL A   1      42.765  26.659  27.173  1.00  0.00     0.060 A 
BRANCH  88  89
ATOM     89  S   UNL A   1      43.182  25.574  25.790  1.00  0.00     0.124 S 
ATOM     90  O   UNL A   1      42.943  24.257  26.369  1.00  0.00    -0.237 OA
ATOM     91  O   UNL A   1      42.233  26.004  24.769  1.00  0.00    -0.237 OA
ATOM     92  O   UNL A   1      44.578  25.900  25.516  1.00  0.00    -0.744 OA
ENDBRANCH  88  89
ENDBRANCH  56  81
BRANCH  68  93
ATOM     93  C   UNL A   1      36.985  32.860  30.798  1.00  0.00     0.058 A 
ATOM     94  C   UNL A   1      35.715  32.275  30.916  1.00  0.00     0.135 A 
ATOM     95  C   UNL A   1      37.105  34.008  29.996  1.00  0.00     0.135 A 
ATOM     96  F   UNL A   1      35.545  31.173  31.663  1.00  0.00    -0.206 F 
ATOM     97  C   UNL A   1      34.606  32.806  30.262  1.00  0.00     0.059 A 
ATOM     98  C   UNL A   1      36.005  34.573  29.357  1.00  0.00     0.059 A 
ATOM     99  F   UNL A   1      38.295  34.614  29.856  1.00  0.00    -0.206 F 
ATOM    100  C   UNL A   1      34.760  33.962  29.492  1.00  0.00     0.060 A 
BRANCH 100 101
ATOM    101  S   UNL A   1      33.299  34.676  28.707  1.00  0.00     0.124 S 
ATOM    102  O   UNL A   1      32.511  35.085  29.865  1.00  0.00    -0.237 OA
ATOM    103  O   UNL A   1      33.871  35.759  27.913  1.00  0.00    -0.237 OA
ATOM    104  O   UNL A   1      32.750  33.564  27.935  1.00  0.00    -0.744 OA
ENDBRANCH 100 101
ENDBRANCH  68  93
ENDBRANCH  42  43
ENDBRANCH  35  37
ENDBRANCH  34  35
ENDBRANCH  33  34
ENDBRANCH  32  33
ENDBRANCH  31  32
ENDBRANCH  30  31
ENDBRANCH   1  30
TORSDOF 25
ENDMDL
