MODEL 1
REMARK VINA RESULT:     -10.2      0.000      0.000
REMARK SMILES C[C@]([NH3+])(C(=O)N1[C@@H](C(=O)OCCOCCOCCOC(=O)c2ccc(-c3c4nc(c(-c5c(F)cc(S(=O)(=O)[O-])cc5F)c5ccc([nH]5)c(-c5c(F)cc(S(=O)(=O)[O-])cc5F)c5nc(c(-c6c(F)cc(S(=O)(=O)[O-])cc6F)c6ccc3[nH]6)C=C5)C=C4)cc2)C[C@H]2CCCC[C@@H]21)C(F)(F)F
REMARK SMILES IDX 14 1 13 2 12 3 11 4 10 5 8 6 9 7 7 8 6 9 94 10 88 11 89 12
REMARK SMILES IDX 93 13 90 14 92 15 91 16 4 17 5 18 2 19 1 20 95 21 96 22
REMARK SMILES IDX 97 23 98 24 3 25 15 29 16 30 17 31 18 32 19 33 20 34 21 35
REMARK SMILES IDX 22 36 23 37 87 38 24 39 86 40 25 41 26 42 27 43 80 44 28 45
REMARK SMILES IDX 85 46 79 47 81 48 29 49 84 50 78 51 77 52 30 54 64 55 43 56
REMARK SMILES IDX 63 57 44 58 47 59 62 60 82 61 45 62 46 63 61 65 83 66 48 67
REMARK SMILES IDX 31 68 32 69 41 70 33 71 34 72 40 73 42 74 35 75 36 76 37 77
REMARK SMILES IDX 38 78 39 79 65 80 66 81 75 82 67 83 68 84 74 85 76 86 69 87
REMARK SMILES IDX 70 88 71 89 72 90 73 91 49 92 50 93 59 94 51 95 52 96 58 97
REMARK SMILES IDX 60 98 53 99 54 100 55 101 56 102 57 103
REMARK H PARENT 3 26 3 27 3 28 81 53 47 64
REMARK Flexibility Score: inf
ROOT
ATOM      1  C   UNL A   1      31.227  27.663  24.942  1.00  0.00     0.188 C 
ENDROOT
BRANCH   1   2
ATOM      2  O   UNL A   1      31.986  26.537  24.519  1.00  0.00    -0.376 OA
BRANCH   2   3
ATOM      3  C   UNL A   1      32.111  25.430  25.404  1.00  0.00     0.202 C 
BRANCH   3   4
ATOM      4  C   UNL A   1      31.426  24.144  24.958  1.00  0.00     0.261 C 
BRANCH   4   5
ATOM      5  O   UNL A   1      31.999  23.682  23.719  1.00  0.00    -0.462 OA
BRANCH   5   6
ATOM      6  C   UNL A   1      32.351  22.364  23.689  1.00  0.00     0.328 C 
ATOM      7  O   UNL A   1      32.006  21.586  22.816  1.00  0.00    -0.250 OA
BRANCH   6   8
ATOM      8  C   UNL A   1      33.114  21.979  24.984  1.00  0.00     0.196 C 
ATOM      9  N   UNL A   1      34.380  21.253  24.783  1.00  0.00    -0.320 N 
ATOM     10  C   UNL A   1      34.017  19.900  24.423  1.00  0.00     0.089 C 
ATOM     11  C   UNL A   1      32.239  20.947  25.715  1.00  0.00     0.043 C 
ATOM     12  C   UNL A   1      32.981  19.615  25.515  1.00  0.00     0.014 C 
ATOM     13  C   UNL A   1      35.015  18.762  24.331  1.00  0.00     0.025 C 
ATOM     14  C   UNL A   1      32.146  18.404  25.155  1.00  0.00     0.006 C 
ATOM     15  C   UNL A   1      34.236  17.477  23.988  1.00  0.00     0.002 C 
ATOM     16  C   UNL A   1      33.077  17.199  24.961  1.00  0.00     0.000 C 
BRANCH   9  17
ATOM     17  C   UNL A   1      35.552  21.895  24.431  1.00  0.00     0.294 C 
ATOM     18  O   UNL A   1      35.642  22.479  23.351  1.00  0.00    -0.267 OA
BRANCH  17  19
ATOM     19  C   UNL A   1      36.511  22.214  25.627  1.00  0.00     0.267 C 
ATOM     20  C   UNL A   1      37.891  21.562  25.512  1.00  0.00     0.100 C 
BRANCH  19  21
ATOM     21  C   UNL A   1      36.712  23.749  25.668  1.00  0.00     0.453 C 
ATOM     22  F   UNL A   1      37.346  24.130  26.796  1.00  0.00    -0.164 F 
ATOM     23  F   UNL A   1      37.487  24.168  24.636  1.00  0.00    -0.164 F 
ATOM     24  F   UNL A   1      35.544  24.418  25.585  1.00  0.00    -0.164 F 
ENDBRANCH  19  21
BRANCH  19  25
ATOM     25  N   UNL A   1      35.867  21.649  26.871  1.00  0.00    -0.337 N 
ATOM     26  H   UNL A   1      36.590  21.398  27.545  1.00  0.00     0.345 HD
ATOM     27  H   UNL A   1      35.325  20.819  26.628  1.00  0.00     0.345 HD
ATOM     28  H   UNL A   1      35.249  22.349  27.283  1.00  0.00     0.345 HD
ENDBRANCH  19  25
ENDBRANCH  17  19
ENDBRANCH   9  17
ENDBRANCH   6   8
ENDBRANCH   5   6
ENDBRANCH   4   5
ENDBRANCH   3   4
ENDBRANCH   2   3
ENDBRANCH   1   2
BRANCH   1  29
ATOM     29  C   UNL A   1      31.880  28.670  25.912  1.00  0.00     0.188 C 
BRANCH  29  30
ATOM     30  O   UNL A   1      31.588  30.053  25.782  1.00  0.00    -0.376 OA
BRANCH  30  31
ATOM     31  C   UNL A   1      32.112  30.914  26.791  1.00  0.00     0.202 C 
BRANCH  31  32
ATOM     32  C   UNL A   1      33.481  30.532  27.352  1.00  0.00     0.261 C 
BRANCH  32  33
ATOM     33  O   UNL A   1      34.239  31.699  27.722  1.00  0.00    -0.460 OA
BRANCH  33  34
ATOM     34  C   UNL A   1      34.896  31.592  28.899  1.00  0.00     0.338 C 
ATOM     35  O   UNL A   1      34.627  32.169  29.943  1.00  0.00    -0.246 OA
BRANCH  34  36
ATOM     36  C   UNL A   1      35.969  30.588  28.812  1.00  0.00     0.060 A 
ATOM     37  C   UNL A   1      36.435  29.993  29.984  1.00  0.00     0.016 A 
ATOM     38  C   UNL A   1      36.666  30.418  27.617  1.00  0.00     0.016 A 
ATOM     39  C   UNL A   1      37.638  29.292  29.985  1.00  0.00     0.010 A 
ATOM     40  C   UNL A   1      37.879  29.716  27.622  1.00  0.00     0.010 A 
ATOM     41  C   UNL A   1      38.408  29.212  28.825  1.00  0.00    -0.014 A 
BRANCH  41  42
ATOM     42  C   UNL A   1      39.849  28.858  28.943  1.00  0.00     0.031 A 
ATOM     43  C   UNL A   1      40.787  29.873  29.549  1.00  0.00     0.074 A 
ATOM     44  C   UNL A   1      40.314  27.629  28.653  1.00  0.00     0.049 A 
ATOM     45  N   UNL A   1      42.094  29.895  29.566  1.00  0.00    -0.248 NA
ATOM     46  C   UNL A   1      40.160  31.022  30.224  1.00  0.00     0.031 C 
ATOM     47  C   UNL A   1      39.503  26.494  28.216  1.00  0.00     0.029 A 
ATOM     48  N   UNL A   1      41.592  27.129  28.701  1.00  0.00    -0.354 N 
ATOM     49  C   UNL A   1      42.443  31.092  30.183  1.00  0.00     0.074 A 
ATOM     50  C   UNL A   1      41.212  31.762  30.538  1.00  0.00     0.031 C 
ATOM     51  C   UNL A   1      40.301  25.426  28.045  1.00  0.00     0.029 A 
ATOM     52  C   UNL A   1      41.687  25.823  28.283  1.00  0.00     0.049 A 
ATOM     53  H   UNL A   1      42.367  27.655  29.005  1.00  0.00     0.167 HD
ATOM     54  C   UNL A   1      43.681  31.588  30.422  1.00  0.00     0.037 A 
ATOM     55  C   UNL A   1      42.771  25.051  28.070  1.00  0.00     0.037 A 
ATOM     56  C   UNL A   1      44.898  30.877  30.133  1.00  0.00     0.049 A 
ATOM     57  C   UNL A   1      44.142  25.626  28.307  1.00  0.00     0.074 A 
ATOM     58  C   UNL A   1      46.206  31.304  30.276  1.00  0.00     0.029 A 
ATOM     59  N   UNL A   1      44.953  29.569  29.675  1.00  0.00    -0.354 N 
ATOM     60  N   UNL A   1      44.474  26.823  28.732  1.00  0.00    -0.248 NA
ATOM     61  C   UNL A   1      45.289  24.752  28.020  1.00  0.00     0.031 C 
ATOM     62  C   UNL A   1      47.053  30.258  29.889  1.00  0.00     0.029 A 
ATOM     63  C   UNL A   1      46.271  29.168  29.540  1.00  0.00     0.049 A 
ATOM     64  H   UNL A   1      44.169  29.008  29.474  1.00  0.00     0.167 HD
ATOM     65  C   UNL A   1      45.864  26.843  28.774  1.00  0.00     0.074 A 
ATOM     66  C   UNL A   1      46.311  25.532  28.347  1.00  0.00     0.031 C 
ATOM     67  C   UNL A   1      46.695  27.855  29.126  1.00  0.00     0.037 A 
BRANCH  54  68
ATOM     68  C   UNL A   1      43.770  32.987  30.964  1.00  0.00     0.058 A 
ATOM     69  C   UNL A   1      43.696  33.269  32.337  1.00  0.00     0.135 A 
ATOM     70  C   UNL A   1      43.922  34.069  30.081  1.00  0.00     0.135 A 
ATOM     71  F   UNL A   1      43.525  32.276  33.222  1.00  0.00    -0.206 F 
ATOM     72  C   UNL A   1      43.737  34.577  32.812  1.00  0.00     0.059 A 
ATOM     73  C   UNL A   1      43.992  35.382  30.535  1.00  0.00     0.059 A 
ATOM     74  F   UNL A   1      43.994  33.856  28.758  1.00  0.00    -0.206 F 
ATOM     75  C   UNL A   1      43.879  35.628  31.903  1.00  0.00     0.060 A 
BRANCH  75  76
ATOM     76  S   UNL A   1      43.919  37.322  32.526  1.00  0.00     0.124 S 
ATOM     77  O   UNL A   1      42.845  37.294  33.515  1.00  0.00    -0.237 OA
ATOM     78  O   UNL A   1      45.271  37.430  33.062  1.00  0.00    -0.237 OA
ATOM     79  O   UNL A   1      43.655  38.127  31.337  1.00  0.00    -0.744 OA
ENDBRANCH  75  76
ENDBRANCH  54  68
BRANCH  55  80
ATOM     80  C   UNL A   1      42.600  23.668  27.547  1.00  0.00     0.058 A 
ATOM     81  C   UNL A   1      42.596  23.403  26.171  1.00  0.00     0.135 A 
ATOM     82  C   UNL A   1      42.454  22.580  28.423  1.00  0.00     0.135 A 
ATOM     83  F   UNL A   1      42.713  24.411  25.292  1.00  0.00    -0.206 F 
ATOM     84  C   UNL A   1      42.455  22.108  25.679  1.00  0.00     0.059 A 
ATOM     85  C   UNL A   1      42.340  21.275  27.956  1.00  0.00     0.059 A 
ATOM     86  F   UNL A   1      42.456  22.779  29.750  1.00  0.00    -0.206 F 
ATOM     87  C   UNL A   1      42.333  21.049  26.581  1.00  0.00     0.060 A 
BRANCH  87  88
ATOM     88  S   UNL A   1      42.224  19.363  25.941  1.00  0.00     0.124 S 
ATOM     89  O   UNL A   1      40.786  19.213  25.753  1.00  0.00    -0.237 OA
ATOM     90  O   UNL A   1      43.022  19.442  24.722  1.00  0.00    -0.237 OA
ATOM     91  O   UNL A   1      42.809  18.561  27.012  1.00  0.00    -0.744 OA
ENDBRANCH  87  88
ENDBRANCH  55  80
BRANCH  67  92
ATOM     92  C   UNL A   1      48.170  27.572  29.106  1.00  0.00     0.058 A 
ATOM     93  C   UNL A   1      48.866  27.196  30.266  1.00  0.00     0.135 A 
ATOM     94  C   UNL A   1      48.889  27.640  27.902  1.00  0.00     0.135 A 
ATOM     95  F   UNL A   1      48.224  27.119  31.443  1.00  0.00    -0.206 F 
ATOM     96  C   UNL A   1      50.230  26.924  30.238  1.00  0.00     0.059 A 
ATOM     97  C   UNL A   1      50.248  27.350  27.847  1.00  0.00     0.059 A 
ATOM     98  F   UNL A   1      48.267  27.983  26.763  1.00  0.00    -0.206 F 
ATOM     99  C   UNL A   1      50.913  27.008  29.023  1.00  0.00     0.060 A 
BRANCH  99 100
ATOM    100  S   UNL A   1      52.680  26.641  28.993  1.00  0.00     0.124 S 
ATOM    101  O   UNL A   1      52.836  25.848  30.209  1.00  0.00    -0.237 OA
ATOM    102  O   UNL A   1      52.830  25.911  27.738  1.00  0.00    -0.237 OA
ATOM    103  O   UNL A   1      53.302  27.961  29.020  1.00  0.00    -0.744 OA
ENDBRANCH  99 100
ENDBRANCH  67  92
ENDBRANCH  41  42
ENDBRANCH  34  36
ENDBRANCH  33  34
ENDBRANCH  32  33
ENDBRANCH  31  32
ENDBRANCH  30  31
ENDBRANCH  29  30
ENDBRANCH   1  29
TORSDOF 24
ENDMDL
MODEL 2
REMARK VINA RESULT:     -10.1      3.617      9.463
REMARK SMILES C[C@]([NH3+])(C(=O)N1[C@@H](C(=O)OCCOCCOCCOC(=O)c2ccc(-c3c4nc(c(-c5c(F)cc(S(=O)(=O)[O-])cc5F)c5ccc([nH]5)c(-c5c(F)cc(S(=O)(=O)[O-])cc5F)c5nc(c(-c6c(F)cc(S(=O)(=O)[O-])cc6F)c6ccc3[nH]6)C=C5)C=C4)cc2)C[C@H]2CCCC[C@@H]21)C(F)(F)F
REMARK SMILES IDX 14 1 13 2 12 3 11 4 10 5 8 6 9 7 7 8 6 9 94 10 88 11 89 12
REMARK SMILES IDX 93 13 90 14 92 15 91 16 4 17 5 18 2 19 1 20 95 21 96 22
REMARK SMILES IDX 97 23 98 24 3 25 15 29 16 30 17 31 18 32 19 33 20 34 21 35
REMARK SMILES IDX 22 36 23 37 87 38 24 39 86 40 25 41 26 42 27 43 80 44 28 45
REMARK SMILES IDX 85 46 79 47 81 48 29 49 84 50 78 51 77 52 30 54 64 55 43 56
REMARK SMILES IDX 63 57 44 58 47 59 62 60 82 61 45 62 46 63 61 65 83 66 48 67
REMARK SMILES IDX 31 68 32 69 41 70 33 71 34 72 40 73 42 74 35 75 36 76 37 77
REMARK SMILES IDX 38 78 39 79 65 80 66 81 75 82 67 83 68 84 74 85 76 86 69 87
REMARK SMILES IDX 70 88 71 89 72 90 73 91 49 92 50 93 59 94 51 95 52 96 58 97
REMARK SMILES IDX 60 98 53 99 54 100 55 101 56 102 57 103
REMARK H PARENT 3 26 3 27 3 28 81 53 47 64
REMARK Flexibility Score: inf
ROOT
ATOM      1  C   UNL A   1      35.578  32.890  27.846  1.00  0.00     0.188 C 
ENDROOT
BRANCH   1   2
ATOM      2  O   UNL A   1      35.944  31.521  27.711  1.00  0.00    -0.376 OA
BRANCH   2   3
ATOM      3  C   UNL A   1      35.318  30.564  28.558  1.00  0.00     0.202 C 
BRANCH   3   4
ATOM      4  C   UNL A   1      34.768  29.324  27.863  1.00  0.00     0.261 C 
BRANCH   4   5
ATOM      5  O   UNL A   1      34.584  29.585  26.458  1.00  0.00    -0.462 OA
BRANCH   5   6
ATOM      6  C   UNL A   1      33.294  29.774  26.058  1.00  0.00     0.328 C 
ATOM      7  O   UNL A   1      32.444  30.324  26.736  1.00  0.00    -0.250 OA
BRANCH   6   8
ATOM      8  C   UNL A   1      33.039  29.062  24.703  1.00  0.00     0.196 C 
ATOM      9  N   UNL A   1      31.662  28.586  24.485  1.00  0.00    -0.320 N 
ATOM     10  C   UNL A   1      31.510  27.401  25.300  1.00  0.00     0.089 C 
ATOM     11  C   UNL A   1      33.852  27.756  24.736  1.00  0.00     0.043 C 
ATOM     12  C   UNL A   1      32.791  26.657  24.908  1.00  0.00     0.014 C 
ATOM     13  C   UNL A   1      30.313  26.474  25.214  1.00  0.00     0.025 C 
ATOM     14  C   UNL A   1      33.091  25.553  25.901  1.00  0.00     0.006 C 
ATOM     15  C   UNL A   1      30.553  25.302  26.186  1.00  0.00     0.002 C 
ATOM     16  C   UNL A   1      31.897  24.591  25.951  1.00  0.00     0.000 C 
BRANCH   9  17
ATOM     17  C   UNL A   1      30.642  29.431  24.093  1.00  0.00     0.294 C 
ATOM     18  O   UNL A   1      30.477  30.514  24.656  1.00  0.00    -0.267 OA
BRANCH  17  19
ATOM     19  C   UNL A   1      30.064  29.146  22.665  1.00  0.00     0.267 C 
ATOM     20  C   UNL A   1      30.485  27.796  22.079  1.00  0.00     0.100 C 
BRANCH  19  21
ATOM     21  C   UNL A   1      28.519  29.157  22.774  1.00  0.00     0.453 C 
ATOM     22  F   UNL A   1      28.090  30.177  23.546  1.00  0.00    -0.164 F 
ATOM     23  F   UNL A   1      27.946  29.333  21.557  1.00  0.00    -0.164 F 
ATOM     24  F   UNL A   1      28.037  28.003  23.278  1.00  0.00    -0.164 F 
ENDBRANCH  19  21
BRANCH  19  25
ATOM     25  N   UNL A   1      30.619  30.209  21.745  1.00  0.00    -0.337 N 
ATOM     26  H   UNL A   1      31.311  29.793  21.121  1.00  0.00     0.345 HD
ATOM     27  H   UNL A   1      31.060  30.943  22.301  1.00  0.00     0.345 HD
ATOM     28  H   UNL A   1      29.862  30.610  21.192  1.00  0.00     0.345 HD
ENDBRANCH  19  25
ENDBRANCH  17  19
ENDBRANCH   9  17
ENDBRANCH   6   8
ENDBRANCH   5   6
ENDBRANCH   4   5
ENDBRANCH   3   4
ENDBRANCH   2   3
ENDBRANCH   1   2
BRANCH   1  29
ATOM     29  C   UNL A   1      34.206  33.229  28.466  1.00  0.00     0.188 C 
BRANCH  29  30
ATOM     30  O   UNL A   1      34.079  33.309  29.878  1.00  0.00    -0.376 OA
BRANCH  30  31
ATOM     31  C   UNL A   1      35.217  33.784  30.595  1.00  0.00     0.202 C 
BRANCH  31  32
ATOM     32  C   UNL A   1      35.822  32.813  31.608  1.00  0.00     0.261 C 
BRANCH  32  33
ATOM     33  O   UNL A   1      37.163  32.440  31.240  1.00  0.00    -0.460 OA
BRANCH  33  34
ATOM     34  C   UNL A   1      37.716  31.487  32.022  1.00  0.00     0.338 C 
ATOM     35  O   UNL A   1      37.476  31.278  33.203  1.00  0.00    -0.246 OA
BRANCH  34  36
ATOM     36  C   UNL A   1      38.618  30.625  31.242  1.00  0.00     0.060 A 
ATOM     37  C   UNL A   1      39.604  29.898  31.909  1.00  0.00     0.016 A 
ATOM     38  C   UNL A   1      38.644  30.724  29.852  1.00  0.00     0.016 A 
ATOM     39  C   UNL A   1      40.660  29.332  31.200  1.00  0.00     0.010 A 
ATOM     40  C   UNL A   1      39.711  30.157  29.141  1.00  0.00     0.010 A 
ATOM     41  C   UNL A   1      40.765  29.520  29.822  1.00  0.00    -0.014 A 
BRANCH  41  42
ATOM     42  C   UNL A   1      42.083  29.300  29.166  1.00  0.00     0.031 A 
ATOM     43  C   UNL A   1      42.350  27.958  28.531  1.00  0.00     0.074 A 
ATOM     44  C   UNL A   1      42.981  30.290  29.007  1.00  0.00     0.049 A 
ATOM     45  N   UNL A   1      43.474  27.450  28.096  1.00  0.00    -0.248 NA
ATOM     46  C   UNL A   1      41.189  27.067  28.371  1.00  0.00     0.031 C 
ATOM     47  C   UNL A   1      42.796  31.680  29.418  1.00  0.00     0.029 A 
ATOM     48  N   UNL A   1      44.230  30.272  28.436  1.00  0.00    -0.354 N 
ATOM     49  C   UNL A   1      43.169  26.157  27.684  1.00  0.00     0.074 A 
ATOM     50  C   UNL A   1      41.754  25.963  27.907  1.00  0.00     0.031 C 
ATOM     51  C   UNL A   1      43.888  32.386  29.076  1.00  0.00     0.029 A 
ATOM     52  C   UNL A   1      44.879  31.482  28.497  1.00  0.00     0.049 A 
ATOM     53  H   UNL A   1      44.623  29.470  28.022  1.00  0.00     0.167 HD
ATOM     54  C   UNL A   1      43.999  25.216  27.173  1.00  0.00     0.037 A 
ATOM     55  C   UNL A   1      46.144  31.812  28.168  1.00  0.00     0.037 A 
ATOM     56  C   UNL A   1      45.390  25.447  26.885  1.00  0.00     0.049 A 
ATOM     57  C   UNL A   1      47.066  30.749  27.633  1.00  0.00     0.074 A 
ATOM     58  C   UNL A   1      46.340  24.553  26.424  1.00  0.00     0.029 A 
ATOM     59  N   UNL A   1      46.020  26.678  26.995  1.00  0.00    -0.354 N 
ATOM     60  N   UNL A   1      46.819  29.481  27.403  1.00  0.00    -0.248 NA
ATOM     61  C   UNL A   1      48.446  31.157  27.330  1.00  0.00     0.031 C 
ATOM     62  C   UNL A   1      47.550  25.241  26.271  1.00  0.00     0.029 A 
ATOM     63  C   UNL A   1      47.343  26.571  26.602  1.00  0.00     0.049 A 
ATOM     64  H   UNL A   1      45.590  27.507  27.308  1.00  0.00     0.167 HD
ATOM     65  C   UNL A   1      48.006  28.942  26.918  1.00  0.00     0.074 A 
ATOM     66  C   UNL A   1      48.967  30.026  26.871  1.00  0.00     0.031 C 
ATOM     67  C   UNL A   1      48.279  27.665  26.550  1.00  0.00     0.037 A 
BRANCH  54  68
ATOM     68  C   UNL A   1      43.434  23.840  26.959  1.00  0.00     0.058 A 
ATOM     69  C   UNL A   1      43.100  23.353  25.686  1.00  0.00     0.135 A 
ATOM     70  C   UNL A   1      43.212  22.998  28.061  1.00  0.00     0.135 A 
ATOM     71  F   UNL A   1      43.268  24.125  24.602  1.00  0.00    -0.206 F 
ATOM     72  C   UNL A   1      42.537  22.091  25.517  1.00  0.00     0.059 A 
ATOM     73  C   UNL A   1      42.675  21.724  27.913  1.00  0.00     0.059 A 
ATOM     74  F   UNL A   1      43.509  23.416  29.302  1.00  0.00    -0.206 F 
ATOM     75  C   UNL A   1      42.322  21.286  26.637  1.00  0.00     0.060 A 
BRANCH  75  76
ATOM     76  S   UNL A   1      41.579  19.655  26.412  1.00  0.00     0.124 S 
ATOM     77  O   UNL A   1      40.173  20.000  26.220  1.00  0.00    -0.237 OA
ATOM     78  O   UNL A   1      42.274  19.152  25.232  1.00  0.00    -0.237 OA
ATOM     79  O   UNL A   1      41.891  18.965  27.660  1.00  0.00    -0.744 OA
ENDBRANCH  75  76
ENDBRANCH  54  68
BRANCH  55  80
ATOM     80  C   UNL A   1      46.625  33.202  28.395  1.00  0.00     0.058 A 
ATOM     81  C   UNL A   1      47.224  33.579  29.604  1.00  0.00     0.135 A 
ATOM     82  C   UNL A   1      46.509  34.177  27.391  1.00  0.00     0.135 A 
ATOM     83  F   UNL A   1      47.342  32.689  30.602  1.00  0.00    -0.206 F 
ATOM     84  C   UNL A   1      47.693  34.873  29.812  1.00  0.00     0.059 A 
ATOM     85  C   UNL A   1      46.995  35.469  27.565  1.00  0.00     0.059 A 
ATOM     86  F   UNL A   1      45.947  33.867  26.212  1.00  0.00    -0.206 F 
ATOM     87  C   UNL A   1      47.578  35.810  28.783  1.00  0.00     0.060 A 
BRANCH  87  88
ATOM     88  S   UNL A   1      48.254  37.468  29.031  1.00  0.00     0.124 S 
ATOM     89  O   UNL A   1      47.738  38.172  27.863  1.00  0.00    -0.237 OA
ATOM     90  O   UNL A   1      47.676  37.851  30.314  1.00  0.00    -0.237 OA
ATOM     91  O   UNL A   1      49.697  37.240  29.045  1.00  0.00    -0.744 OA
ENDBRANCH  87  88
ENDBRANCH  55  80
BRANCH  67  92
ATOM     92  C   UNL A   1      49.658  27.380  26.026  1.00  0.00     0.058 A 
ATOM     93  C   UNL A   1      50.728  27.087  26.885  1.00  0.00     0.135 A 
ATOM     94  C   UNL A   1      49.900  27.360  24.643  1.00  0.00     0.135 A 
ATOM     95  F   UNL A   1      50.548  27.095  28.215  1.00  0.00    -0.206 F 
ATOM     96  C   UNL A   1      52.000  26.812  26.392  1.00  0.00     0.059 A 
ATOM     97  C   UNL A   1      51.158  27.066  24.128  1.00  0.00     0.059 A 
ATOM     98  F   UNL A   1      48.906  27.621  23.779  1.00  0.00    -0.206 F 
ATOM     99  C   UNL A   1      52.205  26.808  25.011  1.00  0.00     0.060 A 
BRANCH  99 100
ATOM    100  S   UNL A   1      53.855  26.437  24.379  1.00  0.00     0.124 S 
ATOM    101  O   UNL A   1      53.741  26.866  22.989  1.00  0.00    -0.237 OA
ATOM    102  O   UNL A   1      54.711  27.260  25.227  1.00  0.00    -0.237 OA
ATOM    103  O   UNL A   1      53.981  24.997  24.583  1.00  0.00    -0.744 OA
ENDBRANCH  99 100
ENDBRANCH  67  92
ENDBRANCH  41  42
ENDBRANCH  34  36
ENDBRANCH  33  34
ENDBRANCH  32  33
ENDBRANCH  31  32
ENDBRANCH  30  31
ENDBRANCH  29  30
ENDBRANCH   1  29
TORSDOF 24
ENDMDL
MODEL 3
REMARK VINA RESULT:     -10.0      3.487      9.107
REMARK SMILES C[C@]([NH3+])(C(=O)N1[C@@H](C(=O)OCCOCCOCCOC(=O)c2ccc(-c3c4nc(c(-c5c(F)cc(S(=O)(=O)[O-])cc5F)c5ccc([nH]5)c(-c5c(F)cc(S(=O)(=O)[O-])cc5F)c5nc(c(-c6c(F)cc(S(=O)(=O)[O-])cc6F)c6ccc3[nH]6)C=C5)C=C4)cc2)C[C@H]2CCCC[C@@H]21)C(F)(F)F
REMARK SMILES IDX 14 1 13 2 12 3 11 4 10 5 8 6 9 7 7 8 6 9 94 10 88 11 89 12
REMARK SMILES IDX 93 13 90 14 92 15 91 16 4 17 5 18 2 19 1 20 95 21 96 22
REMARK SMILES IDX 97 23 98 24 3 25 15 29 16 30 17 31 18 32 19 33 20 34 21 35
REMARK SMILES IDX 22 36 23 37 87 38 24 39 86 40 25 41 26 42 27 43 80 44 28 45
REMARK SMILES IDX 85 46 79 47 81 48 29 49 84 50 78 51 77 52 30 54 64 55 43 56
REMARK SMILES IDX 63 57 44 58 47 59 62 60 82 61 45 62 46 63 61 65 83 66 48 67
REMARK SMILES IDX 31 68 32 69 41 70 33 71 34 72 40 73 42 74 35 75 36 76 37 77
REMARK SMILES IDX 38 78 39 79 65 80 66 81 75 82 67 83 68 84 74 85 76 86 69 87
REMARK SMILES IDX 70 88 71 89 72 90 73 91 49 92 50 93 59 94 51 95 52 96 58 97
REMARK SMILES IDX 60 98 53 99 54 100 55 101 56 102 57 103
REMARK H PARENT 3 26 3 27 3 28 81 53 47 64
REMARK Flexibility Score: inf
ROOT
ATOM      1  C   UNL A   1      40.694  21.369  26.639  1.00  0.00     0.188 C 
ENDROOT
BRANCH   1   2
ATOM      2  O   UNL A   1      39.602  22.239  26.361  1.00  0.00    -0.376 OA
BRANCH   2   3
ATOM      3  C   UNL A   1      39.654  23.572  26.856  1.00  0.00     0.202 C 
BRANCH   3   4
ATOM      4  C   UNL A   1      38.458  24.453  26.511  1.00  0.00     0.261 C 
BRANCH   4   5
ATOM      5  O   UNL A   1      37.237  23.697  26.627  1.00  0.00    -0.462 OA
BRANCH   5   6
ATOM      6  C   UNL A   1      36.549  23.509  25.465  1.00  0.00     0.328 C 
ATOM      7  O   UNL A   1      37.041  23.621  24.355  1.00  0.00    -0.250 OA
BRANCH   6   8
ATOM      8  C   UNL A   1      35.042  23.286  25.760  1.00  0.00     0.196 C 
ATOM      9  N   UNL A   1      34.323  22.443  24.788  1.00  0.00    -0.320 N 
ATOM     10  C   UNL A   1      34.119  23.263  23.615  1.00  0.00     0.089 C 
ATOM     11  C   UNL A   1      34.358  24.654  25.598  1.00  0.00     0.043 C 
ATOM     12  C   UNL A   1      33.574  24.530  24.281  1.00  0.00     0.014 C 
ATOM     13  C   UNL A   1      33.235  22.856  22.452  1.00  0.00     0.025 C 
ATOM     14  C   UNL A   1      33.636  25.704  23.325  1.00  0.00     0.006 C 
ATOM     15  C   UNL A   1      33.225  24.015  21.437  1.00  0.00     0.002 C 
ATOM     16  C   UNL A   1      32.829  25.362  22.066  1.00  0.00     0.000 C 
BRANCH   9  17
ATOM     17  C   UNL A   1      34.404  21.064  24.804  1.00  0.00     0.294 C 
ATOM     18  O   UNL A   1      35.498  20.503  24.746  1.00  0.00    -0.267 OA
BRANCH  17  19
ATOM     19  C   UNL A   1      33.131  20.337  25.355  1.00  0.00     0.267 C 
ATOM     20  C   UNL A   1      31.832  21.125  25.169  1.00  0.00     0.100 C 
BRANCH  19  21
ATOM     21  C   UNL A   1      32.989  18.998  24.590  1.00  0.00     0.453 C 
ATOM     22  F   UNL A   1      33.917  18.104  24.991  1.00  0.00    -0.164 F 
ATOM     23  F   UNL A   1      31.782  18.426  24.828  1.00  0.00    -0.164 F 
ATOM     24  F   UNL A   1      33.096  19.160  23.256  1.00  0.00    -0.164 F 
ENDBRANCH  19  21
BRANCH  19  25
ATOM     25  N   UNL A   1      33.328  20.172  26.845  1.00  0.00    -0.337 N 
ATOM     26  H   UNL A   1      34.219  20.587  27.118  1.00  0.00     0.345 HD
ATOM     27  H   UNL A   1      33.329  19.179  27.080  1.00  0.00     0.345 HD
ATOM     28  H   UNL A   1      32.569  20.638  27.342  1.00  0.00     0.345 HD
ENDBRANCH  19  25
ENDBRANCH  17  19
ENDBRANCH   9  17
ENDBRANCH   6   8
ENDBRANCH   5   6
ENDBRANCH   4   5
ENDBRANCH   3   4
ENDBRANCH   2   3
ENDBRANCH   1   2
BRANCH   1  29
ATOM     29  C   UNL A   1      40.518  19.858  26.377  1.00  0.00     0.188 C 
BRANCH  29  30
ATOM     30  O   UNL A   1      41.458  19.179  25.557  1.00  0.00    -0.376 OA
BRANCH  30  31
ATOM     31  C   UNL A   1      42.492  18.464  26.229  1.00  0.00     0.202 C 
BRANCH  31  32
ATOM     32  C   UNL A   1      43.803  18.303  25.461  1.00  0.00     0.261 C 
BRANCH  32  33
ATOM     33  O   UNL A   1      43.886  19.236  24.366  1.00  0.00    -0.460 OA
BRANCH  33  34
ATOM     34  C   UNL A   1      44.984  20.023  24.380  1.00  0.00     0.338 C 
ATOM     35  O   UNL A   1      46.091  19.745  23.939  1.00  0.00    -0.246 OA
BRANCH  34  36
ATOM     36  C   UNL A   1      44.670  21.351  24.929  1.00  0.00     0.060 A 
ATOM     37  C   UNL A   1      44.523  22.428  24.054  1.00  0.00     0.016 A 
ATOM     38  C   UNL A   1      44.760  21.576  26.302  1.00  0.00     0.016 A 
ATOM     39  C   UNL A   1      44.544  23.733  24.537  1.00  0.00     0.010 A 
ATOM     40  C   UNL A   1      44.785  22.891  26.785  1.00  0.00     0.010 A 
ATOM     41  C   UNL A   1      44.751  23.980  25.894  1.00  0.00    -0.014 A 
BRANCH  41  42
ATOM     42  C   UNL A   1      45.201  25.334  26.317  1.00  0.00     0.031 A 
ATOM     43  C   UNL A   1      44.196  26.251  26.969  1.00  0.00     0.074 A 
ATOM     44  C   UNL A   1      46.490  25.715  26.256  1.00  0.00     0.049 A 
ATOM     45  N   UNL A   1      44.277  27.530  27.225  1.00  0.00    -0.248 NA
ATOM     46  C   UNL A   1      42.923  25.637  27.384  1.00  0.00     0.031 C 
ATOM     47  C   UNL A   1      47.603  24.880  25.806  1.00  0.00     0.029 A 
ATOM     48  N   UNL A   1      47.082  26.907  26.596  1.00  0.00    -0.354 N 
ATOM     49  C   UNL A   1      43.043  27.887  27.759  1.00  0.00     0.074 A 
ATOM     50  C   UNL A   1      42.236  26.688  27.803  1.00  0.00     0.031 C 
ATOM     51  C   UNL A   1      48.745  25.583  25.906  1.00  0.00     0.029 A 
ATOM     52  C   UNL A   1      48.433  26.939  26.351  1.00  0.00     0.049 A 
ATOM     53  H   UNL A   1      46.585  27.666  26.978  1.00  0.00     0.167 HD
ATOM     54  C   UNL A   1      42.621  29.108  28.166  1.00  0.00     0.037 A 
ATOM     55  C   UNL A   1      49.311  27.959  26.430  1.00  0.00     0.037 A 
ATOM     56  C   UNL A   1      43.458  30.278  28.189  1.00  0.00     0.049 A 
ATOM     57  C   UNL A   1      48.823  29.319  26.852  1.00  0.00     0.074 A 
ATOM     58  C   UNL A   1      43.123  31.578  28.524  1.00  0.00     0.029 A 
ATOM     59  N   UNL A   1      44.815  30.278  27.898  1.00  0.00    -0.354 N 
ATOM     60  N   UNL A   1      47.612  29.692  27.194  1.00  0.00    -0.248 NA
ATOM     61  C   UNL A   1      49.815  30.404  26.881  1.00  0.00     0.031 C 
ATOM     62  C   UNL A   1      44.275  32.367  28.419  1.00  0.00     0.029 A 
ATOM     63  C   UNL A   1      45.334  31.551  28.055  1.00  0.00     0.049 A 
ATOM     64  H   UNL A   1      45.333  29.488  27.620  1.00  0.00     0.167 HD
ATOM     65  C   UNL A   1      47.699  31.048  27.491  1.00  0.00     0.074 A 
ATOM     66  C   UNL A   1      49.085  31.427  27.303  1.00  0.00     0.031 C 
ATOM     67  C   UNL A   1      46.720  31.905  27.876  1.00  0.00     0.037 A 
BRANCH  54  68
ATOM     68  C   UNL A   1      41.176  29.244  28.556  1.00  0.00     0.058 A 
ATOM     69  C   UNL A   1      40.144  29.317  27.609  1.00  0.00     0.135 A 
ATOM     70  C   UNL A   1      40.823  29.315  29.914  1.00  0.00     0.135 A 
ATOM     71  F   UNL A   1      40.427  29.279  26.297  1.00  0.00    -0.206 F 
ATOM     72  C   UNL A   1      38.816  29.487  27.993  1.00  0.00     0.059 A 
ATOM     73  C   UNL A   1      39.502  29.458  30.322  1.00  0.00     0.059 A 
ATOM     74  F   UNL A   1      41.772  29.255  30.863  1.00  0.00    -0.206 F 
ATOM     75  C   UNL A   1      38.505  29.563  29.352  1.00  0.00     0.060 A 
BRANCH  75  76
ATOM     76  S   UNL A   1      36.783  29.797  29.842  1.00  0.00     0.124 S 
ATOM     77  O   UNL A   1      36.743  31.236  30.084  1.00  0.00    -0.237 OA
ATOM     78  O   UNL A   1      36.054  29.331  28.667  1.00  0.00    -0.237 OA
ATOM     79  O   UNL A   1      36.652  28.958  31.030  1.00  0.00    -0.744 OA
ENDBRANCH  75  76
ENDBRANCH  54  68
BRANCH  55  80
ATOM     80  C   UNL A   1      50.731  27.741  26.042  1.00  0.00     0.058 A 
ATOM     81  C   UNL A   1      51.146  27.831  24.706  1.00  0.00     0.135 A 
ATOM     82  C   UNL A   1      51.707  27.455  27.011  1.00  0.00     0.135 A 
ATOM     83  F   UNL A   1      50.249  28.084  23.740  1.00  0.00    -0.206 F 
ATOM     84  C   UNL A   1      52.477  27.646  24.342  1.00  0.00     0.059 A 
ATOM     85  C   UNL A   1      53.047  27.294  26.675  1.00  0.00     0.059 A 
ATOM     86  F   UNL A   1      51.364  27.362  28.305  1.00  0.00    -0.206 F 
ATOM     87  C   UNL A   1      53.421  27.383  25.336  1.00  0.00     0.060 A 
BRANCH  87  88
ATOM     88  S   UNL A   1      55.159  27.218  24.869  1.00  0.00     0.124 S 
ATOM     89  O   UNL A   1      55.052  26.566  23.569  1.00  0.00    -0.237 OA
ATOM     90  O   UNL A   1      55.610  28.605  24.852  1.00  0.00    -0.237 OA
ATOM     91  O   UNL A   1      55.716  26.399  25.943  1.00  0.00    -0.744 OA
ENDBRANCH  87  88
ENDBRANCH  55  80
BRANCH  67  92
ATOM     92  C   UNL A   1      47.120  33.324  28.162  1.00  0.00     0.058 A 
ATOM     93  C   UNL A   1      47.113  34.309  27.162  1.00  0.00     0.135 A 
ATOM     94  C   UNL A   1      47.478  33.711  29.464  1.00  0.00     0.135 A 
ATOM     95  F   UNL A   1      46.780  33.989  25.902  1.00  0.00    -0.206 F 
ATOM     96  C   UNL A   1      47.474  35.624  27.437  1.00  0.00     0.059 A 
ATOM     97  C   UNL A   1      47.821  35.025  29.765  1.00  0.00     0.059 A 
ATOM     98  F   UNL A   1      47.489  32.809  30.458  1.00  0.00    -0.206 F 
ATOM     99  C   UNL A   1      47.831  35.971  28.742  1.00  0.00     0.060 A 
BRANCH  99 100
ATOM    100  S   UNL A   1      48.285  37.683  29.092  1.00  0.00     0.124 S 
ATOM    101  O   UNL A   1      49.259  37.950  28.040  1.00  0.00    -0.237 OA
ATOM    102  O   UNL A   1      47.009  38.381  28.966  1.00  0.00    -0.237 OA
ATOM    103  O   UNL A   1      48.825  37.620  30.447  1.00  0.00    -0.744 OA
ENDBRANCH  99 100
ENDBRANCH  67  92
ENDBRANCH  41  42
ENDBRANCH  34  36
ENDBRANCH  33  34
ENDBRANCH  32  33
ENDBRANCH  31  32
ENDBRANCH  30  31
ENDBRANCH  29  30
ENDBRANCH   1  29
TORSDOF 24
ENDMDL
