MODEL 1
REMARK VINA RESULT:     -10.5      0.000      0.000
REMARK SMILES Cc1cc(C)c2c(c1)C=C(C(=O)OCCOCCOCCOC(=O)c1ccc(-c3c4nc(c(-c5c(F)cc(S(=O)(=O)[O-])cc5F)c5ccc([nH]5)c(-c5c(F)cc(S(=O)(=O)[O-])cc5F)c5nc(c(-c6c(F)cc(S(=O)(=O)[O-])cc6F)c6ccc3[nH]6)C=C5)C=C4)cc1)[C@@H](C(F)(F)F)O2
REMARK SMILES IDX 18 1 17 2 16 3 15 4 14 5 13 6 11 7 12 8 10 9 1 10 2 11 3 12
REMARK SMILES IDX 8 13 4 14 7 15 5 16 6 17 9 18 96 19 91 20 92 21 93 22 94 23
REMARK SMILES IDX 95 24 19 25 20 26 21 27 22 28 23 29 24 30 25 31 26 32 90 33
REMARK SMILES IDX 27 34 89 35 28 36 29 37 30 38 83 39 31 40 88 41 82 42 84 43
REMARK SMILES IDX 32 44 87 45 81 46 80 47 33 49 67 50 46 51 66 52 47 53 50 54
REMARK SMILES IDX 65 55 85 56 48 57 49 58 64 60 86 61 51 62 34 63 35 64 44 65
REMARK SMILES IDX 36 66 37 67 43 68 45 69 38 70 39 71 40 72 41 73 42 74 68 75
REMARK SMILES IDX 69 76 78 77 70 78 71 79 77 80 79 81 72 82 73 83 74 84 75 85
REMARK SMILES IDX 76 86 52 87 53 88 62 89 54 90 55 91 61 92 63 93 56 94 57 95
REMARK SMILES IDX 58 96 59 97 60 98
REMARK H PARENT 84 48 50 59
REMARK Flexibility Score: inf
ROOT
ATOM      1  C   UNL A   1      34.419  32.447  28.412  1.00  0.00     0.188 C 
ENDROOT
BRANCH   1   2
ATOM      2  C   UNL A   1      35.145  31.305  27.670  1.00  0.00     0.188 C 
BRANCH   2   3
ATOM      3  O   UNL A   1      34.905  29.952  28.004  1.00  0.00    -0.376 OA
BRANCH   3   4
ATOM      4  C   UNL A   1      34.372  29.041  27.059  1.00  0.00     0.202 C 
BRANCH   4   5
ATOM      5  C   UNL A   1      33.068  29.312  26.306  1.00  0.00     0.261 C 
BRANCH   5   6
ATOM      6  O   UNL A   1      32.537  28.179  25.609  1.00  0.00    -0.460 OA
BRANCH   6   7
ATOM      7  C   UNL A   1      31.968  27.241  26.404  1.00  0.00     0.338 C 
ATOM      8  O   UNL A   1      31.184  27.436  27.319  1.00  0.00    -0.246 OA
BRANCH   7   9
ATOM      9  C   UNL A   1      32.352  25.898  25.939  1.00  0.00     0.087 C 
ATOM     10  C   UNL A   1      37.330  22.468  24.756  1.00  0.00     0.044 C 
ATOM     11  C   UNL A   1      35.869  22.814  24.792  1.00  0.00    -0.050 A 
ATOM     12  C   UNL A   1      34.917  21.944  24.250  1.00  0.00     0.010 A 
ATOM     13  C   UNL A   1      35.440  24.001  25.398  1.00  0.00     0.015 A 
ATOM     14  C   UNL A   1      33.548  22.253  24.291  1.00  0.00    -0.008 A 
ATOM     15  C   UNL A   1      34.080  24.328  25.435  1.00  0.00     0.018 A 
ATOM     16  C   UNL A   1      32.549  21.319  23.670  1.00  0.00     0.048 C 
ATOM     17  C   UNL A   1      33.134  23.446  24.904  1.00  0.00     0.130 A 
ATOM     18  C   UNL A   1      33.658  25.613  25.964  1.00  0.00     0.027 C 
ATOM     19  O   UNL A   1      31.786  23.683  24.940  1.00  0.00    -0.475 OA
ATOM     20  C   UNL A   1      31.293  24.947  25.457  1.00  0.00     0.316 C 
BRANCH  20  21
ATOM     21  C   UNL A   1      30.377  25.570  24.394  1.00  0.00     0.430 C 
ATOM     22  F   UNL A   1      31.058  26.445  23.613  1.00  0.00    -0.167 F 
ATOM     23  F   UNL A   1      29.864  24.636  23.557  1.00  0.00    -0.167 F 
ATOM     24  F   UNL A   1      29.338  26.240  24.940  1.00  0.00    -0.167 F 
ENDBRANCH  20  21
ENDBRANCH   7   9
ENDBRANCH   6   7
ENDBRANCH   5   6
ENDBRANCH   4   5
ENDBRANCH   3   4
ENDBRANCH   2   3
ENDBRANCH   1   2
BRANCH   1  25
ATOM     25  O   UNL A   1      35.009  33.090  29.527  1.00  0.00    -0.376 OA
BRANCH  25  26
ATOM     26  C   UNL A   1      34.620  32.709  30.838  1.00  0.00     0.202 C 
BRANCH  26  27
ATOM     27  C   UNL A   1      35.455  31.722  31.659  1.00  0.00     0.261 C 
BRANCH  27  28
ATOM     28  O   UNL A   1      36.795  31.543  31.186  1.00  0.00    -0.460 OA
BRANCH  28  29
ATOM     29  C   UNL A   1      37.146  30.258  30.934  1.00  0.00     0.338 C 
ATOM     30  O   UNL A   1      36.425  29.275  30.969  1.00  0.00    -0.246 OA
BRANCH  29  31
ATOM     31  C   UNL A   1      38.523  30.225  30.410  1.00  0.00     0.060 A 
ATOM     32  C   UNL A   1      38.702  30.099  29.026  1.00  0.00     0.016 A 
ATOM     33  C   UNL A   1      39.620  30.269  31.272  1.00  0.00     0.016 A 
ATOM     34  C   UNL A   1      39.987  29.994  28.498  1.00  0.00     0.010 A 
ATOM     35  C   UNL A   1      40.906  30.135  30.742  1.00  0.00     0.010 A 
ATOM     36  C   UNL A   1      41.092  29.971  29.358  1.00  0.00    -0.014 A 
BRANCH  36  37
ATOM     37  C   UNL A   1      42.419  29.580  28.828  1.00  0.00     0.031 A 
ATOM     38  C   UNL A   1      42.625  28.152  28.404  1.00  0.00     0.074 A 
ATOM     39  C   UNL A   1      43.412  30.478  28.702  1.00  0.00     0.049 A 
ATOM     40  N   UNL A   1      43.702  27.571  27.946  1.00  0.00    -0.248 NA
ATOM     41  C   UNL A   1      41.456  27.261  28.506  1.00  0.00     0.031 C 
ATOM     42  C   UNL A   1      43.315  31.898  29.033  1.00  0.00     0.029 A 
ATOM     43  N   UNL A   1      44.703  30.319  28.263  1.00  0.00    -0.354 N 
ATOM     44  C   UNL A   1      43.342  26.252  27.698  1.00  0.00     0.074 A 
ATOM     45  C   UNL A   1      41.956  26.109  28.085  1.00  0.00     0.031 C 
ATOM     46  C   UNL A   1      44.503  32.482  28.794  1.00  0.00     0.029 A 
ATOM     47  C   UNL A   1      45.450  31.471  28.322  1.00  0.00     0.049 A 
ATOM     48  H   UNL A   1      45.059  29.463  27.937  1.00  0.00     0.167 HD
ATOM     49  C   UNL A   1      44.097  25.253  27.186  1.00  0.00     0.037 A 
ATOM     50  C   UNL A   1      46.753  31.678  28.045  1.00  0.00     0.037 A 
ATOM     51  C   UNL A   1      45.481  25.393  26.818  1.00  0.00     0.049 A 
ATOM     52  C   UNL A   1      47.600  30.525  27.570  1.00  0.00     0.074 A 
ATOM     53  C   UNL A   1      46.332  24.437  26.296  1.00  0.00     0.029 A 
ATOM     54  N   UNL A   1      46.217  26.561  26.943  1.00  0.00    -0.354 N 
ATOM     55  N   UNL A   1      47.247  29.283  27.332  1.00  0.00    -0.248 NA
ATOM     56  C   UNL A   1      49.025  30.799  27.326  1.00  0.00     0.031 C 
ATOM     57  C   UNL A   1      47.597  25.014  26.147  1.00  0.00     0.029 A 
ATOM     58  C   UNL A   1      47.521  26.344  26.530  1.00  0.00     0.049 A 
ATOM     59  H   UNL A   1      45.866  27.418  27.277  1.00  0.00     0.167 HD
ATOM     60  C   UNL A   1      48.398  28.636  26.893  1.00  0.00     0.074 A 
ATOM     61  C   UNL A   1      49.456  29.624  26.886  1.00  0.00     0.031 C 
ATOM     62  C   UNL A   1      48.563  27.340  26.527  1.00  0.00     0.037 A 
BRANCH  49  63
ATOM     63  C   UNL A   1      43.444  23.913  27.007  1.00  0.00     0.058 A 
ATOM     64  C   UNL A   1      43.313  23.013  28.077  1.00  0.00     0.135 A 
ATOM     65  C   UNL A   1      42.910  23.538  25.765  1.00  0.00     0.135 A 
ATOM     66  F   UNL A   1      43.828  23.314  29.281  1.00  0.00    -0.206 F 
ATOM     67  C   UNL A   1      42.686  21.783  27.919  1.00  0.00     0.059 A 
ATOM     68  C   UNL A   1      42.257  22.322  25.589  1.00  0.00     0.059 A 
ATOM     69  F   UNL A   1      43.017  24.359  24.708  1.00  0.00    -0.206 F 
ATOM     70  C   UNL A   1      42.159  21.447  26.671  1.00  0.00     0.060 A 
BRANCH  70  71
ATOM     71  S   UNL A   1      41.333  19.852  26.488  1.00  0.00     0.124 S 
ATOM     72  O   UNL A   1      39.978  20.264  26.133  1.00  0.00    -0.237 OA
ATOM     73  O   UNL A   1      42.105  19.224  25.421  1.00  0.00    -0.237 OA
ATOM     74  O   UNL A   1      41.478  19.240  27.806  1.00  0.00    -0.744 OA
ENDBRANCH  70  71
ENDBRANCH  49  63
BRANCH  50  75
ATOM     75  C   UNL A   1      47.345  33.030  28.218  1.00  0.00     0.058 A 
ATOM     76  C   UNL A   1      47.305  33.974  27.182  1.00  0.00     0.135 A 
ATOM     77  C   UNL A   1      47.961  33.408  29.422  1.00  0.00     0.135 A 
ATOM     78  F   UNL A   1      46.740  33.656  26.007  1.00  0.00    -0.206 F 
ATOM     79  C   UNL A   1      47.859  35.242  27.328  1.00  0.00     0.059 A 
ATOM     80  C   UNL A   1      48.502  34.678  29.601  1.00  0.00     0.059 A 
ATOM     81  F   UNL A   1      48.022  32.542  30.446  1.00  0.00    -0.206 F 
ATOM     82  C   UNL A   1      48.452  35.586  28.545  1.00  0.00     0.060 A 
BRANCH  82  83
ATOM     83  S   UNL A   1      49.119  37.253  28.739  1.00  0.00     0.124 S 
ATOM     84  O   UNL A   1      49.537  37.563  27.376  1.00  0.00    -0.237 OA
ATOM     85  O   UNL A   1      47.961  37.988  29.235  1.00  0.00    -0.237 OA
ATOM     86  O   UNL A   1      50.199  37.072  29.704  1.00  0.00    -0.744 OA
ENDBRANCH  82  83
ENDBRANCH  50  75
BRANCH  62  87
ATOM     87  C   UNL A   1      49.929  26.909  26.066  1.00  0.00     0.058 A 
ATOM     88  C   UNL A   1      50.298  26.960  24.714  1.00  0.00     0.135 A 
ATOM     89  C   UNL A   1      50.905  26.520  26.998  1.00  0.00     0.135 A 
ATOM     90  F   UNL A   1      49.402  27.321  23.781  1.00  0.00    -0.206 F 
ATOM     91  C   UNL A   1      51.584  26.630  24.299  1.00  0.00     0.059 A 
ATOM     92  C   UNL A   1      52.205  26.210  26.609  1.00  0.00     0.059 A 
ATOM     93  F   UNL A   1      50.607  26.466  28.307  1.00  0.00    -0.206 F 
ATOM     94  C   UNL A   1      52.533  26.261  25.255  1.00  0.00     0.060 A 
BRANCH  94  95
ATOM     95  S   UNL A   1      54.211  25.882  24.707  1.00  0.00     0.124 S 
ATOM     96  O   UNL A   1      55.010  26.683  25.627  1.00  0.00    -0.237 OA
ATOM     97  O   UNL A   1      54.281  24.437  24.896  1.00  0.00    -0.237 OA
ATOM     98  O   UNL A   1      54.223  26.327  23.316  1.00  0.00    -0.744 OA
ENDBRANCH  94  95
ENDBRANCH  62  87
ENDBRANCH  36  37
ENDBRANCH  29  31
ENDBRANCH  28  29
ENDBRANCH  27  28
ENDBRANCH  26  27
ENDBRANCH  25  26
ENDBRANCH   1  25
TORSDOF 21
ENDMDL
MODEL 2
REMARK VINA RESULT:     -10.4      1.137      8.108
REMARK SMILES Cc1cc(C)c2c(c1)C=C(C(=O)OCCOCCOCCOC(=O)c1ccc(-c3c4nc(c(-c5c(F)cc(S(=O)(=O)[O-])cc5F)c5ccc([nH]5)c(-c5c(F)cc(S(=O)(=O)[O-])cc5F)c5nc(c(-c6c(F)cc(S(=O)(=O)[O-])cc6F)c6ccc3[nH]6)C=C5)C=C4)cc1)[C@@H](C(F)(F)F)O2
REMARK SMILES IDX 18 1 17 2 16 3 15 4 14 5 13 6 11 7 12 8 10 9 1 10 2 11 3 12
REMARK SMILES IDX 8 13 4 14 7 15 5 16 6 17 9 18 96 19 91 20 92 21 93 22 94 23
REMARK SMILES IDX 95 24 19 25 20 26 21 27 22 28 23 29 24 30 25 31 26 32 90 33
REMARK SMILES IDX 27 34 89 35 28 36 29 37 30 38 83 39 31 40 88 41 82 42 84 43
REMARK SMILES IDX 32 44 87 45 81 46 80 47 33 49 67 50 46 51 66 52 47 53 50 54
REMARK SMILES IDX 65 55 85 56 48 57 49 58 64 60 86 61 51 62 34 63 35 64 44 65
REMARK SMILES IDX 36 66 37 67 43 68 45 69 38 70 39 71 40 72 41 73 42 74 68 75
REMARK SMILES IDX 69 76 78 77 70 78 71 79 77 80 79 81 72 82 73 83 74 84 75 85
REMARK SMILES IDX 76 86 52 87 53 88 62 89 54 90 55 91 61 92 63 93 56 94 57 95
REMARK SMILES IDX 58 96 59 97 60 98
REMARK H PARENT 84 48 50 59
REMARK Flexibility Score: inf
ROOT
ATOM      1  C   UNL A   1      34.949  31.529  27.616  1.00  0.00     0.188 C 
ENDROOT
BRANCH   1   2
ATOM      2  C   UNL A   1      33.560  30.866  27.497  1.00  0.00     0.188 C 
BRANCH   2   3
ATOM      3  O   UNL A   1      33.203  30.126  26.346  1.00  0.00    -0.376 OA
BRANCH   3   4
ATOM      4  C   UNL A   1      31.859  29.757  26.092  1.00  0.00     0.202 C 
BRANCH   4   5
ATOM      5  C   UNL A   1      31.475  28.763  24.995  1.00  0.00     0.261 C 
BRANCH   5   6
ATOM      6  O   UNL A   1      31.905  27.418  25.233  1.00  0.00    -0.460 OA
BRANCH   6   7
ATOM      7  C   UNL A   1      32.819  26.949  24.351  1.00  0.00     0.338 C 
ATOM      8  O   UNL A   1      33.476  27.608  23.560  1.00  0.00    -0.246 OA
BRANCH   7   9
ATOM      9  C   UNL A   1      33.001  25.502  24.546  1.00  0.00     0.087 C 
ATOM     10  C   UNL A   1      37.417  21.219  24.863  1.00  0.00     0.044 C 
ATOM     11  C   UNL A   1      36.015  21.754  24.802  1.00  0.00    -0.050 A 
ATOM     12  C   UNL A   1      34.920  20.883  24.771  1.00  0.00     0.010 A 
ATOM     13  C   UNL A   1      35.786  23.135  24.806  1.00  0.00     0.015 A 
ATOM     14  C   UNL A   1      33.606  21.375  24.727  1.00  0.00    -0.008 A 
ATOM     15  C   UNL A   1      34.483  23.639  24.749  1.00  0.00     0.018 A 
ATOM     16  C   UNL A   1      32.450  20.419  24.658  1.00  0.00     0.048 C 
ATOM     17  C   UNL A   1      33.394  22.762  24.734  1.00  0.00     0.130 A 
ATOM     18  C   UNL A   1      34.264  25.071  24.640  1.00  0.00     0.027 C 
ATOM     19  O   UNL A   1      32.092  23.185  24.718  1.00  0.00    -0.475 OA
ATOM     20  C   UNL A   1      31.799  24.603  24.611  1.00  0.00     0.316 C 
BRANCH  20  21
ATOM     21  C   UNL A   1      30.846  24.803  23.424  1.00  0.00     0.430 C 
ATOM     22  F   UNL A   1      30.174  23.660  23.136  1.00  0.00    -0.167 F 
ATOM     23  F   UNL A   1      29.904  25.741  23.684  1.00  0.00    -0.167 F 
ATOM     24  F   UNL A   1      31.496  25.182  22.302  1.00  0.00    -0.167 F 
ENDBRANCH  20  21
ENDBRANCH   7   9
ENDBRANCH   6   7
ENDBRANCH   5   6
ENDBRANCH   4   5
ENDBRANCH   3   4
ENDBRANCH   2   3
ENDBRANCH   1   2
BRANCH   1  25
ATOM     25  O   UNL A   1      35.087  32.936  27.680  1.00  0.00    -0.376 OA
BRANCH  25  26
ATOM     26  C   UNL A   1      35.789  33.519  28.767  1.00  0.00     0.202 C 
BRANCH  26  27
ATOM     27  C   UNL A   1      35.514  33.090  30.212  1.00  0.00     0.261 C 
BRANCH  27  28
ATOM     28  O   UNL A   1      35.950  31.762  30.528  1.00  0.00    -0.460 OA
BRANCH  28  29
ATOM     29  C   UNL A   1      36.958  31.691  31.432  1.00  0.00     0.338 C 
ATOM     30  O   UNL A   1      36.927  32.030  32.603  1.00  0.00    -0.246 OA
BRANCH  29  31
ATOM     31  C   UNL A   1      38.088  30.951  30.841  1.00  0.00     0.060 A 
ATOM     32  C   UNL A   1      39.060  30.428  31.704  1.00  0.00     0.016 A 
ATOM     33  C   UNL A   1      38.212  30.816  29.458  1.00  0.00     0.016 A 
ATOM     34  C   UNL A   1      40.179  29.783  31.181  1.00  0.00     0.010 A 
ATOM     35  C   UNL A   1      39.349  30.193  28.935  1.00  0.00     0.010 A 
ATOM     36  C   UNL A   1      40.348  29.699  29.793  1.00  0.00    -0.014 A 
BRANCH  36  37
ATOM     37  C   UNL A   1      41.655  29.272  29.242  1.00  0.00     0.031 A 
ATOM     38  C   UNL A   1      42.757  30.291  29.147  1.00  0.00     0.074 A 
ATOM     39  C   UNL A   1      41.868  28.001  28.859  1.00  0.00     0.049 A 
ATOM     40  N   UNL A   1      43.966  30.161  28.670  1.00  0.00    -0.248 NA
ATOM     41  C   UNL A   1      42.452  31.637  29.664  1.00  0.00     0.031 C 
ATOM     42  C   UNL A   1      40.894  26.915  28.951  1.00  0.00     0.029 A 
ATOM     43  N   UNL A   1      42.980  27.413  28.310  1.00  0.00    -0.354 N 
ATOM     44  C   UNL A   1      44.571  31.401  28.836  1.00  0.00     0.074 A 
ATOM     45  C   UNL A   1      43.586  32.280  29.428  1.00  0.00     0.031 C 
ATOM     46  C   UNL A   1      41.449  25.791  28.463  1.00  0.00     0.029 A 
ATOM     47  C   UNL A   1      42.805  26.086  28.000  1.00  0.00     0.049 A 
ATOM     48  H   UNL A   1      43.822  27.896  28.155  1.00  0.00     0.167 HD
ATOM     49  C   UNL A   1      45.835  31.771  28.530  1.00  0.00     0.037 A 
ATOM     50  C   UNL A   1      43.639  25.217  27.393  1.00  0.00     0.037 A 
ATOM     51  C   UNL A   1      46.807  30.900  27.924  1.00  0.00     0.049 A 
ATOM     52  C   UNL A   1      45.010  25.680  26.970  1.00  0.00     0.074 A 
ATOM     53  C   UNL A   1      48.113  31.185  27.570  1.00  0.00     0.029 A 
ATOM     54  N   UNL A   1      46.575  29.579  27.576  1.00  0.00    -0.354 N 
ATOM     55  N   UNL A   1      45.574  26.854  27.138  1.00  0.00    -0.248 NA
ATOM     56  C   UNL A   1      45.860  24.702  26.273  1.00  0.00     0.031 C 
ATOM     57  C   UNL A   1      48.659  30.048  26.966  1.00  0.00     0.029 A 
ATOM     58  C   UNL A   1      47.708  29.040  26.988  1.00  0.00     0.049 A 
ATOM     59  H   UNL A   1      45.732  29.095  27.723  1.00  0.00     0.167 HD
ATOM     60  C   UNL A   1      46.847  26.748  26.587  1.00  0.00     0.074 A 
ATOM     61  C   UNL A   1      46.977  25.394  26.090  1.00  0.00     0.031 C 
ATOM     62  C   UNL A   1      47.822  27.688  26.501  1.00  0.00     0.037 A 
BRANCH  49  63
ATOM     63  C   UNL A   1      46.236  33.187  28.831  1.00  0.00     0.058 A 
ATOM     64  C   UNL A   1      46.831  33.536  30.053  1.00  0.00     0.135 A 
ATOM     65  C   UNL A   1      46.058  34.198  27.875  1.00  0.00     0.135 A 
ATOM     66  F   UNL A   1      47.003  32.610  31.011  1.00  0.00    -0.206 F 
ATOM     67  C   UNL A   1      47.226  34.841  30.322  1.00  0.00     0.059 A 
ATOM     68  C   UNL A   1      46.466  35.507  28.112  1.00  0.00     0.059 A 
ATOM     69  F   UNL A   1      45.485  33.918  26.693  1.00  0.00    -0.206 F 
ATOM     70  C   UNL A   1      47.041  35.820  29.344  1.00  0.00     0.060 A 
BRANCH  70  71
ATOM     71  S   UNL A   1      47.575  37.506  29.704  1.00  0.00     0.124 S 
ATOM     72  O   UNL A   1      47.771  37.448  31.149  1.00  0.00    -0.237 OA
ATOM     73  O   UNL A   1      48.789  37.624  28.903  1.00  0.00    -0.237 OA
ATOM     74  O   UNL A   1      46.451  38.323  29.256  1.00  0.00    -0.744 OA
ENDBRANCH  70  71
ENDBRANCH  49  63
BRANCH  50  75
ATOM     75  C   UNL A   1      43.201  23.819  27.138  1.00  0.00     0.058 A 
ATOM     76  C   UNL A   1      42.800  23.411  25.858  1.00  0.00     0.135 A 
ATOM     77  C   UNL A   1      43.174  22.864  28.167  1.00  0.00     0.135 A 
ATOM     78  F   UNL A   1      42.794  24.291  24.845  1.00  0.00    -0.206 F 
ATOM     79  C   UNL A   1      42.383  22.107  25.606  1.00  0.00     0.059 A 
ATOM     80  C   UNL A   1      42.783  21.549  27.935  1.00  0.00     0.059 A 
ATOM     81  F   UNL A   1      43.552  23.204  29.409  1.00  0.00    -0.206 F 
ATOM     82  C   UNL A   1      42.383  21.182  26.651  1.00  0.00     0.060 A 
BRANCH  82  83
ATOM     83  S   UNL A   1      41.890  19.481  26.299  1.00  0.00     0.124 S 
ATOM     84  O   UNL A   1      42.347  18.788  27.499  1.00  0.00    -0.237 OA
ATOM     85  O   UNL A   1      40.445  19.608  26.145  1.00  0.00    -0.237 OA
ATOM     86  O   UNL A   1      42.618  19.167  25.074  1.00  0.00    -0.744 OA
ENDBRANCH  82  83
ENDBRANCH  50  75
BRANCH  62  87
ATOM     87  C   UNL A   1      49.127  27.289  25.868  1.00  0.00     0.058 A 
ATOM     88  C   UNL A   1      49.309  27.322  24.477  1.00  0.00     0.135 A 
ATOM     89  C   UNL A   1      50.233  26.951  26.666  1.00  0.00     0.135 A 
ATOM     90  F   UNL A   1      48.284  27.634  23.668  1.00  0.00    -0.206 F 
ATOM     91  C   UNL A   1      50.538  27.023  23.898  1.00  0.00     0.059 A 
ATOM     92  C   UNL A   1      51.478  26.673  26.111  1.00  0.00     0.059 A 
ATOM     93  F   UNL A   1      50.115  26.917  28.004  1.00  0.00    -0.206 F 
ATOM     94  C   UNL A   1      51.619  26.704  24.724  1.00  0.00     0.060 A 
BRANCH  94  95
ATOM     95  S   UNL A   1      53.220  26.365  23.960  1.00  0.00     0.124 S 
ATOM     96  O   UNL A   1      53.446  24.979  24.355  1.00  0.00    -0.237 OA
ATOM     97  O   UNL A   1      52.942  26.585  22.545  1.00  0.00    -0.237 OA
ATOM     98  O   UNL A   1      54.107  27.346  24.578  1.00  0.00    -0.744 OA
ENDBRANCH  94  95
ENDBRANCH  62  87
ENDBRANCH  36  37
ENDBRANCH  29  31
ENDBRANCH  28  29
ENDBRANCH  27  28
ENDBRANCH  26  27
ENDBRANCH  25  26
ENDBRANCH   1  25
TORSDOF 21
ENDMDL
MODEL 3
REMARK VINA RESULT:     -10.2      6.461     10.872
REMARK SMILES Cc1cc(C)c2c(c1)C=C(C(=O)OCCOCCOCCOC(=O)c1ccc(-c3c4nc(c(-c5c(F)cc(S(=O)(=O)[O-])cc5F)c5ccc([nH]5)c(-c5c(F)cc(S(=O)(=O)[O-])cc5F)c5nc(c(-c6c(F)cc(S(=O)(=O)[O-])cc6F)c6ccc3[nH]6)C=C5)C=C4)cc1)[C@@H](C(F)(F)F)O2
REMARK SMILES IDX 18 1 17 2 16 3 15 4 14 5 13 6 11 7 12 8 10 9 1 10 2 11 3 12
REMARK SMILES IDX 8 13 4 14 7 15 5 16 6 17 9 18 96 19 91 20 92 21 93 22 94 23
REMARK SMILES IDX 95 24 19 25 20 26 21 27 22 28 23 29 24 30 25 31 26 32 90 33
REMARK SMILES IDX 27 34 89 35 28 36 29 37 30 38 83 39 31 40 88 41 82 42 84 43
REMARK SMILES IDX 32 44 87 45 81 46 80 47 33 49 67 50 46 51 66 52 47 53 50 54
REMARK SMILES IDX 65 55 85 56 48 57 49 58 64 60 86 61 51 62 34 63 35 64 44 65
REMARK SMILES IDX 36 66 37 67 43 68 45 69 38 70 39 71 40 72 41 73 42 74 68 75
REMARK SMILES IDX 69 76 78 77 70 78 71 79 77 80 79 81 72 82 73 83 74 84 75 85
REMARK SMILES IDX 76 86 52 87 53 88 62 89 54 90 55 91 61 92 63 93 56 94 57 95
REMARK SMILES IDX 58 96 59 97 60 98
REMARK H PARENT 84 48 50 59
REMARK Flexibility Score: inf
ROOT
ATOM      1  C   UNL A   1      34.622  29.868  27.388  1.00  0.00     0.188 C 
ENDROOT
BRANCH   1   2
ATOM      2  C   UNL A   1      33.695  28.952  26.560  1.00  0.00     0.188 C 
BRANCH   2   3
ATOM      3  O   UNL A   1      33.927  28.737  25.182  1.00  0.00    -0.376 OA
BRANCH   3   4
ATOM      4  C   UNL A   1      33.046  27.951  24.399  1.00  0.00     0.202 C 
BRANCH   4   5
ATOM      5  C   UNL A   1      33.445  27.386  23.034  1.00  0.00     0.261 C 
BRANCH   5   6
ATOM      6  O   UNL A   1      32.451  26.559  22.419  1.00  0.00    -0.460 OA
BRANCH   6   7
ATOM      7  C   UNL A   1      32.898  25.351  22.001  1.00  0.00     0.338 C 
ATOM      8  O   UNL A   1      33.009  24.972  20.846  1.00  0.00    -0.246 OA
BRANCH   7   9
ATOM      9  C   UNL A   1      33.347  24.561  23.159  1.00  0.00     0.087 C 
ATOM     10  C   UNL A   1      38.156  21.265  25.146  1.00  0.00     0.044 C 
ATOM     11  C   UNL A   1      36.764  21.828  25.170  1.00  0.00    -0.050 A 
ATOM     12  C   UNL A   1      35.872  21.476  26.189  1.00  0.00     0.010 A 
ATOM     13  C   UNL A   1      36.353  22.735  24.188  1.00  0.00     0.015 A 
ATOM     14  C   UNL A   1      34.572  22.008  26.226  1.00  0.00    -0.008 A 
ATOM     15  C   UNL A   1      35.058  23.263  24.205  1.00  0.00     0.018 A 
ATOM     16  C   UNL A   1      33.622  21.588  27.310  1.00  0.00     0.048 C 
ATOM     17  C   UNL A   1      34.177  22.919  25.235  1.00  0.00     0.130 A 
ATOM     18  C   UNL A   1      34.608  24.116  23.119  1.00  0.00     0.027 C 
ATOM     19  O   UNL A   1      32.910  23.426  25.337  1.00  0.00    -0.475 OA
ATOM     20  C   UNL A   1      32.394  24.287  24.287  1.00  0.00     0.316 C 
BRANCH  20  21
ATOM     21  C   UNL A   1      31.060  23.699  23.805  1.00  0.00     0.430 C 
ATOM     22  F   UNL A   1      30.428  23.032  24.802  1.00  0.00    -0.167 F 
ATOM     23  F   UNL A   1      30.202  24.664  23.392  1.00  0.00    -0.167 F 
ATOM     24  F   UNL A   1      31.221  22.835  22.779  1.00  0.00    -0.167 F 
ENDBRANCH  20  21
ENDBRANCH   7   9
ENDBRANCH   6   7
ENDBRANCH   5   6
ENDBRANCH   4   5
ENDBRANCH   3   4
ENDBRANCH   2   3
ENDBRANCH   1   2
BRANCH   1  25
ATOM     25  O   UNL A   1      34.538  31.277  27.291  1.00  0.00    -0.376 OA
BRANCH  25  26
ATOM     26  C   UNL A   1      33.533  31.967  28.018  1.00  0.00     0.202 C 
BRANCH  26  27
ATOM     27  C   UNL A   1      32.966  33.300  27.520  1.00  0.00     0.261 C 
BRANCH  27  28
ATOM     28  O   UNL A   1      32.373  34.110  28.541  1.00  0.00    -0.460 OA
BRANCH  28  29
ATOM     29  C   UNL A   1      33.123  35.168  28.940  1.00  0.00     0.338 C 
ATOM     30  O   UNL A   1      32.866  36.352  28.798  1.00  0.00    -0.246 OA
BRANCH  29  31
ATOM     31  C   UNL A   1      34.245  34.684  29.763  1.00  0.00     0.060 A 
ATOM     32  C   UNL A   1      35.534  34.725  29.215  1.00  0.00     0.016 A 
ATOM     33  C   UNL A   1      34.026  34.155  31.036  1.00  0.00     0.016 A 
ATOM     34  C   UNL A   1      36.612  34.213  29.934  1.00  0.00     0.010 A 
ATOM     35  C   UNL A   1      35.104  33.616  31.743  1.00  0.00     0.010 A 
ATOM     36  C   UNL A   1      36.395  33.619  31.184  1.00  0.00    -0.014 A 
BRANCH  36  37
ATOM     37  C   UNL A   1      37.479  32.831  31.815  1.00  0.00     0.031 A 
ATOM     38  C   UNL A   1      38.009  33.286  33.147  1.00  0.00     0.074 A 
ATOM     39  C   UNL A   1      37.965  31.722  31.232  1.00  0.00     0.049 A 
ATOM     40  N   UNL A   1      38.973  32.783  33.871  1.00  0.00    -0.248 NA
ATOM     41  C   UNL A   1      37.360  34.467  33.743  1.00  0.00     0.031 C 
ATOM     42  C   UNL A   1      37.497  31.156  29.968  1.00  0.00     0.029 A 
ATOM     43  N   UNL A   1      38.969  30.875  31.631  1.00  0.00    -0.354 N 
ATOM     44  C   UNL A   1      39.042  33.575  35.010  1.00  0.00     0.074 A 
ATOM     45  C   UNL A   1      38.045  34.614  34.868  1.00  0.00     0.031 C 
ATOM     46  C   UNL A   1      38.222  30.058  29.690  1.00  0.00     0.029 A 
ATOM     47  C   UNL A   1      39.222  29.861  30.739  1.00  0.00     0.049 A 
ATOM     48  H   UNL A   1      39.460  30.984  32.476  1.00  0.00     0.167 HD
ATOM     49  C   UNL A   1      39.858  33.445  36.080  1.00  0.00     0.037 A 
ATOM     50  C   UNL A   1      40.166  28.899  30.761  1.00  0.00     0.037 A 
ATOM     51  C   UNL A   1      40.862  32.423  36.212  1.00  0.00     0.049 A 
ATOM     52  C   UNL A   1      41.130  28.834  31.918  1.00  0.00     0.074 A 
ATOM     53  C   UNL A   1      41.742  32.212  37.257  1.00  0.00     0.029 A 
ATOM     54  N   UNL A   1      41.124  31.447  35.262  1.00  0.00    -0.354 N 
ATOM     55  N   UNL A   1      41.182  29.585  32.993  1.00  0.00    -0.248 NA
ATOM     56  C   UNL A   1      42.166  27.791  31.866  1.00  0.00     0.031 C 
ATOM     57  C   UNL A   1      42.568  31.135  36.921  1.00  0.00     0.029 A 
ATOM     58  C   UNL A   1      42.170  30.644  35.687  1.00  0.00     0.049 A 
ATOM     59  H   UNL A   1      40.640  31.340  34.413  1.00  0.00     0.167 HD
ATOM     60  C   UNL A   1      42.240  29.094  33.752  1.00  0.00     0.074 A 
ATOM     61  C   UNL A   1      42.794  27.974  33.020  1.00  0.00     0.031 C 
ATOM     62  C   UNL A   1      42.708  29.530  34.948  1.00  0.00     0.037 A 
BRANCH  49  63
ATOM     63  C   UNL A   1      39.710  34.445  37.191  1.00  0.00     0.058 A 
ATOM     64  C   UNL A   1      38.930  34.169  38.326  1.00  0.00     0.135 A 
ATOM     65  C   UNL A   1      40.383  35.675  37.141  1.00  0.00     0.135 A 
ATOM     66  F   UNL A   1      38.247  33.016  38.413  1.00  0.00    -0.206 F 
ATOM     67  C   UNL A   1      38.812  35.084  39.366  1.00  0.00     0.059 A 
ATOM     68  C   UNL A   1      40.300  36.596  38.180  1.00  0.00     0.059 A 
ATOM     69  F   UNL A   1      41.134  35.990  36.073  1.00  0.00    -0.206 F 
ATOM     70  C   UNL A   1      39.504  36.294  39.285  1.00  0.00     0.060 A 
BRANCH  70  71
ATOM     71  S   UNL A   1      39.354  37.462  40.653  1.00  0.00     0.124 S 
ATOM     72  O   UNL A   1      38.374  38.406  40.124  1.00  0.00    -0.237 OA
ATOM     73  O   UNL A   1      38.889  36.608  41.741  1.00  0.00    -0.237 OA
ATOM     74  O   UNL A   1      40.709  37.984  40.806  1.00  0.00    -0.744 OA
ENDBRANCH  70  71
ENDBRANCH  49  63
BRANCH  50  75
ATOM     75  C   UNL A   1      40.256  27.920  29.645  1.00  0.00     0.058 A 
ATOM     76  C   UNL A   1      41.115  28.140  28.559  1.00  0.00     0.135 A 
ATOM     77  C   UNL A   1      39.487  26.745  29.643  1.00  0.00     0.135 A 
ATOM     78  F   UNL A   1      41.859  29.255  28.509  1.00  0.00    -0.206 F 
ATOM     79  C   UNL A   1      41.206  27.235  27.506  1.00  0.00     0.059 A 
ATOM     80  C   UNL A   1      39.577  25.813  28.613  1.00  0.00     0.059 A 
ATOM     81  F   UNL A   1      38.653  26.485  30.662  1.00  0.00    -0.206 F 
ATOM     82  C   UNL A   1      40.435  26.071  27.545  1.00  0.00     0.060 A 
BRANCH  82  83
ATOM     83  S   UNL A   1      40.603  24.879  26.198  1.00  0.00     0.124 S 
ATOM     84  O   UNL A   1      39.209  24.537  25.934  1.00  0.00    -0.237 OA
ATOM     85  O   UNL A   1      41.272  25.672  25.172  1.00  0.00    -0.237 OA
ATOM     86  O   UNL A   1      41.413  23.818  26.787  1.00  0.00    -0.744 OA
ENDBRANCH  82  83
ENDBRANCH  50  75
BRANCH  62  87
ATOM     87  C   UNL A   1      43.865  28.789  35.561  1.00  0.00     0.058 A 
ATOM     88  C   UNL A   1      45.194  29.150  35.294  1.00  0.00     0.135 A 
ATOM     89  C   UNL A   1      43.640  27.759  36.490  1.00  0.00     0.135 A 
ATOM     90  F   UNL A   1      45.465  30.125  34.410  1.00  0.00    -0.206 F 
ATOM     91  C   UNL A   1      46.260  28.511  35.917  1.00  0.00     0.059 A 
ATOM     92  C   UNL A   1      44.690  27.122  37.144  1.00  0.00     0.059 A 
ATOM     93  F   UNL A   1      42.386  27.382  36.790  1.00  0.00    -0.206 F 
ATOM     94  C   UNL A   1      45.998  27.501  36.846  1.00  0.00     0.060 A 
BRANCH  94  95
ATOM     95  S   UNL A   1      47.391  26.713  37.682  1.00  0.00     0.124 S 
ATOM     96  O   UNL A   1      47.157  25.305  37.382  1.00  0.00    -0.237 OA
ATOM     97  O   UNL A   1      48.538  27.322  37.017  1.00  0.00    -0.237 OA
ATOM     98  O   UNL A   1      47.210  27.095  39.080  1.00  0.00    -0.744 OA
ENDBRANCH  94  95
ENDBRANCH  62  87
ENDBRANCH  36  37
ENDBRANCH  29  31
ENDBRANCH  28  29
ENDBRANCH  27  28
ENDBRANCH  26  27
ENDBRANCH  25  26
ENDBRANCH   1  25
TORSDOF 21
ENDMDL
