MODEL 1
REMARK VINA RESULT:      -8.7      0.000      0.000
REMARK SMILES CC(C)[C@H](NC(=O)[C@H](C)NC(=O)C[NH3+])C(=O)OCCOCCOCCOC(=O)c1ccc(-c2c3nc(c(-c4c(F)cc(S(=O)(=O)[O-])cc4F)c4ccc([nH]4)c(-c4c(F)cc(S(=O)(=O)[O-])cc4F)c4nc(c(-c5c(F)cc(S(=O)(=O)[O-])cc5F)c5ccc2[nH]5)C=C4)C=C3)cc1
REMARK SMILES IDX 21 1 20 2 19 3 18 4 17 5 15 6 16 7 4 8 2 9 1 10 3 11 5 12
REMARK SMILES IDX 6 13 7 15 8 16 9 17 10 18 11 19 12 21 13 22 14 23 22 27
REMARK SMILES IDX 23 28 24 29 25 30 26 31 27 32 28 33 29 34 30 35 94 36 31 37
REMARK SMILES IDX 93 38 32 39 33 40 34 41 87 42 35 43 92 44 86 45 88 46 36 47
REMARK SMILES IDX 91 48 85 49 84 50 37 52 71 53 50 54 70 55 51 56 54 57 69 58
REMARK SMILES IDX 89 59 52 60 53 61 68 63 90 64 55 65 38 66 39 67 48 68 40 69
REMARK SMILES IDX 41 70 47 71 49 72 42 73 43 74 44 75 45 76 46 77 72 78 73 79
REMARK SMILES IDX 82 80 74 81 75 82 81 83 83 84 76 85 77 86 78 87 79 88 80 89
REMARK SMILES IDX 56 90 57 91 66 92 58 93 59 94 65 95 67 96 60 97 61 98 62 99
REMARK SMILES IDX 63 100 64 101
REMARK H PARENT 5 14 10 20 14 24 14 25 14 26 88 51 54 62
REMARK Flexibility Score: inf
ROOT
ATOM      1  C   UNL A   1      33.226  22.537  26.741  1.00  0.00     0.188 C 
ENDROOT
BRANCH   1   2
ATOM      2  O   UNL A   1      32.227  23.302  26.099  1.00  0.00    -0.376 OA
BRANCH   2   3
ATOM      3  C   UNL A   1      31.019  23.612  26.769  1.00  0.00     0.202 C 
BRANCH   3   4
ATOM      4  C   UNL A   1      29.972  24.603  26.218  1.00  0.00     0.261 C 
BRANCH   4   5
ATOM      5  O   UNL A   1      30.045  25.977  26.658  1.00  0.00    -0.462 OA
BRANCH   5   6
ATOM      6  C   UNL A   1      30.804  26.792  25.874  1.00  0.00     0.328 C 
ATOM      7  O   UNL A   1      30.330  27.416  24.930  1.00  0.00    -0.250 OA
BRANCH   6   8
ATOM      8  C   UNL A   1      32.266  27.009  26.382  1.00  0.00     0.194 C 
BRANCH   8   9
ATOM      9  C   UNL A   1      32.665  28.487  26.581  1.00  0.00     0.017 C 
ATOM     10  C   UNL A   1      31.676  29.358  27.360  1.00  0.00     0.010 C 
ATOM     11  C   UNL A   1      34.049  28.618  27.228  1.00  0.00     0.010 C 
ENDBRANCH   8   9
BRANCH   8  12
ATOM     12  N   UNL A   1      33.371  26.177  25.829  1.00  0.00    -0.341 N 
ATOM     13  C   UNL A   1      34.085  26.012  24.690  1.00  0.00     0.243 C 
ATOM     14  H   UNL A   1      33.685  25.541  26.512  1.00  0.00     0.164 HD
ATOM     15  O   UNL A   1      34.951  25.129  24.759  1.00  0.00    -0.273 OA
BRANCH  13  16
ATOM     16  C   UNL A   1      33.831  26.743  23.356  1.00  0.00     0.168 C 
ATOM     17  C   UNL A   1      34.296  28.203  23.470  1.00  0.00     0.041 C 
BRANCH  16  18
ATOM     18  N   UNL A   1      32.427  26.786  22.962  1.00  0.00    -0.340 N 
ATOM     19  C   UNL A   1      31.874  26.350  21.792  1.00  0.00     0.275 C 
ATOM     20  H   UNL A   1      31.804  27.176  23.618  1.00  0.00     0.164 HD
ATOM     21  O   UNL A   1      30.717  26.665  21.514  1.00  0.00    -0.268 OA
BRANCH  19  22
ATOM     22  C   UNL A   1      32.691  25.420  20.892  1.00  0.00     0.360 C 
BRANCH  22  23
ATOM     23  N   UNL A   1      32.248  25.545  19.501  1.00  0.00    -0.350 N 
ATOM     24  H   UNL A   1      32.543  26.448  19.129  1.00  0.00     0.344 HD
ATOM     25  H   UNL A   1      31.231  25.477  19.461  1.00  0.00     0.344 HD
ATOM     26  H   UNL A   1      32.661  24.797  18.944  1.00  0.00     0.344 HD
ENDBRANCH  22  23
ENDBRANCH  19  22
ENDBRANCH  16  18
ENDBRANCH  13  16
ENDBRANCH   8  12
ENDBRANCH   6   8
ENDBRANCH   5   6
ENDBRANCH   4   5
ENDBRANCH   3   4
ENDBRANCH   2   3
ENDBRANCH   1   2
BRANCH   1  27
ATOM     27  C   UNL A   1      34.011  21.492  25.936  1.00  0.00     0.188 C 
BRANCH  27  28
ATOM     28  O   UNL A   1      35.068  21.939  25.129  1.00  0.00    -0.376 OA
BRANCH  28  29
ATOM     29  C   UNL A   1      36.271  21.200  25.048  1.00  0.00     0.202 C 
BRANCH  29  30
ATOM     30  C   UNL A   1      37.696  21.787  24.983  1.00  0.00     0.261 C 
BRANCH  30  31
ATOM     31  O   UNL A   1      38.190  22.524  26.100  1.00  0.00    -0.460 OA
BRANCH  31  32
ATOM     32  C   UNL A   1      39.489  22.299  26.434  1.00  0.00     0.338 C 
ATOM     33  O   UNL A   1      40.163  21.328  26.155  1.00  0.00    -0.246 OA
BRANCH  32  34
ATOM     34  C   UNL A   1      40.022  23.548  27.018  1.00  0.00     0.060 A 
ATOM     35  C   UNL A   1      39.673  24.784  26.450  1.00  0.00     0.016 A 
ATOM     36  C   UNL A   1      40.861  23.488  28.128  1.00  0.00     0.016 A 
ATOM     37  C   UNL A   1      40.178  25.970  26.987  1.00  0.00     0.010 A 
ATOM     38  C   UNL A   1      41.390  24.671  28.642  1.00  0.00     0.010 A 
ATOM     39  C   UNL A   1      41.074  25.913  28.060  1.00  0.00    -0.014 A 
BRANCH  39  40
ATOM     40  C   UNL A   1      41.882  27.092  28.452  1.00  0.00     0.031 A 
ATOM     41  C   UNL A   1      41.158  28.240  29.099  1.00  0.00     0.074 A 
ATOM     42  C   UNL A   1      43.192  27.184  28.167  1.00  0.00     0.049 A 
ATOM     43  N   UNL A   1      41.558  29.466  29.303  1.00  0.00    -0.248 NA
ATOM     44  C   UNL A   1      39.787  27.966  29.560  1.00  0.00     0.031 C 
ATOM     45  C   UNL A   1      44.015  26.119  27.599  1.00  0.00     0.029 A 
ATOM     46  N   UNL A   1      44.052  28.250  28.285  1.00  0.00    -0.354 N 
ATOM     47  C   UNL A   1      40.478  30.119  29.884  1.00  0.00     0.074 A 
ATOM     48  C   UNL A   1      39.403  29.157  29.991  1.00  0.00     0.031 C 
ATOM     49  C   UNL A   1      45.254  26.597  27.382  1.00  0.00     0.029 A 
ATOM     50  C   UNL A   1      45.294  28.014  27.742  1.00  0.00     0.049 A 
ATOM     51  H   UNL A   1      43.802  29.100  28.715  1.00  0.00     0.167 HD
ATOM     52  C   UNL A   1      40.392  31.408  30.285  1.00  0.00     0.037 A 
ATOM     53  C   UNL A   1      46.321  28.860  27.518  1.00  0.00     0.037 A 
ATOM     54  C   UNL A   1      41.468  32.354  30.170  1.00  0.00     0.049 A 
ATOM     55  C   UNL A   1      46.178  30.315  27.898  1.00  0.00     0.074 A 
ATOM     56  C   UNL A   1      41.489  33.682  30.555  1.00  0.00     0.029 A 
ATOM     57  N   UNL A   1      42.712  32.074  29.622  1.00  0.00    -0.354 N 
ATOM     58  N   UNL A   1      45.154  30.929  28.445  1.00  0.00    -0.248 NA
ATOM     59  C   UNL A   1      47.323  31.196  27.623  1.00  0.00     0.031 C 
ATOM     60  C   UNL A   1      42.725  34.221  30.188  1.00  0.00     0.029 A 
ATOM     61  C   UNL A   1      43.500  33.210  29.639  1.00  0.00     0.049 A 
ATOM     62  H   UNL A   1      42.991  31.197  29.273  1.00  0.00     0.167 HD
ATOM     63  C   UNL A   1      45.550  32.253  28.622  1.00  0.00     0.074 A 
ATOM     64  C   UNL A   1      46.902  32.354  28.116  1.00  0.00     0.031 C 
ATOM     65  C   UNL A   1      44.860  33.286  29.164  1.00  0.00     0.037 A 
BRANCH  52  66
ATOM     66  C   UNL A   1      39.079  31.878  30.847  1.00  0.00     0.058 A 
ATOM     67  C   UNL A   1      38.113  32.509  30.047  1.00  0.00     0.135 A 
ATOM     68  C   UNL A   1      38.771  31.665  32.200  1.00  0.00     0.135 A 
ATOM     69  F   UNL A   1      38.363  32.758  28.752  1.00  0.00    -0.206 F 
ATOM     70  C   UNL A   1      36.898  32.933  30.575  1.00  0.00     0.059 A 
ATOM     71  C   UNL A   1      37.549  32.052  32.742  1.00  0.00     0.059 A 
ATOM     72  F   UNL A   1      39.661  31.073  33.011  1.00  0.00    -0.206 F 
ATOM     73  C   UNL A   1      36.625  32.699  31.924  1.00  0.00     0.060 A 
BRANCH  73  74
ATOM     74  S   UNL A   1      35.040  33.248  32.589  1.00  0.00     0.124 S 
ATOM     75  O   UNL A   1      34.114  32.337  31.924  1.00  0.00    -0.237 OA
ATOM     76  O   UNL A   1      35.217  33.039  34.023  1.00  0.00    -0.237 OA
ATOM     77  O   UNL A   1      34.958  34.643  32.167  1.00  0.00    -0.744 OA
ENDBRANCH  73  74
ENDBRANCH  52  66
BRANCH  53  78
ATOM     78  C   UNL A   1      47.570  28.366  26.877  1.00  0.00     0.058 A 
ATOM     79  C   UNL A   1      47.625  28.119  25.497  1.00  0.00     0.135 A 
ATOM     80  C   UNL A   1      48.733  28.122  27.627  1.00  0.00     0.135 A 
ATOM     81  F   UNL A   1      46.537  28.322  24.738  1.00  0.00    -0.206 F 
ATOM     82  C   UNL A   1      48.778  27.637  24.885  1.00  0.00     0.059 A 
ATOM     83  C   UNL A   1      49.907  27.667  27.034  1.00  0.00     0.059 A 
ATOM     84  F   UNL A   1      48.739  28.345  28.951  1.00  0.00    -0.206 F 
ATOM     85  C   UNL A   1      49.916  27.419  25.662  1.00  0.00     0.060 A 
BRANCH  85  86
ATOM     86  S   UNL A   1      51.420  26.839  24.847  1.00  0.00     0.124 S 
ATOM     87  O   UNL A   1      51.539  25.486  25.377  1.00  0.00    -0.237 OA
ATOM     88  O   UNL A   1      51.061  26.942  23.436  1.00  0.00    -0.237 OA
ATOM     89  O   UNL A   1      52.435  27.786  25.299  1.00  0.00    -0.744 OA
ENDBRANCH  85  86
ENDBRANCH  53  78
BRANCH  65  90
ATOM     90  C   UNL A   1      45.559  34.610  29.320  1.00  0.00     0.058 A 
ATOM     91  C   UNL A   1      45.484  35.613  28.344  1.00  0.00     0.135 A 
ATOM     92  C   UNL A   1      46.205  34.918  30.530  1.00  0.00     0.135 A 
ATOM     93  F   UNL A   1      44.884  35.369  27.168  1.00  0.00    -0.206 F 
ATOM     94  C   UNL A   1      46.020  36.879  28.563  1.00  0.00     0.059 A 
ATOM     95  C   UNL A   1      46.724  36.183  30.781  1.00  0.00     0.059 A 
ATOM     96  F   UNL A   1      46.298  33.995  31.501  1.00  0.00    -0.206 F 
ATOM     97  C   UNL A   1      46.625  37.159  29.791  1.00  0.00     0.060 A 
BRANCH  97  98
ATOM     98  S   UNL A   1      47.232  38.833  30.096  1.00  0.00     0.124 S 
ATOM     99  O   UNL A   1      46.264  39.324  31.071  1.00  0.00    -0.237 OA
ATOM    100  O   UNL A   1      48.577  38.587  30.605  1.00  0.00    -0.237 OA
ATOM    101  O   UNL A   1      47.172  39.463  28.780  1.00  0.00    -0.744 OA
ENDBRANCH  97  98
ENDBRANCH  65  90
ENDBRANCH  39  40
ENDBRANCH  32  34
ENDBRANCH  31  32
ENDBRANCH  30  31
ENDBRANCH  29  30
ENDBRANCH  28  29
ENDBRANCH  27  28
ENDBRANCH   1  27
TORSDOF 26
ENDMDL
MODEL 2
REMARK VINA RESULT:      -7.8      1.202      2.063
REMARK SMILES CC(C)[C@H](NC(=O)[C@H](C)NC(=O)C[NH3+])C(=O)OCCOCCOCCOC(=O)c1ccc(-c2c3nc(c(-c4c(F)cc(S(=O)(=O)[O-])cc4F)c4ccc([nH]4)c(-c4c(F)cc(S(=O)(=O)[O-])cc4F)c4nc(c(-c5c(F)cc(S(=O)(=O)[O-])cc5F)c5ccc2[nH]5)C=C4)C=C3)cc1
REMARK SMILES IDX 21 1 20 2 19 3 18 4 17 5 15 6 16 7 4 8 2 9 1 10 3 11 5 12
REMARK SMILES IDX 6 13 7 15 8 16 9 17 10 18 11 19 12 21 13 22 14 23 22 27
REMARK SMILES IDX 23 28 24 29 25 30 26 31 27 32 28 33 29 34 30 35 94 36 31 37
REMARK SMILES IDX 93 38 32 39 33 40 34 41 87 42 35 43 92 44 86 45 88 46 36 47
REMARK SMILES IDX 91 48 85 49 84 50 37 52 71 53 50 54 70 55 51 56 54 57 69 58
REMARK SMILES IDX 89 59 52 60 53 61 68 63 90 64 55 65 38 66 39 67 48 68 40 69
REMARK SMILES IDX 41 70 47 71 49 72 42 73 43 74 44 75 45 76 46 77 72 78 73 79
REMARK SMILES IDX 82 80 74 81 75 82 81 83 83 84 76 85 77 86 78 87 79 88 80 89
REMARK SMILES IDX 56 90 57 91 66 92 58 93 59 94 65 95 67 96 60 97 61 98 62 99
REMARK SMILES IDX 63 100 64 101
REMARK H PARENT 5 14 10 20 14 24 14 25 14 26 88 51 54 62
REMARK Flexibility Score: inf
ROOT
ATOM      1  C   UNL A   1      33.456  22.498  26.382  1.00  0.00     0.188 C 
ENDROOT
BRANCH   1   2
ATOM      2  O   UNL A   1      32.273  22.545  25.612  1.00  0.00    -0.376 OA
BRANCH   2   3
ATOM      3  C   UNL A   1      31.049  22.952  26.198  1.00  0.00     0.202 C 
BRANCH   3   4
ATOM      4  C   UNL A   1      30.504  24.393  26.113  1.00  0.00     0.261 C 
BRANCH   4   5
ATOM      5  O   UNL A   1      31.296  25.450  26.698  1.00  0.00    -0.462 OA
BRANCH   5   6
ATOM      6  C   UNL A   1      31.392  26.581  25.945  1.00  0.00     0.328 C 
ATOM      7  O   UNL A   1      30.405  27.223  25.603  1.00  0.00    -0.250 OA
BRANCH   6   8
ATOM      8  C   UNL A   1      32.852  27.087  25.712  1.00  0.00     0.194 C 
BRANCH   8   9
ATOM      9  C   UNL A   1      33.414  27.972  26.846  1.00  0.00     0.017 C 
ATOM     10  C   UNL A   1      34.475  28.999  26.442  1.00  0.00     0.010 C 
ATOM     11  C   UNL A   1      32.296  28.695  27.607  1.00  0.00     0.010 C 
ENDBRANCH   8   9
BRANCH   8  12
ATOM     12  N   UNL A   1      33.269  27.543  24.356  1.00  0.00    -0.341 N 
ATOM     13  C   UNL A   1      32.745  27.805  23.136  1.00  0.00     0.243 C 
ATOM     14  H   UNL A   1      34.239  27.709  24.343  1.00  0.00     0.164 HD
ATOM     15  O   UNL A   1      33.575  28.188  22.300  1.00  0.00    -0.273 OA
BRANCH  13  16
ATOM     16  C   UNL A   1      31.279  27.571  22.718  1.00  0.00     0.168 C 
ATOM     17  C   UNL A   1      31.151  26.207  22.021  1.00  0.00     0.041 C 
BRANCH  16  18
ATOM     18  N   UNL A   1      30.764  28.562  21.780  1.00  0.00    -0.340 N 
ATOM     19  C   UNL A   1      29.938  29.617  22.049  1.00  0.00     0.275 C 
ATOM     20  H   UNL A   1      31.046  28.460  20.842  1.00  0.00     0.164 HD
ATOM     21  O   UNL A   1      29.408  30.224  21.118  1.00  0.00    -0.268 OA
BRANCH  19  22
ATOM     22  C   UNL A   1      29.753  30.055  23.503  1.00  0.00     0.360 C 
BRANCH  22  23
ATOM     23  N   UNL A   1      28.631  30.993  23.609  1.00  0.00    -0.350 N 
ATOM     24  H   UNL A   1      28.793  31.631  24.388  1.00  0.00     0.344 HD
ATOM     25  H   UNL A   1      27.768  30.473  23.769  1.00  0.00     0.344 HD
ATOM     26  H   UNL A   1      28.552  31.527  22.743  1.00  0.00     0.344 HD
ENDBRANCH  22  23
ENDBRANCH  19  22
ENDBRANCH  16  18
ENDBRANCH  13  16
ENDBRANCH   8  12
ENDBRANCH   6   8
ENDBRANCH   5   6
ENDBRANCH   4   5
ENDBRANCH   3   4
ENDBRANCH   2   3
ENDBRANCH   1   2
BRANCH   1  27
ATOM     27  C   UNL A   1      34.493  21.400  26.109  1.00  0.00     0.188 C 
BRANCH  27  28
ATOM     28  O   UNL A   1      35.428  21.618  25.087  1.00  0.00    -0.376 OA
BRANCH  28  29
ATOM     29  C   UNL A   1      36.728  21.067  25.174  1.00  0.00     0.202 C 
BRANCH  29  30
ATOM     30  C   UNL A   1      38.055  21.844  25.059  1.00  0.00     0.261 C 
BRANCH  30  31
ATOM     31  O   UNL A   1      38.453  22.692  26.136  1.00  0.00    -0.460 OA
BRANCH  31  32
ATOM     32  C   UNL A   1      39.680  22.444  26.667  1.00  0.00     0.338 C 
ATOM     33  O   UNL A   1      40.332  21.424  26.568  1.00  0.00    -0.246 OA
BRANCH  32  34
ATOM     34  C   UNL A   1      40.196  23.717  27.211  1.00  0.00     0.060 A 
ATOM     35  C   UNL A   1      39.807  24.932  26.623  1.00  0.00     0.016 A 
ATOM     36  C   UNL A   1      41.059  23.701  28.305  1.00  0.00     0.016 A 
ATOM     37  C   UNL A   1      40.295  26.141  27.124  1.00  0.00     0.010 A 
ATOM     38  C   UNL A   1      41.571  24.907  28.782  1.00  0.00     0.010 A 
ATOM     39  C   UNL A   1      41.214  26.128  28.179  1.00  0.00    -0.014 A 
BRANCH  39  40
ATOM     40  C   UNL A   1      42.002  27.334  28.528  1.00  0.00     0.031 A 
ATOM     41  C   UNL A   1      41.262  28.487  29.147  1.00  0.00     0.074 A 
ATOM     42  C   UNL A   1      43.308  27.442  28.229  1.00  0.00     0.049 A 
ATOM     43  N   UNL A   1      41.640  29.726  29.309  1.00  0.00    -0.248 NA
ATOM     44  C   UNL A   1      39.900  28.201  29.627  1.00  0.00     0.031 C 
ATOM     45  C   UNL A   1      44.147  26.376  27.687  1.00  0.00     0.029 A 
ATOM     46  N   UNL A   1      44.148  28.527  28.307  1.00  0.00    -0.354 N 
ATOM     47  C   UNL A   1      40.552  30.376  29.880  1.00  0.00     0.074 A 
ATOM     48  C   UNL A   1      39.497  29.398  30.025  1.00  0.00     0.031 C 
ATOM     49  C   UNL A   1      45.375  26.871  27.444  1.00  0.00     0.029 A 
ATOM     50  C   UNL A   1      45.390  28.299  27.761  1.00  0.00     0.049 A 
ATOM     51  H   UNL A   1      43.885  29.385  28.713  1.00  0.00     0.167 HD
ATOM     52  C   UNL A   1      40.444  31.675  30.243  1.00  0.00     0.037 A 
ATOM     53  C   UNL A   1      46.398  29.156  27.503  1.00  0.00     0.037 A 
ATOM     54  C   UNL A   1      41.502  32.637  30.089  1.00  0.00     0.049 A 
ATOM     55  C   UNL A   1      46.231  30.620  27.839  1.00  0.00     0.074 A 
ATOM     56  C   UNL A   1      41.500  33.976  30.434  1.00  0.00     0.029 A 
ATOM     57  N   UNL A   1      42.746  32.364  29.539  1.00  0.00    -0.354 N 
ATOM     58  N   UNL A   1      45.200  31.230  28.376  1.00  0.00    -0.248 NA
ATOM     59  C   UNL A   1      47.357  31.514  27.528  1.00  0.00     0.031 C 
ATOM     60  C   UNL A   1      42.722  34.527  30.040  1.00  0.00     0.029 A 
ATOM     61  C   UNL A   1      43.512  33.515  29.515  1.00  0.00     0.049 A 
ATOM     62  H   UNL A   1      43.039  31.482  29.214  1.00  0.00     0.167 HD
ATOM     63  C   UNL A   1      45.572  32.566  28.510  1.00  0.00     0.074 A 
ATOM     64  C   UNL A   1      46.917  32.678  27.989  1.00  0.00     0.031 C 
ATOM     65  C   UNL A   1      44.867  33.602  29.027  1.00  0.00     0.037 A 
BRANCH  52  66
ATOM     66  C   UNL A   1      39.128  32.137  30.801  1.00  0.00     0.058 A 
ATOM     67  C   UNL A   1      38.955  32.407  32.168  1.00  0.00     0.135 A 
ATOM     68  C   UNL A   1      38.030  32.344  29.949  1.00  0.00     0.135 A 
ATOM     69  F   UNL A   1      39.963  32.206  33.031  1.00  0.00    -0.206 F 
ATOM     70  C   UNL A   1      37.734  32.842  32.673  1.00  0.00     0.059 A 
ATOM     71  C   UNL A   1      36.810  32.809  30.428  1.00  0.00     0.059 A 
ATOM     72  F   UNL A   1      38.139  32.095  28.635  1.00  0.00    -0.206 F 
ATOM     73  C   UNL A   1      36.668  33.041  31.795  1.00  0.00     0.060 A 
BRANCH  73  74
ATOM     74  S   UNL A   1      35.094  33.614  32.467  1.00  0.00     0.124 S 
ATOM     75  O   UNL A   1      34.872  32.655  33.545  1.00  0.00    -0.237 OA
ATOM     76  O   UNL A   1      35.413  34.975  32.885  1.00  0.00    -0.237 OA
ATOM     77  O   UNL A   1      34.180  33.506  31.334  1.00  0.00    -0.744 OA
ENDBRANCH  73  74
ENDBRANCH  52  66
BRANCH  53  78
ATOM     78  C   UNL A   1      47.652  28.666  26.866  1.00  0.00     0.058 A 
ATOM     79  C   UNL A   1      47.669  28.260  25.524  1.00  0.00     0.135 A 
ATOM     80  C   UNL A   1      48.857  28.586  27.584  1.00  0.00     0.135 A 
ATOM     81  F   UNL A   1      46.541  28.303  24.797  1.00  0.00    -0.206 F 
ATOM     82  C   UNL A   1      48.826  27.780  24.919  1.00  0.00     0.059 A 
ATOM     83  C   UNL A   1      50.035  28.137  26.994  1.00  0.00     0.059 A 
ATOM     84  F   UNL A   1      48.900  28.967  28.871  1.00  0.00    -0.206 F 
ATOM     85  C   UNL A   1      50.007  27.727  25.661  1.00  0.00     0.060 A 
BRANCH  85  86
ATOM     86  S   UNL A   1      51.513  27.147  24.851  1.00  0.00     0.124 S 
ATOM     87  O   UNL A   1      52.539  27.898  25.565  1.00  0.00    -0.237 OA
ATOM     88  O   UNL A   1      51.470  25.712  25.120  1.00  0.00    -0.237 OA
ATOM     89  O   UNL A   1      51.311  27.523  23.455  1.00  0.00    -0.744 OA
ENDBRANCH  85  86
ENDBRANCH  53  78
BRANCH  65  90
ATOM     90  C   UNL A   1      45.541  34.943  29.136  1.00  0.00     0.058 A 
ATOM     91  C   UNL A   1      46.355  35.282  30.226  1.00  0.00     0.135 A 
ATOM     92  C   UNL A   1      45.469  35.849  28.063  1.00  0.00     0.135 A 
ATOM     93  F   UNL A   1      46.454  34.456  31.280  1.00  0.00    -0.206 F 
ATOM     94  C   UNL A   1      47.080  36.470  30.247  1.00  0.00     0.059 A 
ATOM     95  C   UNL A   1      46.205  37.028  28.050  1.00  0.00     0.059 A 
ATOM     96  F   UNL A   1      44.709  35.568  26.992  1.00  0.00    -0.206 F 
ATOM     97  C   UNL A   1      47.010  37.330  29.148  1.00  0.00     0.060 A 
BRANCH  97  98
ATOM     98  S   UNL A   1      48.028  38.822  29.148  1.00  0.00     0.124 S 
ATOM     99  O   UNL A   1      48.112  39.122  27.723  1.00  0.00    -0.237 OA
ATOM    100  O   UNL A   1      47.227  39.744  29.945  1.00  0.00    -0.237 OA
ATOM    101  O   UNL A   1      49.274  38.384  29.771  1.00  0.00    -0.744 OA
ENDBRANCH  97  98
ENDBRANCH  65  90
ENDBRANCH  39  40
ENDBRANCH  32  34
ENDBRANCH  31  32
ENDBRANCH  30  31
ENDBRANCH  29  30
ENDBRANCH  28  29
ENDBRANCH  27  28
ENDBRANCH   1  27
TORSDOF 26
ENDMDL
MODEL 3
REMARK VINA RESULT:      -7.7      1.710      8.347
REMARK SMILES CC(C)[C@H](NC(=O)[C@H](C)NC(=O)C[NH3+])C(=O)OCCOCCOCCOC(=O)c1ccc(-c2c3nc(c(-c4c(F)cc(S(=O)(=O)[O-])cc4F)c4ccc([nH]4)c(-c4c(F)cc(S(=O)(=O)[O-])cc4F)c4nc(c(-c5c(F)cc(S(=O)(=O)[O-])cc5F)c5ccc2[nH]5)C=C4)C=C3)cc1
REMARK SMILES IDX 21 1 20 2 19 3 18 4 17 5 15 6 16 7 4 8 2 9 1 10 3 11 5 12
REMARK SMILES IDX 6 13 7 15 8 16 9 17 10 18 11 19 12 21 13 22 14 23 22 27
REMARK SMILES IDX 23 28 24 29 25 30 26 31 27 32 28 33 29 34 30 35 94 36 31 37
REMARK SMILES IDX 93 38 32 39 33 40 34 41 87 42 35 43 92 44 86 45 88 46 36 47
REMARK SMILES IDX 91 48 85 49 84 50 37 52 71 53 50 54 70 55 51 56 54 57 69 58
REMARK SMILES IDX 89 59 52 60 53 61 68 63 90 64 55 65 38 66 39 67 48 68 40 69
REMARK SMILES IDX 41 70 47 71 49 72 42 73 43 74 44 75 45 76 46 77 72 78 73 79
REMARK SMILES IDX 82 80 74 81 75 82 81 83 83 84 76 85 77 86 78 87 79 88 80 89
REMARK SMILES IDX 56 90 57 91 66 92 58 93 59 94 65 95 67 96 60 97 61 98 62 99
REMARK SMILES IDX 63 100 64 101
REMARK H PARENT 5 14 10 20 14 24 14 25 14 26 88 51 54 62
REMARK Flexibility Score: inf
ROOT
ATOM      1  C   UNL A   1      33.632  22.689  26.457  1.00  0.00     0.188 C 
ENDROOT
BRANCH   1   2
ATOM      2  O   UNL A   1      32.433  22.719  25.711  1.00  0.00    -0.376 OA
BRANCH   2   3
ATOM      3  C   UNL A   1      31.218  23.116  26.319  1.00  0.00     0.202 C 
BRANCH   3   4
ATOM      4  C   UNL A   1      30.658  24.552  26.241  1.00  0.00     0.261 C 
BRANCH   4   5
ATOM      5  O   UNL A   1      31.484  25.627  26.740  1.00  0.00    -0.462 OA
BRANCH   5   6
ATOM      6  C   UNL A   1      31.411  26.786  26.028  1.00  0.00     0.328 C 
ATOM      7  O   UNL A   1      30.354  27.205  25.570  1.00  0.00    -0.250 OA
BRANCH   6   8
ATOM      8  C   UNL A   1      32.733  27.620  26.003  1.00  0.00     0.194 C 
BRANCH   8   9
ATOM      9  C   UNL A   1      32.887  28.616  27.173  1.00  0.00     0.017 C 
ATOM     10  C   UNL A   1      34.316  29.030  27.527  1.00  0.00     0.010 C 
ATOM     11  C   UNL A   1      32.049  29.881  26.953  1.00  0.00     0.010 C 
ENDBRANCH   8   9
BRANCH   8  12
ATOM     12  N   UNL A   1      33.244  28.157  24.710  1.00  0.00    -0.341 N 
ATOM     13  C   UNL A   1      32.831  28.395  23.443  1.00  0.00     0.243 C 
ATOM     14  H   UNL A   1      34.185  28.426  24.809  1.00  0.00     0.164 HD
ATOM     15  O   UNL A   1      33.702  28.889  22.712  1.00  0.00    -0.273 OA
BRANCH  13  16
ATOM     16  C   UNL A   1      31.455  28.017  22.859  1.00  0.00     0.168 C 
ATOM     17  C   UNL A   1      31.557  26.670  22.125  1.00  0.00     0.041 C 
BRANCH  16  18
ATOM     18  N   UNL A   1      30.938  28.977  21.890  1.00  0.00    -0.340 N 
ATOM     19  C   UNL A   1      29.839  29.779  22.014  1.00  0.00     0.275 C 
ATOM     20  H   UNL A   1      31.441  29.056  21.047  1.00  0.00     0.164 HD
ATOM     21  O   UNL A   1      29.401  30.363  21.023  1.00  0.00    -0.268 OA
BRANCH  19  22
ATOM     22  C   UNL A   1      29.227  29.982  23.402  1.00  0.00     0.360 C 
BRANCH  22  23
ATOM     23  N   UNL A   1      29.962  31.019  24.131  1.00  0.00    -0.350 N 
ATOM     24  H   UNL A   1      29.909  31.899  23.618  1.00  0.00     0.344 HD
ATOM     25  H   UNL A   1      30.938  30.740  24.227  1.00  0.00     0.344 HD
ATOM     26  H   UNL A   1      29.550  31.140  25.057  1.00  0.00     0.344 HD
ENDBRANCH  22  23
ENDBRANCH  19  22
ENDBRANCH  16  18
ENDBRANCH  13  16
ENDBRANCH   8  12
ENDBRANCH   6   8
ENDBRANCH   5   6
ENDBRANCH   4   5
ENDBRANCH   3   4
ENDBRANCH   2   3
ENDBRANCH   1   2
BRANCH   1  27
ATOM     27  C   UNL A   1      34.674  21.599  26.170  1.00  0.00     0.188 C 
BRANCH  27  28
ATOM     28  O   UNL A   1      35.696  21.890  25.254  1.00  0.00    -0.376 OA
BRANCH  28  29
ATOM     29  C   UNL A   1      36.937  21.215  25.326  1.00  0.00     0.202 C 
BRANCH  29  30
ATOM     30  C   UNL A   1      38.331  21.875  25.349  1.00  0.00     0.261 C 
BRANCH  30  31
ATOM     31  O   UNL A   1      38.642  22.792  26.397  1.00  0.00    -0.460 OA
BRANCH  31  32
ATOM     32  C   UNL A   1      39.757  22.510  27.123  1.00  0.00     0.338 C 
ATOM     33  O   UNL A   1      40.186  21.413  27.417  1.00  0.00    -0.246 OA
BRANCH  32  34
ATOM     34  C   UNL A   1      40.496  23.776  27.315  1.00  0.00     0.060 A 
ATOM     35  C   UNL A   1      41.436  23.881  28.353  1.00  0.00     0.016 A 
ATOM     36  C   UNL A   1      40.255  24.851  26.462  1.00  0.00     0.016 A 
ATOM     37  C   UNL A   1      42.133  25.075  28.550  1.00  0.00     0.010 A 
ATOM     38  C   UNL A   1      40.928  26.053  26.681  1.00  0.00     0.010 A 
ATOM     39  C   UNL A   1      41.848  26.180  27.739  1.00  0.00    -0.014 A 
BRANCH  39  40
ATOM     40  C   UNL A   1      42.307  27.541  28.104  1.00  0.00     0.031 A 
ATOM     41  C   UNL A   1      43.782  27.818  28.019  1.00  0.00     0.074 A 
ATOM     42  C   UNL A   1      41.462  28.473  28.580  1.00  0.00     0.049 A 
ATOM     43  N   UNL A   1      44.470  28.812  28.511  1.00  0.00    -0.248 NA
ATOM     44  C   UNL A   1      44.588  26.822  27.294  1.00  0.00     0.031 C 
ATOM     45  C   UNL A   1      40.009  28.345  28.652  1.00  0.00     0.029 A 
ATOM     46  N   UNL A   1      41.722  29.705  29.130  1.00  0.00    -0.354 N 
ATOM     47  C   UNL A   1      45.795  28.545  28.185  1.00  0.00     0.074 A 
ATOM     48  C   UNL A   1      45.814  27.292  27.464  1.00  0.00     0.031 C 
ATOM     49  C   UNL A   1      39.507  29.441  29.251  1.00  0.00     0.029 A 
ATOM     50  C   UNL A   1      40.607  30.318  29.653  1.00  0.00     0.049 A 
ATOM     51  H   UNL A   1      42.620  30.109  29.149  1.00  0.00     0.167 HD
ATOM     52  C   UNL A   1      46.895  29.279  28.471  1.00  0.00     0.037 A 
ATOM     53  C   UNL A   1      40.498  31.428  30.410  1.00  0.00     0.037 A 
ATOM     54  C   UNL A   1      46.860  30.522  29.192  1.00  0.00     0.049 A 
ATOM     55  C   UNL A   1      41.746  32.192  30.789  1.00  0.00     0.074 A 
ATOM     56  C   UNL A   1      47.916  31.351  29.526  1.00  0.00     0.029 A 
ATOM     57  N   UNL A   1      45.711  31.112  29.698  1.00  0.00    -0.354 N 
ATOM     58  N   UNL A   1      42.996  31.935  30.481  1.00  0.00    -0.248 NA
ATOM     59  C   UNL A   1      41.572  33.391  31.624  1.00  0.00     0.031 C 
ATOM     60  C   UNL A   1      47.413  32.411  30.283  1.00  0.00     0.029 A 
ATOM     61  C   UNL A   1      46.034  32.282  30.359  1.00  0.00     0.049 A 
ATOM     62  H   UNL A   1      44.800  30.750  29.600  1.00  0.00     0.167 HD
ATOM     63  C   UNL A   1      43.749  32.963  31.043  1.00  0.00     0.074 A 
ATOM     64  C   UNL A   1      42.817  33.840  31.719  1.00  0.00     0.031 C 
ATOM     65  C   UNL A   1      45.088  33.166  30.996  1.00  0.00     0.037 A 
BRANCH  52  66
ATOM     66  C   UNL A   1      48.228  28.736  28.039  1.00  0.00     0.058 A 
ATOM     67  C   UNL A   1      48.696  28.877  26.722  1.00  0.00     0.135 A 
ATOM     68  C   UNL A   1      49.065  28.093  28.965  1.00  0.00     0.135 A 
ATOM     69  F   UNL A   1      47.928  29.464  25.790  1.00  0.00    -0.206 F 
ATOM     70  C   UNL A   1      49.934  28.377  26.334  1.00  0.00     0.059 A 
ATOM     71  C   UNL A   1      50.321  27.614  28.607  1.00  0.00     0.059 A 
ATOM     72  F   UNL A   1      48.665  27.925  30.235  1.00  0.00    -0.206 F 
ATOM     73  C   UNL A   1      50.741  27.749  27.285  1.00  0.00     0.060 A 
BRANCH  73  74
ATOM     74  S   UNL A   1      52.348  27.115  26.765  1.00  0.00     0.124 S 
ATOM     75  O   UNL A   1      52.093  26.787  25.366  1.00  0.00    -0.237 OA
ATOM     76  O   UNL A   1      53.223  28.259  27.000  1.00  0.00    -0.237 OA
ATOM     77  O   UNL A   1      52.565  25.972  27.647  1.00  0.00    -0.744 OA
ENDBRANCH  73  74
ENDBRANCH  52  66
BRANCH  53  78
ATOM     78  C   UNL A   1      39.162  31.879  30.890  1.00  0.00     0.058 A 
ATOM     79  C   UNL A   1      38.423  32.833  30.175  1.00  0.00     0.135 A 
ATOM     80  C   UNL A   1      38.599  31.373  32.073  1.00  0.00     0.135 A 
ATOM     81  F   UNL A   1      38.922  33.358  29.046  1.00  0.00    -0.206 F 
ATOM     82  C   UNL A   1      37.182  33.280  30.620  1.00  0.00     0.059 A 
ATOM     83  C   UNL A   1      37.348  31.783  32.524  1.00  0.00     0.059 A 
ATOM     84  F   UNL A   1      39.261  30.454  32.794  1.00  0.00    -0.206 F 
ATOM     85  C   UNL A   1      36.651  32.745  31.794  1.00  0.00     0.060 A 
BRANCH  85  86
ATOM     86  S   UNL A   1      35.019  33.299  32.336  1.00  0.00     0.124 S 
ATOM     87  O   UNL A   1      34.152  32.671  31.346  1.00  0.00    -0.237 OA
ATOM     88  O   UNL A   1      34.945  32.752  33.687  1.00  0.00    -0.237 OA
ATOM     89  O   UNL A   1      35.115  34.753  32.260  1.00  0.00    -0.744 OA
ENDBRANCH  85  86
ENDBRANCH  53  78
BRANCH  65  90
ATOM     90  C   UNL A   1      45.645  34.418  31.619  1.00  0.00     0.058 A 
ATOM     91  C   UNL A   1      45.721  35.630  30.920  1.00  0.00     0.135 A 
ATOM     92  C   UNL A   1      45.986  34.424  32.983  1.00  0.00     0.135 A 
ATOM     93  F   UNL A   1      45.414  35.678  29.614  1.00  0.00    -0.206 F 
ATOM     94  C   UNL A   1      46.109  36.808  31.552  1.00  0.00     0.059 A 
ATOM     95  C   UNL A   1      46.350  35.593  33.641  1.00  0.00     0.059 A 
ATOM     96  F   UNL A   1      45.923  33.291  33.701  1.00  0.00    -0.206 F 
ATOM     97  C   UNL A   1      46.408  36.782  32.916  1.00  0.00     0.060 A 
BRANCH  97  98
ATOM     98  S   UNL A   1      46.819  38.335  33.743  1.00  0.00     0.124 S 
ATOM     99  O   UNL A   1      46.960  39.244  32.611  1.00  0.00    -0.237 OA
ATOM    100  O   UNL A   1      45.652  38.553  34.591  1.00  0.00    -0.237 OA
ATOM    101  O   UNL A   1      48.055  38.025  34.456  1.00  0.00    -0.744 OA
ENDBRANCH  97  98
ENDBRANCH  65  90
ENDBRANCH  39  40
ENDBRANCH  32  34
ENDBRANCH  31  32
ENDBRANCH  30  31
ENDBRANCH  29  30
ENDBRANCH  28  29
ENDBRANCH  27  28
ENDBRANCH   1  27
TORSDOF 26
ENDMDL
