MODEL 1
REMARK VINA RESULT:     -12.8      0.000      0.000
REMARK SMILES Cc1ccc(S(=O)(=O)N2c3ccc(C(=O)OCCOCCOCCOC(=O)c4ccc(-c5c6nc(c(-c7c(F)cc(S(=O)(=O)[O-])cc7F)c7ccc([nH]7)c(-c7c(F)cc(S(=O)(=O)[O-])cc7F)c7nc(c(-c8c(F)cc(S(=O)(=O)[O-])cc8F)c8ccc5[nH]8)C=C7)C=C6)cc4)cc3C[C@H]2C)cc1
REMARK SMILES IDX 21 1 20 2 19 3 18 4 17 5 16 6 14 7 15 8 13 9 9 10 10 11
REMARK SMILES IDX 97 12 11 13 95 14 96 15 98 16 12 17 94 18 6 19 7 20 8 21
REMARK SMILES IDX 5 22 1 23 2 24 3 25 100 26 4 27 99 28 22 29 23 30 24 31
REMARK SMILES IDX 25 32 26 33 27 34 28 35 29 36 93 37 30 38 92 39 31 40 32 41
REMARK SMILES IDX 33 42 86 43 34 44 91 45 85 46 87 47 35 48 90 49 84 50 83 51
REMARK SMILES IDX 36 53 70 54 49 55 69 56 50 57 53 58 68 59 88 60 51 61 52 62
REMARK SMILES IDX 67 64 89 65 54 66 37 67 38 68 47 69 39 70 40 71 46 72 48 73
REMARK SMILES IDX 41 74 42 75 43 76 44 77 45 78 71 79 72 80 81 81 73 82 74 83
REMARK SMILES IDX 80 84 82 85 75 86 76 87 77 88 78 89 79 90 55 91 56 92 65 93
REMARK SMILES IDX 57 94 58 95 64 96 66 97 59 98 60 99 61 100 62 101 63 102
REMARK H PARENT 87 52 53 63
REMARK Flexibility Score: inf
ROOT
ATOM      1  C   UNL A   1      44.456  19.325  25.113  1.00  0.00     0.188 C 
ENDROOT
BRANCH   1   2
ATOM      2  C   UNL A   1      43.116  18.843  25.672  1.00  0.00     0.188 C 
BRANCH   2   3
ATOM      3  O   UNL A   1      41.880  19.545  25.405  1.00  0.00    -0.376 OA
BRANCH   3   4
ATOM      4  C   UNL A   1      40.855  19.797  26.381  1.00  0.00     0.202 C 
BRANCH   4   5
ATOM      5  C   UNL A   1      39.971  21.221  26.431  1.00  0.00     0.261 C 
BRANCH   5   6
ATOM      6  O   UNL A   1      38.591  21.734  25.521  1.00  0.00    -0.460 OA
BRANCH   6   7
ATOM      7  C   UNL A   1      37.274  21.272  25.181  1.00  0.00     0.338 C 
ATOM      8  O   UNL A   1      36.944  20.281  24.534  1.00  0.00    -0.246 OA
BRANCH   7   9
ATOM      9  C   UNL A   1      35.950  21.823  25.604  1.00  0.00     0.060 A 
ATOM     10  N   UNL A   1      32.389  24.127  25.057  1.00  0.00    -0.263 N 
ATOM     11  C   UNL A   1      33.645  23.444  25.311  1.00  0.00     0.055 A 
ATOM     12  C   UNL A   1      31.430  22.983  24.702  1.00  0.00     0.101 C 
ATOM     13  C   UNL A   1      34.793  23.965  25.897  1.00  0.00     0.028 A 
ATOM     14  C   UNL A   1      33.622  22.147  24.830  1.00  0.00    -0.021 A 
ATOM     15  C   UNL A   1      32.329  21.865  24.116  1.00  0.00     0.063 C 
ATOM     16  C   UNL A   1      30.744  22.512  25.995  1.00  0.00     0.032 C 
ATOM     17  C   UNL A   1      35.943  23.156  26.037  1.00  0.00     0.018 A 
ATOM     18  C   UNL A   1      34.772  21.365  24.921  1.00  0.00     0.021 A 
BRANCH  10  19
ATOM     19  S   UNL A   1      32.532  25.315  23.792  1.00  0.00     0.264 S 
ATOM     20  O   UNL A   1      31.410  25.177  22.888  1.00  0.00    -0.201 OA
ATOM     21  O   UNL A   1      33.902  25.322  23.316  1.00  0.00    -0.201 OA
BRANCH  19  22
ATOM     22  C   UNL A   1      32.323  26.912  24.571  1.00  0.00     0.088 A 
ATOM     23  C   UNL A   1      31.975  30.658  26.669  1.00  0.00     0.044 C 
ATOM     24  C   UNL A   1      32.092  29.355  25.934  1.00  0.00    -0.051 A 
ATOM     25  C   UNL A   1      32.788  28.289  26.514  1.00  0.00     0.005 A 
ATOM     26  C   UNL A   1      31.488  29.175  24.682  1.00  0.00     0.005 A 
ATOM     27  C   UNL A   1      32.908  27.076  25.836  1.00  0.00     0.022 A 
ATOM     28  C   UNL A   1      31.597  27.955  24.003  1.00  0.00     0.022 A 
ENDBRANCH  19  22
ENDBRANCH  10  19
ENDBRANCH   7   9
ENDBRANCH   6   7
ENDBRANCH   5   6
ENDBRANCH   4   5
ENDBRANCH   3   4
ENDBRANCH   2   3
ENDBRANCH   1   2
BRANCH   1  29
ATOM     29  O   UNL A   1      44.223  20.358  24.176  1.00  0.00    -0.376 OA
BRANCH  29  30
ATOM     30  C   UNL A   1      44.996  21.529  24.305  1.00  0.00     0.202 C 
BRANCH  30  31
ATOM     31  C   UNL A   1      44.140  22.799  24.195  1.00  0.00     0.261 C 
BRANCH  31  32
ATOM     32  O   UNL A   1      42.901  22.667  24.940  1.00  0.00    -0.460 OA
BRANCH  32  33
ATOM     33  C   UNL A   1      42.932  22.938  26.295  1.00  0.00     0.338 C 
ATOM     34  O   UNL A   1      43.452  22.176  27.095  1.00  0.00    -0.246 OA
BRANCH  33  35
ATOM     35  C   UNL A   1      42.315  24.286  26.589  1.00  0.00     0.060 A 
ATOM     36  C   UNL A   1      42.529  25.535  25.986  1.00  0.00     0.016 A 
ATOM     37  C   UNL A   1      41.624  24.353  27.742  1.00  0.00     0.016 A 
ATOM     38  C   UNL A   1      42.167  26.822  26.641  1.00  0.00     0.010 A 
ATOM     39  C   UNL A   1      41.602  25.597  28.381  1.00  0.00     0.010 A 
ATOM     40  C   UNL A   1      41.672  26.916  27.951  1.00  0.00    -0.014 A 
BRANCH  40  41
ATOM     41  C   UNL A   1      41.487  28.205  28.943  1.00  0.00     0.031 A 
ATOM     42  C   UNL A   1      40.224  29.270  29.308  1.00  0.00     0.074 A 
ATOM     43  C   UNL A   1      42.611  28.604  29.588  1.00  0.00     0.049 A 
ATOM     44  N   UNL A   1      40.347  30.591  29.303  1.00  0.00    -0.248 NA
ATOM     45  C   UNL A   1      38.783  29.006  29.677  1.00  0.00     0.031 C 
ATOM     46  C   UNL A   1      42.711  29.594  30.659  1.00  0.00     0.029 A 
ATOM     47  N   UNL A   1      43.938  28.264  29.314  1.00  0.00    -0.354 N 
ATOM     48  C   UNL A   1      39.110  31.176  29.652  1.00  0.00     0.074 A 
ATOM     49  C   UNL A   1      38.148  30.158  29.704  1.00  0.00     0.031 C 
ATOM     50  C   UNL A   1      43.989  29.980  30.773  1.00  0.00     0.029 A 
ATOM     51  C   UNL A   1      44.738  29.343  29.707  1.00  0.00     0.049 A 
ATOM     52  H   UNL A   1      44.253  27.420  28.916  1.00  0.00     0.167 HD
ATOM     53  C   UNL A   1      38.876  32.429  30.122  1.00  0.00     0.037 A 
ATOM     54  C   UNL A   1      45.588  29.961  28.841  1.00  0.00     0.037 A 
ATOM     55  C   UNL A   1      40.121  33.043  30.442  1.00  0.00     0.049 A 
ATOM     56  C   UNL A   1      45.323  31.441  28.699  1.00  0.00     0.074 A 
ATOM     57  C   UNL A   1      40.883  33.011  31.595  1.00  0.00     0.029 A 
ATOM     58  N   UNL A   1      40.944  33.417  29.406  1.00  0.00    -0.354 N 
ATOM     59  N   UNL A   1      44.239  32.035  29.115  1.00  0.00    -0.248 NA
ATOM     60  C   UNL A   1      46.257  32.375  28.079  1.00  0.00     0.031 C 
ATOM     61  C   UNL A   1      42.204  33.359  31.236  1.00  0.00     0.029 A 
ATOM     62  C   UNL A   1      42.212  33.651  29.884  1.00  0.00     0.049 A 
ATOM     63  H   UNL A   1      40.668  33.503  28.465  1.00  0.00     0.167 HD
ATOM     64  C   UNL A   1      44.273  33.364  28.767  1.00  0.00     0.074 A 
ATOM     65  C   UNL A   1      45.578  33.534  28.165  1.00  0.00     0.031 C 
ATOM     66  C   UNL A   1      43.207  34.191  28.986  1.00  0.00     0.037 A 
BRANCH  53  67
ATOM     67  C   UNL A   1      37.495  32.834  30.635  1.00  0.00     0.058 A 
ATOM     68  C   UNL A   1      36.596  33.564  29.841  1.00  0.00     0.135 A 
ATOM     69  C   UNL A   1      37.074  32.617  31.972  1.00  0.00     0.135 A 
ATOM     70  F   UNL A   1      36.853  33.805  28.548  1.00  0.00    -0.206 F 
ATOM     71  C   UNL A   1      35.420  34.129  30.353  1.00  0.00     0.059 A 
ATOM     72  C   UNL A   1      35.927  33.214  32.521  1.00  0.00     0.059 A 
ATOM     73  F   UNL A   1      37.825  31.882  32.810  1.00  0.00    -0.206 F 
ATOM     74  C   UNL A   1      35.108  33.980  31.701  1.00  0.00     0.060 A 
BRANCH  74  75
ATOM     75  S   UNL A   1      33.677  34.864  32.370  1.00  0.00     0.124 S 
ATOM     76  O   UNL A   1      33.020  33.839  33.178  1.00  0.00    -0.237 OA
ATOM     77  O   UNL A   1      34.308  35.947  33.117  1.00  0.00    -0.237 OA
ATOM     78  O   UNL A   1      32.935  35.269  31.179  1.00  0.00    -0.744 OA
ENDBRANCH  74  75
ENDBRANCH  53  67
BRANCH  54  79
ATOM     79  C   UNL A   1      46.173  29.043  27.822  1.00  0.00     0.058 A 
ATOM     80  C   UNL A   1      47.306  28.294  28.202  1.00  0.00     0.135 A 
ATOM     81  C   UNL A   1      45.462  28.599  26.698  1.00  0.00     0.135 A 
ATOM     82  F   UNL A   1      48.034  28.673  29.266  1.00  0.00    -0.206 F 
ATOM     83  C   UNL A   1      47.635  27.087  27.595  1.00  0.00     0.059 A 
ATOM     84  C   UNL A   1      45.786  27.391  26.059  1.00  0.00     0.059 A 
ATOM     85  F   UNL A   1      44.361  29.248  26.295  1.00  0.00    -0.206 F 
ATOM     86  C   UNL A   1      46.838  26.618  26.555  1.00  0.00     0.060 A 
BRANCH  86  87
ATOM     87  S   UNL A   1      47.097  24.904  26.024  1.00  0.00     0.124 S 
ATOM     88  O   UNL A   1      46.073  24.190  26.778  1.00  0.00    -0.237 OA
ATOM     89  O   UNL A   1      46.861  25.013  24.586  1.00  0.00    -0.237 OA
ATOM     90  O   UNL A   1      48.475  24.637  26.418  1.00  0.00    -0.744 OA
ENDBRANCH  86  87
ENDBRANCH  54  79
BRANCH  66  91
ATOM     91  C   UNL A   1      42.948  35.585  28.435  1.00  0.00     0.058 A 
ATOM     92  C   UNL A   1      42.506  35.859  27.135  1.00  0.00     0.135 A 
ATOM     93  C   UNL A   1      42.992  36.718  29.302  1.00  0.00     0.135 A 
ATOM     94  F   UNL A   1      42.319  34.884  26.237  1.00  0.00    -0.206 F 
ATOM     95  C   UNL A   1      42.193  37.153  26.706  1.00  0.00     0.059 A 
ATOM     96  C   UNL A   1      42.608  37.997  28.918  1.00  0.00     0.059 A 
ATOM     97  F   UNL A   1      43.407  36.627  30.574  1.00  0.00    -0.206 F 
ATOM     98  C   UNL A   1      42.244  38.214  27.603  1.00  0.00     0.060 A 
BRANCH  98  99
ATOM     99  S   UNL A   1      41.822  39.878  27.067  1.00  0.00     0.124 S 
ATOM    100  O   UNL A   1      43.128  40.388  26.661  1.00  0.00    -0.237 OA
ATOM    101  O   UNL A   1      40.874  39.642  25.983  1.00  0.00    -0.237 OA
ATOM    102  O   UNL A   1      41.253  40.483  28.267  1.00  0.00    -0.744 OA
ENDBRANCH  98  99
ENDBRANCH  66  91
ENDBRANCH  40  41
ENDBRANCH  33  35
ENDBRANCH  32  33
ENDBRANCH  31  32
ENDBRANCH  30  31
ENDBRANCH  29  30
ENDBRANCH   1  29
TORSDOF 22
ENDMDL
MODEL 2
REMARK VINA RESULT:     -12.7      1.674      3.339
REMARK SMILES Cc1ccc(S(=O)(=O)N2c3ccc(C(=O)OCCOCCOCCOC(=O)c4ccc(-c5c6nc(c(-c7c(F)cc(S(=O)(=O)[O-])cc7F)c7ccc([nH]7)c(-c7c(F)cc(S(=O)(=O)[O-])cc7F)c7nc(c(-c8c(F)cc(S(=O)(=O)[O-])cc8F)c8ccc5[nH]8)C=C7)C=C6)cc4)cc3C[C@H]2C)cc1
REMARK SMILES IDX 21 1 20 2 19 3 18 4 17 5 16 6 14 7 15 8 13 9 9 10 10 11
REMARK SMILES IDX 97 12 11 13 95 14 96 15 98 16 12 17 94 18 6 19 7 20 8 21
REMARK SMILES IDX 5 22 1 23 2 24 3 25 100 26 4 27 99 28 22 29 23 30 24 31
REMARK SMILES IDX 25 32 26 33 27 34 28 35 29 36 93 37 30 38 92 39 31 40 32 41
REMARK SMILES IDX 33 42 86 43 34 44 91 45 85 46 87 47 35 48 90 49 84 50 83 51
REMARK SMILES IDX 36 53 70 54 49 55 69 56 50 57 53 58 68 59 88 60 51 61 52 62
REMARK SMILES IDX 67 64 89 65 54 66 37 67 38 68 47 69 39 70 40 71 46 72 48 73
REMARK SMILES IDX 41 74 42 75 43 76 44 77 45 78 71 79 72 80 81 81 73 82 74 83
REMARK SMILES IDX 80 84 82 85 75 86 76 87 77 88 78 89 79 90 55 91 56 92 65 93
REMARK SMILES IDX 57 94 58 95 64 96 66 97 59 98 60 99 61 100 62 101 63 102
REMARK H PARENT 87 52 53 63
REMARK Flexibility Score: inf
ROOT
ATOM      1  C   UNL A   1      44.946  20.429  24.664  1.00  0.00     0.188 C 
ENDROOT
BRANCH   1   2
ATOM      2  C   UNL A   1      44.072  19.209  24.958  1.00  0.00     0.188 C 
BRANCH   2   3
ATOM      3  O   UNL A   1      42.630  19.300  25.026  1.00  0.00    -0.376 OA
BRANCH   3   4
ATOM      4  C   UNL A   1      41.860  19.190  26.235  1.00  0.00     0.202 C 
BRANCH   4   5
ATOM      5  C   UNL A   1      40.806  20.385  26.758  1.00  0.00     0.261 C 
BRANCH   5   6
ATOM      6  O   UNL A   1      39.459  21.136  25.973  1.00  0.00    -0.460 OA
BRANCH   6   7
ATOM      7  C   UNL A   1      38.706  22.358  26.027  1.00  0.00     0.338 C 
ATOM      8  O   UNL A   1      38.874  23.339  26.747  1.00  0.00    -0.246 OA
BRANCH   7   9
ATOM      9  C   UNL A   1      37.574  22.800  25.157  1.00  0.00     0.060 A 
ATOM     10  N   UNL A   1      33.447  23.446  24.244  1.00  0.00    -0.263 N 
ATOM     11  C   UNL A   1      34.841  23.118  24.484  1.00  0.00     0.055 A 
ATOM     12  C   UNL A   1      33.383  24.952  24.530  1.00  0.00     0.101 C 
ATOM     13  C   UNL A   1      35.508  21.946  24.152  1.00  0.00     0.028 A 
ATOM     14  C   UNL A   1      35.485  24.128  25.177  1.00  0.00    -0.021 A 
ATOM     15  C   UNL A   1      34.523  25.223  25.544  1.00  0.00     0.063 C 
ATOM     16  C   UNL A   1      33.635  25.703  23.212  1.00  0.00     0.032 C 
ATOM     17  C   UNL A   1      36.870  21.787  24.493  1.00  0.00     0.018 A 
ATOM     18  C   UNL A   1      36.814  23.950  25.560  1.00  0.00     0.021 A 
BRANCH  10  19
ATOM     19  S   UNL A   1      32.372  22.515  25.249  1.00  0.00     0.264 S 
ATOM     20  O   UNL A   1      31.004  22.806  24.871  1.00  0.00    -0.201 OA
ATOM     21  O   UNL A   1      32.823  22.611  26.623  1.00  0.00    -0.201 OA
BRANCH  19  22
ATOM     22  C   UNL A   1      32.631  20.799  24.813  1.00  0.00     0.088 A 
ATOM     23  C   UNL A   1      33.167  16.734  23.496  1.00  0.00     0.044 C 
ATOM     24  C   UNL A   1      32.981  18.148  23.960  1.00  0.00    -0.051 A 
ATOM     25  C   UNL A   1      32.495  19.113  23.073  1.00  0.00     0.005 A 
ATOM     26  C   UNL A   1      33.260  18.517  25.284  1.00  0.00     0.005 A 
ATOM     27  C   UNL A   1      32.325  20.433  23.493  1.00  0.00     0.022 A 
ATOM     28  C   UNL A   1      33.080  19.837  25.713  1.00  0.00     0.022 A 
ENDBRANCH  19  22
ENDBRANCH  10  19
ENDBRANCH   7   9
ENDBRANCH   6   7
ENDBRANCH   5   6
ENDBRANCH   4   5
ENDBRANCH   3   4
ENDBRANCH   2   3
ENDBRANCH   1   2
BRANCH   1  29
ATOM     29  O   UNL A   1      44.124  21.491  24.221  1.00  0.00    -0.376 OA
BRANCH  29  30
ATOM     30  C   UNL A   1      44.752  22.727  23.967  1.00  0.00     0.202 C 
BRANCH  30  31
ATOM     31  C   UNL A   1      44.029  23.891  24.660  1.00  0.00     0.261 C 
BRANCH  31  32
ATOM     32  O   UNL A   1      42.791  23.454  25.277  1.00  0.00    -0.460 OA
BRANCH  32  33
ATOM     33  C   UNL A   1      42.701  23.513  26.655  1.00  0.00     0.338 C 
ATOM     34  O   UNL A   1      43.312  22.741  27.377  1.00  0.00    -0.246 OA
BRANCH  33  35
ATOM     35  C   UNL A   1      41.830  24.670  27.089  1.00  0.00     0.060 A 
ATOM     36  C   UNL A   1      41.400  25.801  26.378  1.00  0.00     0.016 A 
ATOM     37  C   UNL A   1      41.611  24.748  28.415  1.00  0.00     0.016 A 
ATOM     38  C   UNL A   1      40.900  27.033  27.046  1.00  0.00     0.010 A 
ATOM     39  C   UNL A   1      41.418  26.031  28.937  1.00  0.00     0.010 A 
ATOM     40  C   UNL A   1      40.901  27.220  28.438  1.00  0.00    -0.014 A 
BRANCH  40  41
ATOM     41  C   UNL A   1      40.676  28.563  29.345  1.00  0.00     0.031 A 
ATOM     42  C   UNL A   1      39.453  29.723  29.493  1.00  0.00     0.074 A 
ATOM     43  C   UNL A   1      41.729  28.919  30.122  1.00  0.00     0.049 A 
ATOM     44  N   UNL A   1      39.668  31.032  29.454  1.00  0.00    -0.248 NA
ATOM     45  C   UNL A   1      37.961  29.570  29.671  1.00  0.00     0.031 C 
ATOM     46  C   UNL A   1      41.753  29.950  31.158  1.00  0.00     0.029 A 
ATOM     47  N   UNL A   1      43.053  28.482  30.044  1.00  0.00    -0.354 N 
ATOM     48  C   UNL A   1      38.439  31.711  29.608  1.00  0.00     0.074 A 
ATOM     49  C   UNL A   1      37.410  30.760  29.567  1.00  0.00     0.031 C 
ATOM     50  C   UNL A   1      43.029  30.258  31.430  1.00  0.00     0.029 A 
ATOM     51  C   UNL A   1      43.867  29.525  30.502  1.00  0.00     0.049 A 
ATOM     52  H   UNL A   1      43.359  27.602  29.726  1.00  0.00     0.167 HD
ATOM     53  C   UNL A   1      38.232  32.998  29.994  1.00  0.00     0.037 A 
ATOM     54  C   UNL A   1      44.866  30.046  29.738  1.00  0.00     0.037 A 
ATOM     55  C   UNL A   1      39.464  33.544  30.458  1.00  0.00     0.049 A 
ATOM     56  C   UNL A   1      44.727  31.531  29.504  1.00  0.00     0.074 A 
ATOM     57  C   UNL A   1      40.061  33.518  31.704  1.00  0.00     0.029 A 
ATOM     58  N   UNL A   1      40.442  33.816  29.530  1.00  0.00    -0.354 N 
ATOM     59  N   UNL A   1      43.641  32.213  29.745  1.00  0.00    -0.248 NA
ATOM     60  C   UNL A   1      45.799  32.373  28.983  1.00  0.00     0.031 C 
ATOM     61  C   UNL A   1      41.439  33.763  31.517  1.00  0.00     0.029 A 
ATOM     62  C   UNL A   1      41.647  33.990  30.168  1.00  0.00     0.049 A 
ATOM     63  H   UNL A   1      40.301  33.875  28.558  1.00  0.00     0.167 HD
ATOM     64  C   UNL A   1      43.814  33.519  29.355  1.00  0.00     0.074 A 
ATOM     65  C   UNL A   1      45.197  33.576  28.930  1.00  0.00     0.031 C 
ATOM     66  C   UNL A   1      42.789  34.422  29.394  1.00  0.00     0.037 A 
BRANCH  53  67
ATOM     67  C   UNL A   1      36.828  33.514  30.298  1.00  0.00     0.058 A 
ATOM     68  C   UNL A   1      35.933  33.870  29.275  1.00  0.00     0.135 A 
ATOM     69  C   UNL A   1      36.373  33.788  31.613  1.00  0.00     0.135 A 
ATOM     70  F   UNL A   1      36.222  33.628  27.989  1.00  0.00    -0.206 F 
ATOM     71  C   UNL A   1      34.729  34.541  29.522  1.00  0.00     0.059 A 
ATOM     72  C   UNL A   1      35.196  34.504  31.884  1.00  0.00     0.059 A 
ATOM     73  F   UNL A   1      37.118  33.439  32.676  1.00  0.00    -0.206 F 
ATOM     74  C   UNL A   1      34.382  34.887  30.825  1.00  0.00     0.060 A 
BRANCH  74  75
ATOM     75  S   UNL A   1      32.909  35.905  31.096  1.00  0.00     0.124 S 
ATOM     76  O   UNL A   1      33.463  37.108  31.712  1.00  0.00    -0.237 OA
ATOM     77  O   UNL A   1      32.397  36.069  29.740  1.00  0.00    -0.237 OA
ATOM     78  O   UNL A   1      32.086  35.089  31.985  1.00  0.00    -0.744 OA
ENDBRANCH  74  75
ENDBRANCH  53  67
BRANCH  54  79
ATOM     79  C   UNL A   1      45.517  29.046  28.844  1.00  0.00     0.058 A 
ATOM     80  C   UNL A   1      44.983  28.894  27.547  1.00  0.00     0.135 A 
ATOM     81  C   UNL A   1      46.815  28.559  29.059  1.00  0.00     0.135 A 
ATOM     82  F   UNL A   1      43.741  29.332  27.279  1.00  0.00    -0.206 F 
ATOM     83  C   UNL A   1      45.741  28.421  26.482  1.00  0.00     0.059 A 
ATOM     84  C   UNL A   1      47.594  28.063  28.002  1.00  0.00     0.059 A 
ATOM     85  F   UNL A   1      47.394  28.692  30.260  1.00  0.00    -0.206 F 
ATOM     86  C   UNL A   1      47.065  28.055  26.709  1.00  0.00     0.060 A 
BRANCH  86  87
ATOM     87  S   UNL A   1      48.106  27.769  25.253  1.00  0.00     0.124 S 
ATOM     88  O   UNL A   1      49.360  28.401  25.643  1.00  0.00    -0.237 OA
ATOM     89  O   UNL A   1      48.124  26.309  25.197  1.00  0.00    -0.237 OA
ATOM     90  O   UNL A   1      47.369  28.431  24.182  1.00  0.00    -0.744 OA
ENDBRANCH  86  87
ENDBRANCH  54  79
BRANCH  66  91
ATOM     91  C   UNL A   1      42.705  35.802  28.761  1.00  0.00     0.058 A 
ATOM     92  C   UNL A   1      42.125  36.073  27.515  1.00  0.00     0.135 A 
ATOM     93  C   UNL A   1      43.084  36.958  29.506  1.00  0.00     0.135 A 
ATOM     94  F   UNL A   1      41.631  35.097  26.743  1.00  0.00    -0.206 F 
ATOM     95  C   UNL A   1      41.988  37.373  27.018  1.00  0.00     0.059 A 
ATOM     96  C   UNL A   1      42.883  38.260  29.065  1.00  0.00     0.059 A 
ATOM     97  F   UNL A   1      43.665  36.870  30.712  1.00  0.00    -0.206 F 
ATOM     98  C   UNL A   1      42.367  38.460  27.799  1.00  0.00     0.060 A 
BRANCH  98  99
ATOM     99  S   UNL A   1      42.174  40.136  27.178  1.00  0.00     0.124 S 
ATOM    100  O   UNL A   1      41.414  40.757  28.259  1.00  0.00    -0.237 OA
ATOM    101  O   UNL A   1      43.553  40.594  27.037  1.00  0.00    -0.237 OA
ATOM    102  O   UNL A   1      41.453  39.949  25.924  1.00  0.00    -0.744 OA
ENDBRANCH  98  99
ENDBRANCH  66  91
ENDBRANCH  40  41
ENDBRANCH  33  35
ENDBRANCH  32  33
ENDBRANCH  31  32
ENDBRANCH  30  31
ENDBRANCH  29  30
ENDBRANCH   1  29
TORSDOF 22
ENDMDL
MODEL 3
REMARK VINA RESULT:     -11.4      4.739     14.059
REMARK SMILES Cc1ccc(S(=O)(=O)N2c3ccc(C(=O)OCCOCCOCCOC(=O)c4ccc(-c5c6nc(c(-c7c(F)cc(S(=O)(=O)[O-])cc7F)c7ccc([nH]7)c(-c7c(F)cc(S(=O)(=O)[O-])cc7F)c7nc(c(-c8c(F)cc(S(=O)(=O)[O-])cc8F)c8ccc5[nH]8)C=C7)C=C6)cc4)cc3C[C@H]2C)cc1
REMARK SMILES IDX 21 1 20 2 19 3 18 4 17 5 16 6 14 7 15 8 13 9 9 10 10 11
REMARK SMILES IDX 97 12 11 13 95 14 96 15 98 16 12 17 94 18 6 19 7 20 8 21
REMARK SMILES IDX 5 22 1 23 2 24 3 25 100 26 4 27 99 28 22 29 23 30 24 31
REMARK SMILES IDX 25 32 26 33 27 34 28 35 29 36 93 37 30 38 92 39 31 40 32 41
REMARK SMILES IDX 33 42 86 43 34 44 91 45 85 46 87 47 35 48 90 49 84 50 83 51
REMARK SMILES IDX 36 53 70 54 49 55 69 56 50 57 53 58 68 59 88 60 51 61 52 62
REMARK SMILES IDX 67 64 89 65 54 66 37 67 38 68 47 69 39 70 40 71 46 72 48 73
REMARK SMILES IDX 41 74 42 75 43 76 44 77 45 78 71 79 72 80 81 81 73 82 74 83
REMARK SMILES IDX 80 84 82 85 75 86 76 87 77 88 78 89 79 90 55 91 56 92 65 93
REMARK SMILES IDX 57 94 58 95 64 96 66 97 59 98 60 99 61 100 62 101 63 102
REMARK H PARENT 87 52 53 63
REMARK Flexibility Score: inf
ROOT
ATOM      1  C   UNL A   1      37.166  34.542  33.117  1.00  0.00     0.188 C 
ENDROOT
BRANCH   1   2
ATOM      2  C   UNL A   1      38.566  34.629  33.725  1.00  0.00     0.188 C 
BRANCH   2   3
ATOM      3  O   UNL A   1      38.864  35.505  34.836  1.00  0.00    -0.376 OA
BRANCH   3   4
ATOM      4  C   UNL A   1      40.182  35.743  35.359  1.00  0.00     0.202 C 
BRANCH   4   5
ATOM      5  C   UNL A   1      41.577  35.518  34.456  1.00  0.00     0.261 C 
BRANCH   5   6
ATOM      6  O   UNL A   1      42.645  36.659  33.712  1.00  0.00    -0.460 OA
BRANCH   6   7
ATOM      7  C   UNL A   1      44.014  36.758  33.290  1.00  0.00     0.338 C 
ATOM      8  O   UNL A   1      45.037  36.469  33.906  1.00  0.00    -0.246 OA
BRANCH   7   9
ATOM      9  C   UNL A   1      44.556  37.152  31.954  1.00  0.00     0.060 A 
ATOM     10  N   UNL A   1      44.803  36.951  27.689  1.00  0.00    -0.263 N 
ATOM     11  C   UNL A   1      44.823  36.943  29.141  1.00  0.00     0.055 A 
ATOM     12  C   UNL A   1      43.972  38.197  27.354  1.00  0.00     0.101 C 
ATOM     13  C   UNL A   1      45.625  36.174  29.976  1.00  0.00     0.028 A 
ATOM     14  C   UNL A   1      43.862  37.789  29.665  1.00  0.00    -0.021 A 
ATOM     15  C   UNL A   1      43.032  38.399  28.569  1.00  0.00     0.063 C 
ATOM     16  C   UNL A   1      44.932  39.388  27.201  1.00  0.00     0.032 C 
ATOM     17  C   UNL A   1      45.486  36.276  31.378  1.00  0.00     0.018 A 
ATOM     18  C   UNL A   1      43.690  37.852  31.047  1.00  0.00     0.021 A 
BRANCH  10  19
ATOM     19  S   UNL A   1      44.128  35.485  27.035  1.00  0.00     0.264 S 
ATOM     20  O   UNL A   1      45.142  34.451  27.054  1.00  0.00    -0.201 OA
ATOM     21  O   UNL A   1      43.391  35.812  25.830  1.00  0.00    -0.201 OA
BRANCH  19  22
ATOM     22  C   UNL A   1      42.875  34.945  28.191  1.00  0.00     0.088 A 
ATOM     23  C   UNL A   1      40.047  33.450  31.076  1.00  0.00     0.044 C 
ATOM     24  C   UNL A   1      41.027  33.974  30.069  1.00  0.00    -0.051 A 
ATOM     25  C   UNL A   1      42.300  33.403  29.975  1.00  0.00     0.005 A 
ATOM     26  C   UNL A   1      40.679  35.013  29.194  1.00  0.00     0.005 A 
ATOM     27  C   UNL A   1      43.221  33.888  29.046  1.00  0.00     0.022 A 
ATOM     28  C   UNL A   1      41.597  35.495  28.253  1.00  0.00     0.022 A 
ENDBRANCH  19  22
ENDBRANCH  10  19
ENDBRANCH   7   9
ENDBRANCH   6   7
ENDBRANCH   5   6
ENDBRANCH   4   5
ENDBRANCH   3   4
ENDBRANCH   2   3
ENDBRANCH   1   2
BRANCH   1  29
ATOM     29  O   UNL A   1      36.896  33.200  32.764  1.00  0.00    -0.376 OA
BRANCH  29  30
ATOM     30  C   UNL A   1      35.547  32.849  32.550  1.00  0.00     0.202 C 
BRANCH  30  31
ATOM     31  C   UNL A   1      35.096  33.150  31.113  1.00  0.00     0.261 C 
BRANCH  31  32
ATOM     32  O   UNL A   1      35.993  32.553  30.141  1.00  0.00    -0.460 OA
BRANCH  32  33
ATOM     33  C   UNL A   1      35.471  31.609  29.277  1.00  0.00     0.338 C 
ATOM     34  O   UNL A   1      34.442  31.807  28.649  1.00  0.00    -0.246 OA
BRANCH  33  35
ATOM     35  C   UNL A   1      36.372  30.398  29.192  1.00  0.00     0.060 A 
ATOM     36  C   UNL A   1      36.745  29.472  30.177  1.00  0.00     0.016 A 
ATOM     37  C   UNL A   1      37.104  30.315  28.065  1.00  0.00     0.016 A 
ATOM     38  C   UNL A   1      37.940  28.593  30.049  1.00  0.00     0.010 A 
ATOM     39  C   UNL A   1      38.344  29.679  28.176  1.00  0.00     0.010 A 
ATOM     40  C   UNL A   1      38.855  28.674  28.987  1.00  0.00    -0.014 A 
BRANCH  40  41
ATOM     41  C   UNL A   1      40.346  28.026  28.799  1.00  0.00     0.031 A 
ATOM     42  C   UNL A   1      40.957  26.573  28.183  1.00  0.00     0.074 A 
ATOM     43  C   UNL A   1      41.363  28.755  29.321  1.00  0.00     0.049 A 
ATOM     44  N   UNL A   1      41.829  25.807  28.826  1.00  0.00    -0.248 NA
ATOM     45  C   UNL A   1      40.677  25.855  26.884  1.00  0.00     0.031 C 
ATOM     46  C   UNL A   1      42.796  28.524  29.148  1.00  0.00     0.029 A 
ATOM     47  N   UNL A   1      41.297  29.814  30.231  1.00  0.00    -0.354 N 
ATOM     48  C   UNL A   1      42.129  24.677  28.034  1.00  0.00     0.074 A 
ATOM     49  C   UNL A   1      41.264  24.679  26.931  1.00  0.00     0.031 C 
ATOM     50  C   UNL A   1      43.461  29.203  30.094  1.00  0.00     0.029 A 
ATOM     51  C   UNL A   1      42.480  29.800  30.979  1.00  0.00     0.049 A 
ATOM     52  H   UNL A   1      40.553  30.451  30.329  1.00  0.00     0.167 HD
ATOM     53  C   UNL A   1      43.208  23.854  28.118  1.00  0.00     0.037 A 
ATOM     54  C   UNL A   1      42.471  29.722  32.337  1.00  0.00     0.037 A 
ATOM     55  C   UNL A   1      44.158  24.428  29.011  1.00  0.00     0.049 A 
ATOM     56  C   UNL A   1      43.242  28.540  32.873  1.00  0.00     0.074 A 
ATOM     57  C   UNL A   1      45.172  25.342  28.797  1.00  0.00     0.029 A 
ATOM     58  N   UNL A   1      43.863  24.435  30.354  1.00  0.00    -0.354 N 
ATOM     59  N   UNL A   1      43.637  27.531  32.146  1.00  0.00    -0.248 NA
ATOM     60  C   UNL A   1      43.634  28.395  34.271  1.00  0.00     0.031 C 
ATOM     61  C   UNL A   1      45.482  25.927  30.046  1.00  0.00     0.029 A 
ATOM     62  C   UNL A   1      44.692  25.319  31.004  1.00  0.00     0.049 A 
ATOM     63  H   UNL A   1      43.164  23.891  30.784  1.00  0.00     0.167 HD
ATOM     64  C   UNL A   1      44.242  26.590  32.943  1.00  0.00     0.074 A 
ATOM     65  C   UNL A   1      44.257  27.201  34.255  1.00  0.00     0.031 C 
ATOM     66  C   UNL A   1      44.647  25.382  32.448  1.00  0.00     0.037 A 
BRANCH  53  67
ATOM     67  C   UNL A   1      43.474  22.792  27.053  1.00  0.00     0.058 A 
ATOM     68  C   UNL A   1      42.832  21.543  27.078  1.00  0.00     0.135 A 
ATOM     69  C   UNL A   1      44.466  22.936  26.050  1.00  0.00     0.135 A 
ATOM     70  F   UNL A   1      41.847  21.289  27.950  1.00  0.00    -0.206 F 
ATOM     71  C   UNL A   1      43.212  20.481  26.247  1.00  0.00     0.059 A 
ATOM     72  C   UNL A   1      44.898  21.873  25.241  1.00  0.00     0.059 A 
ATOM     73  F   UNL A   1      45.108  24.107  25.892  1.00  0.00    -0.206 F 
ATOM     74  C   UNL A   1      44.269  20.640  25.355  1.00  0.00     0.060 A 
BRANCH  74  75
ATOM     75  S   UNL A   1      44.848  19.201  24.421  1.00  0.00     0.124 S 
ATOM     76  O   UNL A   1      46.270  19.157  24.756  1.00  0.00    -0.237 OA
ATOM     77  O   UNL A   1      44.035  18.126  24.979  1.00  0.00    -0.237 OA
ATOM     78  O   UNL A   1      44.560  19.553  23.033  1.00  0.00    -0.744 OA
ENDBRANCH  74  75
ENDBRANCH  53  67
BRANCH  54  79
ATOM     79  C   UNL A   1      41.302  30.401  32.966  1.00  0.00     0.058 A 
ATOM     80  C   UNL A   1      40.178  29.605  33.268  1.00  0.00     0.135 A 
ATOM     81  C   UNL A   1      41.397  31.641  33.615  1.00  0.00     0.135 A 
ATOM     82  F   UNL A   1      40.024  28.409  32.674  1.00  0.00    -0.206 F 
ATOM     83  C   UNL A   1      39.272  29.946  34.266  1.00  0.00     0.059 A 
ATOM     84  C   UNL A   1      40.485  32.015  34.615  1.00  0.00     0.059 A 
ATOM     85  F   UNL A   1      42.451  32.439  33.395  1.00  0.00    -0.206 F 
ATOM     86  C   UNL A   1      39.463  31.131  34.971  1.00  0.00     0.060 A 
BRANCH  86  87
ATOM     87  S   UNL A   1      38.471  31.372  36.469  1.00  0.00     0.124 S 
ATOM     88  O   UNL A   1      37.376  32.203  35.982  1.00  0.00    -0.237 OA
ATOM     89  O   UNL A   1      38.118  29.994  36.802  1.00  0.00    -0.237 OA
ATOM     90  O   UNL A   1      39.402  32.023  37.384  1.00  0.00    -0.744 OA
ENDBRANCH  86  87
ENDBRANCH  54  79
BRANCH  66  91
ATOM     91  C   UNL A   1      45.070  24.131  33.201  1.00  0.00     0.058 A 
ATOM     92  C   UNL A   1      46.361  23.892  33.689  1.00  0.00     0.135 A 
ATOM     93  C   UNL A   1      44.093  23.172  33.604  1.00  0.00     0.135 A 
ATOM     94  F   UNL A   1      47.362  24.755  33.476  1.00  0.00    -0.206 F 
ATOM     95  C   UNL A   1      46.677  22.767  34.457  1.00  0.00     0.059 A 
ATOM     96  C   UNL A   1      44.370  22.092  34.434  1.00  0.00     0.059 A 
ATOM     97  F   UNL A   1      42.813  23.250  33.211  1.00  0.00    -0.206 F 
ATOM     98  C   UNL A   1      45.675  21.875  34.827  1.00  0.00     0.060 A 
BRANCH  98  99
ATOM     99  S   UNL A   1      46.067  20.437  35.833  1.00  0.00     0.124 S 
ATOM    100  O   UNL A   1      45.634  20.885  37.154  1.00  0.00    -0.237 OA
ATOM    101  O   UNL A   1      45.256  19.384  35.230  1.00  0.00    -0.237 OA
ATOM    102  O   UNL A   1      47.508  20.286  35.658  1.00  0.00    -0.744 OA
ENDBRANCH  98  99
ENDBRANCH  66  91
ENDBRANCH  40  41
ENDBRANCH  33  35
ENDBRANCH  32  33
ENDBRANCH  31  32
ENDBRANCH  30  31
ENDBRANCH  29  30
ENDBRANCH   1  29
TORSDOF 22
ENDMDL
