MODEL 1
REMARK VINA RESULT:      -9.9      0.000      0.000
REMARK SMILES C[C@H]1SC[C@H](C(=O)OCCOCCOCCOC(=O)c2ccc(-c3c4nc(c(-c5c(F)cc(S(=O)(=O)[O-])cc5F)c5ccc([nH]5)c(-c5c(F)cc(S(=O)(=O)[O-])cc5F)c5nc(c(-c6c(F)cc(S(=O)(=O)[O-])cc6F)c6ccc3[nH]6)C=C5)C=C4)cc2)N1C(=O)[C@@H]1CSc2ccccc21
REMARK SMILES IDX 13 1 12 2 11 3 10 4 9 5 8 6 6 7 7 8 5 9 1 10 2 11 3 12 86 13
REMARK SMILES IDX 4 14 87 15 88 16 89 17 90 18 97 19 91 20 92 21 96 22 93 23
REMARK SMILES IDX 95 24 94 25 14 26 15 27 16 28 17 29 18 30 19 31 20 32 21 33
REMARK SMILES IDX 85 34 22 35 84 36 23 37 24 38 25 39 78 40 26 41 83 42 77 43
REMARK SMILES IDX 79 44 27 45 82 46 76 47 75 48 28 50 62 51 41 52 61 53 42 54
REMARK SMILES IDX 45 55 60 56 80 57 43 58 44 59 59 61 81 62 46 63 29 64 30 65
REMARK SMILES IDX 39 66 31 67 32 68 38 69 40 70 33 71 34 72 35 73 36 74 37 75
REMARK SMILES IDX 63 76 64 77 73 78 65 79 66 80 72 81 74 82 67 83 68 84 69 85
REMARK SMILES IDX 70 86 71 87 47 88 48 89 57 90 49 91 50 92 56 93 58 94 51 95
REMARK SMILES IDX 52 96 53 97 54 98 55 99
REMARK H PARENT 79 49 45 60
REMARK Flexibility Score: inf
ROOT
ATOM      1  C   UNL A   1      30.904  28.878  24.426  1.00  0.00     0.188 C 
ENDROOT
BRANCH   1   2
ATOM      2  C   UNL A   1      31.533  28.509  23.078  1.00  0.00     0.188 C 
BRANCH   2   3
ATOM      3  O   UNL A   1      32.941  28.627  22.899  1.00  0.00    -0.376 OA
BRANCH   3   4
ATOM      4  C   UNL A   1      33.835  27.714  23.516  1.00  0.00     0.202 C 
BRANCH   4   5
ATOM      5  C   UNL A   1      33.377  26.261  23.694  1.00  0.00     0.261 C 
BRANCH   5   6
ATOM      6  O   UNL A   1      34.430  25.299  23.863  1.00  0.00    -0.462 OA
BRANCH   6   7
ATOM      7  C   UNL A   1      34.694  24.923  25.148  1.00  0.00     0.329 C 
ATOM      8  O   UNL A   1      34.108  25.349  26.136  1.00  0.00    -0.250 OA
BRANCH   7   9
ATOM      9  C   UNL A   1      35.841  23.893  25.241  1.00  0.00     0.206 C 
ATOM     10  C   UNL A   1      37.155  21.382  24.026  1.00  0.00     0.043 C 
ATOM     11  C   UNL A   1      36.744  21.691  25.463  1.00  0.00     0.141 C 
ATOM     12  S   UNL A   1      38.018  22.705  26.277  1.00  0.00    -0.135 SA
ATOM     13  N   UNL A   1      35.527  22.492  25.563  1.00  0.00    -0.316 N 
ATOM     14  C   UNL A   1      37.088  24.250  26.058  1.00  0.00     0.109 C 
BRANCH  13  15
ATOM     15  C   UNL A   1      34.388  22.204  26.304  1.00  0.00     0.232 C 
ATOM     16  O   UNL A   1      34.397  22.278  27.539  1.00  0.00    -0.274 OA
BRANCH  15  17
ATOM     17  C   UNL A   1      33.106  21.659  25.677  1.00  0.00     0.120 C 
ATOM     18  C   UNL A   1      33.468  21.048  24.314  1.00  0.00     0.093 C 
ATOM     19  C   UNL A   1      31.982  22.640  25.514  1.00  0.00    -0.021 A 
ATOM     20  S   UNL A   1      32.308  21.684  23.063  1.00  0.00    -0.125 SA
ATOM     21  C   UNL A   1      31.548  22.807  24.197  1.00  0.00     0.011 A 
ATOM     22  C   UNL A   1      31.477  23.438  26.537  1.00  0.00     0.006 A 
ATOM     23  C   UNL A   1      30.733  23.874  23.857  1.00  0.00     0.015 A 
ATOM     24  C   UNL A   1      30.630  24.493  26.204  1.00  0.00     0.000 A 
ATOM     25  C   UNL A   1      30.290  24.732  24.866  1.00  0.00     0.001 A 
ENDBRANCH  15  17
ENDBRANCH  13  15
ENDBRANCH   7   9
ENDBRANCH   6   7
ENDBRANCH   5   6
ENDBRANCH   4   5
ENDBRANCH   3   4
ENDBRANCH   2   3
ENDBRANCH   1   2
BRANCH   1  26
ATOM     26  O   UNL A   1      31.221  30.169  24.890  1.00  0.00    -0.376 OA
BRANCH  26  27
ATOM     27  C   UNL A   1      31.812  30.273  26.168  1.00  0.00     0.202 C 
BRANCH  27  28
ATOM     28  C   UNL A   1      33.345  30.238  26.206  1.00  0.00     0.261 C 
BRANCH  28  29
ATOM     29  O   UNL A   1      33.944  29.844  27.454  1.00  0.00    -0.460 OA
BRANCH  29  30
ATOM     30  C   UNL A   1      34.636  30.775  28.151  1.00  0.00     0.338 C 
ATOM     31  O   UNL A   1      34.182  31.783  28.666  1.00  0.00    -0.246 OA
BRANCH  30  32
ATOM     32  C   UNL A   1      35.998  30.232  28.390  1.00  0.00     0.060 A 
ATOM     33  C   UNL A   1      36.349  29.789  29.676  1.00  0.00     0.016 A 
ATOM     34  C   UNL A   1      36.911  30.116  27.341  1.00  0.00     0.016 A 
ATOM     35  C   UNL A   1      37.616  29.238  29.913  1.00  0.00     0.010 A 
ATOM     36  C   UNL A   1      38.184  29.590  27.585  1.00  0.00     0.010 A 
ATOM     37  C   UNL A   1      38.552  29.161  28.874  1.00  0.00    -0.014 A 
BRANCH  37  38
ATOM     38  C   UNL A   1      39.968  28.785  29.132  1.00  0.00     0.031 A 
ATOM     39  C   UNL A   1      40.919  29.855  29.598  1.00  0.00     0.074 A 
ATOM     40  C   UNL A   1      40.423  27.538  28.901  1.00  0.00     0.049 A 
ATOM     41  N   UNL A   1      42.220  29.818  29.714  1.00  0.00    -0.248 NA
ATOM     42  C   UNL A   1      40.316  31.143  29.978  1.00  0.00     0.031 C 
ATOM     43  C   UNL A   1      39.605  26.400  28.490  1.00  0.00     0.029 A 
ATOM     44  N   UNL A   1      41.702  27.034  28.947  1.00  0.00    -0.354 N 
ATOM     45  C   UNL A   1      42.597  31.083  30.150  1.00  0.00     0.074 A 
ATOM     46  C   UNL A   1      41.386  31.866  30.275  1.00  0.00     0.031 C 
ATOM     47  C   UNL A   1      40.406  25.340  28.283  1.00  0.00     0.029 A 
ATOM     48  C   UNL A   1      41.798  25.735  28.499  1.00  0.00     0.049 A 
ATOM     49  H   UNL A   1      42.475  27.552  29.268  1.00  0.00     0.167 HD
ATOM     50  C   UNL A   1      43.839  31.551  30.415  1.00  0.00     0.037 A 
ATOM     51  C   UNL A   1      42.883  24.973  28.246  1.00  0.00     0.037 A 
ATOM     52  C   UNL A   1      45.040  30.766  30.297  1.00  0.00     0.049 A 
ATOM     53  C   UNL A   1      44.264  25.539  28.477  1.00  0.00     0.074 A 
ATOM     54  C   UNL A   1      46.340  31.140  30.590  1.00  0.00     0.029 A 
ATOM     55  N   UNL A   1      45.095  29.460  29.834  1.00  0.00    -0.354 N 
ATOM     56  N   UNL A   1      44.607  26.723  28.928  1.00  0.00    -0.248 NA
ATOM     57  C   UNL A   1      45.408  24.671  28.156  1.00  0.00     0.031 C 
ATOM     58  C   UNL A   1      47.188  30.084  30.245  1.00  0.00     0.029 A 
ATOM     59  C   UNL A   1      46.410  29.029  29.795  1.00  0.00     0.049 A 
ATOM     60  H   UNL A   1      44.315  28.921  29.572  1.00  0.00     0.167 HD
ATOM     61  C   UNL A   1      45.999  26.732  28.964  1.00  0.00     0.074 A 
ATOM     62  C   UNL A   1      46.438  25.432  28.504  1.00  0.00     0.031 C 
ATOM     63  C   UNL A   1      46.838  27.728  29.344  1.00  0.00     0.037 A 
BRANCH  50  64
ATOM     64  C   UNL A   1      43.976  32.990  30.824  1.00  0.00     0.058 A 
ATOM     65  C   UNL A   1      44.126  34.020  29.883  1.00  0.00     0.135 A 
ATOM     66  C   UNL A   1      43.894  33.348  32.180  1.00  0.00     0.135 A 
ATOM     67  F   UNL A   1      44.227  33.732  28.576  1.00  0.00    -0.206 F 
ATOM     68  C   UNL A   1      44.206  35.353  30.273  1.00  0.00     0.059 A 
ATOM     69  C   UNL A   1      43.945  34.676  32.591  1.00  0.00     0.059 A 
ATOM     70  F   UNL A   1      43.756  32.400  33.122  1.00  0.00    -0.206 F 
ATOM     71  C   UNL A   1      44.111  35.671  31.630  1.00  0.00     0.060 A 
BRANCH  71  72
ATOM     72  S   UNL A   1      44.195  37.407  32.115  1.00  0.00     0.124 S 
ATOM     73  O   UNL A   1      43.286  37.434  33.256  1.00  0.00    -0.237 OA
ATOM     74  O   UNL A   1      45.610  37.575  32.428  1.00  0.00    -0.237 OA
ATOM     75  O   UNL A   1      43.731  38.117  30.927  1.00  0.00    -0.744 OA
ENDBRANCH  71  72
ENDBRANCH  50  64
BRANCH  51  76
ATOM     76  C   UNL A   1      42.720  23.600  27.690  1.00  0.00     0.058 A 
ATOM     77  C   UNL A   1      42.635  23.379  26.308  1.00  0.00     0.135 A 
ATOM     78  C   UNL A   1      42.618  22.482  28.536  1.00  0.00     0.135 A 
ATOM     79  F   UNL A   1      42.706  24.414  25.458  1.00  0.00    -0.206 F 
ATOM     80  C   UNL A   1      42.437  22.105  25.783  1.00  0.00     0.059 A 
ATOM     81  C   UNL A   1      42.451  21.195  28.033  1.00  0.00     0.059 A 
ATOM     82  F   UNL A   1      42.694  22.635  29.866  1.00  0.00    -0.206 F 
ATOM     83  C   UNL A   1      42.350  21.018  26.654  1.00  0.00     0.060 A 
BRANCH  83  84
ATOM     84  S   UNL A   1      42.130  19.365  25.959  1.00  0.00     0.124 S 
ATOM     85  O   UNL A   1      42.596  18.520  27.053  1.00  0.00    -0.237 OA
ATOM     86  O   UNL A   1      40.695  19.333  25.695  1.00  0.00    -0.237 OA
ATOM     87  O   UNL A   1      42.979  19.384  24.771  1.00  0.00    -0.744 OA
ENDBRANCH  83  84
ENDBRANCH  51  76
BRANCH  63  88
ATOM     88  C   UNL A   1      48.319  27.459  29.310  1.00  0.00     0.058 A 
ATOM     89  C   UNL A   1      49.085  27.687  28.156  1.00  0.00     0.135 A 
ATOM     90  C   UNL A   1      48.996  27.059  30.475  1.00  0.00     0.135 A 
ATOM     91  F   UNL A   1      48.489  28.062  27.014  1.00  0.00    -0.206 F 
ATOM     92  C   UNL A   1      50.468  27.523  28.156  1.00  0.00     0.059 A 
ATOM     93  C   UNL A   1      50.380  26.917  30.506  1.00  0.00     0.059 A 
ATOM     94  F   UNL A   1      48.314  26.838  31.611  1.00  0.00    -0.206 F 
ATOM     95  C   UNL A   1      51.108  27.147  29.339  1.00  0.00     0.060 A 
BRANCH  95  96
ATOM     96  S   UNL A   1      52.908  27.005  29.342  1.00  0.00     0.124 S 
ATOM     97  O   UNL A   1      53.124  26.002  30.379  1.00  0.00    -0.237 OA
ATOM     98  O   UNL A   1      53.188  26.574  27.975  1.00  0.00    -0.237 OA
ATOM     99  O   UNL A   1      53.357  28.355  29.671  1.00  0.00    -0.744 OA
ENDBRANCH  95  96
ENDBRANCH  63  88
ENDBRANCH  37  38
ENDBRANCH  30  32
ENDBRANCH  29  30
ENDBRANCH  28  29
ENDBRANCH  27  28
ENDBRANCH  26  27
ENDBRANCH   1  26
TORSDOF 22
ENDMDL
MODEL 2
REMARK VINA RESULT:      -9.9      2.571      4.006
REMARK SMILES C[C@H]1SC[C@H](C(=O)OCCOCCOCCOC(=O)c2ccc(-c3c4nc(c(-c5c(F)cc(S(=O)(=O)[O-])cc5F)c5ccc([nH]5)c(-c5c(F)cc(S(=O)(=O)[O-])cc5F)c5nc(c(-c6c(F)cc(S(=O)(=O)[O-])cc6F)c6ccc3[nH]6)C=C5)C=C4)cc2)N1C(=O)[C@@H]1CSc2ccccc21
REMARK SMILES IDX 13 1 12 2 11 3 10 4 9 5 8 6 6 7 7 8 5 9 1 10 2 11 3 12 86 13
REMARK SMILES IDX 4 14 87 15 88 16 89 17 90 18 97 19 91 20 92 21 96 22 93 23
REMARK SMILES IDX 95 24 94 25 14 26 15 27 16 28 17 29 18 30 19 31 20 32 21 33
REMARK SMILES IDX 85 34 22 35 84 36 23 37 24 38 25 39 78 40 26 41 83 42 77 43
REMARK SMILES IDX 79 44 27 45 82 46 76 47 75 48 28 50 62 51 41 52 61 53 42 54
REMARK SMILES IDX 45 55 60 56 80 57 43 58 44 59 59 61 81 62 46 63 29 64 30 65
REMARK SMILES IDX 39 66 31 67 32 68 38 69 40 70 33 71 34 72 35 73 36 74 37 75
REMARK SMILES IDX 63 76 64 77 73 78 65 79 66 80 72 81 74 82 67 83 68 84 69 85
REMARK SMILES IDX 70 86 71 87 47 88 48 89 57 90 49 91 50 92 56 93 58 94 51 95
REMARK SMILES IDX 52 96 53 97 54 98 55 99
REMARK H PARENT 79 49 45 60
REMARK Flexibility Score: inf
ROOT
ATOM      1  C   UNL A   1      34.124  31.137  27.644  1.00  0.00     0.188 C 
ENDROOT
BRANCH   1   2
ATOM      2  C   UNL A   1      34.538  29.842  26.936  1.00  0.00     0.188 C 
BRANCH   2   3
ATOM      3  O   UNL A   1      33.553  28.866  26.616  1.00  0.00    -0.376 OA
BRANCH   3   4
ATOM      4  C   UNL A   1      32.483  28.588  27.505  1.00  0.00     0.202 C 
BRANCH   4   5
ATOM      5  C   UNL A   1      31.474  27.504  27.104  1.00  0.00     0.261 C 
BRANCH   5   6
ATOM      6  O   UNL A   1      30.834  27.697  25.832  1.00  0.00    -0.462 OA
BRANCH   6   7
ATOM      7  C   UNL A   1      30.846  26.623  24.990  1.00  0.00     0.329 C 
ATOM      8  O   UNL A   1      30.204  25.593  25.159  1.00  0.00    -0.250 OA
BRANCH   7   9
ATOM      9  C   UNL A   1      31.779  26.831  23.777  1.00  0.00     0.206 C 
ATOM     10  C   UNL A   1      32.819  25.704  21.102  1.00  0.00     0.043 C 
ATOM     11  C   UNL A   1      33.575  26.238  22.316  1.00  0.00     0.141 C 
ATOM     12  S   UNL A   1      33.637  28.056  22.269  1.00  0.00    -0.135 SA
ATOM     13  N   UNL A   1      32.928  25.932  23.589  1.00  0.00    -0.316 N 
ATOM     14  C   UNL A   1      32.290  28.245  23.474  1.00  0.00     0.109 C 
BRANCH  13  15
ATOM     15  C   UNL A   1      33.495  25.314  24.696  1.00  0.00     0.232 C 
ATOM     16  O   UNL A   1      34.170  25.959  25.507  1.00  0.00    -0.274 OA
BRANCH  15  17
ATOM     17  C   UNL A   1      33.444  23.804  24.921  1.00  0.00     0.120 C 
ATOM     18  C   UNL A   1      33.033  23.557  26.382  1.00  0.00     0.093 C 
ATOM     19  C   UNL A   1      34.703  23.047  24.611  1.00  0.00    -0.021 A 
ATOM     20  S   UNL A   1      34.185  22.354  27.116  1.00  0.00    -0.125 SA
ATOM     21  C   UNL A   1      35.230  22.336  25.691  1.00  0.00     0.011 A 
ATOM     22  C   UNL A   1      35.394  23.127  23.405  1.00  0.00     0.006 A 
ATOM     23  C   UNL A   1      36.521  21.836  25.639  1.00  0.00     0.015 A 
ATOM     24  C   UNL A   1      36.681  22.597  23.336  1.00  0.00     0.000 A 
ATOM     25  C   UNL A   1      37.254  21.988  24.460  1.00  0.00     0.001 A 
ENDBRANCH  15  17
ENDBRANCH  13  15
ENDBRANCH   7   9
ENDBRANCH   6   7
ENDBRANCH   5   6
ENDBRANCH   4   5
ENDBRANCH   3   4
ENDBRANCH   2   3
ENDBRANCH   1   2
BRANCH   1  26
ATOM     26  O   UNL A   1      35.072  32.176  27.573  1.00  0.00    -0.376 OA
BRANCH  26  27
ATOM     27  C   UNL A   1      35.054  33.144  28.601  1.00  0.00     0.202 C 
BRANCH  27  28
ATOM     28  C   UNL A   1      36.422  33.665  29.059  1.00  0.00     0.261 C 
BRANCH  28  29
ATOM     29  O   UNL A   1      36.919  33.141  30.305  1.00  0.00    -0.460 OA
BRANCH  29  30
ATOM     30  C   UNL A   1      36.767  31.818  30.546  1.00  0.00     0.338 C 
ATOM     31  O   UNL A   1      35.722  31.241  30.797  1.00  0.00    -0.246 OA
BRANCH  30  32
ATOM     32  C   UNL A   1      38.052  31.152  30.209  1.00  0.00     0.060 A 
ATOM     33  C   UNL A   1      38.974  30.876  31.231  1.00  0.00     0.016 A 
ATOM     34  C   UNL A   1      38.327  30.761  28.898  1.00  0.00     0.016 A 
ATOM     35  C   UNL A   1      40.175  30.214  30.940  1.00  0.00     0.010 A 
ATOM     36  C   UNL A   1      39.538  30.124  28.606  1.00  0.00     0.010 A 
ATOM     37  C   UNL A   1      40.477  29.859  29.619  1.00  0.00    -0.014 A 
BRANCH  37  38
ATOM     38  C   UNL A   1      41.823  29.352  29.240  1.00  0.00     0.031 A 
ATOM     39  C   UNL A   1      42.952  30.342  29.121  1.00  0.00     0.074 A 
ATOM     40  C   UNL A   1      42.036  28.055  28.946  1.00  0.00     0.049 A 
ATOM     41  N   UNL A   1      44.155  30.177  28.636  1.00  0.00    -0.248 NA
ATOM     42  C   UNL A   1      42.680  31.704  29.609  1.00  0.00     0.031 C 
ATOM     43  C   UNL A   1      41.046  26.988  29.061  1.00  0.00     0.029 A 
ATOM     44  N   UNL A   1      43.155  27.425  28.454  1.00  0.00    -0.354 N 
ATOM     45  C   UNL A   1      44.774  31.417  28.732  1.00  0.00     0.074 A 
ATOM     46  C   UNL A   1      43.812  32.327  29.318  1.00  0.00     0.031 C 
ATOM     47  C   UNL A   1      41.588  25.840  28.613  1.00  0.00     0.029 A 
ATOM     48  C   UNL A   1      42.946  26.101  28.136  1.00  0.00     0.049 A 
ATOM     49  H   UNL A   1      44.022  27.876  28.338  1.00  0.00     0.167 HD
ATOM     50  C   UNL A   1      46.027  31.768  28.359  1.00  0.00     0.037 A 
ATOM     51  C   UNL A   1      43.739  25.219  27.491  1.00  0.00     0.037 A 
ATOM     52  C   UNL A   1      46.983  30.859  27.782  1.00  0.00     0.049 A 
ATOM     53  C   UNL A   1      45.105  25.651  27.015  1.00  0.00     0.074 A 
ATOM     54  C   UNL A   1      48.293  31.112  27.417  1.00  0.00     0.029 A 
ATOM     55  N   UNL A   1      46.730  29.532  27.471  1.00  0.00    -0.354 N 
ATOM     56  N   UNL A   1      45.697  26.815  27.148  1.00  0.00    -0.248 NA
ATOM     57  C   UNL A   1      45.911  24.654  26.293  1.00  0.00     0.031 C 
ATOM     58  C   UNL A   1      48.813  29.957  26.826  1.00  0.00     0.029 A 
ATOM     59  C   UNL A   1      47.846  28.966  26.879  1.00  0.00     0.049 A 
ATOM     60  H   UNL A   1      45.882  29.063  27.643  1.00  0.00     0.167 HD
ATOM     61  C   UNL A   1      46.945  26.683  26.546  1.00  0.00     0.074 A 
ATOM     62  C   UNL A   1      47.034  25.322  26.062  1.00  0.00     0.031 C 
ATOM     63  C   UNL A   1      47.930  27.605  26.408  1.00  0.00     0.037 A 
BRANCH  50  64
ATOM     64  C   UNL A   1      46.433  33.206  28.523  1.00  0.00     0.058 A 
ATOM     65  C   UNL A   1      46.236  34.155  27.509  1.00  0.00     0.135 A 
ATOM     66  C   UNL A   1      46.973  33.650  29.742  1.00  0.00     0.135 A 
ATOM     67  F   UNL A   1      45.740  33.781  26.319  1.00  0.00    -0.206 F 
ATOM     68  C   UNL A   1      46.576  35.492  27.691  1.00  0.00     0.059 A 
ATOM     69  C   UNL A   1      47.296  34.986  29.956  1.00  0.00     0.059 A 
ATOM     70  F   UNL A   1      47.187  32.780  30.743  1.00  0.00    -0.206 F 
ATOM     71  C   UNL A   1      47.102  35.898  28.919  1.00  0.00     0.060 A 
BRANCH  71  72
ATOM     72  S   UNL A   1      47.516  37.640  29.145  1.00  0.00     0.124 S 
ATOM     73  O   UNL A   1      47.474  38.130  27.771  1.00  0.00    -0.237 OA
ATOM     74  O   UNL A   1      46.441  38.105  30.016  1.00  0.00    -0.237 OA
ATOM     75  O   UNL A   1      48.840  37.600  29.757  1.00  0.00    -0.744 OA
ENDBRANCH  71  72
ENDBRANCH  50  64
BRANCH  51  76
ATOM     76  C   UNL A   1      43.246  23.842  27.202  1.00  0.00     0.058 A 
ATOM     77  C   UNL A   1      43.353  22.816  28.153  1.00  0.00     0.135 A 
ATOM     78  C   UNL A   1      42.681  23.519  25.957  1.00  0.00     0.135 A 
ATOM     79  F   UNL A   1      43.902  23.066  29.350  1.00  0.00    -0.206 F 
ATOM     80  C   UNL A   1      42.936  21.517  27.875  1.00  0.00     0.059 A 
ATOM     81  C   UNL A   1      42.229  22.236  25.667  1.00  0.00     0.059 A 
ATOM     82  F   UNL A   1      42.554  24.462  25.011  1.00  0.00    -0.206 F 
ATOM     83  C   UNL A   1      42.372  21.238  26.629  1.00  0.00     0.060 A 
BRANCH  83  84
ATOM     84  S   UNL A   1      41.801  19.556  26.295  1.00  0.00     0.124 S 
ATOM     85  O   UNL A   1      42.178  18.867  27.524  1.00  0.00    -0.237 OA
ATOM     86  O   UNL A   1      40.371  19.755  26.087  1.00  0.00    -0.237 OA
ATOM     87  O   UNL A   1      42.554  19.176  25.103  1.00  0.00    -0.744 OA
ENDBRANCH  83  84
ENDBRANCH  51  76
BRANCH  63  88
ATOM     88  C   UNL A   1      49.207  27.184  25.731  1.00  0.00     0.058 A 
ATOM     89  C   UNL A   1      49.385  27.311  24.345  1.00  0.00     0.135 A 
ATOM     90  C   UNL A   1      50.301  26.736  26.492  1.00  0.00     0.135 A 
ATOM     91  F   UNL A   1      48.372  27.727  23.570  1.00  0.00    -0.206 F 
ATOM     92  C   UNL A   1      50.599  27.006  23.735  1.00  0.00     0.059 A 
ATOM     93  C   UNL A   1      51.532  26.451  25.908  1.00  0.00     0.059 A 
ATOM     94  F   UNL A   1      50.190  26.605  27.823  1.00  0.00    -0.206 F 
ATOM     95  C   UNL A   1      51.670  26.585  24.527  1.00  0.00     0.060 A 
BRANCH  95  96
ATOM     96  S   UNL A   1      53.257  26.257  23.731  1.00  0.00     0.124 S 
ATOM     97  O   UNL A   1      52.860  26.086  22.338  1.00  0.00    -0.237 OA
ATOM     98  O   UNL A   1      54.012  27.470  24.031  1.00  0.00    -0.237 OA
ATOM     99  O   UNL A   1      53.732  25.049  24.401  1.00  0.00    -0.744 OA
ENDBRANCH  95  96
ENDBRANCH  63  88
ENDBRANCH  37  38
ENDBRANCH  30  32
ENDBRANCH  29  30
ENDBRANCH  28  29
ENDBRANCH  27  28
ENDBRANCH  26  27
ENDBRANCH   1  26
TORSDOF 22
ENDMDL
MODEL 3
REMARK VINA RESULT:      -9.9      2.698      8.946
REMARK SMILES C[C@H]1SC[C@H](C(=O)OCCOCCOCCOC(=O)c2ccc(-c3c4nc(c(-c5c(F)cc(S(=O)(=O)[O-])cc5F)c5ccc([nH]5)c(-c5c(F)cc(S(=O)(=O)[O-])cc5F)c5nc(c(-c6c(F)cc(S(=O)(=O)[O-])cc6F)c6ccc3[nH]6)C=C5)C=C4)cc2)N1C(=O)[C@@H]1CSc2ccccc21
REMARK SMILES IDX 13 1 12 2 11 3 10 4 9 5 8 6 6 7 7 8 5 9 1 10 2 11 3 12 86 13
REMARK SMILES IDX 4 14 87 15 88 16 89 17 90 18 97 19 91 20 92 21 96 22 93 23
REMARK SMILES IDX 95 24 94 25 14 26 15 27 16 28 17 29 18 30 19 31 20 32 21 33
REMARK SMILES IDX 85 34 22 35 84 36 23 37 24 38 25 39 78 40 26 41 83 42 77 43
REMARK SMILES IDX 79 44 27 45 82 46 76 47 75 48 28 50 62 51 41 52 61 53 42 54
REMARK SMILES IDX 45 55 60 56 80 57 43 58 44 59 59 61 81 62 46 63 29 64 30 65
REMARK SMILES IDX 39 66 31 67 32 68 38 69 40 70 33 71 34 72 35 73 36 74 37 75
REMARK SMILES IDX 63 76 64 77 73 78 65 79 66 80 72 81 74 82 67 83 68 84 69 85
REMARK SMILES IDX 70 86 71 87 47 88 48 89 57 90 49 91 50 92 56 93 58 94 51 95
REMARK SMILES IDX 52 96 53 97 54 98 55 99
REMARK H PARENT 79 49 45 60
REMARK Flexibility Score: inf
ROOT
ATOM      1  C   UNL A   1      35.305  33.393  28.542  1.00  0.00     0.188 C 
ENDROOT
BRANCH   1   2
ATOM      2  C   UNL A   1      34.114  32.455  28.325  1.00  0.00     0.188 C 
BRANCH   2   3
ATOM      3  O   UNL A   1      34.334  31.058  28.164  1.00  0.00    -0.376 OA
BRANCH   3   4
ATOM      4  C   UNL A   1      34.005  30.400  26.950  1.00  0.00     0.202 C 
BRANCH   4   5
ATOM      5  C   UNL A   1      34.103  28.870  26.908  1.00  0.00     0.261 C 
BRANCH   5   6
ATOM      6  O   UNL A   1      33.653  28.257  25.689  1.00  0.00    -0.462 OA
BRANCH   6   7
ATOM      7  C   UNL A   1      32.592  27.408  25.805  1.00  0.00     0.329 C 
ATOM      8  O   UNL A   1      32.533  26.462  26.583  1.00  0.00    -0.250 OA
BRANCH   7   9
ATOM      9  C   UNL A   1      31.447  27.752  24.828  1.00  0.00     0.206 C 
ATOM     10  C   UNL A   1      28.668  26.979  23.739  1.00  0.00     0.043 C 
ATOM     11  C   UNL A   1      29.965  27.309  23.005  1.00  0.00     0.141 C 
ATOM     12  S   UNL A   1      30.180  29.112  22.886  1.00  0.00    -0.135 SA
ATOM     13  N   UNL A   1      31.163  26.848  23.702  1.00  0.00    -0.316 N 
ATOM     14  C   UNL A   1      31.363  29.176  24.263  1.00  0.00     0.109 C 
BRANCH  13  15
ATOM     15  C   UNL A   1      32.185  26.060  23.189  1.00  0.00     0.232 C 
ATOM     16  O   UNL A   1      33.050  26.543  22.448  1.00  0.00    -0.274 OA
BRANCH  15  17
ATOM     17  C   UNL A   1      32.245  24.546  23.386  1.00  0.00     0.120 C 
ATOM     18  C   UNL A   1      30.902  24.093  23.981  1.00  0.00     0.093 C 
ATOM     19  C   UNL A   1      33.376  24.035  24.230  1.00  0.00    -0.021 A 
ATOM     20  S   UNL A   1      31.232  23.021  25.416  1.00  0.00    -0.125 SA
ATOM     21  C   UNL A   1      32.975  23.313  25.357  1.00  0.00     0.011 A 
ATOM     22  C   UNL A   1      34.717  24.344  24.023  1.00  0.00     0.006 A 
ATOM     23  C   UNL A   1      33.878  23.034  26.369  1.00  0.00     0.015 A 
ATOM     24  C   UNL A   1      35.636  24.036  25.024  1.00  0.00     0.000 A 
ATOM     25  C   UNL A   1      35.211  23.418  26.207  1.00  0.00     0.001 A 
ENDBRANCH  15  17
ENDBRANCH  13  15
ENDBRANCH   7   9
ENDBRANCH   6   7
ENDBRANCH   5   6
ENDBRANCH   4   5
ENDBRANCH   3   4
ENDBRANCH   2   3
ENDBRANCH   1   2
BRANCH   1  26
ATOM     26  O   UNL A   1      35.549  33.735  29.887  1.00  0.00    -0.376 OA
BRANCH  26  27
ATOM     27  C   UNL A   1      34.797  33.063  30.875  1.00  0.00     0.202 C 
BRANCH  27  28
ATOM     28  C   UNL A   1      35.546  31.995  31.681  1.00  0.00     0.261 C 
BRANCH  28  29
ATOM     29  O   UNL A   1      36.300  31.033  30.919  1.00  0.00    -0.460 OA
BRANCH  29  30
ATOM     30  C   UNL A   1      37.047  30.129  31.595  1.00  0.00     0.338 C 
ATOM     31  O   UNL A   1      36.664  29.396  32.491  1.00  0.00    -0.246 OA
BRANCH  30  32
ATOM     32  C   UNL A   1      38.350  30.011  30.892  1.00  0.00     0.060 A 
ATOM     33  C   UNL A   1      38.394  30.142  29.495  1.00  0.00     0.016 A 
ATOM     34  C   UNL A   1      39.531  29.819  31.611  1.00  0.00     0.016 A 
ATOM     35  C   UNL A   1      39.619  30.072  28.816  1.00  0.00     0.010 A 
ATOM     36  C   UNL A   1      40.749  29.724  30.929  1.00  0.00     0.010 A 
ATOM     37  C   UNL A   1      40.802  29.834  29.527  1.00  0.00    -0.014 A 
BRANCH  37  38
ATOM     38  C   UNL A   1      42.081  29.542  28.828  1.00  0.00     0.031 A 
ATOM     39  C   UNL A   1      42.319  28.142  28.327  1.00  0.00     0.074 A 
ATOM     40  C   UNL A   1      43.044  30.474  28.692  1.00  0.00     0.049 A 
ATOM     41  N   UNL A   1      43.412  27.601  27.856  1.00  0.00    -0.248 NA
ATOM     42  C   UNL A   1      41.165  27.229  28.371  1.00  0.00     0.031 C 
ATOM     43  C   UNL A   1      42.929  31.874  29.093  1.00  0.00     0.029 A 
ATOM     44  N   UNL A   1      44.327  30.367  28.207  1.00  0.00    -0.354 N 
ATOM     45  C   UNL A   1      43.089  26.279  27.576  1.00  0.00     0.074 A 
ATOM     46  C   UNL A   1      41.699  26.098  27.933  1.00  0.00     0.031 C 
ATOM     47  C   UNL A   1      44.106  32.488  28.874  1.00  0.00     0.029 A 
ATOM     48  C   UNL A   1      45.072  31.514  28.364  1.00  0.00     0.049 A 
ATOM     49  H   UNL A   1      44.679  29.548  27.789  1.00  0.00     0.167 HD
ATOM     50  C   UNL A   1      43.882  25.303  27.074  1.00  0.00     0.037 A 
ATOM     51  C   UNL A   1      46.389  31.738  28.166  1.00  0.00     0.037 A 
ATOM     52  C   UNL A   1      45.263  25.490  26.713  1.00  0.00     0.049 A 
ATOM     53  C   UNL A   1      47.272  30.615  27.677  1.00  0.00     0.074 A 
ATOM     54  C   UNL A   1      46.133  24.572  26.151  1.00  0.00     0.029 A 
ATOM     55  N   UNL A   1      45.981  26.662  26.894  1.00  0.00    -0.354 N 
ATOM     56  N   UNL A   1      46.948  29.380  27.375  1.00  0.00    -0.248 NA
ATOM     57  C   UNL A   1      48.704  30.912  27.507  1.00  0.00     0.031 C 
ATOM     58  C   UNL A   1      47.393  25.168  26.051  1.00  0.00     0.029 A 
ATOM     59  C   UNL A   1      47.293  26.478  26.493  1.00  0.00     0.049 A 
ATOM     60  H   UNL A   1      45.612  27.501  27.254  1.00  0.00     0.167 HD
ATOM     61  C   UNL A   1      48.126  28.762  26.964  1.00  0.00     0.074 A 
ATOM     62  C   UNL A   1      49.170  29.762  27.039  1.00  0.00     0.031 C 
ATOM     63  C   UNL A   1      48.325  27.483  26.562  1.00  0.00     0.037 A 
BRANCH  50  64
ATOM     64  C   UNL A   1      43.293  23.930  26.917  1.00  0.00     0.058 A 
ATOM     65  C   UNL A   1      42.929  23.415  25.663  1.00  0.00     0.135 A 
ATOM     66  C   UNL A   1      43.146  23.094  28.037  1.00  0.00     0.135 A 
ATOM     67  F   UNL A   1      43.031  24.177  24.563  1.00  0.00    -0.206 F 
ATOM     68  C   UNL A   1      42.425  22.125  25.527  1.00  0.00     0.059 A 
ATOM     69  C   UNL A   1      42.670  21.792  27.921  1.00  0.00     0.059 A 
ATOM     70  F   UNL A   1      43.474  23.540  29.260  1.00  0.00    -0.206 F 
ATOM     71  C   UNL A   1      42.303  21.320  26.661  1.00  0.00     0.060 A 
BRANCH  71  72
ATOM     72  S   UNL A   1      41.670  19.642  26.462  1.00  0.00     0.124 S 
ATOM     73  O   UNL A   1      40.237  19.887  26.323  1.00  0.00    -0.237 OA
ATOM     74  O   UNL A   1      42.356  19.191  25.256  1.00  0.00    -0.237 OA
ATOM     75  O   UNL A   1      42.075  18.976  27.696  1.00  0.00    -0.744 OA
ENDBRANCH  71  72
ENDBRANCH  50  64
BRANCH  51  76
ATOM     76  C   UNL A   1      46.976  33.071  28.481  1.00  0.00     0.058 A 
ATOM     77  C   UNL A   1      47.435  33.378  29.770  1.00  0.00     0.135 A 
ATOM     78  C   UNL A   1      47.066  34.075  27.502  1.00  0.00     0.135 A 
ATOM     79  F   UNL A   1      47.354  32.462  30.746  1.00  0.00    -0.206 F 
ATOM     80  C   UNL A   1      47.944  34.636  30.084  1.00  0.00     0.059 A 
ATOM     81  C   UNL A   1      47.599  35.329  27.784  1.00  0.00     0.059 A 
ATOM     82  F   UNL A   1      46.642  33.835  26.252  1.00  0.00    -0.206 F 
ATOM     83  C   UNL A   1      48.025  35.604  29.082  1.00  0.00     0.060 A 
BRANCH  83  84
ATOM     84  S   UNL A   1      48.721  37.220  29.493  1.00  0.00     0.124 S 
ATOM     85  O   UNL A   1      49.200  37.674  28.192  1.00  0.00    -0.237 OA
ATOM     86  O   UNL A   1      47.561  37.925  30.028  1.00  0.00    -0.237 OA
ATOM     87  O   UNL A   1      49.758  36.901  30.470  1.00  0.00    -0.744 OA
ENDBRANCH  83  84
ENDBRANCH  51  76
BRANCH  63  88
ATOM     88  C   UNL A   1      49.713  27.079  26.140  1.00  0.00     0.058 A 
ATOM     89  C   UNL A   1      50.606  26.464  27.031  1.00  0.00     0.135 A 
ATOM     90  C   UNL A   1      50.121  27.225  24.802  1.00  0.00     0.135 A 
ATOM     91  F   UNL A   1      50.272  26.308  28.321  1.00  0.00    -0.206 F 
ATOM     92  C   UNL A   1      51.855  26.011  26.614  1.00  0.00     0.059 A 
ATOM     93  C   UNL A   1      51.353  26.754  24.357  1.00  0.00     0.059 A 
ATOM     94  F   UNL A   1      49.303  27.796  23.905  1.00  0.00    -0.206 F 
ATOM     95  C   UNL A   1      52.216  26.152  25.272  1.00  0.00     0.060 A 
BRANCH  95  96
ATOM     96  S   UNL A   1      53.810  25.500  24.731  1.00  0.00     0.124 S 
ATOM     97  O   UNL A   1      54.715  26.074  25.721  1.00  0.00    -0.237 OA
ATOM     98  O   UNL A   1      53.603  24.057  24.822  1.00  0.00    -0.237 OA
ATOM     99  O   UNL A   1      53.951  26.022  23.375  1.00  0.00    -0.744 OA
ENDBRANCH  95  96
ENDBRANCH  63  88
ENDBRANCH  37  38
ENDBRANCH  30  32
ENDBRANCH  29  30
ENDBRANCH  28  29
ENDBRANCH  27  28
ENDBRANCH  26  27
ENDBRANCH   1  26
TORSDOF 22
ENDMDL
