MODEL 1
REMARK VINA RESULT:     -11.0      0.000      0.000
REMARK SMILES COc1cccc(C(=O)NNC(=O)[C@H]2CC(C)=C(C)C[C@@H]2C(=O)OCCOCCOCCOC(=O)c2ccc(-c3c4nc(c(-c5c(F)cc(S(=O)(=O)[O-])cc5F)c5ccc([nH]5)c(-c5c(F)cc(S(=O)(=O)[O-])cc5F)c5nc(c(-c6c(F)cc(S(=O)(=O)[O-])cc6F)c6ccc3[nH]6)C=C5)C=C4)cc2)c1
REMARK SMILES IDX 28 1 27 2 26 3 25 4 24 5 22 6 23 7 21 8 14 9 15 10 16 11
REMARK SMILES IDX 20 12 17 13 18 14 19 15 12 16 11 17 13 19 10 20 8 21 9 22
REMARK SMILES IDX 7 24 3 25 4 26 102 27 5 28 6 29 2 30 1 31 29 32 30 33 31 34
REMARK SMILES IDX 32 35 33 36 34 37 35 38 36 39 37 40 101 41 38 42 100 43
REMARK SMILES IDX 39 44 40 45 41 46 94 47 42 48 99 49 93 50 95 51 43 52 98 53
REMARK SMILES IDX 92 54 91 55 44 57 78 58 57 59 77 60 58 61 61 62 76 63 96 64
REMARK SMILES IDX 59 65 60 66 75 68 97 69 62 70 45 71 46 72 55 73 47 74 48 75
REMARK SMILES IDX 54 76 56 77 49 78 50 79 51 80 52 81 53 82 79 83 80 84 89 85
REMARK SMILES IDX 81 86 82 87 88 88 90 89 83 90 84 91 85 92 86 93 87 94 63 95
REMARK SMILES IDX 64 96 73 97 65 98 66 99 72 100 74 101 67 102 68 103 69 104
REMARK SMILES IDX 70 105 71 106
REMARK H PARENT 11 18 10 23 95 56 61 67
REMARK Flexibility Score: inf
ROOT
ATOM      1  C   UNL A   1      31.111  30.058  24.654  1.00  0.00     0.188 C 
ENDROOT
BRANCH   1   2
ATOM      2  O   UNL A   1      29.901  30.590  24.125  1.00  0.00    -0.376 OA
BRANCH   2   3
ATOM      3  C   UNL A   1      29.179  29.846  23.146  1.00  0.00     0.202 C 
BRANCH   3   4
ATOM      4  C   UNL A   1      29.528  28.366  22.906  1.00  0.00     0.261 C 
BRANCH   4   5
ATOM      5  O   UNL A   1      29.855  27.675  24.117  1.00  0.00    -0.463 OA
BRANCH   5   6
ATOM      6  C   UNL A   1      29.464  26.368  24.199  1.00  0.00     0.310 C 
ATOM      7  O   UNL A   1      28.348  25.945  23.944  1.00  0.00    -0.252 OA
BRANCH   6   8
ATOM      8  C   UNL A   1      30.669  25.511  24.537  1.00  0.00     0.116 C 
ATOM      9  C   UNL A   1      31.082  25.680  26.011  1.00  0.00     0.099 C 
ATOM     10  C   UNL A   1      32.332  26.549  26.216  1.00  0.00     0.045 C 
ATOM     11  C   UNL A   1      33.114  26.996  24.994  1.00  0.00    -0.074 C 
ATOM     12  C   UNL A   1      31.743  25.601  23.466  1.00  0.00     0.046 C 
ATOM     13  C   UNL A   1      34.223  27.969  25.313  1.00  0.00     0.039 C 
ATOM     14  C   UNL A   1      32.856  26.560  23.746  1.00  0.00    -0.073 C 
ATOM     15  C   UNL A   1      33.667  26.942  22.534  1.00  0.00     0.039 C 
BRANCH   9  16
ATOM     16  C   UNL A   1      31.252  24.267  26.579  1.00  0.00     0.242 C 
ATOM     17  N   UNL A   1      32.503  23.719  26.751  1.00  0.00    -0.267 N 
ATOM     18  H   UNL A   1      32.558  22.955  27.371  1.00  0.00     0.191 HD
ATOM     19  O   UNL A   1      30.290  23.649  27.046  1.00  0.00    -0.273 OA
BRANCH  17  20
ATOM     20  N   UNL A   1      33.700  24.108  26.158  1.00  0.00    -0.263 N 
ATOM     21  C   UNL A   1      34.495  23.291  25.359  1.00  0.00     0.269 C 
ATOM     22  O   UNL A   1      35.680  23.581  25.209  1.00  0.00    -0.267 OA
ATOM     23  H   UNL A   1      34.007  25.030  26.315  1.00  0.00     0.191 HD
BRANCH  21  24
ATOM     24  C   UNL A   1      33.962  22.098  24.626  1.00  0.00     0.045 A 
ATOM     25  C   UNL A   1      33.288  18.947  24.432  1.00  0.00     0.119 A 
ATOM     26  C   UNL A   1      32.228  19.246  22.963  1.00  0.00     0.046 A 
ATOM     27  C   UNL A   1      34.127  20.350  25.268  1.00  0.00     0.060 A 
ATOM     28  C   UNL A   1      32.027  21.017  22.290  1.00  0.00     0.005 A 
ATOM     29  C   UNL A   1      32.899  22.421  23.135  1.00  0.00     0.014 A 
BRANCH  25  30
ATOM     30  O   UNL A   1      33.360  17.645  24.828  1.00  0.00    -0.497 OA
ATOM     31  C   UNL A   1      34.492  16.922  24.386  1.00  0.00     0.278 C 
ENDBRANCH  25  30
ENDBRANCH  21  24
ENDBRANCH  17  20
ENDBRANCH   9  16
ENDBRANCH   6   8
ENDBRANCH   5   6
ENDBRANCH   4   5
ENDBRANCH   3   4
ENDBRANCH   2   3
ENDBRANCH   1   2
BRANCH   1  32
ATOM     32  C   UNL A   1      31.448  30.248  26.144  1.00  0.00     0.188 C 
BRANCH  32  33
ATOM     33  O   UNL A   1      32.610  31.016  26.355  1.00  0.00    -0.376 OA
BRANCH  33  34
ATOM     34  C   UNL A   1      32.639  31.765  27.561  1.00  0.00     0.202 C 
BRANCH  34  35
ATOM     35  C   UNL A   1      32.889  33.291  27.509  1.00  0.00     0.261 C 
BRANCH  35  36
ATOM     36  O   UNL A   1      32.787  34.027  28.749  1.00  0.00    -0.460 OA
BRANCH  36  37
ATOM     37  C   UNL A   1      33.903  34.641  29.217  1.00  0.00     0.338 C 
ATOM     38  O   UNL A   1      33.984  35.808  29.561  1.00  0.00    -0.246 OA
BRANCH  37  39
ATOM     39  C   UNL A   1      34.955  33.614  29.482  1.00  0.00     0.060 A 
ATOM     40  C   UNL A   1      36.155  33.697  28.766  1.00  0.00     0.016 A 
ATOM     41  C   UNL A   1      34.788  32.585  30.412  1.00  0.00     0.016 A 
ATOM     42  C   UNL A   1      37.201  32.787  29.004  1.00  0.00     0.010 A 
ATOM     43  C   UNL A   1      35.831  31.664  30.643  1.00  0.00     0.010 A 
ATOM     44  C   UNL A   1      37.086  31.780  29.988  1.00  0.00    -0.014 A 
BRANCH  44  45
ATOM     45  C   UNL A   1      38.367  30.644  30.331  1.00  0.00     0.031 A 
ATOM     46  C   UNL A   1      38.990  31.696  31.729  1.00  0.00     0.074 A 
ATOM     47  C   UNL A   1      39.032  29.051  29.608  1.00  0.00     0.049 A 
ATOM     48  N   UNL A   1      40.194  31.653  32.282  1.00  0.00    -0.248 NA
ATOM     49  C   UNL A   1      38.141  32.676  32.442  1.00  0.00     0.031 C 
ATOM     50  C   UNL A   1      38.678  27.988  28.354  1.00  0.00     0.029 A 
ATOM     51  N   UNL A   1      40.267  28.171  29.903  1.00  0.00    -0.354 N 
ATOM     52  C   UNL A   1      40.158  32.299  33.475  1.00  0.00     0.074 A 
ATOM     53  C   UNL A   1      38.935  33.070  33.445  1.00  0.00     0.031 C 
ATOM     54  C   UNL A   1      39.696  27.176  28.024  1.00  0.00     0.029 A 
ATOM     55  C   UNL A   1      40.758  27.334  28.961  1.00  0.00     0.049 A 
ATOM     56  H   UNL A   1      40.700  28.219  30.786  1.00  0.00     0.167 HD
ATOM     57  C   UNL A   1      41.010  32.087  34.507  1.00  0.00     0.037 A 
ATOM     58  C   UNL A   1      41.996  26.809  28.967  1.00  0.00     0.037 A 
ATOM     59  C   UNL A   1      42.046  31.049  34.558  1.00  0.00     0.049 A 
ATOM     60  C   UNL A   1      42.870  27.024  30.188  1.00  0.00     0.074 A 
ATOM     61  C   UNL A   1      42.812  30.711  35.662  1.00  0.00     0.029 A 
ATOM     62  N   UNL A   1      42.440  30.156  33.540  1.00  0.00    -0.354 N 
ATOM     63  N   UNL A   1      42.745  27.899  31.171  1.00  0.00    -0.248 NA
ATOM     64  C   UNL A   1      43.985  26.094  30.344  1.00  0.00     0.031 C 
ATOM     65  C   UNL A   1      43.648  29.642  35.326  1.00  0.00     0.029 A 
ATOM     66  C   UNL A   1      43.400  29.250  34.015  1.00  0.00     0.049 A 
ATOM     67  H   UNL A   1      42.088  30.166  32.621  1.00  0.00     0.167 HD
ATOM     68  C   UNL A   1      43.742  27.595  32.098  1.00  0.00     0.074 A 
ATOM     69  C   UNL A   1      44.455  26.450  31.533  1.00  0.00     0.031 C 
ATOM     70  C   UNL A   1      44.052  28.144  33.310  1.00  0.00     0.037 A 
BRANCH  57  71
ATOM     71  C   UNL A   1      40.810  32.960  35.713  1.00  0.00     0.058 A 
ATOM     72  C   UNL A   1      41.510  34.161  35.908  1.00  0.00     0.135 A 
ATOM     73  C   UNL A   1      39.884  32.574  36.695  1.00  0.00     0.135 A 
ATOM     74  F   UNL A   1      42.398  34.586  34.995  1.00  0.00    -0.206 F 
ATOM     75  C   UNL A   1      41.349  34.913  37.068  1.00  0.00     0.059 A 
ATOM     76  C   UNL A   1      39.686  33.324  37.848  1.00  0.00     0.059 A 
ATOM     77  F   UNL A   1      39.169  31.448  36.543  1.00  0.00    -0.206 F 
ATOM     78  C   UNL A   1      40.446  34.476  38.040  1.00  0.00     0.060 A 
BRANCH  78  79
ATOM     79  S   UNL A   1      40.308  35.412  39.577  1.00  0.00     0.124 S 
ATOM     80  O   UNL A   1      40.986  34.525  40.517  1.00  0.00    -0.237 OA
ATOM     81  O   UNL A   1      41.011  36.650  39.255  1.00  0.00    -0.237 OA
ATOM     82  O   UNL A   1      38.866  35.543  39.767  1.00  0.00    -0.744 OA
ENDBRANCH  78  79
ENDBRANCH  57  71
BRANCH  58  83
ATOM     83  C   UNL A   1      42.387  25.991  27.807  1.00  0.00     0.058 A 
ATOM     84  C   UNL A   1      43.236  26.509  26.824  1.00  0.00     0.135 A 
ATOM     85  C   UNL A   1      42.102  24.616  27.789  1.00  0.00     0.135 A 
ATOM     86  F   UNL A   1      43.534  27.818  26.817  1.00  0.00    -0.206 F 
ATOM     87  C   UNL A   1      43.837  25.682  25.885  1.00  0.00     0.059 A 
ATOM     88  C   UNL A   1      42.698  23.768  26.863  1.00  0.00     0.059 A 
ATOM     89  F   UNL A   1      41.302  24.082  28.725  1.00  0.00    -0.206 F 
ATOM     90  C   UNL A   1      43.584  24.309  25.932  1.00  0.00     0.060 A 
BRANCH  90  91
ATOM     91  S   UNL A   1      44.533  23.231  24.838  1.00  0.00     0.124 S 
ATOM     92  O   UNL A   1      45.104  22.279  25.783  1.00  0.00    -0.237 OA
ATOM     93  O   UNL A   1      43.493  22.710  23.955  1.00  0.00    -0.237 OA
ATOM     94  O   UNL A   1      45.483  24.142  24.206  1.00  0.00    -0.744 OA
ENDBRANCH  90  91
ENDBRANCH  58  83
BRANCH  70  95
ATOM     95  C   UNL A   1      45.183  27.433  34.051  1.00  0.00     0.058 A 
ATOM     96  C   UNL A   1      44.947  26.311  34.866  1.00  0.00     0.135 A 
ATOM     97  C   UNL A   1      46.506  27.913  33.983  1.00  0.00     0.135 A 
ATOM     98  F   UNL A   1      43.704  25.821  34.992  1.00  0.00    -0.206 F 
ATOM     99  C   UNL A   1      45.964  25.727  35.621  1.00  0.00     0.059 A 
ATOM    100  C   UNL A   1      47.544  27.321  34.703  1.00  0.00     0.059 A 
ATOM    101  F   UNL A   1      46.799  28.974  33.216  1.00  0.00    -0.206 F 
ATOM    102  C   UNL A   1      47.258  26.245  35.541  1.00  0.00     0.060 A 
BRANCH 102 103
ATOM    103  S   UNL A   1      48.562  25.499  36.550  1.00  0.00     0.124 S 
ATOM    104  O   UNL A   1      49.720  25.623  35.670  1.00  0.00    -0.237 OA
ATOM    105  O   UNL A   1      48.573  26.355  37.732  1.00  0.00    -0.237 OA
ATOM    106  O   UNL A   1      48.084  24.139  36.771  1.00  0.00    -0.744 OA
ENDBRANCH 102 103
ENDBRANCH  70  95
ENDBRANCH  44  45
ENDBRANCH  37  39
ENDBRANCH  36  37
ENDBRANCH  35  36
ENDBRANCH  34  35
ENDBRANCH  33  34
ENDBRANCH  32  33
ENDBRANCH   1  32
TORSDOF 24
ENDMDL
MODEL 2
REMARK VINA RESULT:     -10.9      1.514      2.065
REMARK SMILES COc1cccc(C(=O)NNC(=O)[C@H]2CC(C)=C(C)C[C@@H]2C(=O)OCCOCCOCCOC(=O)c2ccc(-c3c4nc(c(-c5c(F)cc(S(=O)(=O)[O-])cc5F)c5ccc([nH]5)c(-c5c(F)cc(S(=O)(=O)[O-])cc5F)c5nc(c(-c6c(F)cc(S(=O)(=O)[O-])cc6F)c6ccc3[nH]6)C=C5)C=C4)cc2)c1
REMARK SMILES IDX 28 1 27 2 26 3 25 4 24 5 22 6 23 7 21 8 14 9 15 10 16 11
REMARK SMILES IDX 20 12 17 13 18 14 19 15 12 16 11 17 13 19 10 20 8 21 9 22
REMARK SMILES IDX 7 24 3 25 4 26 102 27 5 28 6 29 2 30 1 31 29 32 30 33 31 34
REMARK SMILES IDX 32 35 33 36 34 37 35 38 36 39 37 40 101 41 38 42 100 43
REMARK SMILES IDX 39 44 40 45 41 46 94 47 42 48 99 49 93 50 95 51 43 52 98 53
REMARK SMILES IDX 92 54 91 55 44 57 78 58 57 59 77 60 58 61 61 62 76 63 96 64
REMARK SMILES IDX 59 65 60 66 75 68 97 69 62 70 45 71 46 72 55 73 47 74 48 75
REMARK SMILES IDX 54 76 56 77 49 78 50 79 51 80 52 81 53 82 79 83 80 84 89 85
REMARK SMILES IDX 81 86 82 87 88 88 90 89 83 90 84 91 85 92 86 93 87 94 63 95
REMARK SMILES IDX 64 96 73 97 65 98 66 99 72 100 74 101 67 102 68 103 69 104
REMARK SMILES IDX 70 105 71 106
REMARK H PARENT 11 18 10 23 95 56 61 67
REMARK Flexibility Score: inf
ROOT
ATOM      1  C   UNL A   1      31.049  29.754  24.691  1.00  0.00     0.188 C 
ENDROOT
BRANCH   1   2
ATOM      2  O   UNL A   1      29.894  30.199  23.988  1.00  0.00    -0.376 OA
BRANCH   2   3
ATOM      3  C   UNL A   1      29.547  29.580  22.751  1.00  0.00     0.202 C 
BRANCH   3   4
ATOM      4  C   UNL A   1      28.842  28.212  22.757  1.00  0.00     0.261 C 
BRANCH   4   5
ATOM      5  O   UNL A   1      29.729  27.136  23.086  1.00  0.00    -0.463 OA
BRANCH   5   6
ATOM      6  C   UNL A   1      29.352  26.326  24.120  1.00  0.00     0.310 C 
ATOM      7  O   UNL A   1      28.232  26.269  24.603  1.00  0.00    -0.252 OA
BRANCH   6   8
ATOM      8  C   UNL A   1      30.511  25.421  24.488  1.00  0.00     0.116 C 
ATOM      9  C   UNL A   1      30.818  25.489  25.996  1.00  0.00     0.099 C 
ATOM     10  C   UNL A   1      32.066  26.314  26.346  1.00  0.00     0.045 C 
ATOM     11  C   UNL A   1      32.945  26.816  25.214  1.00  0.00    -0.074 C 
ATOM     12  C   UNL A   1      31.663  25.551  23.505  1.00  0.00     0.046 C 
ATOM     13  C   UNL A   1      34.047  27.740  25.673  1.00  0.00     0.039 C 
ATOM     14  C   UNL A   1      32.771  26.463  23.925  1.00  0.00    -0.073 C 
ATOM     15  C   UNL A   1      33.676  26.900  22.802  1.00  0.00     0.039 C 
BRANCH   9  16
ATOM     16  C   UNL A   1      30.918  24.041  26.484  1.00  0.00     0.242 C 
ATOM     17  N   UNL A   1      32.141  23.461  26.738  1.00  0.00    -0.267 N 
ATOM     18  H   UNL A   1      32.128  22.659  27.308  1.00  0.00     0.191 HD
ATOM     19  O   UNL A   1      29.910  23.411  26.818  1.00  0.00    -0.273 OA
BRANCH  17  20
ATOM     20  N   UNL A   1      33.393  23.867  26.287  1.00  0.00    -0.263 N 
ATOM     21  C   UNL A   1      34.247  23.093  25.505  1.00  0.00     0.269 C 
ATOM     22  O   UNL A   1      35.445  23.369  25.485  1.00  0.00    -0.267 OA
ATOM     23  H   UNL A   1      33.697  24.768  26.539  1.00  0.00     0.191 HD
BRANCH  21  24
ATOM     24  C   UNL A   1      33.766  21.968  24.639  1.00  0.00     0.045 A 
ATOM     25  C   UNL A   1      33.094  18.851  24.142  1.00  0.00     0.119 A 
ATOM     26  C   UNL A   1      32.153  19.277  22.625  1.00  0.00     0.046 A 
ATOM     27  C   UNL A   1      33.872  20.174  25.150  1.00  0.00     0.060 A 
ATOM     28  C   UNL A   1      32.014  21.098  22.082  1.00  0.00     0.005 A 
ATOM     29  C   UNL A   1      32.824  22.420  23.101  1.00  0.00     0.014 A 
BRANCH  25  30
ATOM     30  O   UNL A   1      33.129  17.521  24.437  1.00  0.00    -0.497 OA
ATOM     31  C   UNL A   1      32.729  17.164  25.746  1.00  0.00     0.278 C 
ENDBRANCH  25  30
ENDBRANCH  21  24
ENDBRANCH  17  20
ENDBRANCH   9  16
ENDBRANCH   6   8
ENDBRANCH   5   6
ENDBRANCH   4   5
ENDBRANCH   3   4
ENDBRANCH   2   3
ENDBRANCH   1   2
BRANCH   1  32
ATOM     32  C   UNL A   1      31.405  30.372  26.056  1.00  0.00     0.188 C 
BRANCH  32  33
ATOM     33  O   UNL A   1      32.726  30.859  26.115  1.00  0.00    -0.376 OA
BRANCH  33  34
ATOM     34  C   UNL A   1      33.272  30.993  27.419  1.00  0.00     0.202 C 
BRANCH  34  35
ATOM     35  C   UNL A   1      34.467  31.946  27.655  1.00  0.00     0.261 C 
BRANCH  35  36
ATOM     36  O   UNL A   1      34.216  33.162  28.395  1.00  0.00    -0.460 OA
BRANCH  36  37
ATOM     37  C   UNL A   1      34.876  33.341  29.566  1.00  0.00     0.338 C 
ATOM     38  O   UNL A   1      34.544  34.095  30.464  1.00  0.00    -0.246 OA
BRANCH  37  39
ATOM     39  C   UNL A   1      35.934  32.294  29.699  1.00  0.00     0.060 A 
ATOM     40  C   UNL A   1      37.117  32.454  28.968  1.00  0.00     0.016 A 
ATOM     41  C   UNL A   1      35.789  31.174  30.521  1.00  0.00     0.016 A 
ATOM     42  C   UNL A   1      38.168  31.526  29.086  1.00  0.00     0.010 A 
ATOM     43  C   UNL A   1      36.837  30.236  30.631  1.00  0.00     0.010 A 
ATOM     44  C   UNL A   1      38.076  30.422  29.962  1.00  0.00    -0.014 A 
BRANCH  44  45
ATOM     45  C   UNL A   1      39.364  29.259  30.155  1.00  0.00     0.031 A 
ATOM     46  C   UNL A   1      40.181  30.309  31.451  1.00  0.00     0.074 A 
ATOM     47  C   UNL A   1      39.898  27.645  29.373  1.00  0.00     0.049 A 
ATOM     48  N   UNL A   1      41.443  30.243  31.851  1.00  0.00    -0.248 NA
ATOM     49  C   UNL A   1      39.450  31.315  32.254  1.00  0.00     0.031 C 
ATOM     50  C   UNL A   1      39.367  26.580  28.185  1.00  0.00     0.029 A 
ATOM     51  N   UNL A   1      41.141  26.740  29.522  1.00  0.00    -0.354 N 
ATOM     52  C   UNL A   1      41.571  30.900  33.031  1.00  0.00     0.074 A 
ATOM     53  C   UNL A   1      40.371  31.699  33.145  1.00  0.00     0.031 C 
ATOM     54  C   UNL A   1      40.318  25.742  27.740  1.00  0.00     0.029 A 
ATOM     55  C   UNL A   1      41.492  25.883  28.535  1.00  0.00     0.049 A 
ATOM     56  H   UNL A   1      41.682  26.785  30.342  1.00  0.00     0.167 HD
ATOM     57  C   UNL A   1      42.541  30.678  33.951  1.00  0.00     0.037 A 
ATOM     58  C   UNL A   1      42.709  25.330  28.392  1.00  0.00     0.037 A 
ATOM     59  C   UNL A   1      43.553  29.616  33.883  1.00  0.00     0.049 A 
ATOM     60  C   UNL A   1      43.733  25.535  29.491  1.00  0.00     0.074 A 
ATOM     61  C   UNL A   1      44.443  29.270  34.887  1.00  0.00     0.029 A 
ATOM     62  N   UNL A   1      43.796  28.705  32.835  1.00  0.00    -0.354 N 
ATOM     63  N   UNL A   1      43.752  26.422  30.473  1.00  0.00    -0.248 NA
ATOM     64  C   UNL A   1      44.839  24.581  29.518  1.00  0.00     0.031 C 
ATOM     65  C   UNL A   1      45.206  28.179  34.461  1.00  0.00     0.029 A 
ATOM     66  C   UNL A   1      44.787  27.782  33.196  1.00  0.00     0.049 A 
ATOM     67  H   UNL A   1      43.332  28.716  31.967  1.00  0.00     0.167 HD
ATOM     68  C   UNL A   1      44.850  26.102  31.270  1.00  0.00     0.074 A 
ATOM     69  C   UNL A   1      45.461  24.936  30.634  1.00  0.00     0.031 C 
ATOM     70  C   UNL A   1      45.322  26.655  32.429  1.00  0.00     0.037 A 
BRANCH  57  71
ATOM     71  C   UNL A   1      42.514  31.565  35.162  1.00  0.00     0.058 A 
ATOM     72  C   UNL A   1      43.275  32.740  35.263  1.00  0.00     0.135 A 
ATOM     73  C   UNL A   1      41.692  31.222  36.247  1.00  0.00     0.135 A 
ATOM     74  F   UNL A   1      44.068  33.125  34.250  1.00  0.00    -0.206 F 
ATOM     75  C   UNL A   1      43.275  33.505  36.425  1.00  0.00     0.059 A 
ATOM     76  C   UNL A   1      41.655  31.986  37.407  1.00  0.00     0.059 A 
ATOM     77  F   UNL A   1      40.923  30.123  36.190  1.00  0.00    -0.206 F 
ATOM     78  C   UNL A   1      42.475  33.109  37.499  1.00  0.00     0.060 A 
BRANCH  78  79
ATOM     79  S   UNL A   1      42.549  34.060  39.031  1.00  0.00     0.124 S 
ATOM     80  O   UNL A   1      43.953  34.455  39.058  1.00  0.00    -0.237 OA
ATOM     81  O   UNL A   1      41.592  35.133  38.781  1.00  0.00    -0.237 OA
ATOM     82  O   UNL A   1      42.150  33.093  40.050  1.00  0.00    -0.744 OA
ENDBRANCH  78  79
ENDBRANCH  57  71
BRANCH  58  83
ATOM     83  C   UNL A   1      42.933  24.493  27.201  1.00  0.00     0.058 A 
ATOM     84  C   UNL A   1      43.606  25.005  26.087  1.00  0.00     0.135 A 
ATOM     85  C   UNL A   1      42.682  23.113  27.256  1.00  0.00     0.135 A 
ATOM     86  F   UNL A   1      43.867  26.319  26.008  1.00  0.00    -0.206 F 
ATOM     87  C   UNL A   1      44.072  24.168  25.083  1.00  0.00     0.059 A 
ATOM     88  C   UNL A   1      43.146  22.255  26.266  1.00  0.00     0.059 A 
ATOM     89  F   UNL A   1      42.052  22.585  28.317  1.00  0.00    -0.206 F 
ATOM     90  C   UNL A   1      43.863  22.792  25.196  1.00  0.00     0.060 A 
BRANCH  90  91
ATOM     91  S   UNL A   1      44.655  21.708  23.990  1.00  0.00     0.124 S 
ATOM     92  O   UNL A   1      46.067  21.953  24.253  1.00  0.00    -0.237 OA
ATOM     93  O   UNL A   1      44.148  20.397  24.386  1.00  0.00    -0.237 OA
ATOM     94  O   UNL A   1      44.155  22.204  22.710  1.00  0.00    -0.744 OA
ENDBRANCH  90  91
ENDBRANCH  58  83
BRANCH  70  95
ATOM     95  C   UNL A   1      46.521  25.924  33.030  1.00  0.00     0.058 A 
ATOM     96  C   UNL A   1      47.844  26.290  32.721  1.00  0.00     0.135 A 
ATOM     97  C   UNL A   1      46.342  24.816  33.880  1.00  0.00     0.135 A 
ATOM     98  F   UNL A   1      48.081  27.322  31.896  1.00  0.00    -0.206 F 
ATOM     99  C   UNL A   1      48.936  25.558  33.189  1.00  0.00     0.059 A 
ATOM    100  C   UNL A   1      47.421  24.091  34.387  1.00  0.00     0.059 A 
ATOM    101  F   UNL A   1      45.106  24.421  34.221  1.00  0.00    -0.206 F 
ATOM    102  C   UNL A   1      48.714  24.454  34.014  1.00  0.00     0.060 A 
BRANCH 102 103
ATOM    103  S   UNL A   1      50.135  23.492  34.588  1.00  0.00     0.124 S 
ATOM    104  O   UNL A   1      50.625  24.320  35.685  1.00  0.00    -0.237 OA
ATOM    105  O   UNL A   1      49.522  22.226  34.976  1.00  0.00    -0.237 OA
ATOM    106  O   UNL A   1      50.999  23.430  33.414  1.00  0.00    -0.744 OA
ENDBRANCH 102 103
ENDBRANCH  70  95
ENDBRANCH  44  45
ENDBRANCH  37  39
ENDBRANCH  36  37
ENDBRANCH  35  36
ENDBRANCH  34  35
ENDBRANCH  33  34
ENDBRANCH  32  33
ENDBRANCH   1  32
TORSDOF 24
ENDMDL
MODEL 3
REMARK VINA RESULT:     -10.6      4.023      9.225
REMARK SMILES COc1cccc(C(=O)NNC(=O)[C@H]2CC(C)=C(C)C[C@@H]2C(=O)OCCOCCOCCOC(=O)c2ccc(-c3c4nc(c(-c5c(F)cc(S(=O)(=O)[O-])cc5F)c5ccc([nH]5)c(-c5c(F)cc(S(=O)(=O)[O-])cc5F)c5nc(c(-c6c(F)cc(S(=O)(=O)[O-])cc6F)c6ccc3[nH]6)C=C5)C=C4)cc2)c1
REMARK SMILES IDX 28 1 27 2 26 3 25 4 24 5 22 6 23 7 21 8 14 9 15 10 16 11
REMARK SMILES IDX 20 12 17 13 18 14 19 15 12 16 11 17 13 19 10 20 8 21 9 22
REMARK SMILES IDX 7 24 3 25 4 26 102 27 5 28 6 29 2 30 1 31 29 32 30 33 31 34
REMARK SMILES IDX 32 35 33 36 34 37 35 38 36 39 37 40 101 41 38 42 100 43
REMARK SMILES IDX 39 44 40 45 41 46 94 47 42 48 99 49 93 50 95 51 43 52 98 53
REMARK SMILES IDX 92 54 91 55 44 57 78 58 57 59 77 60 58 61 61 62 76 63 96 64
REMARK SMILES IDX 59 65 60 66 75 68 97 69 62 70 45 71 46 72 55 73 47 74 48 75
REMARK SMILES IDX 54 76 56 77 49 78 50 79 51 80 52 81 53 82 79 83 80 84 89 85
REMARK SMILES IDX 81 86 82 87 88 88 90 89 83 90 84 91 85 92 86 93 87 94 63 95
REMARK SMILES IDX 64 96 73 97 65 98 66 99 72 100 74 101 67 102 68 103 69 104
REMARK SMILES IDX 70 105 71 106
REMARK H PARENT 11 18 10 23 95 56 61 67
REMARK Flexibility Score: inf
ROOT
ATOM      1  C   UNL A   1      32.192  27.991  23.865  1.00  0.00     0.188 C 
ENDROOT
BRANCH   1   2
ATOM      2  O   UNL A   1      31.574  26.926  23.149  1.00  0.00    -0.376 OA
BRANCH   2   3
ATOM      3  C   UNL A   1      32.213  26.402  21.987  1.00  0.00     0.202 C 
BRANCH   3   4
ATOM      4  C   UNL A   1      33.383  25.414  22.144  1.00  0.00     0.261 C 
BRANCH   4   5
ATOM      5  O   UNL A   1      33.671  25.114  23.516  1.00  0.00    -0.463 OA
BRANCH   5   6
ATOM      6  C   UNL A   1      33.761  23.791  23.847  1.00  0.00     0.310 C 
ATOM      7  O   UNL A   1      33.957  22.876  23.062  1.00  0.00    -0.252 OA
BRANCH   6   8
ATOM      8  C   UNL A   1      33.702  23.653  25.355  1.00  0.00     0.116 C 
ATOM      9  C   UNL A   1      33.059  22.317  25.771  1.00  0.00     0.099 C 
ATOM     10  C   UNL A   1      31.614  22.447  26.277  1.00  0.00     0.045 C 
ATOM     11  C   UNL A   1      31.038  23.837  26.480  1.00  0.00    -0.074 C 
ATOM     12  C   UNL A   1      33.220  24.931  26.020  1.00  0.00     0.046 C 
ATOM     13  C   UNL A   1      29.569  23.835  26.827  1.00  0.00     0.039 C 
ATOM     14  C   UNL A   1      31.767  24.966  26.374  1.00  0.00    -0.073 C 
ATOM     15  C   UNL A   1      31.224  26.348  26.639  1.00  0.00     0.039 C 
BRANCH   9  16
ATOM     16  C   UNL A   1      33.990  21.693  26.815  1.00  0.00     0.242 C 
ATOM     17  N   UNL A   1      35.292  21.373  26.502  1.00  0.00    -0.267 N 
ATOM     18  H   UNL A   1      35.903  21.254  27.266  1.00  0.00     0.191 HD
ATOM     19  O   UNL A   1      33.653  21.612  28.000  1.00  0.00    -0.273 OA
BRANCH  17  20
ATOM     20  N   UNL A   1      35.852  21.194  25.242  1.00  0.00    -0.263 N 
ATOM     21  C   UNL A   1      37.017  21.811  24.793  1.00  0.00     0.269 C 
ATOM     22  O   UNL A   1      37.213  21.898  23.583  1.00  0.00    -0.267 OA
ATOM     23  H   UNL A   1      35.391  20.585  24.621  1.00  0.00     0.191 HD
BRANCH  21  24
ATOM     24  C   UNL A   1      38.075  22.329  25.719  1.00  0.00     0.045 A 
ATOM     25  C   UNL A   1      41.020  22.193  27.034  1.00  0.00     0.119 A 
ATOM     26  C   UNL A   1      40.827  23.897  27.688  1.00  0.00     0.046 A 
ATOM     27  C   UNL A   1      39.677  21.424  26.045  1.00  0.00     0.060 A 
ATOM     28  C   UNL A   1      39.212  24.854  27.363  1.00  0.00     0.005 A 
ATOM     29  C   UNL A   1      37.857  24.054  26.380  1.00  0.00     0.014 A 
BRANCH  25  30
ATOM     30  O   UNL A   1      42.213  21.602  27.323  1.00  0.00    -0.497 OA
ATOM     31  C   UNL A   1      42.637  20.587  26.433  1.00  0.00     0.278 C 
ENDBRANCH  25  30
ENDBRANCH  21  24
ENDBRANCH  17  20
ENDBRANCH   9  16
ENDBRANCH   6   8
ENDBRANCH   5   6
ENDBRANCH   4   5
ENDBRANCH   3   4
ENDBRANCH   2   3
ENDBRANCH   1   2
BRANCH   1  32
ATOM     32  C   UNL A   1      31.352  29.196  24.327  1.00  0.00     0.188 C 
BRANCH  32  33
ATOM     33  O   UNL A   1      32.115  30.182  24.984  1.00  0.00    -0.376 OA
BRANCH  33  34
ATOM     34  C   UNL A   1      31.795  30.394  26.351  1.00  0.00     0.202 C 
BRANCH  34  35
ATOM     35  C   UNL A   1      32.930  30.498  27.396  1.00  0.00     0.261 C 
BRANCH  35  36
ATOM     36  O   UNL A   1      33.842  31.614  27.283  1.00  0.00    -0.460 OA
BRANCH  36  37
ATOM     37  C   UNL A   1      33.513  32.770  27.911  1.00  0.00     0.338 C 
ATOM     38  O   UNL A   1      32.537  33.461  27.670  1.00  0.00    -0.246 OA
BRANCH  37  39
ATOM     39  C   UNL A   1      34.387  32.945  29.110  1.00  0.00     0.060 A 
ATOM     40  C   UNL A   1      35.042  31.818  29.621  1.00  0.00     0.016 A 
ATOM     41  C   UNL A   1      34.576  34.181  29.733  1.00  0.00     0.016 A 
ATOM     42  C   UNL A   1      35.914  31.927  30.719  1.00  0.00     0.010 A 
ATOM     43  C   UNL A   1      35.440  34.290  30.842  1.00  0.00     0.010 A 
ATOM     44  C   UNL A   1      36.177  33.176  31.324  1.00  0.00    -0.014 A 
BRANCH  44  45
ATOM     45  C   UNL A   1      37.269  33.360  32.675  1.00  0.00     0.031 A 
ATOM     46  C   UNL A   1      38.739  33.013  31.595  1.00  0.00     0.074 A 
ATOM     47  C   UNL A   1      37.148  33.662  34.518  1.00  0.00     0.049 A 
ATOM     48  N   UNL A   1      39.945  32.630  31.990  1.00  0.00    -0.248 NA
ATOM     49  C   UNL A   1      38.728  33.211  30.128  1.00  0.00     0.031 C 
ATOM     50  C   UNL A   1      35.963  33.934  35.679  1.00  0.00     0.029 A 
ATOM     51  N   UNL A   1      38.175  33.680  35.672  1.00  0.00    -0.354 N 
ATOM     52  C   UNL A   1      40.827  32.822  30.977  1.00  0.00     0.074 A 
ATOM     53  C   UNL A   1      40.008  33.000  29.798  1.00  0.00     0.031 C 
ATOM     54  C   UNL A   1      36.375  33.720  36.939  1.00  0.00     0.029 A 
ATOM     55  C   UNL A   1      37.780  33.478  36.950  1.00  0.00     0.049 A 
ATOM     56  H   UNL A   1      39.126  33.842  35.476  1.00  0.00     0.167 HD
ATOM     57  C   UNL A   1      42.164  32.989  31.122  1.00  0.00     0.037 A 
ATOM     58  C   UNL A   1      38.592  33.119  37.959  1.00  0.00     0.037 A 
ATOM     59  C   UNL A   1      42.875  33.102  32.402  1.00  0.00     0.049 A 
ATOM     60  C   UNL A   1      40.088  33.088  37.713  1.00  0.00     0.074 A 
ATOM     61  C   UNL A   1      44.209  33.437  32.569  1.00  0.00     0.029 A 
ATOM     62  N   UNL A   1      42.358  32.955  33.705  1.00  0.00    -0.354 N 
ATOM     63  N   UNL A   1      40.754  33.077  36.571  1.00  0.00    -0.248 NA
ATOM     64  C   UNL A   1      40.931  33.139  38.905  1.00  0.00     0.031 C 
ATOM     65  C   UNL A   1      44.496  33.492  33.936  1.00  0.00     0.029 A 
ATOM     66  C   UNL A   1      43.340  33.237  34.666  1.00  0.00     0.049 A 
ATOM     67  H   UNL A   1      41.433  32.691  33.913  1.00  0.00     0.167 HD
ATOM     68  C   UNL A   1      42.106  33.169  36.903  1.00  0.00     0.074 A 
ATOM     69  C   UNL A   1      42.138  33.230  38.364  1.00  0.00     0.031 C 
ATOM     70  C   UNL A   1      43.228  33.238  36.126  1.00  0.00     0.037 A 
BRANCH  57  71
ATOM     71  C   UNL A   1      42.950  33.133  29.851  1.00  0.00     0.058 A 
ATOM     72  C   UNL A   1      43.157  34.369  29.219  1.00  0.00     0.135 A 
ATOM     73  C   UNL A   1      43.513  31.992  29.258  1.00  0.00     0.135 A 
ATOM     74  F   UNL A   1      42.653  35.496  29.749  1.00  0.00    -0.206 F 
ATOM     75  C   UNL A   1      43.836  34.459  28.008  1.00  0.00     0.059 A 
ATOM     76  C   UNL A   1      44.219  32.062  28.063  1.00  0.00     0.059 A 
ATOM     77  F   UNL A   1      43.368  30.789  29.837  1.00  0.00    -0.206 F 
ATOM     78  C   UNL A   1      44.348  33.295  27.429  1.00  0.00     0.060 A 
BRANCH  78  79
ATOM     79  S   UNL A   1      45.150  33.411  25.817  1.00  0.00     0.124 S 
ATOM     80  O   UNL A   1      46.430  32.764  26.085  1.00  0.00    -0.237 OA
ATOM     81  O   UNL A   1      44.233  32.671  24.956  1.00  0.00    -0.237 OA
ATOM     82  O   UNL A   1      45.214  34.849  25.570  1.00  0.00    -0.744 OA
ENDBRANCH  78  79
ENDBRANCH  57  71
BRANCH  58  83
ATOM     83  C   UNL A   1      37.965  32.854  39.266  1.00  0.00     0.058 A 
ATOM     84  C   UNL A   1      37.938  33.840  40.257  1.00  0.00     0.135 A 
ATOM     85  C   UNL A   1      37.190  31.698  39.451  1.00  0.00     0.135 A 
ATOM     86  F   UNL A   1      38.663  34.960  40.107  1.00  0.00    -0.206 F 
ATOM     87  C   UNL A   1      37.121  33.716  41.372  1.00  0.00     0.059 A 
ATOM     88  C   UNL A   1      36.358  31.556  40.555  1.00  0.00     0.059 A 
ATOM     89  F   UNL A   1      37.180  30.737  38.513  1.00  0.00    -0.206 F 
ATOM     90  C   UNL A   1      36.313  32.584  41.497  1.00  0.00     0.060 A 
BRANCH  90  91
ATOM     91  S   UNL A   1      35.111  32.540  42.842  1.00  0.00     0.124 S 
ATOM     92  O   UNL A   1      34.504  33.862  42.740  1.00  0.00    -0.237 OA
ATOM     93  O   UNL A   1      34.265  31.416  42.451  1.00  0.00    -0.237 OA
ATOM     94  O   UNL A   1      35.935  32.312  44.025  1.00  0.00    -0.744 OA
ENDBRANCH  90  91
ENDBRANCH  58  83
BRANCH  70  95
ATOM     95  C   UNL A   1      44.525  33.426  36.912  1.00  0.00     0.058 A 
ATOM     96  C   UNL A   1      45.319  32.334  37.306  1.00  0.00     0.135 A 
ATOM     97  C   UNL A   1      44.945  34.707  37.318  1.00  0.00     0.135 A 
ATOM     98  F   UNL A   1      44.959  31.085  36.971  1.00  0.00    -0.206 F 
ATOM     99  C   UNL A   1      46.447  32.500  38.111  1.00  0.00     0.059 A 
ATOM    100  C   UNL A   1      46.089  34.899  38.094  1.00  0.00     0.059 A 
ATOM    101  F   UNL A   1      44.236  35.791  36.968  1.00  0.00    -0.206 F 
ATOM    102  C   UNL A   1      46.819  33.786  38.508  1.00  0.00     0.060 A 
BRANCH 102 103
ATOM    103  S   UNL A   1      48.264  33.986  39.579  1.00  0.00     0.124 S 
ATOM    104  O   UNL A   1      47.820  35.050  40.474  1.00  0.00    -0.237 OA
ATOM    105  O   UNL A   1      48.393  32.664  40.184  1.00  0.00    -0.237 OA
ATOM    106  O   UNL A   1      49.327  34.351  38.649  1.00  0.00    -0.744 OA
ENDBRANCH 102 103
ENDBRANCH  70  95
ENDBRANCH  44  45
ENDBRANCH  37  39
ENDBRANCH  36  37
ENDBRANCH  35  36
ENDBRANCH  34  35
ENDBRANCH  33  34
ENDBRANCH  32  33
ENDBRANCH   1  32
TORSDOF 24
ENDMDL
