MODEL 1
REMARK VINA RESULT:     -10.1      0.000      0.000
REMARK SMILES CC(C)[C@@H](NC(=O)/C(=C\c1ccccc1F)NC(=O)c1ccccc1)C(=O)OCCOCCOCCOC(=O)c1ccc(-c2c3nc(c(-c4c(F)cc(S(=O)(=O)[O-])cc4F)c4ccc([nH]4)c(-c4c(F)cc(S(=O)(=O)[O-])cc4F)c4nc(c(-c5c(F)cc(S(=O)(=O)[O-])cc5F)c5ccc2[nH]5)C=C4)C=C3)cc1
REMARK SMILES IDX 32 1 31 2 30 3 29 4 28 5 26 6 27 7 4 8 2 9 1 10 3 11 5 12
REMARK SMILES IDX 6 13 7 15 8 16 9 17 17 18 18 19 19 21 20 22 21 23 25 24
REMARK SMILES IDX 22 25 24 26 23 27 10 28 11 29 15 30 12 31 14 32 16 33 13 34
REMARK SMILES IDX 33 35 34 36 35 37 36 38 37 39 38 40 39 41 40 42 41 43 105 44
REMARK SMILES IDX 42 45 104 46 43 47 44 48 45 49 98 50 46 51 103 52 97 53
REMARK SMILES IDX 99 54 47 55 102 56 96 57 95 58 48 60 82 61 61 62 81 63 62 64
REMARK SMILES IDX 65 65 80 66 100 67 63 68 64 69 79 71 101 72 66 73 49 74
REMARK SMILES IDX 50 75 59 76 51 77 52 78 58 79 60 80 53 81 54 82 55 83 56 84
REMARK SMILES IDX 57 85 83 86 84 87 93 88 85 89 86 90 92 91 94 92 87 93 88 94
REMARK SMILES IDX 89 95 90 96 91 97 67 98 68 99 77 100 69 101 70 102 76 103
REMARK SMILES IDX 78 104 71 105 72 106 73 107 74 108 75 109
REMARK H PARENT 5 14 17 20 99 59 65 70
REMARK Flexibility Score: inf
ROOT
ATOM      1  C   UNL A   1      40.289  20.732  26.466  1.00  0.00     0.188 C 
ENDROOT
BRANCH   1   2
ATOM      2  O   UNL A   1      38.957  21.188  26.254  1.00  0.00    -0.376 OA
BRANCH   2   3
ATOM      3  C   UNL A   1      38.385  20.919  24.982  1.00  0.00     0.202 C 
BRANCH   3   4
ATOM      4  C   UNL A   1      36.980  21.531  24.770  1.00  0.00     0.261 C 
BRANCH   4   5
ATOM      5  O   UNL A   1      36.767  22.645  23.861  1.00  0.00    -0.462 OA
BRANCH   5   6
ATOM      6  C   UNL A   1      35.496  23.033  23.637  1.00  0.00     0.328 C 
ATOM      7  O   UNL A   1      35.047  23.149  22.505  1.00  0.00    -0.250 OA
BRANCH   6   8
ATOM      8  C   UNL A   1      34.619  23.269  24.887  1.00  0.00     0.195 C 
BRANCH   8   9
ATOM      9  C   UNL A   1      34.746  22.263  26.074  1.00  0.00     0.017 C 
ATOM     10  C   UNL A   1      34.078  22.818  27.352  1.00  0.00     0.010 C 
ATOM     11  C   UNL A   1      34.064  20.918  25.781  1.00  0.00     0.010 C 
ENDBRANCH   8   9
BRANCH   8  12
ATOM     12  N   UNL A   1      34.699  24.669  25.358  1.00  0.00    -0.337 N 
ATOM     13  C   UNL A   1      33.795  25.695  25.272  1.00  0.00     0.268 C 
ATOM     14  H   UNL A   1      35.543  24.903  25.809  1.00  0.00     0.164 HD
ATOM     15  O   UNL A   1      33.774  26.534  26.171  1.00  0.00    -0.268 OA
BRANCH  13  16
ATOM     16  C   UNL A   1      32.958  25.870  24.042  1.00  0.00     0.107 C 
ATOM     17  C   UNL A   1      31.764  25.249  23.952  1.00  0.00     0.043 C 
BRANCH  16  18
ATOM     18  N   UNL A   1      33.467  26.540  22.934  1.00  0.00    -0.317 N 
ATOM     19  C   UNL A   1      33.359  27.852  22.526  1.00  0.00     0.255 C 
ATOM     20  H   UNL A   1      34.003  25.973  22.333  1.00  0.00     0.170 HD
ATOM     21  O   UNL A   1      34.163  28.340  21.736  1.00  0.00    -0.269 OA
BRANCH  19  22
ATOM     22  C   UNL A   1      32.230  28.680  22.973  1.00  0.00     0.040 A 
ATOM     23  C   UNL A   1      31.184  28.918  22.079  1.00  0.00     0.014 A 
ATOM     24  C   UNL A   1      32.204  29.203  24.269  1.00  0.00     0.014 A 
ATOM     25  C   UNL A   1      30.064  29.625  22.513  1.00  0.00     0.001 A 
ATOM     26  C   UNL A   1      31.067  29.883  24.705  1.00  0.00     0.001 A 
ATOM     27  C   UNL A   1      29.997  30.085  23.829  1.00  0.00     0.000 A 
ENDBRANCH  19  22
ENDBRANCH  16  18
BRANCH  17  28
ATOM     28  C   UNL A   1      31.250  24.311  24.956  1.00  0.00     0.012 A 
ATOM     29  C   UNL A   1      30.608  24.832  26.088  1.00  0.00     0.011 A 
ATOM     30  C   UNL A   1      31.261  22.930  24.763  1.00  0.00     0.130 A 
ATOM     31  C   UNL A   1      29.875  23.992  26.925  1.00  0.00     0.001 A 
ATOM     32  C   UNL A   1      30.578  22.084  25.632  1.00  0.00     0.040 A 
ATOM     33  F   UNL A   1      31.905  22.401  23.713  1.00  0.00    -0.206 F 
ATOM     34  C   UNL A   1      29.857  22.619  26.698  1.00  0.00     0.003 A 
ENDBRANCH  17  28
ENDBRANCH  13  16
ENDBRANCH   8  12
ENDBRANCH   6   8
ENDBRANCH   5   6
ENDBRANCH   4   5
ENDBRANCH   3   4
ENDBRANCH   2   3
ENDBRANCH   1   2
BRANCH   1  35
ATOM     35  C   UNL A   1      41.336  21.829  26.270  1.00  0.00     0.188 C 
BRANCH  35  36
ATOM     36  O   UNL A   1      42.552  21.746  27.008  1.00  0.00    -0.376 OA
BRANCH  36  37
ATOM     37  C   UNL A   1      43.523  22.763  26.794  1.00  0.00     0.202 C 
BRANCH  37  38
ATOM     38  C   UNL A   1      43.332  23.668  25.573  1.00  0.00     0.261 C 
BRANCH  38  39
ATOM     39  O   UNL A   1      42.649  24.902  25.841  1.00  0.00    -0.460 OA
BRANCH  39  40
ATOM     40  C   UNL A   1      43.455  25.894  26.277  1.00  0.00     0.338 C 
ATOM     41  O   UNL A   1      44.572  26.189  25.845  1.00  0.00    -0.246 OA
BRANCH  40  42
ATOM     42  C   UNL A   1      42.781  26.697  27.303  1.00  0.00     0.060 A 
ATOM     43  C   UNL A   1      43.222  28.009  27.505  1.00  0.00     0.016 A 
ATOM     44  C   UNL A   1      41.829  26.131  28.153  1.00  0.00     0.016 A 
ATOM     45  C   UNL A   1      42.730  28.756  28.575  1.00  0.00     0.010 A 
ATOM     46  C   UNL A   1      41.348  26.878  29.235  1.00  0.00     0.010 A 
ATOM     47  C   UNL A   1      41.816  28.184  29.467  1.00  0.00    -0.014 A 
BRANCH  47  48
ATOM     48  C   UNL A   1      41.505  28.878  30.743  1.00  0.00     0.031 A 
ATOM     49  C   UNL A   1      40.349  29.839  30.771  1.00  0.00     0.074 A 
ATOM     50  C   UNL A   1      42.192  28.625  31.872  1.00  0.00     0.049 A 
ATOM     51  N   UNL A   1      39.994  30.681  31.705  1.00  0.00    -0.248 NA
ATOM     52  C   UNL A   1      39.471  29.844  29.589  1.00  0.00     0.031 C 
ATOM     53  C   UNL A   1      43.248  27.625  32.017  1.00  0.00     0.029 A 
ATOM     54  N   UNL A   1      42.097  29.199  33.117  1.00  0.00    -0.354 N 
ATOM     55  C   UNL A   1      38.871  31.338  31.213  1.00  0.00     0.074 A 
ATOM     56  C   UNL A   1      38.603  30.796  29.899  1.00  0.00     0.031 C 
ATOM     57  C   UNL A   1      43.714  27.666  33.278  1.00  0.00     0.029 A 
ATOM     58  C   UNL A   1      43.032  28.733  34.011  1.00  0.00     0.049 A 
ATOM     59  H   UNL A   1      41.424  29.879  33.346  1.00  0.00     0.167 HD
ATOM     60  C   UNL A   1      38.136  32.307  31.804  1.00  0.00     0.037 A 
ATOM     61  C   UNL A   1      43.334  29.152  35.257  1.00  0.00     0.037 A 
ATOM     62  C   UNL A   1      38.395  32.829  33.119  1.00  0.00     0.049 A 
ATOM     63  C   UNL A   1      42.576  30.310  35.854  1.00  0.00     0.074 A 
ATOM     64  C   UNL A   1      37.725  33.838  33.790  1.00  0.00     0.029 A 
ATOM     65  N   UNL A   1      39.396  32.380  33.966  1.00  0.00    -0.354 N 
ATOM     66  N   UNL A   1      41.570  30.986  35.350  1.00  0.00    -0.248 NA
ATOM     67  C   UNL A   1      43.007  30.779  37.181  1.00  0.00     0.031 C 
ATOM     68  C   UNL A   1      38.346  34.022  35.030  1.00  0.00     0.029 A 
ATOM     69  C   UNL A   1      39.373  33.099  35.147  1.00  0.00     0.049 A 
ATOM     70  H   UNL A   1      40.029  31.655  33.757  1.00  0.00     0.167 HD
ATOM     71  C   UNL A   1      41.238  31.945  36.303  1.00  0.00     0.074 A 
ATOM     72  C   UNL A   1      42.142  31.759  37.418  1.00  0.00     0.031 C 
ATOM     73  C   UNL A   1      40.272  32.896  36.255  1.00  0.00     0.037 A 
BRANCH  60  74
ATOM     74  C   UNL A   1      37.003  32.900  31.016  1.00  0.00     0.058 A 
ATOM     75  C   UNL A   1      35.678  32.537  31.305  1.00  0.00     0.135 A 
ATOM     76  C   UNL A   1      37.225  33.788  29.953  1.00  0.00     0.135 A 
ATOM     77  F   UNL A   1      35.412  31.701  32.320  1.00  0.00    -0.206 F 
ATOM     78  C   UNL A   1      34.613  33.023  30.557  1.00  0.00     0.059 A 
ATOM     79  C   UNL A   1      36.172  34.303  29.204  1.00  0.00     0.059 A 
ATOM     80  F   UNL A   1      38.473  34.187  29.657  1.00  0.00    -0.206 F 
ATOM     81  C   UNL A   1      34.869  33.904  29.506  1.00  0.00     0.060 A 
BRANCH  81  82
ATOM     82  S   UNL A   1      33.469  34.555  28.570  1.00  0.00     0.124 S 
ATOM     83  O   UNL A   1      33.103  33.411  27.744  1.00  0.00    -0.237 OA
ATOM     84  O   UNL A   1      32.528  34.905  29.630  1.00  0.00    -0.237 OA
ATOM     85  O   UNL A   1      34.042  35.693  27.854  1.00  0.00    -0.744 OA
ENDBRANCH  81  82
ENDBRANCH  60  74
BRANCH  61  86
ATOM     86  C   UNL A   1      44.443  28.504  36.008  1.00  0.00     0.058 A 
ATOM     87  C   UNL A   1      44.195  27.450  36.902  1.00  0.00     0.135 A 
ATOM     88  C   UNL A   1      45.771  28.926  35.847  1.00  0.00     0.135 A 
ATOM     89  F   UNL A   1      42.943  27.005  37.087  1.00  0.00    -0.206 F 
ATOM     90  C   UNL A   1      45.218  26.857  37.631  1.00  0.00     0.059 A 
ATOM     91  C   UNL A   1      46.817  28.331  36.549  1.00  0.00     0.059 A 
ATOM     92  F   UNL A   1      46.061  29.913  34.987  1.00  0.00    -0.206 F 
ATOM     93  C   UNL A   1      46.527  27.308  37.452  1.00  0.00     0.060 A 
BRANCH  93  94
ATOM     94  S   UNL A   1      47.839  26.525  38.413  1.00  0.00     0.124 S 
ATOM     95  O   UNL A   1      48.345  27.655  39.186  1.00  0.00    -0.237 OA
ATOM     96  O   UNL A   1      47.105  25.516  39.170  1.00  0.00    -0.237 OA
ATOM     97  O   UNL A   1      48.742  26.005  37.391  1.00  0.00    -0.744 OA
ENDBRANCH  93  94
ENDBRANCH  61  86
BRANCH  73  98
ATOM     98  C   UNL A   1      40.113  33.801  37.445  1.00  0.00     0.058 A 
ATOM     99  C   UNL A   1      39.185  33.491  38.453  1.00  0.00     0.135 A 
ATOM    100  C   UNL A   1      40.799  35.021  37.537  1.00  0.00     0.135 A 
ATOM    101  F   UNL A   1      38.499  32.339  38.410  1.00  0.00    -0.206 F 
ATOM    102  C   UNL A   1      38.925  34.372  39.497  1.00  0.00     0.059 A 
ATOM    103  C   UNL A   1      40.570  35.909  38.586  1.00  0.00     0.059 A 
ATOM    104  F   UNL A   1      41.703  35.359  36.604  1.00  0.00    -0.206 F 
ATOM    105  C   UNL A   1      39.616  35.583  39.550  1.00  0.00     0.060 A 
BRANCH 105 106
ATOM    106  S   UNL A   1      39.257  36.720  40.906  1.00  0.00     0.124 S 
ATOM    107  O   UNL A   1      40.594  37.028  41.400  1.00  0.00    -0.237 OA
ATOM    108  O   UNL A   1      38.565  37.809  40.222  1.00  0.00    -0.237 OA
ATOM    109  O   UNL A   1      38.423  35.925  41.803  1.00  0.00    -0.744 OA
ENDBRANCH 105 106
ENDBRANCH  73  98
ENDBRANCH  47  48
ENDBRANCH  40  42
ENDBRANCH  39  40
ENDBRANCH  38  39
ENDBRANCH  37  38
ENDBRANCH  36  37
ENDBRANCH  35  36
ENDBRANCH   1  35
TORSDOF 26
ENDMDL
MODEL 2
REMARK VINA RESULT:      -9.8      1.551      2.653
REMARK SMILES CC(C)[C@@H](NC(=O)/C(=C\c1ccccc1F)NC(=O)c1ccccc1)C(=O)OCCOCCOCCOC(=O)c1ccc(-c2c3nc(c(-c4c(F)cc(S(=O)(=O)[O-])cc4F)c4ccc([nH]4)c(-c4c(F)cc(S(=O)(=O)[O-])cc4F)c4nc(c(-c5c(F)cc(S(=O)(=O)[O-])cc5F)c5ccc2[nH]5)C=C4)C=C3)cc1
REMARK SMILES IDX 32 1 31 2 30 3 29 4 28 5 26 6 27 7 4 8 2 9 1 10 3 11 5 12
REMARK SMILES IDX 6 13 7 15 8 16 9 17 17 18 18 19 19 21 20 22 21 23 25 24
REMARK SMILES IDX 22 25 24 26 23 27 10 28 11 29 15 30 12 31 14 32 16 33 13 34
REMARK SMILES IDX 33 35 34 36 35 37 36 38 37 39 38 40 39 41 40 42 41 43 105 44
REMARK SMILES IDX 42 45 104 46 43 47 44 48 45 49 98 50 46 51 103 52 97 53
REMARK SMILES IDX 99 54 47 55 102 56 96 57 95 58 48 60 82 61 61 62 81 63 62 64
REMARK SMILES IDX 65 65 80 66 100 67 63 68 64 69 79 71 101 72 66 73 49 74
REMARK SMILES IDX 50 75 59 76 51 77 52 78 58 79 60 80 53 81 54 82 55 83 56 84
REMARK SMILES IDX 57 85 83 86 84 87 93 88 85 89 86 90 92 91 94 92 87 93 88 94
REMARK SMILES IDX 89 95 90 96 91 97 67 98 68 99 77 100 69 101 70 102 76 103
REMARK SMILES IDX 78 104 71 105 72 106 73 107 74 108 75 109
REMARK H PARENT 5 14 17 20 99 59 65 70
REMARK Flexibility Score: inf
ROOT
ATOM      1  C   UNL A   1      39.258  21.606  26.043  1.00  0.00     0.188 C 
ENDROOT
BRANCH   1   2
ATOM      2  O   UNL A   1      38.050  22.237  26.456  1.00  0.00    -0.376 OA
BRANCH   2   3
ATOM      3  C   UNL A   1      37.369  23.013  25.481  1.00  0.00     0.202 C 
BRANCH   3   4
ATOM      4  C   UNL A   1      35.834  23.066  25.661  1.00  0.00     0.261 C 
BRANCH   4   5
ATOM      5  O   UNL A   1      35.155  24.297  26.028  1.00  0.00    -0.462 OA
BRANCH   5   6
ATOM      6  C   UNL A   1      34.261  24.800  25.154  1.00  0.00     0.328 C 
ATOM      7  O   UNL A   1      34.574  25.090  24.007  1.00  0.00    -0.250 OA
BRANCH   6   8
ATOM      8  C   UNL A   1      32.808  24.940  25.660  1.00  0.00     0.195 C 
BRANCH   8   9
ATOM      9  C   UNL A   1      32.044  23.640  26.065  1.00  0.00     0.017 C 
ATOM     10  C   UNL A   1      32.303  22.500  25.053  1.00  0.00     0.010 C 
ATOM     11  C   UNL A   1      32.481  23.103  27.437  1.00  0.00     0.010 C 
ENDBRANCH   8   9
BRANCH   8  12
ATOM     12  N   UNL A   1      32.686  25.981  26.702  1.00  0.00    -0.337 N 
ATOM     13  C   UNL A   1      31.807  27.025  26.825  1.00  0.00     0.268 C 
ATOM     14  H   UNL A   1      33.347  25.914  27.429  1.00  0.00     0.164 HD
ATOM     15  O   UNL A   1      31.484  27.390  27.954  1.00  0.00    -0.268 OA
BRANCH  13  16
ATOM     16  C   UNL A   1      31.368  27.796  25.617  1.00  0.00     0.107 C 
ATOM     17  C   UNL A   1      32.025  28.921  25.267  1.00  0.00     0.043 C 
BRANCH  16  18
ATOM     18  N   UNL A   1      30.200  27.448  24.946  1.00  0.00    -0.317 N 
ATOM     19  C   UNL A   1      29.964  26.563  23.916  1.00  0.00     0.255 C 
ATOM     20  H   UNL A   1      29.397  27.918  25.266  1.00  0.00     0.170 HD
ATOM     21  O   UNL A   1      28.837  26.122  23.703  1.00  0.00    -0.269 OA
BRANCH  19  22
ATOM     22  C   UNL A   1      31.046  26.183  22.997  1.00  0.00     0.040 A 
ATOM     23  C   UNL A   1      31.220  24.831  22.696  1.00  0.00     0.014 A 
ATOM     24  C   UNL A   1      31.870  27.160  22.430  1.00  0.00     0.014 A 
ATOM     25  C   UNL A   1      32.182  24.460  21.759  1.00  0.00     0.001 A 
ATOM     26  C   UNL A   1      32.809  26.784  21.470  1.00  0.00     0.001 A 
ATOM     27  C   UNL A   1      32.957  25.436  21.130  1.00  0.00     0.000 A 
ENDBRANCH  19  22
ENDBRANCH  16  18
BRANCH  17  28
ATOM     28  C   UNL A   1      33.108  29.517  26.058  1.00  0.00     0.012 A 
ATOM     29  C   UNL A   1      32.818  30.637  26.847  1.00  0.00     0.011 A 
ATOM     30  C   UNL A   1      34.371  28.933  26.153  1.00  0.00     0.130 A 
ATOM     31  C   UNL A   1      33.729  31.070  27.810  1.00  0.00     0.001 A 
ATOM     32  C   UNL A   1      35.304  29.401  27.075  1.00  0.00     0.040 A 
ATOM     33  F   UNL A   1      34.691  27.887  25.378  1.00  0.00    -0.206 F 
ATOM     34  C   UNL A   1      34.971  30.453  27.926  1.00  0.00     0.003 A 
ENDBRANCH  17  28
ENDBRANCH  13  16
ENDBRANCH   8  12
ENDBRANCH   6   8
ENDBRANCH   5   6
ENDBRANCH   4   5
ENDBRANCH   3   4
ENDBRANCH   2   3
ENDBRANCH   1   2
BRANCH   1  35
ATOM     35  C   UNL A   1      40.478  22.522  26.147  1.00  0.00     0.188 C 
BRANCH  35  36
ATOM     36  O   UNL A   1      41.678  21.994  26.706  1.00  0.00    -0.376 OA
BRANCH  36  37
ATOM     37  C   UNL A   1      42.870  22.753  26.542  1.00  0.00     0.202 C 
BRANCH  37  38
ATOM     38  C   UNL A   1      42.931  23.712  25.350  1.00  0.00     0.261 C 
BRANCH  38  39
ATOM     39  O   UNL A   1      42.410  25.024  25.607  1.00  0.00    -0.460 OA
BRANCH  39  40
ATOM     40  C   UNL A   1      43.290  25.858  26.203  1.00  0.00     0.338 C 
ATOM     41  O   UNL A   1      44.473  26.032  25.900  1.00  0.00    -0.246 OA
BRANCH  40  42
ATOM     42  C   UNL A   1      42.626  26.660  27.236  1.00  0.00     0.060 A 
ATOM     43  C   UNL A   1      43.041  27.984  27.409  1.00  0.00     0.016 A 
ATOM     44  C   UNL A   1      41.710  26.084  28.120  1.00  0.00     0.016 A 
ATOM     45  C   UNL A   1      42.562  28.734  28.482  1.00  0.00     0.010 A 
ATOM     46  C   UNL A   1      41.242  26.835  29.205  1.00  0.00     0.010 A 
ATOM     47  C   UNL A   1      41.686  28.155  29.407  1.00  0.00    -0.014 A 
BRANCH  47  48
ATOM     48  C   UNL A   1      41.394  28.859  30.681  1.00  0.00     0.031 A 
ATOM     49  C   UNL A   1      40.279  29.867  30.703  1.00  0.00     0.074 A 
ATOM     50  C   UNL A   1      42.061  28.576  31.815  1.00  0.00     0.049 A 
ATOM     51  N   UNL A   1      39.951  30.721  31.636  1.00  0.00    -0.248 NA
ATOM     52  C   UNL A   1      39.411  29.909  29.514  1.00  0.00     0.031 C 
ATOM     53  C   UNL A   1      43.075  27.534  31.966  1.00  0.00     0.029 A 
ATOM     54  N   UNL A   1      41.981  29.151  33.060  1.00  0.00    -0.354 N 
ATOM     55  C   UNL A   1      38.860  31.423  31.136  1.00  0.00     0.074 A 
ATOM     56  C   UNL A   1      38.580  30.895  29.819  1.00  0.00     0.031 C 
ATOM     57  C   UNL A   1      43.532  27.553  33.231  1.00  0.00     0.029 A 
ATOM     58  C   UNL A   1      42.890  28.646  33.960  1.00  0.00     0.049 A 
ATOM     59  H   UNL A   1      41.335  29.858  33.286  1.00  0.00     0.167 HD
ATOM     60  C   UNL A   1      38.160  32.421  31.724  1.00  0.00     0.037 A 
ATOM     61  C   UNL A   1      43.199  29.051  35.210  1.00  0.00     0.037 A 
ATOM     62  C   UNL A   1      38.431  32.931  33.041  1.00  0.00     0.049 A 
ATOM     63  C   UNL A   1      42.484  30.238  35.803  1.00  0.00     0.074 A 
ATOM     64  C   UNL A   1      37.798  33.965  33.710  1.00  0.00     0.029 A 
ATOM     65  N   UNL A   1      39.406  32.439  33.895  1.00  0.00    -0.354 N 
ATOM     66  N   UNL A   1      41.511  30.955  35.293  1.00  0.00    -0.248 NA
ATOM     67  C   UNL A   1      42.924  30.687  37.134  1.00  0.00     0.031 C 
ATOM     68  C   UNL A   1      38.417  34.122  34.954  1.00  0.00     0.029 A 
ATOM     69  C   UNL A   1      39.404  33.157  35.078  1.00  0.00     0.049 A 
ATOM     70  H   UNL A   1      40.010  31.690  33.690  1.00  0.00     0.167 HD
ATOM     71  C   UNL A   1      41.211  31.925  36.245  1.00  0.00     0.074 A 
ATOM     72  C   UNL A   1      42.099  31.701  37.366  1.00  0.00     0.031 C 
ATOM     73  C   UNL A   1      40.286  32.915  36.192  1.00  0.00     0.037 A 
BRANCH  60  74
ATOM     74  C   UNL A   1      37.059  33.061  30.928  1.00  0.00     0.058 A 
ATOM     75  C   UNL A   1      35.717  32.768  31.220  1.00  0.00     0.135 A 
ATOM     76  C   UNL A   1      37.326  33.925  29.856  1.00  0.00     0.135 A 
ATOM     77  F   UNL A   1      35.410  31.957  32.244  1.00  0.00    -0.206 F 
ATOM     78  C   UNL A   1      34.678  33.298  30.466  1.00  0.00     0.059 A 
ATOM     79  C   UNL A   1      36.299  34.484  29.100  1.00  0.00     0.059 A 
ATOM     80  F   UNL A   1      38.591  34.258  29.556  1.00  0.00    -0.206 F 
ATOM     81  C   UNL A   1      34.978  34.154  29.406  1.00  0.00     0.060 A 
BRANCH  81  82
ATOM     82  S   UNL A   1      33.613  34.864  28.461  1.00  0.00     0.124 S 
ATOM     83  O   UNL A   1      33.789  36.290  28.705  1.00  0.00    -0.237 OA
ATOM     84  O   UNL A   1      33.908  34.407  27.106  1.00  0.00    -0.237 OA
ATOM     85  O   UNL A   1      32.431  34.260  29.071  1.00  0.00    -0.744 OA
ENDBRANCH  81  82
ENDBRANCH  60  74
BRANCH  61  86
ATOM     86  C   UNL A   1      44.275  28.357  35.968  1.00  0.00     0.058 A 
ATOM     87  C   UNL A   1      43.977  27.319  36.865  1.00  0.00     0.135 A 
ATOM     88  C   UNL A   1      45.621  28.717  35.810  1.00  0.00     0.135 A 
ATOM     89  F   UNL A   1      42.704  26.932  37.048  1.00  0.00    -0.206 F 
ATOM     90  C   UNL A   1      44.969  26.684  37.601  1.00  0.00     0.059 A 
ATOM     91  C   UNL A   1      46.637  28.079  36.519  1.00  0.00     0.059 A 
ATOM     92  F   UNL A   1      45.958  29.686  34.946  1.00  0.00    -0.206 F 
ATOM     93  C   UNL A   1      46.297  27.074  37.425  1.00  0.00     0.060 A 
BRANCH  93  94
ATOM     94  S   UNL A   1      47.569  26.237  38.395  1.00  0.00     0.124 S 
ATOM     95  O   UNL A   1      47.336  26.796  39.722  1.00  0.00    -0.237 OA
ATOM     96  O   UNL A   1      47.210  24.833  38.225  1.00  0.00    -0.237 OA
ATOM     97  O   UNL A   1      48.811  26.647  37.748  1.00  0.00    -0.744 OA
ENDBRANCH  93  94
ENDBRANCH  61  86
BRANCH  73  98
ATOM     98  C   UNL A   1      40.154  33.825  37.382  1.00  0.00     0.058 A 
ATOM     99  C   UNL A   1      39.129  33.622  38.320  1.00  0.00     0.135 A 
ATOM    100  C   UNL A   1      40.974  34.952  37.539  1.00  0.00     0.135 A 
ATOM    101  F   UNL A   1      38.313  32.562  38.212  1.00  0.00    -0.206 F 
ATOM    102  C   UNL A   1      38.905  34.520  39.358  1.00  0.00     0.059 A 
ATOM    103  C   UNL A   1      40.782  35.853  38.584  1.00  0.00     0.059 A 
ATOM    104  F   UNL A   1      41.975  35.184  36.675  1.00  0.00    -0.206 F 
ATOM    105  C   UNL A   1      39.732  35.638  39.476  1.00  0.00     0.060 A 
BRANCH 105 106
ATOM    106  S   UNL A   1      39.419  36.801  40.822  1.00  0.00     0.124 S 
ATOM    107  O   UNL A   1      40.739  36.914  41.431  1.00  0.00    -0.237 OA
ATOM    108  O   UNL A   1      38.945  37.982  40.107  1.00  0.00    -0.237 OA
ATOM    109  O   UNL A   1      38.410  36.121  41.629  1.00  0.00    -0.744 OA
ENDBRANCH 105 106
ENDBRANCH  73  98
ENDBRANCH  47  48
ENDBRANCH  40  42
ENDBRANCH  39  40
ENDBRANCH  38  39
ENDBRANCH  37  38
ENDBRANCH  36  37
ENDBRANCH  35  36
ENDBRANCH   1  35
TORSDOF 26
ENDMDL
MODEL 3
REMARK VINA RESULT:      -9.4      3.816      8.488
REMARK SMILES CC(C)[C@@H](NC(=O)/C(=C\c1ccccc1F)NC(=O)c1ccccc1)C(=O)OCCOCCOCCOC(=O)c1ccc(-c2c3nc(c(-c4c(F)cc(S(=O)(=O)[O-])cc4F)c4ccc([nH]4)c(-c4c(F)cc(S(=O)(=O)[O-])cc4F)c4nc(c(-c5c(F)cc(S(=O)(=O)[O-])cc5F)c5ccc2[nH]5)C=C4)C=C3)cc1
REMARK SMILES IDX 32 1 31 2 30 3 29 4 28 5 26 6 27 7 4 8 2 9 1 10 3 11 5 12
REMARK SMILES IDX 6 13 7 15 8 16 9 17 17 18 18 19 19 21 20 22 21 23 25 24
REMARK SMILES IDX 22 25 24 26 23 27 10 28 11 29 15 30 12 31 14 32 16 33 13 34
REMARK SMILES IDX 33 35 34 36 35 37 36 38 37 39 38 40 39 41 40 42 41 43 105 44
REMARK SMILES IDX 42 45 104 46 43 47 44 48 45 49 98 50 46 51 103 52 97 53
REMARK SMILES IDX 99 54 47 55 102 56 96 57 95 58 48 60 82 61 61 62 81 63 62 64
REMARK SMILES IDX 65 65 80 66 100 67 63 68 64 69 79 71 101 72 66 73 49 74
REMARK SMILES IDX 50 75 59 76 51 77 52 78 58 79 60 80 53 81 54 82 55 83 56 84
REMARK SMILES IDX 57 85 83 86 84 87 93 88 85 89 86 90 92 91 94 92 87 93 88 94
REMARK SMILES IDX 89 95 90 96 91 97 67 98 68 99 77 100 69 101 70 102 76 103
REMARK SMILES IDX 78 104 71 105 72 106 73 107 74 108 75 109
REMARK H PARENT 5 14 17 20 99 59 65 70
REMARK Flexibility Score: inf
ROOT
ATOM      1  C   UNL A   1      38.163  21.408  25.310  1.00  0.00     0.188 C 
ENDROOT
BRANCH   1   2
ATOM      2  O   UNL A   1      37.175  22.430  25.212  1.00  0.00    -0.376 OA
BRANCH   2   3
ATOM      3  C   UNL A   1      36.648  22.686  23.918  1.00  0.00     0.202 C 
BRANCH   3   4
ATOM      4  C   UNL A   1      35.379  23.570  23.908  1.00  0.00     0.261 C 
BRANCH   4   5
ATOM      5  O   UNL A   1      34.780  24.022  22.664  1.00  0.00    -0.462 OA
BRANCH   5   6
ATOM      6  C   UNL A   1      33.449  23.860  22.518  1.00  0.00     0.328 C 
ATOM      7  O   UNL A   1      32.955  22.768  22.276  1.00  0.00    -0.250 OA
BRANCH   6   8
ATOM      8  C   UNL A   1      32.577  25.118  22.729  1.00  0.00     0.195 C 
BRANCH   8   9
ATOM      9  C   UNL A   1      32.559  26.196  21.600  1.00  0.00     0.017 C 
ATOM     10  C   UNL A   1      33.749  27.173  21.740  1.00  0.00     0.010 C 
ATOM     11  C   UNL A   1      32.671  25.581  20.196  1.00  0.00     0.010 C 
ENDBRANCH   8   9
BRANCH   8  12
ATOM     12  N   UNL A   1      31.206  24.771  23.161  1.00  0.00    -0.337 N 
ATOM     13  C   UNL A   1      30.191  25.559  23.636  1.00  0.00     0.268 C 
ATOM     14  H   UNL A   1      30.986  23.813  23.098  1.00  0.00     0.164 HD
ATOM     15  O   UNL A   1      29.031  25.233  23.390  1.00  0.00    -0.268 OA
BRANCH  13  16
ATOM     16  C   UNL A   1      30.485  26.704  24.557  1.00  0.00     0.107 C 
ATOM     17  C   UNL A   1      31.047  26.466  25.760  1.00  0.00     0.043 C 
BRANCH  16  18
ATOM     18  N   UNL A   1      30.044  27.986  24.247  1.00  0.00    -0.317 N 
ATOM     19  C   UNL A   1      30.685  29.206  24.272  1.00  0.00     0.255 C 
ATOM     20  H   UNL A   1      29.105  28.030  23.958  1.00  0.00     0.170 HD
ATOM     21  O   UNL A   1      30.259  30.161  23.626  1.00  0.00    -0.269 OA
BRANCH  19  22
ATOM     22  C   UNL A   1      31.858  29.416  25.133  1.00  0.00     0.040 A 
ATOM     23  C   UNL A   1      31.689  30.117  26.328  1.00  0.00     0.014 A 
ATOM     24  C   UNL A   1      33.107  28.909  24.764  1.00  0.00     0.014 A 
ATOM     25  C   UNL A   1      32.769  30.248  27.200  1.00  0.00     0.001 A 
ATOM     26  C   UNL A   1      34.174  29.016  25.655  1.00  0.00     0.001 A 
ATOM     27  C   UNL A   1      34.001  29.678  26.874  1.00  0.00     0.000 A 
ENDBRANCH  19  22
ENDBRANCH  16  18
BRANCH  17  28
ATOM     28  C   UNL A   1      31.313  25.124  26.290  1.00  0.00     0.012 A 
ATOM     29  C   UNL A   1      30.222  24.287  26.559  1.00  0.00     0.011 A 
ATOM     30  C   UNL A   1      32.603  24.611  26.410  1.00  0.00     0.130 A 
ATOM     31  C   UNL A   1      30.426  22.929  26.803  1.00  0.00     0.001 A 
ATOM     32  C   UNL A   1      32.810  23.267  26.711  1.00  0.00     0.040 A 
ATOM     33  F   UNL A   1      33.666  25.401  26.202  1.00  0.00    -0.206 F 
ATOM     34  C   UNL A   1      31.719  22.417  26.878  1.00  0.00     0.003 A 
ENDBRANCH  17  28
ENDBRANCH  13  16
ENDBRANCH   8  12
ENDBRANCH   6   8
ENDBRANCH   5   6
ENDBRANCH   4   5
ENDBRANCH   3   4
ENDBRANCH   2   3
ENDBRANCH   1   2
BRANCH   1  35
ATOM     35  C   UNL A   1      39.393  21.839  26.109  1.00  0.00     0.188 C 
BRANCH  35  36
ATOM     36  O   UNL A   1      39.982  20.902  27.007  1.00  0.00    -0.376 OA
BRANCH  36  37
ATOM     37  C   UNL A   1      41.379  21.014  27.252  1.00  0.00     0.202 C 
BRANCH  37  38
ATOM     38  C   UNL A   1      42.316  20.859  26.051  1.00  0.00     0.261 C 
BRANCH  38  39
ATOM     39  O   UNL A   1      43.485  21.689  26.090  1.00  0.00    -0.460 OA
BRANCH  39  40
ATOM     40  C   UNL A   1      43.361  22.848  25.407  1.00  0.00     0.338 C 
ATOM     41  O   UNL A   1      43.093  22.981  24.210  1.00  0.00    -0.246 OA
BRANCH  40  42
ATOM     42  C   UNL A   1      43.477  23.998  26.310  1.00  0.00     0.060 A 
ATOM     43  C   UNL A   1      44.745  24.554  26.506  1.00  0.00     0.016 A 
ATOM     44  C   UNL A   1      42.387  24.436  27.065  1.00  0.00     0.016 A 
ATOM     45  C   UNL A   1      44.937  25.537  27.476  1.00  0.00     0.010 A 
ATOM     46  C   UNL A   1      42.585  25.412  28.049  1.00  0.00     0.010 A 
ATOM     47  C   UNL A   1      43.866  25.948  28.278  1.00  0.00    -0.014 A 
BRANCH  47  48
ATOM     48  C   UNL A   1      44.126  26.785  29.476  1.00  0.00     0.031 A 
ATOM     49  C   UNL A   1      44.497  26.099  30.761  1.00  0.00     0.074 A 
ATOM     50  C   UNL A   1      44.092  28.129  29.422  1.00  0.00     0.049 A 
ATOM     51  N   UNL A   1      44.602  26.595  31.966  1.00  0.00    -0.248 NA
ATOM     52  C   UNL A   1      44.800  24.660  30.673  1.00  0.00     0.031 C 
ATOM     53  C   UNL A   1      43.873  28.925  28.215  1.00  0.00     0.029 A 
ATOM     54  N   UNL A   1      44.241  29.063  30.419  1.00  0.00    -0.354 N 
ATOM     55  C   UNL A   1      44.952  25.526  32.784  1.00  0.00     0.074 A 
ATOM     56  C   UNL A   1      45.043  24.356  31.939  1.00  0.00     0.031 C 
ATOM     57  C   UNL A   1      43.889  30.229  28.547  1.00  0.00     0.029 A 
ATOM     58  C   UNL A   1      44.057  30.357  29.993  1.00  0.00     0.049 A 
ATOM     59  H   UNL A   1      44.458  28.827  31.349  1.00  0.00     0.167 HD
ATOM     60  C   UNL A   1      45.172  25.524  34.118  1.00  0.00     0.037 A 
ATOM     61  C   UNL A   1      43.987  31.506  30.697  1.00  0.00     0.037 A 
ATOM     62  C   UNL A   1      45.098  26.694  34.951  1.00  0.00     0.049 A 
ATOM     63  C   UNL A   1      44.122  31.467  32.198  1.00  0.00     0.074 A 
ATOM     64  C   UNL A   1      45.271  26.786  36.322  1.00  0.00     0.029 A 
ATOM     65  N   UNL A   1      44.840  27.977  34.493  1.00  0.00    -0.354 N 
ATOM     66  N   UNL A   1      44.367  30.440  32.978  1.00  0.00    -0.248 NA
ATOM     67  C   UNL A   1      43.949  32.738  32.919  1.00  0.00     0.031 C 
ATOM     68  C   UNL A   1      45.081  28.121  36.696  1.00  0.00     0.029 A 
ATOM     69  C   UNL A   1      44.834  28.865  35.554  1.00  0.00     0.049 A 
ATOM     70  H   UNL A   1      44.685  28.219  33.552  1.00  0.00     0.167 HD
ATOM     71  C   UNL A   1      44.395  30.943  34.275  1.00  0.00     0.074 A 
ATOM     72  C   UNL A   1      44.151  32.367  34.178  1.00  0.00     0.031 C 
ATOM     73  C   UNL A   1      44.601  30.283  35.442  1.00  0.00     0.037 A 
BRANCH  60  74
ATOM     74  C   UNL A   1      45.471  24.206  34.773  1.00  0.00     0.058 A 
ATOM     75  C   UNL A   1      46.798  23.765  34.894  1.00  0.00     0.135 A 
ATOM     76  C   UNL A   1      44.452  23.362  35.239  1.00  0.00     0.135 A 
ATOM     77  F   UNL A   1      47.810  24.540  34.474  1.00  0.00    -0.206 F 
ATOM     78  C   UNL A   1      47.104  22.525  35.441  1.00  0.00     0.059 A 
ATOM     79  C   UNL A   1      44.736  22.125  35.810  1.00  0.00     0.059 A 
ATOM     80  F   UNL A   1      43.169  23.752  35.172  1.00  0.00    -0.206 F 
ATOM     81  C   UNL A   1      46.065  21.710  35.895  1.00  0.00     0.060 A 
BRANCH  81  82
ATOM     82  S   UNL A   1      46.484  20.119  36.639  1.00  0.00     0.124 S 
ATOM     83  O   UNL A   1      45.821  19.184  35.738  1.00  0.00    -0.237 OA
ATOM     84  O   UNL A   1      47.943  20.131  36.586  1.00  0.00    -0.237 OA
ATOM     85  O   UNL A   1      45.916  20.214  37.981  1.00  0.00    -0.744 OA
ENDBRANCH  81  82
ENDBRANCH  60  74
BRANCH  61  86
ATOM     86  C   UNL A   1      43.724  32.791  29.993  1.00  0.00     0.058 A 
ATOM     87  C   UNL A   1      44.769  33.526  29.413  1.00  0.00     0.135 A 
ATOM     88  C   UNL A   1      42.424  33.308  29.888  1.00  0.00     0.135 A 
ATOM     89  F   UNL A   1      46.031  33.072  29.480  1.00  0.00    -0.206 F 
ATOM     90  C   UNL A   1      44.542  34.742  28.779  1.00  0.00     0.059 A 
ATOM     91  C   UNL A   1      42.167  34.512  29.236  1.00  0.00     0.059 A 
ATOM     92  F   UNL A   1      41.390  32.629  30.406  1.00  0.00    -0.206 F 
ATOM     93  C   UNL A   1      43.237  35.229  28.700  1.00  0.00     0.060 A 
BRANCH  93  94
ATOM     94  S   UNL A   1      42.965  36.812  27.875  1.00  0.00     0.124 S 
ATOM     95  O   UNL A   1      43.236  36.464  26.484  1.00  0.00    -0.237 OA
ATOM     96  O   UNL A   1      41.570  37.092  28.200  1.00  0.00    -0.237 OA
ATOM     97  O   UNL A   1      43.942  37.694  28.506  1.00  0.00    -0.744 OA
ENDBRANCH  93  94
ENDBRANCH  61  86
BRANCH  73  98
ATOM     98  C   UNL A   1      44.601  31.082  36.716  1.00  0.00     0.058 A 
ATOM     99  C   UNL A   1      45.797  31.624  37.213  1.00  0.00     0.135 A 
ATOM    100  C   UNL A   1      43.442  31.223  37.494  1.00  0.00     0.135 A 
ATOM    101  F   UNL A   1      46.935  31.513  36.511  1.00  0.00    -0.206 F 
ATOM    102  C   UNL A   1      45.849  32.257  38.451  1.00  0.00     0.059 A 
ATOM    103  C   UNL A   1      43.466  31.872  38.726  1.00  0.00     0.059 A 
ATOM    104  F   UNL A   1      42.272  30.731  37.057  1.00  0.00    -0.206 F 
ATOM    105  C   UNL A   1      44.679  32.367  39.205  1.00  0.00     0.060 A 
BRANCH 105 106
ATOM    106  S   UNL A   1      44.767  33.180  40.815  1.00  0.00     0.124 S 
ATOM    107  O   UNL A   1      43.421  32.964  41.332  1.00  0.00    -0.237 OA
ATOM    108  O   UNL A   1      45.831  32.434  41.480  1.00  0.00    -0.237 OA
ATOM    109  O   UNL A   1      45.097  34.562  40.479  1.00  0.00    -0.744 OA
ENDBRANCH 105 106
ENDBRANCH  73  98
ENDBRANCH  47  48
ENDBRANCH  40  42
ENDBRANCH  39  40
ENDBRANCH  38  39
ENDBRANCH  37  38
ENDBRANCH  36  37
ENDBRANCH  35  36
ENDBRANCH   1  35
TORSDOF 26
ENDMDL
