MODEL 1
REMARK VINA RESULT:     -11.5      0.000      0.000
REMARK SMILES COc1cccc(-c2nn(-c3cc4c(cc3C(N)=O)OCO4)cc2C(=O)OCCOCCOCCOC(=O)c2ccc(-c3c4nc(c(-c5c(F)cc(S(=O)(=O)[O-])cc5F)c5ccc([nH]5)c(-c5c(F)cc(S(=O)(=O)[O-])cc5F)c5nc(c(-c6c(F)cc(S(=O)(=O)[O-])cc6F)c6ccc3[nH]6)C=C5)C=C4)cc2)c1
REMARK SMILES IDX 32 1 31 2 30 3 29 4 28 5 27 6 25 7 26 8 24 9 8 10 9 11 10 12
REMARK SMILES IDX 23 13 7 14 3 15 4 16 105 17 5 18 6 19 2 20 1 21 11 22 12 23
REMARK SMILES IDX 16 24 13 25 15 26 14 27 22 28 20 29 21 30 17 31 18 32 19 33
REMARK SMILES IDX 33 36 34 37 35 38 36 39 37 40 38 41 39 42 40 43 104 44 41 45
REMARK SMILES IDX 103 46 42 47 43 48 44 49 97 50 45 51 102 52 96 53 98 54
REMARK SMILES IDX 46 55 101 56 95 57 94 58 47 60 81 61 60 62 80 63 61 64 64 65
REMARK SMILES IDX 79 66 99 67 62 68 63 69 78 71 100 72 65 73 48 74 49 75 58 76
REMARK SMILES IDX 50 77 51 78 57 79 59 80 52 81 53 82 54 83 55 84 56 85 82 86
REMARK SMILES IDX 83 87 92 88 84 89 85 90 91 91 93 92 86 93 87 94 88 95 89 96
REMARK SMILES IDX 90 97 66 98 67 99 76 100 68 101 69 102 75 103 77 104 70 105
REMARK SMILES IDX 71 106 72 107 73 108 74 109
REMARK H PARENT 18 34 18 35 98 59 64 70
REMARK Flexibility Score: inf
ROOT
ATOM      1  C   UNL A   1      35.716  23.005  23.345  1.00  0.00     0.188 C 
ENDROOT
BRANCH   1   2
ATOM      2  C   UNL A   1      34.417  23.480  22.659  1.00  0.00     0.188 C 
BRANCH   2   3
ATOM      3  O   UNL A   1      34.153  24.853  22.804  1.00  0.00    -0.376 OA
BRANCH   3   4
ATOM      4  C   UNL A   1      33.263  25.500  21.911  1.00  0.00     0.202 C 
BRANCH   4   5
ATOM      5  C   UNL A   1      32.247  26.596  22.299  1.00  0.00     0.261 C 
BRANCH   5   6
ATOM      6  O   UNL A   1      30.877  26.229  22.456  1.00  0.00    -0.460 OA
BRANCH   6   7
ATOM      7  C   UNL A   1      30.381  26.228  23.732  1.00  0.00     0.342 C 
ATOM      8  O   UNL A   1      29.442  26.911  24.109  1.00  0.00    -0.246 OA
BRANCH   7   9
ATOM      9  C   UNL A   1      31.040  25.240  24.561  1.00  0.00     0.106 A 
ATOM     10  C   UNL A   1      31.938  25.421  25.653  1.00  0.00     0.107 A 
ATOM     11  N   UNL A   1      32.376  24.239  26.125  1.00  0.00    -0.167 NA
ATOM     12  N   UNL A   1      31.892  23.343  25.229  1.00  0.00    -0.239 N 
ATOM     13  C   UNL A   1      30.849  23.876  24.516  1.00  0.00     0.131 A 
BRANCH  10  14
ATOM     14  C   UNL A   1      32.303  26.684  26.279  1.00  0.00     0.007 A 
ATOM     15  C   UNL A   1      33.953  28.400  26.710  1.00  0.00     0.119 A 
ATOM     16  C   UNL A   1      32.969  29.191  27.308  1.00  0.00     0.046 A 
ATOM     17  C   UNL A   1      33.621  27.142  26.200  1.00  0.00     0.056 A 
ATOM     18  C   UNL A   1      31.656  28.733  27.402  1.00  0.00     0.005 A 
ATOM     19  C   UNL A   1      31.327  27.474  26.903  1.00  0.00     0.011 A 
BRANCH  15  20
ATOM     20  O   UNL A   1      35.217  28.925  26.720  1.00  0.00    -0.497 OA
ATOM     21  C   UNL A   1      35.389  30.051  27.571  1.00  0.00     0.278 C 
ENDBRANCH  15  20
ENDBRANCH  10  14
BRANCH  12  22
ATOM     22  C   UNL A   1      32.414  22.031  25.108  1.00  0.00     0.081 A 
ATOM     23  C   UNL A   1      31.961  21.235  24.037  1.00  0.00     0.079 A 
ATOM     24  C   UNL A   1      33.369  21.525  26.042  1.00  0.00     0.069 A 
ATOM     25  C   UNL A   1      32.528  19.988  23.887  1.00  0.00     0.167 A 
ATOM     26  C   UNL A   1      34.005  20.304  25.764  1.00  0.00     0.066 A 
ATOM     27  C   UNL A   1      33.542  19.556  24.707  1.00  0.00     0.166 A 
ATOM     28  O   UNL A   1      32.180  19.041  22.975  1.00  0.00    -0.454 OA
ATOM     29  O   UNL A   1      33.960  18.295  24.408  1.00  0.00    -0.454 OA
ATOM     30  C   UNL A   1      32.946  17.916  23.455  1.00  0.00     0.468 C 
BRANCH  24  31
ATOM     31  C   UNL A   1      33.509  22.098  27.434  1.00  0.00     0.251 C 
ATOM     32  N   UNL A   1      34.688  22.689  27.797  1.00  0.00    -0.366 N 
ATOM     33  O   UNL A   1      32.667  21.982  28.314  1.00  0.00    -0.269 OA
ATOM     34  H   UNL A   1      35.404  22.809  27.133  1.00  0.00     0.159 HD
ATOM     35  H   UNL A   1      34.819  22.994  28.725  1.00  0.00     0.159 HD
ENDBRANCH  24  31
ENDBRANCH  12  22
ENDBRANCH   7   9
ENDBRANCH   6   7
ENDBRANCH   5   6
ENDBRANCH   4   5
ENDBRANCH   3   4
ENDBRANCH   2   3
ENDBRANCH   1   2
BRANCH   1  36
ATOM     36  O   UNL A   1      35.908  23.102  24.748  1.00  0.00    -0.376 OA
BRANCH  36  37
ATOM     37  C   UNL A   1      37.117  23.591  25.311  1.00  0.00     0.202 C 
BRANCH  37  38
ATOM     38  C   UNL A   1      38.151  22.667  25.948  1.00  0.00     0.261 C 
BRANCH  38  39
ATOM     39  O   UNL A   1      38.970  23.285  26.914  1.00  0.00    -0.460 OA
BRANCH  39  40
ATOM     40  C   UNL A   1      40.279  23.005  26.787  1.00  0.00     0.338 C 
ATOM     41  O   UNL A   1      40.802  21.894  26.758  1.00  0.00    -0.246 OA
BRANCH  40  42
ATOM     42  C   UNL A   1      41.012  24.269  26.755  1.00  0.00     0.060 A 
ATOM     43  C   UNL A   1      42.102  24.372  27.620  1.00  0.00     0.016 A 
ATOM     44  C   UNL A   1      40.371  25.389  26.206  1.00  0.00     0.016 A 
ATOM     45  C   UNL A   1      42.332  25.593  28.199  1.00  0.00     0.010 A 
ATOM     46  C   UNL A   1      40.576  26.596  26.811  1.00  0.00     0.010 A 
ATOM     47  C   UNL A   1      41.470  26.644  27.875  1.00  0.00    -0.014 A 
BRANCH  47  48
ATOM     48  C   UNL A   1      41.541  27.848  28.662  1.00  0.00     0.031 A 
ATOM     49  C   UNL A   1      42.651  28.715  28.235  1.00  0.00     0.074 A 
ATOM     50  C   UNL A   1      40.607  28.145  29.586  1.00  0.00     0.049 A 
ATOM     51  N   UNL A   1      43.781  28.893  28.830  1.00  0.00    -0.248 NA
ATOM     52  C   UNL A   1      42.602  29.247  26.862  1.00  0.00     0.031 C 
ATOM     53  C   UNL A   1      39.336  27.467  29.855  1.00  0.00     0.029 A 
ATOM     54  N   UNL A   1      40.570  29.204  30.433  1.00  0.00    -0.354 N 
ATOM     55  C   UNL A   1      44.470  29.787  28.021  1.00  0.00     0.074 A 
ATOM     56  C   UNL A   1      43.834  29.737  26.734  1.00  0.00     0.031 C 
ATOM     57  C   UNL A   1      38.561  28.264  30.630  1.00  0.00     0.029 A 
ATOM     58  C   UNL A   1      39.328  29.437  31.015  1.00  0.00     0.049 A 
ATOM     59  H   UNL A   1      41.359  29.763  30.622  1.00  0.00     0.167 HD
ATOM     60  C   UNL A   1      45.280  30.734  28.565  1.00  0.00     0.037 A 
ATOM     61  C   UNL A   1      38.972  30.571  31.673  1.00  0.00     0.037 A 
ATOM     62  C   UNL A   1      45.633  30.394  29.923  1.00  0.00     0.049 A 
ATOM     63  C   UNL A   1      40.241  31.251  32.071  1.00  0.00     0.074 A 
ATOM     64  C   UNL A   1      46.260  29.314  30.515  1.00  0.00     0.029 A 
ATOM     65  N   UNL A   1      44.973  31.048  30.936  1.00  0.00    -0.354 N 
ATOM     66  N   UNL A   1      41.085  30.756  32.937  1.00  0.00    -0.248 NA
ATOM     67  C   UNL A   1      40.806  32.215  31.136  1.00  0.00     0.031 C 
ATOM     68  C   UNL A   1      45.563  29.107  31.742  1.00  0.00     0.029 A 
ATOM     69  C   UNL A   1      44.601  30.110  31.868  1.00  0.00     0.049 A 
ATOM     70  H   UNL A   1      44.797  32.015  30.986  1.00  0.00     0.167 HD
ATOM     71  C   UNL A   1      42.342  31.014  32.404  1.00  0.00     0.074 A 
ATOM     72  C   UNL A   1      42.107  31.969  31.323  1.00  0.00     0.031 C 
ATOM     73  C   UNL A   1      43.412  30.213  32.689  1.00  0.00     0.037 A 
BRANCH  60  74
ATOM     74  C   UNL A   1      45.399  32.135  28.015  1.00  0.00     0.058 A 
ATOM     75  C   UNL A   1      46.675  32.626  27.681  1.00  0.00     0.135 A 
ATOM     76  C   UNL A   1      44.366  33.104  28.050  1.00  0.00     0.135 A 
ATOM     77  F   UNL A   1      47.733  31.800  27.627  1.00  0.00    -0.206 F 
ATOM     78  C   UNL A   1      46.920  33.984  27.475  1.00  0.00     0.059 A 
ATOM     79  C   UNL A   1      44.577  34.448  27.787  1.00  0.00     0.059 A 
ATOM     80  F   UNL A   1      43.118  32.823  28.437  1.00  0.00    -0.206 F 
ATOM     81  C   UNL A   1      45.865  34.888  27.543  1.00  0.00     0.060 A 
BRANCH  81  82
ATOM     82  S   UNL A   1      46.188  36.648  27.380  1.00  0.00     0.124 S 
ATOM     83  O   UNL A   1      47.042  36.894  28.535  1.00  0.00    -0.237 OA
ATOM     84  O   UNL A   1      46.838  36.713  26.075  1.00  0.00    -0.237 OA
ATOM     85  O   UNL A   1      44.854  37.242  27.440  1.00  0.00    -0.744 OA
ENDBRANCH  81  82
ENDBRANCH  60  74
BRANCH  61  86
ATOM     86  C   UNL A   1      37.665  31.285  31.610  1.00  0.00     0.058 A 
ATOM     87  C   UNL A   1      36.809  31.351  32.725  1.00  0.00     0.135 A 
ATOM     88  C   UNL A   1      37.355  32.156  30.544  1.00  0.00     0.135 A 
ATOM     89  F   UNL A   1      37.041  30.578  33.797  1.00  0.00    -0.206 F 
ATOM     90  C   UNL A   1      35.736  32.251  32.796  1.00  0.00     0.059 A 
ATOM     91  C   UNL A   1      36.288  33.054  30.589  1.00  0.00     0.059 A 
ATOM     92  F   UNL A   1      38.137  32.227  29.458  1.00  0.00    -0.206 F 
ATOM     93  C   UNL A   1      35.496  33.115  31.727  1.00  0.00     0.060 A 
BRANCH  93  94
ATOM     94  S   UNL A   1      34.220  34.390  31.872  1.00  0.00     0.124 S 
ATOM     95  O   UNL A   1      35.007  35.568  32.219  1.00  0.00    -0.237 OA
ATOM     96  O   UNL A   1      33.628  34.389  30.539  1.00  0.00    -0.237 OA
ATOM     97  O   UNL A   1      33.355  33.884  32.935  1.00  0.00    -0.744 OA
ENDBRANCH  93  94
ENDBRANCH  61  86
BRANCH  73  98
ATOM     98  C   UNL A   1      43.280  29.208  33.806  1.00  0.00     0.058 A 
ATOM     99  C   UNL A   1      43.559  29.477  35.159  1.00  0.00     0.135 A 
ATOM    100  C   UNL A   1      42.683  27.973  33.511  1.00  0.00     0.135 A 
ATOM    101  F   UNL A   1      44.036  30.671  35.539  1.00  0.00    -0.206 F 
ATOM    102  C   UNL A   1      43.288  28.545  36.166  1.00  0.00     0.059 A 
ATOM    103  C   UNL A   1      42.376  27.043  34.500  1.00  0.00     0.059 A 
ATOM    104  F   UNL A   1      42.336  27.681  32.247  1.00  0.00    -0.206 F 
ATOM    105  C   UNL A   1      42.692  27.331  35.826  1.00  0.00     0.060 A 
BRANCH 105 106
ATOM    106  S   UNL A   1      42.269  26.154  37.131  1.00  0.00     0.124 S 
ATOM    107  O   UNL A   1      40.823  26.312  37.231  1.00  0.00    -0.237 OA
ATOM    108  O   UNL A   1      42.733  24.885  36.577  1.00  0.00    -0.237 OA
ATOM    109  O   UNL A   1      43.029  26.634  38.284  1.00  0.00    -0.744 OA
ENDBRANCH 105 106
ENDBRANCH  73  98
ENDBRANCH  47  48
ENDBRANCH  40  42
ENDBRANCH  39  40
ENDBRANCH  38  39
ENDBRANCH  37  38
ENDBRANCH  36  37
ENDBRANCH   1  36
TORSDOF 24
ENDMDL
MODEL 2
REMARK VINA RESULT:     -10.9      3.033      7.309
REMARK SMILES COc1cccc(-c2nn(-c3cc4c(cc3C(N)=O)OCO4)cc2C(=O)OCCOCCOCCOC(=O)c2ccc(-c3c4nc(c(-c5c(F)cc(S(=O)(=O)[O-])cc5F)c5ccc([nH]5)c(-c5c(F)cc(S(=O)(=O)[O-])cc5F)c5nc(c(-c6c(F)cc(S(=O)(=O)[O-])cc6F)c6ccc3[nH]6)C=C5)C=C4)cc2)c1
REMARK SMILES IDX 32 1 31 2 30 3 29 4 28 5 27 6 25 7 26 8 24 9 8 10 9 11 10 12
REMARK SMILES IDX 23 13 7 14 3 15 4 16 105 17 5 18 6 19 2 20 1 21 11 22 12 23
REMARK SMILES IDX 16 24 13 25 15 26 14 27 22 28 20 29 21 30 17 31 18 32 19 33
REMARK SMILES IDX 33 36 34 37 35 38 36 39 37 40 38 41 39 42 40 43 104 44 41 45
REMARK SMILES IDX 103 46 42 47 43 48 44 49 97 50 45 51 102 52 96 53 98 54
REMARK SMILES IDX 46 55 101 56 95 57 94 58 47 60 81 61 60 62 80 63 61 64 64 65
REMARK SMILES IDX 79 66 99 67 62 68 63 69 78 71 100 72 65 73 48 74 49 75 58 76
REMARK SMILES IDX 50 77 51 78 57 79 59 80 52 81 53 82 54 83 55 84 56 85 82 86
REMARK SMILES IDX 83 87 92 88 84 89 85 90 91 91 93 92 86 93 87 94 88 95 89 96
REMARK SMILES IDX 90 97 66 98 67 99 76 100 68 101 69 102 75 103 77 104 70 105
REMARK SMILES IDX 71 106 72 107 73 108 74 109
REMARK H PARENT 18 34 18 35 98 59 64 70
REMARK Flexibility Score: inf
ROOT
ATOM      1  C   UNL A   1      35.522  23.058  23.355  1.00  0.00     0.188 C 
ENDROOT
BRANCH   1   2
ATOM      2  C   UNL A   1      34.249  23.533  22.621  1.00  0.00     0.188 C 
BRANCH   2   3
ATOM      3  O   UNL A   1      34.214  24.911  22.351  1.00  0.00    -0.376 OA
BRANCH   3   4
ATOM      4  C   UNL A   1      33.104  25.471  21.672  1.00  0.00     0.202 C 
BRANCH   4   5
ATOM      5  C   UNL A   1      32.153  26.544  22.246  1.00  0.00     0.261 C 
BRANCH   5   6
ATOM      6  O   UNL A   1      30.761  26.242  22.334  1.00  0.00    -0.460 OA
BRANCH   6   7
ATOM      7  C   UNL A   1      30.234  26.125  23.592  1.00  0.00     0.342 C 
ATOM      8  O   UNL A   1      29.183  26.633  23.950  1.00  0.00    -0.246 OA
BRANCH   7   9
ATOM      9  C   UNL A   1      31.024  25.241  24.423  1.00  0.00     0.106 A 
ATOM     10  C   UNL A   1      32.100  25.541  25.308  1.00  0.00     0.107 A 
ATOM     11  N   UNL A   1      32.608  24.421  25.855  1.00  0.00    -0.167 NA
ATOM     12  N   UNL A   1      31.970  23.427  25.189  1.00  0.00    -0.239 N 
ATOM     13  C   UNL A   1      30.821  23.889  24.601  1.00  0.00     0.131 A 
BRANCH  10  14
ATOM     14  C   UNL A   1      32.575  26.866  25.680  1.00  0.00     0.007 A 
ATOM     15  C   UNL A   1      32.115  29.200  26.122  1.00  0.00     0.119 A 
ATOM     16  C   UNL A   1      33.427  29.368  26.573  1.00  0.00     0.046 A 
ATOM     17  C   UNL A   1      31.691  27.948  25.670  1.00  0.00     0.056 A 
ATOM     18  C   UNL A   1      34.317  28.296  26.573  1.00  0.00     0.005 A 
ATOM     19  C   UNL A   1      33.896  27.049  26.111  1.00  0.00     0.011 A 
BRANCH  15  20
ATOM     20  O   UNL A   1      31.345  30.331  26.116  1.00  0.00    -0.497 OA
ATOM     21  C   UNL A   1      31.914  31.445  26.794  1.00  0.00     0.278 C 
ENDBRANCH  15  20
ENDBRANCH  10  14
BRANCH  12  22
ATOM     22  C   UNL A   1      32.456  22.096  25.162  1.00  0.00     0.081 A 
ATOM     23  C   UNL A   1      31.988  21.241  24.143  1.00  0.00     0.079 A 
ATOM     24  C   UNL A   1      33.391  21.629  26.136  1.00  0.00     0.069 A 
ATOM     25  C   UNL A   1      32.522  19.972  24.084  1.00  0.00     0.167 A 
ATOM     26  C   UNL A   1      33.995  20.375  25.947  1.00  0.00     0.066 A 
ATOM     27  C   UNL A   1      33.518  19.570  24.939  1.00  0.00     0.166 A 
ATOM     28  O   UNL A   1      32.153  18.974  23.235  1.00  0.00    -0.454 OA
ATOM     29  O   UNL A   1      33.902  18.280  24.730  1.00  0.00    -0.454 OA
ATOM     30  C   UNL A   1      32.885  17.864  23.797  1.00  0.00     0.468 C 
BRANCH  24  31
ATOM     31  C   UNL A   1      33.538  22.292  27.487  1.00  0.00     0.251 C 
ATOM     32  N   UNL A   1      34.708  22.929  27.794  1.00  0.00    -0.366 N 
ATOM     33  O   UNL A   1      32.711  22.214  28.385  1.00  0.00    -0.269 OA
ATOM     34  H   UNL A   1      35.413  23.022  27.113  1.00  0.00     0.159 HD
ATOM     35  H   UNL A   1      34.846  23.295  28.699  1.00  0.00     0.159 HD
ENDBRANCH  24  31
ENDBRANCH  12  22
ENDBRANCH   7   9
ENDBRANCH   6   7
ENDBRANCH   5   6
ENDBRANCH   4   5
ENDBRANCH   3   4
ENDBRANCH   2   3
ENDBRANCH   1   2
BRANCH   1  36
ATOM     36  O   UNL A   1      35.846  23.497  24.665  1.00  0.00    -0.376 OA
BRANCH  36  37
ATOM     37  C   UNL A   1      37.082  23.173  25.285  1.00  0.00     0.202 C 
BRANCH  37  38
ATOM     38  C   UNL A   1      37.831  21.879  24.981  1.00  0.00     0.261 C 
BRANCH  38  39
ATOM     39  O   UNL A   1      38.404  21.257  26.108  1.00  0.00    -0.460 OA
BRANCH  39  40
ATOM     40  C   UNL A   1      39.455  20.467  25.827  1.00  0.00     0.338 C 
ATOM     41  O   UNL A   1      39.435  19.380  25.256  1.00  0.00    -0.246 OA
BRANCH  40  42
ATOM     42  C   UNL A   1      40.654  21.090  26.383  1.00  0.00     0.060 A 
ATOM     43  C   UNL A   1      40.834  20.963  27.760  1.00  0.00     0.016 A 
ATOM     44  C   UNL A   1      41.295  22.080  25.623  1.00  0.00     0.016 A 
ATOM     45  C   UNL A   1      41.384  22.029  28.424  1.00  0.00     0.010 A 
ATOM     46  C   UNL A   1      41.807  23.157  26.288  1.00  0.00     0.010 A 
ATOM     47  C   UNL A   1      41.733  23.157  27.676  1.00  0.00    -0.014 A 
BRANCH  47  48
ATOM     48  C   UNL A   1      42.067  24.365  28.385  1.00  0.00     0.031 A 
ATOM     49  C   UNL A   1      41.021  25.391  28.238  1.00  0.00     0.074 A 
ATOM     50  C   UNL A   1      43.160  24.447  29.167  1.00  0.00     0.049 A 
ATOM     51  N   UNL A   1      41.058  26.447  27.498  1.00  0.00    -0.248 NA
ATOM     52  C   UNL A   1      39.687  25.077  28.776  1.00  0.00     0.031 C 
ATOM     53  C   UNL A   1      44.076  23.379  29.576  1.00  0.00     0.029 A 
ATOM     54  N   UNL A   1      43.628  25.524  29.846  1.00  0.00    -0.354 N 
ATOM     55  C   UNL A   1      39.833  27.066  27.707  1.00  0.00     0.074 A 
ATOM     56  C   UNL A   1      38.961  26.063  28.251  1.00  0.00     0.031 C 
ATOM     57  C   UNL A   1      44.840  23.817  30.606  1.00  0.00     0.029 A 
ATOM     58  C   UNL A   1      44.558  25.224  30.837  1.00  0.00     0.049 A 
ATOM     59  H   UNL A   1      43.335  26.444  29.654  1.00  0.00     0.167 HD
ATOM     60  C   UNL A   1      39.737  28.423  27.734  1.00  0.00     0.037 A 
ATOM     61  C   UNL A   1      44.965  26.076  31.814  1.00  0.00     0.037 A 
ATOM     62  C   UNL A   1      40.887  29.035  27.114  1.00  0.00     0.049 A 
ATOM     63  C   UNL A   1      44.634  27.455  31.343  1.00  0.00     0.074 A 
ATOM     64  C   UNL A   1      41.462  28.959  25.859  1.00  0.00     0.029 A 
ATOM     65  N   UNL A   1      41.855  29.556  27.940  1.00  0.00    -0.354 N 
ATOM     66  N   UNL A   1      45.205  28.023  30.313  1.00  0.00    -0.248 NA
ATOM     67  C   UNL A   1      43.328  27.991  31.701  1.00  0.00     0.031 C 
ATOM     68  C   UNL A   1      42.868  28.985  26.093  1.00  0.00     0.029 A 
ATOM     69  C   UNL A   1      43.076  29.149  27.463  1.00  0.00     0.049 A 
ATOM     70  H   UNL A   1      41.701  30.119  28.732  1.00  0.00     0.167 HD
ATOM     71  C   UNL A   1      44.177  28.680  29.648  1.00  0.00     0.074 A 
ATOM     72  C   UNL A   1      43.055  28.674  30.585  1.00  0.00     0.031 C 
ATOM     73  C   UNL A   1      44.232  28.905  28.301  1.00  0.00     0.037 A 
BRANCH  60  74
ATOM     74  C   UNL A   1      38.821  29.168  28.676  1.00  0.00     0.058 A 
ATOM     75  C   UNL A   1      37.837  30.017  28.136  1.00  0.00     0.135 A 
ATOM     76  C   UNL A   1      39.034  29.296  30.071  1.00  0.00     0.135 A 
ATOM     77  F   UNL A   1      37.558  29.989  26.822  1.00  0.00    -0.206 F 
ATOM     78  C   UNL A   1      37.172  30.971  28.905  1.00  0.00     0.059 A 
ATOM     79  C   UNL A   1      38.339  30.195  30.865  1.00  0.00     0.059 A 
ATOM     80  F   UNL A   1      39.992  28.633  30.725  1.00  0.00    -0.206 F 
ATOM     81  C   UNL A   1      37.441  31.060  30.267  1.00  0.00     0.060 A 
BRANCH  81  82
ATOM     82  S   UNL A   1      36.665  32.352  31.247  1.00  0.00     0.124 S 
ATOM     83  O   UNL A   1      37.011  33.543  30.480  1.00  0.00    -0.237 OA
ATOM     84  O   UNL A   1      35.262  31.951  31.213  1.00  0.00    -0.237 OA
ATOM     85  O   UNL A   1      37.316  32.225  32.548  1.00  0.00    -0.744 OA
ENDBRANCH  81  82
ENDBRANCH  60  74
BRANCH  61  86
ATOM     86  C   UNL A   1      45.219  25.758  33.248  1.00  0.00     0.058 A 
ATOM     87  C   UNL A   1      44.178  25.363  34.109  1.00  0.00     0.135 A 
ATOM     88  C   UNL A   1      46.529  25.563  33.735  1.00  0.00     0.135 A 
ATOM     89  F   UNL A   1      42.900  25.487  33.720  1.00  0.00    -0.206 F 
ATOM     90  C   UNL A   1      44.421  24.774  35.358  1.00  0.00     0.059 A 
ATOM     91  C   UNL A   1      46.794  24.988  34.978  1.00  0.00     0.059 A 
ATOM     92  F   UNL A   1      47.599  25.843  32.978  1.00  0.00    -0.206 F 
ATOM     93  C   UNL A   1      45.736  24.573  35.776  1.00  0.00     0.060 A 
BRANCH  93  94
ATOM     94  S   UNL A   1      46.062  23.668  37.309  1.00  0.00     0.124 S 
ATOM     95  O   UNL A   1      47.515  23.748  37.405  1.00  0.00    -0.237 OA
ATOM     96  O   UNL A   1      45.314  24.445  38.292  1.00  0.00    -0.237 OA
ATOM     97  O   UNL A   1      45.528  22.336  37.037  1.00  0.00    -0.744 OA
ENDBRANCH  93  94
ENDBRANCH  61  86
BRANCH  73  98
ATOM     98  C   UNL A   1      45.542  28.680  27.588  1.00  0.00     0.058 A 
ATOM     99  C   UNL A   1      46.591  29.617  27.529  1.00  0.00     0.135 A 
ATOM    100  C   UNL A   1      45.807  27.395  27.091  1.00  0.00     0.135 A 
ATOM    101  F   UNL A   1      46.457  30.835  28.073  1.00  0.00    -0.206 F 
ATOM    102  C   UNL A   1      47.832  29.299  26.969  1.00  0.00     0.059 A 
ATOM    103  C   UNL A   1      47.044  27.047  26.558  1.00  0.00     0.059 A 
ATOM    104  F   UNL A   1      44.869  26.438  27.174  1.00  0.00    -0.206 F 
ATOM    105  C   UNL A   1      48.051  28.007  26.489  1.00  0.00     0.060 A 
BRANCH 105 106
ATOM    106  S   UNL A   1      49.676  27.568  25.835  1.00  0.00     0.124 S 
ATOM    107  O   UNL A   1      49.331  26.784  24.654  1.00  0.00    -0.237 OA
ATOM    108  O   UNL A   1      50.279  28.873  25.577  1.00  0.00    -0.237 OA
ATOM    109  O   UNL A   1      50.292  26.813  26.925  1.00  0.00    -0.744 OA
ENDBRANCH 105 106
ENDBRANCH  73  98
ENDBRANCH  47  48
ENDBRANCH  40  42
ENDBRANCH  39  40
ENDBRANCH  38  39
ENDBRANCH  37  38
ENDBRANCH  36  37
ENDBRANCH   1  36
TORSDOF 24
ENDMDL
MODEL 3
REMARK VINA RESULT:     -10.8      1.754      3.163
REMARK SMILES COc1cccc(-c2nn(-c3cc4c(cc3C(N)=O)OCO4)cc2C(=O)OCCOCCOCCOC(=O)c2ccc(-c3c4nc(c(-c5c(F)cc(S(=O)(=O)[O-])cc5F)c5ccc([nH]5)c(-c5c(F)cc(S(=O)(=O)[O-])cc5F)c5nc(c(-c6c(F)cc(S(=O)(=O)[O-])cc6F)c6ccc3[nH]6)C=C5)C=C4)cc2)c1
REMARK SMILES IDX 32 1 31 2 30 3 29 4 28 5 27 6 25 7 26 8 24 9 8 10 9 11 10 12
REMARK SMILES IDX 23 13 7 14 3 15 4 16 105 17 5 18 6 19 2 20 1 21 11 22 12 23
REMARK SMILES IDX 16 24 13 25 15 26 14 27 22 28 20 29 21 30 17 31 18 32 19 33
REMARK SMILES IDX 33 36 34 37 35 38 36 39 37 40 38 41 39 42 40 43 104 44 41 45
REMARK SMILES IDX 103 46 42 47 43 48 44 49 97 50 45 51 102 52 96 53 98 54
REMARK SMILES IDX 46 55 101 56 95 57 94 58 47 60 81 61 60 62 80 63 61 64 64 65
REMARK SMILES IDX 79 66 99 67 62 68 63 69 78 71 100 72 65 73 48 74 49 75 58 76
REMARK SMILES IDX 50 77 51 78 57 79 59 80 52 81 53 82 54 83 55 84 56 85 82 86
REMARK SMILES IDX 83 87 92 88 84 89 85 90 91 91 93 92 86 93 87 94 88 95 89 96
REMARK SMILES IDX 90 97 66 98 67 99 76 100 68 101 69 102 75 103 77 104 70 105
REMARK SMILES IDX 71 106 72 107 73 108 74 109
REMARK H PARENT 18 34 18 35 98 59 64 70
REMARK Flexibility Score: inf
ROOT
ATOM      1  C   UNL A   1      39.548  22.465  26.571  1.00  0.00     0.188 C 
ENDROOT
BRANCH   1   2
ATOM      2  C   UNL A   1      38.091  22.891  26.289  1.00  0.00     0.188 C 
BRANCH   2   3
ATOM      3  O   UNL A   1      37.706  22.790  24.941  1.00  0.00    -0.376 OA
BRANCH   3   4
ATOM      4  C   UNL A   1      36.542  23.455  24.486  1.00  0.00     0.202 C 
BRANCH   4   5
ATOM      5  C   UNL A   1      35.819  23.180  23.149  1.00  0.00     0.261 C 
BRANCH   5   6
ATOM      6  O   UNL A   1      34.649  23.935  22.839  1.00  0.00    -0.460 OA
BRANCH   6   7
ATOM      7  C   UNL A   1      33.618  23.259  22.244  1.00  0.00     0.342 C 
ATOM      8  O   UNL A   1      33.223  23.465  21.107  1.00  0.00    -0.246 OA
BRANCH   7   9
ATOM      9  C   UNL A   1      33.115  22.197  23.090  1.00  0.00     0.106 A 
ATOM     10  C   UNL A   1      32.341  22.273  24.283  1.00  0.00     0.107 A 
ATOM     11  N   UNL A   1      32.125  21.050  24.803  1.00  0.00    -0.167 NA
ATOM     12  N   UNL A   1      32.899  20.241  24.038  1.00  0.00    -0.239 N 
ATOM     13  C   UNL A   1      33.211  20.844  22.846  1.00  0.00     0.131 A 
BRANCH  10  14
ATOM     14  C   UNL A   1      31.757  23.472  24.866  1.00  0.00     0.007 A 
ATOM     15  C   UNL A   1      30.182  25.304  24.731  1.00  0.00     0.119 A 
ATOM     16  C   UNL A   1      30.493  25.662  26.046  1.00  0.00     0.046 A 
ATOM     17  C   UNL A   1      30.820  24.212  24.139  1.00  0.00     0.056 A 
ATOM     18  C   UNL A   1      31.437  24.938  26.771  1.00  0.00     0.005 A 
ATOM     19  C   UNL A   1      32.081  23.854  26.176  1.00  0.00     0.011 A 
BRANCH  15  20
ATOM     20  O   UNL A   1      29.282  26.117  24.097  1.00  0.00    -0.497 OA
ATOM     21  C   UNL A   1      29.795  27.384  23.703  1.00  0.00     0.278 C 
ENDBRANCH  15  20
ENDBRANCH  10  14
BRANCH  12  22
ATOM     22  C   UNL A   1      33.281  18.941  24.451  1.00  0.00     0.081 A 
ATOM     23  C   UNL A   1      32.270  17.971  24.607  1.00  0.00     0.079 A 
ATOM     24  C   UNL A   1      34.649  18.618  24.706  1.00  0.00     0.069 A 
ATOM     25  C   UNL A   1      32.661  16.693  24.940  1.00  0.00     0.167 A 
ATOM     26  C   UNL A   1      35.000  17.273  24.914  1.00  0.00     0.066 A 
ATOM     27  C   UNL A   1      33.988  16.353  25.054  1.00  0.00     0.166 A 
ATOM     28  O   UNL A   1      31.846  15.638  25.212  1.00  0.00    -0.454 OA
ATOM     29  O   UNL A   1      34.169  15.049  25.401  1.00  0.00    -0.454 OA
ATOM     30  C   UNL A   1      32.808  14.678  25.699  1.00  0.00     0.468 C 
BRANCH  24  31
ATOM     31  C   UNL A   1      35.673  19.678  25.043  1.00  0.00     0.251 C 
ATOM     32  N   UNL A   1      35.304  20.740  25.821  1.00  0.00    -0.366 N 
ATOM     33  O   UNL A   1      36.804  19.713  24.578  1.00  0.00    -0.269 OA
ATOM     34  H   UNL A   1      34.406  20.768  26.222  1.00  0.00     0.159 HD
ATOM     35  H   UNL A   1      35.938  21.477  25.981  1.00  0.00     0.159 HD
ENDBRANCH  24  31
ENDBRANCH  12  22
ENDBRANCH   7   9
ENDBRANCH   6   7
ENDBRANCH   5   6
ENDBRANCH   4   5
ENDBRANCH   3   4
ENDBRANCH   2   3
ENDBRANCH   1   2
BRANCH   1  36
ATOM     36  O   UNL A   1      40.230  21.524  25.756  1.00  0.00    -0.376 OA
BRANCH  36  37
ATOM     37  C   UNL A   1      41.478  20.962  26.135  1.00  0.00     0.202 C 
BRANCH  37  38
ATOM     38  C   UNL A   1      42.807  21.516  25.632  1.00  0.00     0.261 C 
BRANCH  38  39
ATOM     39  O   UNL A   1      42.693  22.660  24.819  1.00  0.00    -0.460 OA
BRANCH  39  40
ATOM     40  C   UNL A   1      43.281  23.758  25.325  1.00  0.00     0.338 C 
ATOM     41  O   UNL A   1      44.435  24.136  25.140  1.00  0.00    -0.246 OA
BRANCH  40  42
ATOM     42  C   UNL A   1      42.324  24.419  26.211  1.00  0.00     0.060 A 
ATOM     43  C   UNL A   1      41.592  25.468  25.656  1.00  0.00     0.016 A 
ATOM     44  C   UNL A   1      42.485  24.255  27.595  1.00  0.00     0.016 A 
ATOM     45  C   UNL A   1      41.311  26.537  26.467  1.00  0.00     0.010 A 
ATOM     46  C   UNL A   1      42.240  25.336  28.393  1.00  0.00     0.010 A 
ATOM     47  C   UNL A   1      41.766  26.494  27.788  1.00  0.00    -0.014 A 
BRANCH  47  48
ATOM     48  C   UNL A   1      41.704  27.704  28.567  1.00  0.00     0.031 A 
ATOM     49  C   UNL A   1      42.907  28.534  28.383  1.00  0.00     0.074 A 
ATOM     50  C   UNL A   1      40.605  28.037  29.270  1.00  0.00     0.049 A 
ATOM     51  N   UNL A   1      43.888  28.684  29.206  1.00  0.00    -0.248 NA
ATOM     52  C   UNL A   1      43.168  29.052  27.030  1.00  0.00     0.031 C 
ATOM     53  C   UNL A   1      39.285  27.400  29.263  1.00  0.00     0.029 A 
ATOM     54  N   UNL A   1      40.421  29.106  30.085  1.00  0.00    -0.354 N 
ATOM     55  C   UNL A   1      44.761  29.549  28.559  1.00  0.00     0.074 A 
ATOM     56  C   UNL A   1      44.413  29.504  27.166  1.00  0.00     0.031 C 
ATOM     57  C   UNL A   1      38.388  28.227  29.852  1.00  0.00     0.029 A 
ATOM     58  C   UNL A   1      39.091  29.381  30.387  1.00  0.00     0.049 A 
ATOM     59  H   UNL A   1      41.167  29.644  30.435  1.00  0.00     0.167 HD
ATOM     60  C   UNL A   1      45.465  30.478  29.260  1.00  0.00     0.037 A 
ATOM     61  C   UNL A   1      38.637  30.532  30.950  1.00  0.00     0.037 A 
ATOM     62  C   UNL A   1      45.510  30.142  30.663  1.00  0.00     0.049 A 
ATOM     63  C   UNL A   1      39.813  31.178  31.606  1.00  0.00     0.074 A 
ATOM     64  C   UNL A   1      45.962  29.050  31.380  1.00  0.00     0.029 A 
ATOM     65  N   UNL A   1      44.669  30.825  31.509  1.00  0.00    -0.354 N 
ATOM     66  N   UNL A   1      40.437  30.668  32.635  1.00  0.00    -0.248 NA
ATOM     67  C   UNL A   1      40.594  32.116  30.811  1.00  0.00     0.031 C 
ATOM     68  C   UNL A   1      45.013  28.877  32.430  1.00  0.00     0.029 A 
ATOM     69  C   UNL A   1      44.079  29.908  32.343  1.00  0.00     0.049 A 
ATOM     70  H   UNL A   1      44.517  31.797  31.516  1.00  0.00     0.167 HD
ATOM     71  C   UNL A   1      41.786  30.883  32.382  1.00  0.00     0.074 A 
ATOM     72  C   UNL A   1      41.816  31.834  31.272  1.00  0.00     0.031 C 
ATOM     73  C   UNL A   1      42.745  30.054  32.891  1.00  0.00     0.037 A 
BRANCH  60  74
ATOM     74  C   UNL A   1      45.742  31.869  28.742  1.00  0.00     0.058 A 
ATOM     75  C   UNL A   1      44.656  32.688  28.381  1.00  0.00     0.135 A 
ATOM     76  C   UNL A   1      47.016  32.336  28.333  1.00  0.00     0.135 A 
ATOM     77  F   UNL A   1      43.401  32.340  28.707  1.00  0.00    -0.206 F 
ATOM     78  C   UNL A   1      44.815  33.839  27.609  1.00  0.00     0.059 A 
ATOM     79  C   UNL A   1      47.201  33.510  27.620  1.00  0.00     0.059 A 
ATOM     80  F   UNL A   1      48.141  31.636  28.514  1.00  0.00    -0.206 F 
ATOM     81  C   UNL A   1      46.092  34.233  27.223  1.00  0.00     0.060 A 
BRANCH  81  82
ATOM     82  S   UNL A   1      46.298  35.656  26.144  1.00  0.00     0.124 S 
ATOM     83  O   UNL A   1      47.499  36.268  26.699  1.00  0.00    -0.237 OA
ATOM     84  O   UNL A   1      46.444  35.022  24.838  1.00  0.00    -0.237 OA
ATOM     85  O   UNL A   1      45.059  36.405  26.336  1.00  0.00    -0.744 OA
ENDBRANCH  81  82
ENDBRANCH  60  74
BRANCH  61  86
ATOM     86  C   UNL A   1      37.397  31.283  30.606  1.00  0.00     0.058 A 
ATOM     87  C   UNL A   1      36.562  31.819  31.605  1.00  0.00     0.135 A 
ATOM     88  C   UNL A   1      37.152  31.735  29.292  1.00  0.00     0.135 A 
ATOM     89  F   UNL A   1      36.737  31.468  32.888  1.00  0.00    -0.206 F 
ATOM     90  C   UNL A   1      35.572  32.772  31.324  1.00  0.00     0.059 A 
ATOM     91  C   UNL A   1      36.167  32.675  28.988  1.00  0.00     0.059 A 
ATOM     92  F   UNL A   1      37.925  31.342  28.270  1.00  0.00    -0.206 F 
ATOM     93  C   UNL A   1      35.396  33.209  30.011  1.00  0.00     0.060 A 
BRANCH  93  94
ATOM     94  S   UNL A   1      34.237  34.554  29.661  1.00  0.00     0.124 S 
ATOM     95  O   UNL A   1      33.103  33.837  29.091  1.00  0.00    -0.237 OA
ATOM     96  O   UNL A   1      34.026  35.134  30.984  1.00  0.00    -0.237 OA
ATOM     97  O   UNL A   1      34.973  35.400  28.725  1.00  0.00    -0.744 OA
ENDBRANCH  93  94
ENDBRANCH  61  86
BRANCH  73  98
ATOM     98  C   UNL A   1      42.347  29.065  33.959  1.00  0.00     0.058 A 
ATOM     99  C   UNL A   1      41.699  27.840  33.711  1.00  0.00     0.135 A 
ATOM    100  C   UNL A   1      42.797  29.295  35.267  1.00  0.00     0.135 A 
ATOM    101  F   UNL A   1      41.328  27.497  32.469  1.00  0.00    -0.206 F 
ATOM    102  C   UNL A   1      41.478  26.906  34.727  1.00  0.00     0.059 A 
ATOM    103  C   UNL A   1      42.616  28.367  36.288  1.00  0.00     0.059 A 
ATOM    104  F   UNL A   1      43.476  30.417  35.555  1.00  0.00    -0.206 F 
ATOM    105  C   UNL A   1      41.944  27.177  36.014  1.00  0.00     0.060 A 
BRANCH 105 106
ATOM    106  S   UNL A   1      41.730  25.940  37.314  1.00  0.00     0.124 S 
ATOM    107  O   UNL A   1      42.039  24.699  36.612  1.00  0.00    -0.237 OA
ATOM    108  O   UNL A   1      42.703  26.362  38.317  1.00  0.00    -0.237 OA
ATOM    109  O   UNL A   1      40.332  26.099  37.710  1.00  0.00    -0.744 OA
ENDBRANCH 105 106
ENDBRANCH  73  98
ENDBRANCH  47  48
ENDBRANCH  40  42
ENDBRANCH  39  40
ENDBRANCH  38  39
ENDBRANCH  37  38
ENDBRANCH  36  37
ENDBRANCH   1  36
TORSDOF 24
ENDMDL
