MODEL 1
REMARK VINA RESULT:     -10.3      0.000      0.000
REMARK SMILES CC[C@H](C)[C@H](NC(=O)[C@H](C(C)C)n1c(=O)[nH]c2ccccc2c1=O)C(=O)OCCOCCOCCOC(=O)c1ccc(-c2c3nc(c(-c4c(F)cc(S(=O)(=O)[O-])cc4F)c4ccc([nH]4)c(-c4c(F)cc(S(=O)(=O)[O-])cc4F)c4nc(c(-c5c(F)cc(S(=O)(=O)[O-])cc5F)c5ccc2[nH]5)C=C4)C=C3)cc1
REMARK SMILES IDX 31 1 30 2 29 3 28 4 27 5 25 6 26 7 5 8 3 9 4 10 2 11 1 12
REMARK SMILES IDX 6 13 7 14 8 16 9 17 13 18 14 19 23 20 15 21 16 22 22 23
REMARK SMILES IDX 24 24 17 25 21 27 18 28 20 29 19 30 10 31 11 32 12 33 32 34
REMARK SMILES IDX 33 35 34 36 35 37 36 38 37 39 38 40 39 41 40 42 104 43 41 44
REMARK SMILES IDX 103 45 42 46 43 47 44 48 97 49 45 50 102 51 96 52 98 53
REMARK SMILES IDX 46 54 101 55 95 56 94 57 47 59 81 60 60 61 80 62 61 63 64 64
REMARK SMILES IDX 79 65 99 66 62 67 63 68 78 70 100 71 65 72 48 73 49 74 58 75
REMARK SMILES IDX 50 76 51 77 57 78 59 79 52 80 53 81 54 82 55 83 56 84 82 85
REMARK SMILES IDX 83 86 92 87 84 88 85 89 91 90 93 91 86 92 87 93 88 94 89 95
REMARK SMILES IDX 90 96 66 97 67 98 76 99 68 100 69 101 75 102 77 103 70 104
REMARK SMILES IDX 71 105 72 106 73 107 74 108
REMARK H PARENT 6 15 16 26 98 58 64 69
REMARK Flexibility Score: inf
ROOT
ATOM      1  C   UNL A   1      32.680  29.935  25.882  1.00  0.00     0.188 C 
ENDROOT
BRANCH   1   2
ATOM      2  O   UNL A   1      33.479  29.806  24.704  1.00  0.00    -0.376 OA
BRANCH   2   3
ATOM      3  C   UNL A   1      32.963  28.908  23.717  1.00  0.00     0.202 C 
BRANCH   3   4
ATOM      4  C   UNL A   1      33.868  27.741  23.270  1.00  0.00     0.261 C 
BRANCH   4   5
ATOM      5  O   UNL A   1      33.237  26.943  22.269  1.00  0.00    -0.462 OA
BRANCH   5   6
ATOM      6  C   UNL A   1      32.016  26.401  22.535  1.00  0.00     0.328 C 
ATOM      7  O   UNL A   1      30.952  26.917  22.227  1.00  0.00    -0.250 OA
BRANCH   6   8
ATOM      8  C   UNL A   1      32.186  25.186  23.472  1.00  0.00     0.195 C 
BRANCH   8   9
ATOM      9  C   UNL A   1      31.552  25.525  24.857  1.00  0.00     0.019 C 
ATOM     10  C   UNL A   1      30.625  24.414  25.367  1.00  0.00     0.010 C 
BRANCH   9  11
ATOM     11  C   UNL A   1      32.531  25.998  25.957  1.00  0.00     0.002 C 
ATOM     12  C   UNL A   1      31.934  26.808  27.097  1.00  0.00     0.004 C 
ENDBRANCH   9  11
ENDBRANCH   8   9
BRANCH   8  13
ATOM     13  N   UNL A   1      33.568  24.703  23.589  1.00  0.00    -0.341 N 
ATOM     14  C   UNL A   1      34.153  23.701  24.287  1.00  0.00     0.244 C 
ATOM     15  H   UNL A   1      34.206  25.218  23.043  1.00  0.00     0.164 HD
ATOM     16  O   UNL A   1      35.392  23.708  24.203  1.00  0.00    -0.273 OA
BRANCH  14  17
ATOM     17  C   UNL A   1      33.449  22.590  25.126  1.00  0.00     0.187 C 
BRANCH  17  18
ATOM     18  N   UNL A   1      33.426  21.276  24.470  1.00  0.00    -0.247 N 
ATOM     19  C   UNL A   1      32.408  21.012  23.561  1.00  0.00     0.329 A 
ATOM     20  C   UNL A   1      34.480  20.402  24.608  1.00  0.00     0.264 A 
ATOM     21  O   UNL A   1      31.655  21.861  23.090  1.00  0.00    -0.248 OA
ATOM     22  N   UNL A   1      32.232  19.704  23.194  1.00  0.00    -0.307 N 
ATOM     23  C   UNL A   1      34.223  18.996  24.306  1.00  0.00     0.064 A 
ATOM     24  O   UNL A   1      35.605  20.706  24.981  1.00  0.00    -0.268 OA
ATOM     25  C   UNL A   1      33.061  18.673  23.624  1.00  0.00     0.055 A 
ATOM     26  H   UNL A   1      31.482  19.482  22.597  1.00  0.00     0.171 HD
ATOM     27  C   UNL A   1      35.114  18.012  24.731  1.00  0.00     0.016 A 
ATOM     28  C   UNL A   1      32.757  17.341  23.369  1.00  0.00     0.027 A 
ATOM     29  C   UNL A   1      34.816  16.680  24.478  1.00  0.00     0.001 A 
ATOM     30  C   UNL A   1      33.636  16.345  23.811  1.00  0.00     0.002 A 
ENDBRANCH  17  18
BRANCH  17  31
ATOM     31  C   UNL A   1      33.658  22.675  26.688  1.00  0.00     0.016 C 
ATOM     32  C   UNL A   1      33.425  21.315  27.364  1.00  0.00     0.010 C 
ATOM     33  C   UNL A   1      34.965  23.193  27.282  1.00  0.00     0.010 C 
ENDBRANCH  17  31
ENDBRANCH  14  17
ENDBRANCH   8  13
ENDBRANCH   6   8
ENDBRANCH   5   6
ENDBRANCH   4   5
ENDBRANCH   3   4
ENDBRANCH   2   3
ENDBRANCH   1   2
BRANCH   1  34
ATOM     34  C   UNL A   1      33.547  30.177  27.124  1.00  0.00     0.188 C 
BRANCH  34  35
ATOM     35  O   UNL A   1      33.587  31.562  27.484  1.00  0.00    -0.376 OA
BRANCH  35  36
ATOM     36  C   UNL A   1      34.292  31.810  28.710  1.00  0.00     0.202 C 
BRANCH  36  37
ATOM     37  C   UNL A   1      35.744  31.299  28.667  1.00  0.00     0.261 C 
BRANCH  37  38
ATOM     38  O   UNL A   1      35.839  29.958  29.209  1.00  0.00    -0.460 OA
BRANCH  38  39
ATOM     39  C   UNL A   1      36.576  29.863  30.354  1.00  0.00     0.338 C 
ATOM     40  O   UNL A   1      36.141  29.737  31.476  1.00  0.00    -0.246 OA
BRANCH  39  41
ATOM     41  C   UNL A   1      38.031  29.786  30.041  1.00  0.00     0.060 A 
ATOM     42  C   UNL A   1      39.034  29.760  31.013  1.00  0.00     0.016 A 
ATOM     43  C   UNL A   1      38.388  29.674  28.696  1.00  0.00     0.016 A 
ATOM     44  C   UNL A   1      40.391  29.636  30.627  1.00  0.00     0.010 A 
ATOM     45  C   UNL A   1      39.735  29.590  28.318  1.00  0.00     0.010 A 
ATOM     46  C   UNL A   1      40.761  29.567  29.270  1.00  0.00    -0.014 A 
BRANCH  46  47
ATOM     47  C   UNL A   1      42.139  29.208  28.807  1.00  0.00     0.031 A 
ATOM     48  C   UNL A   1      43.264  30.206  28.646  1.00  0.00     0.074 A 
ATOM     49  C   UNL A   1      42.328  27.960  28.334  1.00  0.00     0.049 A 
ATOM     50  N   UNL A   1      44.495  30.010  28.233  1.00  0.00    -0.248 NA
ATOM     51  C   UNL A   1      42.957  31.607  28.943  1.00  0.00     0.031 C 
ATOM     52  C   UNL A   1      41.290  26.928  28.265  1.00  0.00     0.029 A 
ATOM     53  N   UNL A   1      43.436  27.356  27.794  1.00  0.00    -0.354 N 
ATOM     54  C   UNL A   1      45.112  31.259  28.223  1.00  0.00     0.074 A 
ATOM     55  C   UNL A   1      44.100  32.213  28.633  1.00  0.00     0.031 C 
ATOM     56  C   UNL A   1      41.814  25.817  27.729  1.00  0.00     0.029 A 
ATOM     57  C   UNL A   1      43.226  26.047  27.434  1.00  0.00     0.049 A 
ATOM     58  H   UNL A   1      44.298  27.816  27.677  1.00  0.00     0.167 HD
ATOM     59  C   UNL A   1      46.401  31.574  27.920  1.00  0.00     0.037 A 
ATOM     60  C   UNL A   1      44.075  25.117  26.958  1.00  0.00     0.037 A 
ATOM     61  C   UNL A   1      47.414  30.610  27.541  1.00  0.00     0.049 A 
ATOM     62  C   UNL A   1      45.527  25.450  26.767  1.00  0.00     0.074 A 
ATOM     63  C   UNL A   1      48.772  30.818  27.343  1.00  0.00     0.029 A 
ATOM     64  N   UNL A   1      47.190  29.262  27.305  1.00  0.00    -0.354 N 
ATOM     65  N   UNL A   1      46.131  26.604  26.911  1.00  0.00    -0.248 NA
ATOM     66  C   UNL A   1      46.417  24.347  26.380  1.00  0.00     0.031 C 
ATOM     67  C   UNL A   1      49.359  29.611  26.953  1.00  0.00     0.029 A 
ATOM     68  C   UNL A   1      48.378  28.635  26.956  1.00  0.00     0.049 A 
ATOM     69  H   UNL A   1      46.316  28.816  27.374  1.00  0.00     0.167 HD
ATOM     70  C   UNL A   1      47.477  26.357  26.662  1.00  0.00     0.074 A 
ATOM     71  C   UNL A   1      47.601  24.944  26.374  1.00  0.00     0.031 C 
ATOM     72  C   UNL A   1      48.514  27.230  26.671  1.00  0.00     0.037 A 
BRANCH  59  73
ATOM     73  C   UNL A   1      46.861  33.011  28.041  1.00  0.00     0.058 A 
ATOM     74  C   UNL A   1      47.575  33.449  29.167  1.00  0.00     0.135 A 
ATOM     75  C   UNL A   1      46.762  33.898  26.952  1.00  0.00     0.135 A 
ATOM     76  F   UNL A   1      47.712  32.647  30.234  1.00  0.00    -0.206 F 
ATOM     77  C   UNL A   1      48.174  34.706  29.211  1.00  0.00     0.059 A 
ATOM     78  C   UNL A   1      47.375  35.151  26.965  1.00  0.00     0.059 A 
ATOM     79  F   UNL A   1      46.100  33.534  25.842  1.00  0.00    -0.206 F 
ATOM     80  C   UNL A   1      48.081  35.546  28.099  1.00  0.00     0.060 A 
BRANCH  80  81
ATOM     81  S   UNL A   1      48.935  37.137  28.150  1.00  0.00     0.124 S 
ATOM     82  O   UNL A   1      47.931  38.025  27.573  1.00  0.00    -0.237 OA
ATOM     83  O   UNL A   1      49.187  37.309  29.577  1.00  0.00    -0.237 OA
ATOM     84  O   UNL A   1      50.120  36.914  27.329  1.00  0.00    -0.744 OA
ENDBRANCH  80  81
ENDBRANCH  59  73
BRANCH  60  85
ATOM     85  C   UNL A   1      43.587  23.731  26.761  1.00  0.00     0.058 A 
ATOM     86  C   UNL A   1      43.446  22.878  27.867  1.00  0.00     0.135 A 
ATOM     87  C   UNL A   1      43.215  23.245  25.500  1.00  0.00     0.135 A 
ATOM     88  F   UNL A   1      43.784  23.308  29.091  1.00  0.00    -0.206 F 
ATOM     89  C   UNL A   1      42.976  21.581  27.726  1.00  0.00     0.059 A 
ATOM     90  C   UNL A   1      42.718  21.957  25.337  1.00  0.00     0.059 A 
ATOM     91  F   UNL A   1      43.306  24.038  24.421  1.00  0.00    -0.206 F 
ATOM     92  C   UNL A   1      42.614  21.129  26.457  1.00  0.00     0.060 A 
BRANCH  92  93
ATOM     93  S   UNL A   1      41.970  19.450  26.299  1.00  0.00     0.124 S 
ATOM     94  O   UNL A   1      42.693  18.971  25.126  1.00  0.00    -0.237 OA
ATOM     95  O   UNL A   1      42.356  18.855  27.574  1.00  0.00    -0.237 OA
ATOM     96  O   UNL A   1      40.537  19.655  26.117  1.00  0.00    -0.744 OA
ENDBRANCH  92  93
ENDBRANCH  60  85
BRANCH  72  97
ATOM     97  C   UNL A   1      49.888  26.688  26.378  1.00  0.00     0.058 A 
ATOM     98  C   UNL A   1      50.670  26.087  27.377  1.00  0.00     0.135 A 
ATOM     99  C   UNL A   1      50.411  26.729  25.076  1.00  0.00     0.135 A 
ATOM    100  F   UNL A   1      50.222  26.025  28.641  1.00  0.00    -0.206 F 
ATOM    101  C   UNL A   1      51.933  25.569  27.100  1.00  0.00     0.059 A 
ATOM    102  C   UNL A   1      51.661  26.195  24.771  1.00  0.00     0.059 A 
ATOM    103  F   UNL A   1      49.702  27.285  24.080  1.00  0.00    -0.206 F 
ATOM    104  C   UNL A   1      52.419  25.626  25.794  1.00  0.00     0.060 A 
BRANCH 104 105
ATOM    105  S   UNL A   1      54.045  24.920  25.446  1.00  0.00     0.124 S 
ATOM    106  O   UNL A   1      54.542  25.821  24.411  1.00  0.00    -0.237 OA
ATOM    107  O   UNL A   1      54.709  25.018  26.742  1.00  0.00    -0.237 OA
ATOM    108  O   UNL A   1      53.742  23.563  25.004  1.00  0.00    -0.744 OA
ENDBRANCH 104 105
ENDBRANCH  72  97
ENDBRANCH  46  47
ENDBRANCH  39  41
ENDBRANCH  38  39
ENDBRANCH  37  38
ENDBRANCH  36  37
ENDBRANCH  35  36
ENDBRANCH  34  35
ENDBRANCH   1  34
TORSDOF 26
ENDMDL
MODEL 2
REMARK VINA RESULT:      -9.7      1.196      2.606
REMARK SMILES CC[C@H](C)[C@H](NC(=O)[C@H](C(C)C)n1c(=O)[nH]c2ccccc2c1=O)C(=O)OCCOCCOCCOC(=O)c1ccc(-c2c3nc(c(-c4c(F)cc(S(=O)(=O)[O-])cc4F)c4ccc([nH]4)c(-c4c(F)cc(S(=O)(=O)[O-])cc4F)c4nc(c(-c5c(F)cc(S(=O)(=O)[O-])cc5F)c5ccc2[nH]5)C=C4)C=C3)cc1
REMARK SMILES IDX 31 1 30 2 29 3 28 4 27 5 25 6 26 7 5 8 3 9 4 10 2 11 1 12
REMARK SMILES IDX 6 13 7 14 8 16 9 17 13 18 14 19 23 20 15 21 16 22 22 23
REMARK SMILES IDX 24 24 17 25 21 27 18 28 20 29 19 30 10 31 11 32 12 33 32 34
REMARK SMILES IDX 33 35 34 36 35 37 36 38 37 39 38 40 39 41 40 42 104 43 41 44
REMARK SMILES IDX 103 45 42 46 43 47 44 48 97 49 45 50 102 51 96 52 98 53
REMARK SMILES IDX 46 54 101 55 95 56 94 57 47 59 81 60 60 61 80 62 61 63 64 64
REMARK SMILES IDX 79 65 99 66 62 67 63 68 78 70 100 71 65 72 48 73 49 74 58 75
REMARK SMILES IDX 50 76 51 77 57 78 59 79 52 80 53 81 54 82 55 83 56 84 82 85
REMARK SMILES IDX 83 86 92 87 84 88 85 89 91 90 93 91 86 92 87 93 88 94 89 95
REMARK SMILES IDX 90 96 66 97 67 98 76 99 68 100 69 101 75 102 77 103 70 104
REMARK SMILES IDX 71 105 72 106 73 107 74 108
REMARK H PARENT 6 15 16 26 98 58 64 69
REMARK Flexibility Score: inf
ROOT
ATOM      1  C   UNL A   1      33.253  29.596  26.109  1.00  0.00     0.188 C 
ENDROOT
BRANCH   1   2
ATOM      2  O   UNL A   1      34.188  28.627  25.629  1.00  0.00    -0.376 OA
BRANCH   2   3
ATOM      3  C   UNL A   1      33.608  27.506  24.957  1.00  0.00     0.202 C 
BRANCH   3   4
ATOM      4  C   UNL A   1      33.295  26.252  25.801  1.00  0.00     0.261 C 
BRANCH   4   5
ATOM      5  O   UNL A   1      33.019  25.121  24.974  1.00  0.00    -0.462 OA
BRANCH   5   6
ATOM      6  C   UNL A   1      32.234  25.289  23.874  1.00  0.00     0.328 C 
ATOM      7  O   UNL A   1      32.533  25.986  22.915  1.00  0.00    -0.250 OA
BRANCH   6   8
ATOM      8  C   UNL A   1      30.846  24.666  24.132  1.00  0.00     0.195 C 
BRANCH   8   9
ATOM      9  C   UNL A   1      29.894  25.771  24.687  1.00  0.00     0.019 C 
ATOM     10  C   UNL A   1      29.750  25.712  26.213  1.00  0.00     0.010 C 
BRANCH   9  11
ATOM     11  C   UNL A   1      30.165  27.212  24.198  1.00  0.00     0.002 C 
ATOM     12  C   UNL A   1      29.236  27.753  23.122  1.00  0.00     0.004 C 
ENDBRANCH   9  11
ENDBRANCH   8   9
BRANCH   8  13
ATOM     13  N   UNL A   1      30.871  23.467  24.980  1.00  0.00    -0.341 N 
ATOM     14  C   UNL A   1      31.426  22.239  24.849  1.00  0.00     0.244 C 
ATOM     15  H   UNL A   1      30.378  23.580  25.825  1.00  0.00     0.164 HD
ATOM     16  O   UNL A   1      31.100  21.457  25.756  1.00  0.00    -0.273 OA
BRANCH  14  17
ATOM     17  C   UNL A   1      32.400  21.752  23.731  1.00  0.00     0.187 C 
BRANCH  17  18
ATOM     18  N   UNL A   1      33.796  21.627  24.174  1.00  0.00    -0.247 N 
ATOM     19  C   UNL A   1      34.142  20.531  24.956  1.00  0.00     0.329 A 
ATOM     20  C   UNL A   1      34.769  22.465  23.678  1.00  0.00     0.264 A 
ATOM     21  O   UNL A   1      33.435  19.541  25.124  1.00  0.00    -0.248 OA
ATOM     22  N   UNL A   1      35.352  20.590  25.598  1.00  0.00    -0.307 N 
ATOM     23  C   UNL A   1      36.005  22.577  24.448  1.00  0.00     0.064 A 
ATOM     24  O   UNL A   1      34.672  23.133  22.657  1.00  0.00    -0.268 OA
ATOM     25  C   UNL A   1      36.252  21.637  25.435  1.00  0.00     0.055 A 
ATOM     26  H   UNL A   1      35.596  19.853  26.204  1.00  0.00     0.171 HD
ATOM     27  C   UNL A   1      36.888  23.630  24.209  1.00  0.00     0.016 A 
ATOM     28  C   UNL A   1      37.391  21.746  26.224  1.00  0.00     0.027 A 
ATOM     29  C   UNL A   1      38.027  23.743  24.993  1.00  0.00     0.001 A 
ATOM     30  C   UNL A   1      38.272  22.812  26.005  1.00  0.00     0.002 A 
ENDBRANCH  17  18
BRANCH  17  31
ATOM     31  C   UNL A   1      31.809  20.696  22.719  1.00  0.00     0.016 C 
ATOM     32  C   UNL A   1      32.026  21.126  21.261  1.00  0.00     0.010 C 
ATOM     33  C   UNL A   1      32.237  19.231  22.767  1.00  0.00     0.010 C 
ENDBRANCH  17  31
ENDBRANCH  14  17
ENDBRANCH   8  13
ENDBRANCH   6   8
ENDBRANCH   5   6
ENDBRANCH   4   5
ENDBRANCH   3   4
ENDBRANCH   2   3
ENDBRANCH   1   2
BRANCH   1  34
ATOM     34  C   UNL A   1      33.623  30.084  27.516  1.00  0.00     0.188 C 
BRANCH  34  35
ATOM     35  O   UNL A   1      33.621  31.513  27.602  1.00  0.00    -0.376 OA
BRANCH  35  36
ATOM     36  C   UNL A   1      34.324  32.014  28.749  1.00  0.00     0.202 C 
BRANCH  36  37
ATOM     37  C   UNL A   1      35.784  31.525  28.805  1.00  0.00     0.261 C 
BRANCH  37  38
ATOM     38  O   UNL A   1      35.851  30.140  29.225  1.00  0.00    -0.460 OA
BRANCH  38  39
ATOM     39  C   UNL A   1      36.625  29.922  30.329  1.00  0.00     0.338 C 
ATOM     40  O   UNL A   1      36.226  29.697  31.449  1.00  0.00    -0.246 OA
BRANCH  39  41
ATOM     41  C   UNL A   1      38.066  29.849  29.958  1.00  0.00     0.060 A 
ATOM     42  C   UNL A   1      39.111  30.147  30.836  1.00  0.00     0.016 A 
ATOM     43  C   UNL A   1      38.371  29.397  28.672  1.00  0.00     0.016 A 
ATOM     44  C   UNL A   1      40.455  30.002  30.413  1.00  0.00     0.010 A 
ATOM     45  C   UNL A   1      39.702  29.292  28.247  1.00  0.00     0.010 A 
ATOM     46  C   UNL A   1      40.768  29.589  29.104  1.00  0.00    -0.014 A 
BRANCH  46  47
ATOM     47  C   UNL A   1      42.147  29.200  28.670  1.00  0.00     0.031 A 
ATOM     48  C   UNL A   1      43.287  30.178  28.498  1.00  0.00     0.074 A 
ATOM     49  C   UNL A   1      42.325  27.937  28.231  1.00  0.00     0.049 A 
ATOM     50  N   UNL A   1      44.521  29.955  28.107  1.00  0.00    -0.248 NA
ATOM     51  C   UNL A   1      42.996  31.590  28.756  1.00  0.00     0.031 C 
ATOM     52  C   UNL A   1      41.274  26.919  28.173  1.00  0.00     0.029 A 
ATOM     53  N   UNL A   1      43.431  27.306  27.721  1.00  0.00    -0.354 N 
ATOM     54  C   UNL A   1      45.156  31.195  28.074  1.00  0.00     0.074 A 
ATOM     55  C   UNL A   1      44.152  32.173  28.446  1.00  0.00     0.031 C 
ATOM     56  C   UNL A   1      41.789  25.787  27.673  1.00  0.00     0.029 A 
ATOM     57  C   UNL A   1      43.208  25.990  27.392  1.00  0.00     0.049 A 
ATOM     58  H   UNL A   1      44.301  27.751  27.605  1.00  0.00     0.167 HD
ATOM     59  C   UNL A   1      46.452  31.484  27.781  1.00  0.00     0.037 A 
ATOM     60  C   UNL A   1      44.050  25.038  26.950  1.00  0.00     0.037 A 
ATOM     61  C   UNL A   1      47.457  30.497  27.440  1.00  0.00     0.049 A 
ATOM     62  C   UNL A   1      45.509  25.346  26.771  1.00  0.00     0.074 A 
ATOM     63  C   UNL A   1      48.821  30.682  27.255  1.00  0.00     0.029 A 
ATOM     64  N   UNL A   1      47.218  29.147  27.235  1.00  0.00    -0.354 N 
ATOM     65  N   UNL A   1      46.127  26.494  26.894  1.00  0.00    -0.248 NA
ATOM     66  C   UNL A   1      46.389  24.221  26.424  1.00  0.00     0.031 C 
ATOM     67  C   UNL A   1      49.396  29.457  26.904  1.00  0.00     0.029 A 
ATOM     68  C   UNL A   1      48.401  28.496  26.918  1.00  0.00     0.049 A 
ATOM     69  H   UNL A   1      46.336  28.715  27.304  1.00  0.00     0.167 HD
ATOM     70  C   UNL A   1      47.473  26.223  26.669  1.00  0.00     0.074 A 
ATOM     71  C   UNL A   1      47.581  24.801  26.419  1.00  0.00     0.031 C 
ATOM     72  C   UNL A   1      48.521  27.081  26.670  1.00  0.00     0.037 A 
BRANCH  59  73
ATOM     73  C   UNL A   1      46.931  32.918  27.872  1.00  0.00     0.058 A 
ATOM     74  C   UNL A   1      47.656  33.369  28.985  1.00  0.00     0.135 A 
ATOM     75  C   UNL A   1      46.838  33.785  26.767  1.00  0.00     0.135 A 
ATOM     76  F   UNL A   1      47.789  32.586  30.068  1.00  0.00    -0.206 F 
ATOM     77  C   UNL A   1      48.271  34.619  29.002  1.00  0.00     0.059 A 
ATOM     78  C   UNL A   1      47.466  35.030  26.752  1.00  0.00     0.059 A 
ATOM     79  F   UNL A   1      46.166  33.408  25.666  1.00  0.00    -0.206 F 
ATOM     80  C   UNL A   1      48.183  35.438  27.875  1.00  0.00     0.060 A 
BRANCH  80  81
ATOM     81  S   UNL A   1      49.057  37.019  27.891  1.00  0.00     0.124 S 
ATOM     82  O   UNL A   1      48.672  37.552  29.194  1.00  0.00    -0.237 OA
ATOM     83  O   UNL A   1      50.450  36.605  27.764  1.00  0.00    -0.237 OA
ATOM     84  O   UNL A   1      48.506  37.724  26.738  1.00  0.00    -0.744 OA
ENDBRANCH  80  81
ENDBRANCH  59  73
BRANCH  60  85
ATOM     85  C   UNL A   1      43.545  23.653  26.782  1.00  0.00     0.058 A 
ATOM     86  C   UNL A   1      43.328  23.142  25.493  1.00  0.00     0.135 A 
ATOM     87  C   UNL A   1      43.315  22.808  27.876  1.00  0.00     0.135 A 
ATOM     88  F   UNL A   1      43.543  23.918  24.420  1.00  0.00    -0.206 F 
ATOM     89  C   UNL A   1      42.873  21.847  25.294  1.00  0.00     0.059 A 
ATOM     90  C   UNL A   1      42.883  21.498  27.701  1.00  0.00     0.059 A 
ATOM     91  F   UNL A   1      43.539  23.248  29.124  1.00  0.00    -0.206 F 
ATOM     92  C   UNL A   1      42.654  21.032  26.405  1.00  0.00     0.060 A 
BRANCH  92  93
ATOM     93  S   UNL A   1      42.098  19.338  26.124  1.00  0.00     0.124 S 
ATOM     94  O   UNL A   1      42.910  18.952  24.976  1.00  0.00    -0.237 OA
ATOM     95  O   UNL A   1      42.435  18.693  27.389  1.00  0.00    -0.237 OA
ATOM     96  O   UNL A   1      40.670  19.491  25.866  1.00  0.00    -0.744 OA
ENDBRANCH  92  93
ENDBRANCH  60  85
BRANCH  72  97
ATOM     97  C   UNL A   1      49.891  26.514  26.410  1.00  0.00     0.058 A 
ATOM     98  C   UNL A   1      50.393  26.374  25.106  1.00  0.00     0.135 A 
ATOM     99  C   UNL A   1      50.728  26.145  27.475  1.00  0.00     0.135 A 
ATOM    100  F   UNL A   1      49.634  26.705  24.050  1.00  0.00    -0.206 F 
ATOM    101  C   UNL A   1      51.668  25.866  24.867  1.00  0.00     0.059 A 
ATOM    102  C   UNL A   1      52.016  25.659  27.260  1.00  0.00     0.059 A 
ATOM    103  F   UNL A   1      50.302  26.265  28.742  1.00  0.00    -0.206 F 
ATOM    104  C   UNL A   1      52.473  25.513  25.951  1.00  0.00     0.060 A 
BRANCH 104 105
ATOM    105  S   UNL A   1      54.135  24.887  25.623  1.00  0.00     0.124 S 
ATOM    106  O   UNL A   1      54.712  24.867  26.964  1.00  0.00    -0.237 OA
ATOM    107  O   UNL A   1      53.864  23.581  25.032  1.00  0.00    -0.237 OA
ATOM    108  O   UNL A   1      54.701  25.877  24.713  1.00  0.00    -0.744 OA
ENDBRANCH 104 105
ENDBRANCH  72  97
ENDBRANCH  46  47
ENDBRANCH  39  41
ENDBRANCH  38  39
ENDBRANCH  37  38
ENDBRANCH  36  37
ENDBRANCH  35  36
ENDBRANCH  34  35
ENDBRANCH   1  34
TORSDOF 26
ENDMDL
MODEL 3
REMARK VINA RESULT:      -9.4      6.320     12.053
REMARK SMILES CC[C@H](C)[C@H](NC(=O)[C@H](C(C)C)n1c(=O)[nH]c2ccccc2c1=O)C(=O)OCCOCCOCCOC(=O)c1ccc(-c2c3nc(c(-c4c(F)cc(S(=O)(=O)[O-])cc4F)c4ccc([nH]4)c(-c4c(F)cc(S(=O)(=O)[O-])cc4F)c4nc(c(-c5c(F)cc(S(=O)(=O)[O-])cc5F)c5ccc2[nH]5)C=C4)C=C3)cc1
REMARK SMILES IDX 31 1 30 2 29 3 28 4 27 5 25 6 26 7 5 8 3 9 4 10 2 11 1 12
REMARK SMILES IDX 6 13 7 14 8 16 9 17 13 18 14 19 23 20 15 21 16 22 22 23
REMARK SMILES IDX 24 24 17 25 21 27 18 28 20 29 19 30 10 31 11 32 12 33 32 34
REMARK SMILES IDX 33 35 34 36 35 37 36 38 37 39 38 40 39 41 40 42 104 43 41 44
REMARK SMILES IDX 103 45 42 46 43 47 44 48 97 49 45 50 102 51 96 52 98 53
REMARK SMILES IDX 46 54 101 55 95 56 94 57 47 59 81 60 60 61 80 62 61 63 64 64
REMARK SMILES IDX 79 65 99 66 62 67 63 68 78 70 100 71 65 72 48 73 49 74 58 75
REMARK SMILES IDX 50 76 51 77 57 78 59 79 52 80 53 81 54 82 55 83 56 84 82 85
REMARK SMILES IDX 83 86 92 87 84 88 85 89 91 90 93 91 86 92 87 93 88 94 89 95
REMARK SMILES IDX 90 96 66 97 67 98 76 99 68 100 69 101 75 102 77 103 70 104
REMARK SMILES IDX 71 105 72 106 73 107 74 108
REMARK H PARENT 6 15 16 26 98 58 64 69
REMARK Flexibility Score: inf
ROOT
ATOM      1  C   UNL A   1      41.497  23.913  26.870  1.00  0.00     0.188 C 
ENDROOT
BRANCH   1   2
ATOM      2  O   UNL A   1      40.278  23.252  26.522  1.00  0.00    -0.376 OA
BRANCH   2   3
ATOM      3  C   UNL A   1      39.107  23.759  27.168  1.00  0.00     0.202 C 
BRANCH   3   4
ATOM      4  C   UNL A   1      37.896  24.110  26.279  1.00  0.00     0.261 C 
BRANCH   4   5
ATOM      5  O   UNL A   1      37.708  23.142  25.246  1.00  0.00    -0.462 OA
BRANCH   5   6
ATOM      6  C   UNL A   1      36.787  22.156  25.432  1.00  0.00     0.328 C 
ATOM      7  O   UNL A   1      37.059  20.968  25.521  1.00  0.00    -0.250 OA
BRANCH   6   8
ATOM      8  C   UNL A   1      35.368  22.742  25.277  1.00  0.00     0.195 C 
BRANCH   8   9
ATOM      9  C   UNL A   1      34.325  21.629  25.605  1.00  0.00     0.019 C 
ATOM     10  C   UNL A   1      34.576  20.336  24.818  1.00  0.00     0.010 C 
BRANCH   9  11
ATOM     11  C   UNL A   1      34.083  21.343  27.105  1.00  0.00     0.002 C 
ATOM     12  C   UNL A   1      33.504  22.480  27.932  1.00  0.00     0.004 C 
ENDBRANCH   9  11
ENDBRANCH   8   9
BRANCH   8  13
ATOM     13  N   UNL A   1      35.118  23.382  23.979  1.00  0.00    -0.341 N 
ATOM     14  C   UNL A   1      34.055  24.028  23.443  1.00  0.00     0.244 C 
ATOM     15  H   UNL A   1      35.888  23.331  23.367  1.00  0.00     0.164 HD
ATOM     16  O   UNL A   1      34.212  24.316  22.246  1.00  0.00    -0.273 OA
BRANCH  14  17
ATOM     17  C   UNL A   1      32.731  24.436  24.161  1.00  0.00     0.187 C 
BRANCH  17  18
ATOM     18  N   UNL A   1      32.444  25.877  24.103  1.00  0.00    -0.247 N 
ATOM     19  C   UNL A   1      33.083  26.712  25.012  1.00  0.00     0.329 A 
ATOM     20  C   UNL A   1      31.712  26.407  23.064  1.00  0.00     0.264 A 
ATOM     21  O   UNL A   1      34.035  26.382  25.714  1.00  0.00    -0.248 OA
ATOM     22  N   UNL A   1      32.585  27.982  25.138  1.00  0.00    -0.307 N 
ATOM     23  C   UNL A   1      31.111  27.721  23.278  1.00  0.00     0.064 A 
ATOM     24  O   UNL A   1      31.512  25.858  21.989  1.00  0.00    -0.268 OA
ATOM     25  C   UNL A   1      31.547  28.476  24.355  1.00  0.00     0.055 A 
ATOM     26  H   UNL A   1      32.982  28.575  25.816  1.00  0.00     0.171 HD
ATOM     27  C   UNL A   1      30.100  28.176  22.433  1.00  0.00     0.016 A 
ATOM     28  C   UNL A   1      30.958  29.706  24.620  1.00  0.00     0.027 A 
ATOM     29  C   UNL A   1      29.509  29.404  22.692  1.00  0.00     0.001 A 
ATOM     30  C   UNL A   1      29.927  30.161  23.789  1.00  0.00     0.002 A 
ENDBRANCH  17  18
BRANCH  17  31
ATOM     31  C   UNL A   1      31.544  23.404  24.049  1.00  0.00     0.016 C 
ATOM     32  C   UNL A   1      31.899  22.233  23.119  1.00  0.00     0.010 C 
ATOM     33  C   UNL A   1      30.943  22.753  25.293  1.00  0.00     0.010 C 
ENDBRANCH  17  31
ENDBRANCH  14  17
ENDBRANCH   8  13
ENDBRANCH   6   8
ENDBRANCH   5   6
ENDBRANCH   4   5
ENDBRANCH   3   4
ENDBRANCH   2   3
ENDBRANCH   1   2
BRANCH   1  34
ATOM     34  C   UNL A   1      41.566  25.321  26.265  1.00  0.00     0.188 C 
BRANCH  34  35
ATOM     35  O   UNL A   1      42.634  25.443  25.320  1.00  0.00    -0.376 OA
BRANCH  35  36
ATOM     36  C   UNL A   1      43.368  24.224  25.130  1.00  0.00     0.202 C 
BRANCH  36  37
ATOM     37  C   UNL A   1      44.869  24.388  25.437  1.00  0.00     0.261 C 
BRANCH  37  38
ATOM     38  O   UNL A   1      45.083  25.389  26.462  1.00  0.00    -0.460 OA
BRANCH  38  39
ATOM     39  C   UNL A   1      45.017  24.912  27.739  1.00  0.00     0.338 C 
ATOM     40  O   UNL A   1      45.218  23.770  28.088  1.00  0.00    -0.246 OA
BRANCH  39  41
ATOM     41  C   UNL A   1      44.803  26.023  28.709  1.00  0.00     0.060 A 
ATOM     42  C   UNL A   1      45.212  27.340  28.484  1.00  0.00     0.016 A 
ATOM     43  C   UNL A   1      44.098  25.724  29.876  1.00  0.00     0.016 A 
ATOM     44  C   UNL A   1      44.923  28.345  29.439  1.00  0.00     0.010 A 
ATOM     45  C   UNL A   1      43.848  26.714  30.836  1.00  0.00     0.010 A 
ATOM     46  C   UNL A   1      44.251  28.040  30.638  1.00  0.00    -0.014 A 
BRANCH  46  47
ATOM     47  C   UNL A   1      43.718  29.082  31.573  1.00  0.00     0.031 A 
ATOM     48  C   UNL A   1      42.446  29.863  31.332  1.00  0.00     0.074 A 
ATOM     49  C   UNL A   1      44.516  29.468  32.588  1.00  0.00     0.049 A 
ATOM     50  N   UNL A   1      41.898  30.805  32.065  1.00  0.00    -0.248 NA
ATOM     51  C   UNL A   1      41.720  29.586  30.090  1.00  0.00     0.031 C 
ATOM     52  C   UNL A   1      45.850  28.926  32.853  1.00  0.00     0.029 A 
ATOM     53  N   UNL A   1      44.343  30.422  33.560  1.00  0.00    -0.354 N 
ATOM     54  C   UNL A   1      40.762  31.231  31.380  1.00  0.00     0.074 A 
ATOM     55  C   UNL A   1      40.727  30.469  30.146  1.00  0.00     0.031 C 
ATOM     56  C   UNL A   1      46.368  29.544  33.924  1.00  0.00     0.029 A 
ATOM     57  C   UNL A   1      45.400  30.511  34.434  1.00  0.00     0.049 A 
ATOM     58  H   UNL A   1      43.540  30.987  33.625  1.00  0.00     0.167 HD
ATOM     59  C   UNL A   1      39.834  32.152  31.752  1.00  0.00     0.037 A 
ATOM     60  C   UNL A   1      45.563  31.253  35.545  1.00  0.00     0.037 A 
ATOM     61  C   UNL A   1      39.861  32.887  33.001  1.00  0.00     0.049 A 
ATOM     62  C   UNL A   1      44.462  32.158  36.016  1.00  0.00     0.074 A 
ATOM     63  C   UNL A   1      38.898  33.742  33.521  1.00  0.00     0.029 A 
ATOM     64  N   UNL A   1      40.893  32.858  33.926  1.00  0.00    -0.354 N 
ATOM     65  N   UNL A   1      43.321  32.436  35.434  1.00  0.00    -0.248 NA
ATOM     66  C   UNL A   1      44.656  32.827  37.310  1.00  0.00     0.031 C 
ATOM     67  C   UNL A   1      39.363  34.255  34.736  1.00  0.00     0.029 A 
ATOM     68  C   UNL A   1      40.594  33.682  35.001  1.00  0.00     0.049 A 
ATOM     69  H   UNL A   1      41.718  32.329  33.833  1.00  0.00     0.167 HD
ATOM     70  C   UNL A   1      42.651  33.287  36.306  1.00  0.00     0.074 A 
ATOM     71  C   UNL A   1      43.505  33.466  37.461  1.00  0.00     0.031 C 
ATOM     72  C   UNL A   1      41.435  33.866  36.157  1.00  0.00     0.037 A 
BRANCH  59  73
ATOM     73  C   UNL A   1      38.640  32.405  30.857  1.00  0.00     0.058 A 
ATOM     74  C   UNL A   1      37.411  31.770  31.093  1.00  0.00     0.135 A 
ATOM     75  C   UNL A   1      38.664  33.425  29.887  1.00  0.00     0.135 A 
ATOM     76  F   UNL A   1      37.320  30.795  32.012  1.00  0.00    -0.206 F 
ATOM     77  C   UNL A   1      36.254  32.134  30.408  1.00  0.00     0.059 A 
ATOM     78  C   UNL A   1      37.513  33.822  29.206  1.00  0.00     0.059 A 
ATOM     79  F   UNL A   1      39.807  34.078  29.621  1.00  0.00    -0.206 F 
ATOM     80  C   UNL A   1      36.311  33.171  29.475  1.00  0.00     0.060 A 
BRANCH  80  81
ATOM     81  S   UNL A   1      34.781  33.679  28.659  1.00  0.00     0.124 S 
ATOM     82  O   UNL A   1      34.746  32.773  27.516  1.00  0.00    -0.237 OA
ATOM     83  O   UNL A   1      33.782  33.432  29.693  1.00  0.00    -0.237 OA
ATOM     84  O   UNL A   1      35.016  35.083  28.339  1.00  0.00    -0.744 OA
ENDBRANCH  80  81
ENDBRANCH  59  73
BRANCH  60  85
ATOM     85  C   UNL A   1      46.781  31.057  36.368  1.00  0.00     0.058 A 
ATOM     86  C   UNL A   1      46.809  30.047  37.342  1.00  0.00     0.135 A 
ATOM     87  C   UNL A   1      47.939  31.824  36.178  1.00  0.00     0.135 A 
ATOM     88  F   UNL A   1      45.724  29.286  37.550  1.00  0.00    -0.206 F 
ATOM     89  C   UNL A   1      47.936  29.821  38.120  1.00  0.00     0.059 A 
ATOM     90  C   UNL A   1      49.088  31.600  36.928  1.00  0.00     0.059 A 
ATOM     91  F   UNL A   1      47.964  32.780  35.236  1.00  0.00    -0.206 F 
ATOM     92  C   UNL A   1      49.071  30.602  37.905  1.00  0.00     0.060 A 
BRANCH  92  93
ATOM     93  S   UNL A   1      50.539  30.269  38.900  1.00  0.00     0.124 S 
ATOM     94  O   UNL A   1      51.592  30.323  37.893  1.00  0.00    -0.237 OA
ATOM     95  O   UNL A   1      50.514  31.370  39.858  1.00  0.00    -0.237 OA
ATOM     96  O   UNL A   1      50.270  28.950  39.464  1.00  0.00    -0.744 OA
ENDBRANCH  92  93
ENDBRANCH  60  85
BRANCH  72  97
ATOM     97  C   UNL A   1      40.934  34.741  37.275  1.00  0.00     0.058 A 
ATOM     98  C   UNL A   1      41.280  36.100  37.357  1.00  0.00     0.135 A 
ATOM     99  C   UNL A   1      40.065  34.229  38.251  1.00  0.00     0.135 A 
ATOM    100  F   UNL A   1      42.113  36.640  36.454  1.00  0.00    -0.206 F 
ATOM    101  C   UNL A   1      40.801  36.912  38.381  1.00  0.00     0.059 A 
ATOM    102  C   UNL A   1      39.554  35.029  39.270  1.00  0.00     0.059 A 
ATOM    103  F   UNL A   1      39.694  32.939  38.217  1.00  0.00    -0.206 F 
ATOM    104  C   UNL A   1      39.937  36.369  39.332  1.00  0.00     0.060 A 
BRANCH 104 105
ATOM    105  S   UNL A   1      39.300  37.446  40.634  1.00  0.00     0.124 S 
ATOM    106  O   UNL A   1      38.198  38.116  39.950  1.00  0.00    -0.237 OA
ATOM    107  O   UNL A   1      38.914  36.490  41.667  1.00  0.00    -0.237 OA
ATOM    108  O   UNL A   1      40.439  38.294  40.965  1.00  0.00    -0.744 OA
ENDBRANCH 104 105
ENDBRANCH  72  97
ENDBRANCH  46  47
ENDBRANCH  39  41
ENDBRANCH  38  39
ENDBRANCH  37  38
ENDBRANCH  36  37
ENDBRANCH  35  36
ENDBRANCH  34  35
ENDBRANCH   1  34
TORSDOF 26
ENDMDL
