MODEL 1
REMARK VINA RESULT:      -9.9      0.000      0.000
REMARK SMILES CC(C)[C@@H]1CN(C(=O)Cc2ccsc2)C[C@H]1C(=O)OCCOCCOCCOC(=O)c1ccc(-c2c3nc(c(-c4c(F)cc(S(=O)(=O)[O-])cc4F)c4ccc([nH]4)c(-c4c(F)cc(S(=O)(=O)[O-])cc4F)c4nc(c(-c5c(F)cc(S(=O)(=O)[O-])cc5F)c5ccc2[nH]5)C=C4)C=C3)cc1
REMARK SMILES IDX 23 1 22 2 21 3 20 4 19 5 17 6 18 7 16 8 4 9 5 10 6 11 15 12
REMARK SMILES IDX 2 13 1 14 3 15 7 16 8 17 9 18 10 19 11 20 14 21 12 22 13 23
REMARK SMILES IDX 24 24 25 25 26 26 27 27 28 28 29 29 30 30 31 31 32 32 96 33
REMARK SMILES IDX 33 34 95 35 34 36 35 37 36 38 89 39 37 40 94 41 88 42 90 43
REMARK SMILES IDX 38 44 93 45 87 46 86 47 39 49 73 50 52 51 72 52 53 53 56 54
REMARK SMILES IDX 71 55 91 56 54 57 55 58 70 60 92 61 57 62 40 63 41 64 50 65
REMARK SMILES IDX 42 66 43 67 49 68 51 69 44 70 45 71 46 72 47 73 48 74 74 75
REMARK SMILES IDX 75 76 84 77 76 78 77 79 83 80 85 81 78 82 79 83 80 84 81 85
REMARK SMILES IDX 82 86 58 87 59 88 68 89 60 90 61 91 67 92 69 93 62 94 63 95
REMARK SMILES IDX 64 96 65 97 66 98
REMARK H PARENT 90 48 56 59
REMARK Flexibility Score: inf
ROOT
ATOM      1  C   UNL A   1      35.438  23.047  26.101  1.00  0.00     0.188 C 
ENDROOT
BRANCH   1   2
ATOM      2  O   UNL A   1      34.215  22.602  25.523  1.00  0.00    -0.376 OA
BRANCH   2   3
ATOM      3  C   UNL A   1      33.381  23.574  24.904  1.00  0.00     0.202 C 
BRANCH   3   4
ATOM      4  C   UNL A   1      31.965  23.102  24.575  1.00  0.00     0.261 C 
BRANCH   4   5
ATOM      5  O   UNL A   1      30.990  24.163  24.672  1.00  0.00    -0.463 OA
BRANCH   5   6
ATOM      6  C   UNL A   1      30.849  24.758  25.889  1.00  0.00     0.311 C 
ATOM      7  O   UNL A   1      30.897  24.171  26.961  1.00  0.00    -0.252 OA
BRANCH   6   8
ATOM      8  C   UNL A   1      30.498  26.228  25.778  1.00  0.00     0.124 C 
ATOM      9  C   UNL A   1      31.657  27.217  25.519  1.00  0.00     0.027 C 
ATOM     10  C   UNL A   1      30.991  28.309  24.670  1.00  0.00     0.124 C 
ATOM     11  N   UNL A   1      29.856  27.684  24.027  1.00  0.00    -0.341 N 
ATOM     12  C   UNL A   1      29.579  26.374  24.572  1.00  0.00     0.135 C 
BRANCH   9  13
ATOM     13  C   UNL A   1      32.330  27.881  26.753  1.00  0.00    -0.012 C 
ATOM     14  C   UNL A   1      33.850  27.794  26.773  1.00  0.00     0.008 C 
ATOM     15  C   UNL A   1      31.866  29.336  26.896  1.00  0.00     0.008 C 
ENDBRANCH   9  13
BRANCH  11  16
ATOM     16  C   UNL A   1      29.015  28.251  23.092  1.00  0.00     0.227 C 
ATOM     17  O   UNL A   1      27.795  28.081  23.131  1.00  0.00    -0.275 OA
BRANCH  16  18
ATOM     18  C   UNL A   1      29.649  29.108  22.007  1.00  0.00     0.136 C 
BRANCH  18  19
ATOM     19  C   UNL A   1      29.081  30.501  21.907  1.00  0.00    -0.028 A 
ATOM     20  C   UNL A   1      29.127  31.446  22.988  1.00  0.00     0.016 A 
ATOM     21  C   UNL A   1      28.457  31.063  20.805  1.00  0.00     0.069 A 
ATOM     22  C   UNL A   1      28.527  32.645  22.677  1.00  0.00     0.065 A 
ATOM     23  S   UNL A   1      27.905  32.656  21.089  1.00  0.00    -0.152 S 
ENDBRANCH  18  19
ENDBRANCH  16  18
ENDBRANCH  11  16
ENDBRANCH   6   8
ENDBRANCH   5   6
ENDBRANCH   4   5
ENDBRANCH   3   4
ENDBRANCH   2   3
ENDBRANCH   1   2
BRANCH   1  24
ATOM     24  C   UNL A   1      36.630  23.203  25.146  1.00  0.00     0.188 C 
BRANCH  24  25
ATOM     25  O   UNL A   1      37.774  22.396  25.410  1.00  0.00    -0.376 OA
BRANCH  25  26
ATOM     26  C   UNL A   1      38.620  22.828  26.474  1.00  0.00     0.202 C 
BRANCH  26  27
ATOM     27  C   UNL A   1      40.099  22.539  26.226  1.00  0.00     0.261 C 
BRANCH  27  28
ATOM     28  O   UNL A   1      40.913  23.472  26.962  1.00  0.00    -0.460 OA
BRANCH  28  29
ATOM     29  C   UNL A   1      40.715  24.771  26.652  1.00  0.00     0.338 C 
ATOM     30  O   UNL A   1      40.436  25.240  25.559  1.00  0.00    -0.246 OA
BRANCH  29  31
ATOM     31  C   UNL A   1      40.787  25.582  27.873  1.00  0.00     0.060 A 
ATOM     32  C   UNL A   1      39.612  25.809  28.590  1.00  0.00     0.016 A 
ATOM     33  C   UNL A   1      41.962  26.242  28.216  1.00  0.00     0.016 A 
ATOM     34  C   UNL A   1      39.584  26.745  29.624  1.00  0.00     0.010 A 
ATOM     35  C   UNL A   1      41.943  27.164  29.268  1.00  0.00     0.010 A 
ATOM     36  C   UNL A   1      40.745  27.454  29.952  1.00  0.00    -0.014 A 
BRANCH  36  37
ATOM     37  C   UNL A   1      40.697  28.609  30.888  1.00  0.00     0.031 A 
ATOM     38  C   UNL A   1      41.691  28.663  32.017  1.00  0.00     0.074 A 
ATOM     39  C   UNL A   1      39.806  29.607  30.741  1.00  0.00     0.049 A 
ATOM     40  N   UNL A   1      41.684  29.397  33.099  1.00  0.00    -0.248 NA
ATOM     41  C   UNL A   1      42.848  27.758  31.912  1.00  0.00     0.031 C 
ATOM     42  C   UNL A   1      38.863  29.749  29.633  1.00  0.00     0.029 A 
ATOM     43  N   UNL A   1      39.546  30.692  31.543  1.00  0.00    -0.354 N 
ATOM     44  C   UNL A   1      42.795  28.998  33.832  1.00  0.00     0.074 A 
ATOM     45  C   UNL A   1      43.465  27.970  33.064  1.00  0.00     0.031 C 
ATOM     46  C   UNL A   1      38.130  30.859  29.822  1.00  0.00     0.029 A 
ATOM     47  C   UNL A   1      38.494  31.460  31.103  1.00  0.00     0.049 A 
ATOM     48  H   UNL A   1      40.064  30.900  32.353  1.00  0.00     0.167 HD
ATOM     49  C   UNL A   1      43.209  29.441  35.044  1.00  0.00     0.037 A 
ATOM     50  C   UNL A   1      37.861  32.494  31.693  1.00  0.00     0.037 A 
ATOM     51  C   UNL A   1      42.559  30.493  35.778  1.00  0.00     0.049 A 
ATOM     52  C   UNL A   1      38.292  32.934  33.068  1.00  0.00     0.074 A 
ATOM     53  C   UNL A   1      42.867  30.994  37.031  1.00  0.00     0.029 A 
ATOM     54  N   UNL A   1      41.476  31.223  35.311  1.00  0.00    -0.354 N 
ATOM     55  N   UNL A   1      39.270  32.472  33.813  1.00  0.00    -0.248 NA
ATOM     56  C   UNL A   1      37.515  34.011  33.697  1.00  0.00     0.031 C 
ATOM     57  C   UNL A   1      41.955  32.013  37.330  1.00  0.00     0.029 A 
ATOM     58  C   UNL A   1      41.101  32.169  36.250  1.00  0.00     0.049 A 
ATOM     59  H   UNL A   1      41.037  31.089  34.440  1.00  0.00     0.167 HD
ATOM     60  C   UNL A   1      39.230  33.209  34.991  1.00  0.00     0.074 A 
ATOM     61  C   UNL A   1      38.142  34.156  34.858  1.00  0.00     0.031 C 
ATOM     62  C   UNL A   1      40.020  33.109  36.088  1.00  0.00     0.037 A 
BRANCH  49  63
ATOM     63  C   UNL A   1      44.384  28.744  35.669  1.00  0.00     0.058 A 
ATOM     64  C   UNL A   1      44.237  27.575  36.432  1.00  0.00     0.135 A 
ATOM     65  C   UNL A   1      45.679  29.264  35.506  1.00  0.00     0.135 A 
ATOM     66  F   UNL A   1      43.019  27.050  36.636  1.00  0.00    -0.206 F 
ATOM     67  C   UNL A   1      45.330  26.963  37.037  1.00  0.00     0.059 A 
ATOM     68  C   UNL A   1      46.789  28.656  36.084  1.00  0.00     0.059 A 
ATOM     69  F   UNL A   1      45.873  30.382  34.789  1.00  0.00    -0.206 F 
ATOM     70  C   UNL A   1      46.601  27.517  36.865  1.00  0.00     0.060 A 
BRANCH  70  71
ATOM     71  S   UNL A   1      48.010  26.732  37.679  1.00  0.00     0.124 S 
ATOM     72  O   UNL A   1      47.568  25.342  37.743  1.00  0.00    -0.237 OA
ATOM     73  O   UNL A   1      49.104  27.007  36.753  1.00  0.00    -0.237 OA
ATOM     74  O   UNL A   1      48.089  27.425  38.961  1.00  0.00    -0.744 OA
ENDBRANCH  70  71
ENDBRANCH  49  63
BRANCH  50  75
ATOM     75  C   UNL A   1      36.711  33.146  31.012  1.00  0.00     0.058 A 
ATOM     76  C   UNL A   1      35.391  32.871  31.400  1.00  0.00     0.135 A 
ATOM     77  C   UNL A   1      36.907  34.066  29.969  1.00  0.00     0.135 A 
ATOM     78  F   UNL A   1      35.152  31.987  32.379  1.00  0.00    -0.206 F 
ATOM     79  C   UNL A   1      34.307  33.483  30.779  1.00  0.00     0.059 A 
ATOM     80  C   UNL A   1      35.840  34.709  29.350  1.00  0.00     0.059 A 
ATOM     81  F   UNL A   1      38.150  34.366  29.563  1.00  0.00    -0.206 F 
ATOM     82  C   UNL A   1      34.542  34.405  29.757  1.00  0.00     0.060 A 
BRANCH  82  83
ATOM     83  S   UNL A   1      33.134  35.245  28.998  1.00  0.00     0.124 S 
ATOM     84  O   UNL A   1      32.309  35.546  30.161  1.00  0.00    -0.237 OA
ATOM     85  O   UNL A   1      33.769  36.390  28.351  1.00  0.00    -0.237 OA
ATOM     86  O   UNL A   1      32.600  34.238  28.085  1.00  0.00    -0.744 OA
ENDBRANCH  82  83
ENDBRANCH  50  75
BRANCH  62  87
ATOM     87  C   UNL A   1      39.761  34.063  37.219  1.00  0.00     0.058 A 
ATOM     88  C   UNL A   1      38.887  33.738  38.266  1.00  0.00     0.135 A 
ATOM     89  C   UNL A   1      40.450  35.284  37.288  1.00  0.00     0.135 A 
ATOM     90  F   UNL A   1      38.201  32.584  38.240  1.00  0.00    -0.206 F 
ATOM     91  C   UNL A   1      38.697  34.596  39.344  1.00  0.00     0.059 A 
ATOM     92  C   UNL A   1      40.289  36.150  38.365  1.00  0.00     0.059 A 
ATOM     93  F   UNL A   1      41.304  35.635  36.313  1.00  0.00    -0.206 F 
ATOM     94  C   UNL A   1      39.405  35.799  39.386  1.00  0.00     0.060 A 
BRANCH  94  95
ATOM     95  S   UNL A   1      39.194  36.882  40.815  1.00  0.00     0.124 S 
ATOM     96  O   UNL A   1      40.576  37.241  41.117  1.00  0.00    -0.237 OA
ATOM     97  O   UNL A   1      38.363  37.956  40.279  1.00  0.00    -0.237 OA
ATOM     98  O   UNL A   1      38.539  36.023  41.797  1.00  0.00    -0.744 OA
ENDBRANCH  94  95
ENDBRANCH  62  87
ENDBRANCH  36  37
ENDBRANCH  29  31
ENDBRANCH  28  29
ENDBRANCH  27  28
ENDBRANCH  26  27
ENDBRANCH  25  26
ENDBRANCH  24  25
ENDBRANCH   1  24
TORSDOF 24
ENDMDL
MODEL 2
REMARK VINA RESULT:      -9.2      1.858      3.335
REMARK SMILES CC(C)[C@@H]1CN(C(=O)Cc2ccsc2)C[C@H]1C(=O)OCCOCCOCCOC(=O)c1ccc(-c2c3nc(c(-c4c(F)cc(S(=O)(=O)[O-])cc4F)c4ccc([nH]4)c(-c4c(F)cc(S(=O)(=O)[O-])cc4F)c4nc(c(-c5c(F)cc(S(=O)(=O)[O-])cc5F)c5ccc2[nH]5)C=C4)C=C3)cc1
REMARK SMILES IDX 23 1 22 2 21 3 20 4 19 5 17 6 18 7 16 8 4 9 5 10 6 11 15 12
REMARK SMILES IDX 2 13 1 14 3 15 7 16 8 17 9 18 10 19 11 20 14 21 12 22 13 23
REMARK SMILES IDX 24 24 25 25 26 26 27 27 28 28 29 29 30 30 31 31 32 32 96 33
REMARK SMILES IDX 33 34 95 35 34 36 35 37 36 38 89 39 37 40 94 41 88 42 90 43
REMARK SMILES IDX 38 44 93 45 87 46 86 47 39 49 73 50 52 51 72 52 53 53 56 54
REMARK SMILES IDX 71 55 91 56 54 57 55 58 70 60 92 61 57 62 40 63 41 64 50 65
REMARK SMILES IDX 42 66 43 67 49 68 51 69 44 70 45 71 46 72 47 73 48 74 74 75
REMARK SMILES IDX 75 76 84 77 76 78 77 79 83 80 85 81 78 82 79 83 80 84 81 85
REMARK SMILES IDX 82 86 58 87 59 88 68 89 60 90 61 91 67 92 69 93 62 94 63 95
REMARK SMILES IDX 64 96 65 97 66 98
REMARK H PARENT 90 48 56 59
REMARK Flexibility Score: inf
ROOT
ATOM      1  C   UNL A   1      39.938  20.696  26.145  1.00  0.00     0.188 C 
ENDROOT
BRANCH   1   2
ATOM      2  O   UNL A   1      39.351  21.954  26.465  1.00  0.00    -0.376 OA
BRANCH   2   3
ATOM      3  C   UNL A   1      38.220  22.371  25.709  1.00  0.00     0.202 C 
BRANCH   3   4
ATOM      4  C   UNL A   1      37.541  23.647  26.204  1.00  0.00     0.261 C 
BRANCH   4   5
ATOM      5  O   UNL A   1      36.224  23.829  25.639  1.00  0.00    -0.463 OA
BRANCH   5   6
ATOM      6  C   UNL A   1      35.397  22.748  25.648  1.00  0.00     0.311 C 
ATOM      7  O   UNL A   1      35.503  21.797  26.410  1.00  0.00    -0.252 OA
BRANCH   6   8
ATOM      8  C   UNL A   1      34.388  22.780  24.519  1.00  0.00     0.124 C 
ATOM      9  C   UNL A   1      33.010  22.131  24.779  1.00  0.00     0.027 C 
ATOM     10  C   UNL A   1      32.059  22.999  23.942  1.00  0.00     0.124 C 
ATOM     11  N   UNL A   1      32.710  24.283  23.795  1.00  0.00    -0.341 N 
ATOM     12  C   UNL A   1      34.086  24.247  24.237  1.00  0.00     0.135 C 
BRANCH   9  13
ATOM     13  C   UNL A   1      32.822  20.643  24.370  1.00  0.00    -0.012 C 
ATOM     14  C   UNL A   1      32.256  20.433  22.973  1.00  0.00     0.008 C 
ATOM     15  C   UNL A   1      34.137  19.871  24.547  1.00  0.00     0.008 C 
ENDBRANCH   9  13
BRANCH  11  16
ATOM     16  C   UNL A   1      32.190  25.414  23.202  1.00  0.00     0.227 C 
ATOM     17  O   UNL A   1      31.094  25.405  22.640  1.00  0.00    -0.275 OA
BRANCH  16  18
ATOM     18  C   UNL A   1      33.018  26.688  23.274  1.00  0.00     0.136 C 
BRANCH  18  19
ATOM     19  C   UNL A   1      32.579  27.654  24.344  1.00  0.00    -0.028 A 
ATOM     20  C   UNL A   1      32.085  27.233  25.626  1.00  0.00     0.016 A 
ATOM     21  C   UNL A   1      32.584  29.037  24.264  1.00  0.00     0.069 A 
ATOM     22  C   UNL A   1      31.721  28.288  26.432  1.00  0.00     0.065 A 
ATOM     23  S   UNL A   1      31.968  29.793  25.668  1.00  0.00    -0.152 S 
ENDBRANCH  18  19
ENDBRANCH  16  18
ENDBRANCH  11  16
ENDBRANCH   6   8
ENDBRANCH   5   6
ENDBRANCH   4   5
ENDBRANCH   3   4
ENDBRANCH   2   3
ENDBRANCH   1   2
BRANCH   1  24
ATOM     24  C   UNL A   1      41.089  20.229  27.047  1.00  0.00     0.188 C 
BRANCH  24  25
ATOM     25  O   UNL A   1      41.740  21.228  27.827  1.00  0.00    -0.376 OA
BRANCH  25  26
ATOM     26  C   UNL A   1      42.912  21.809  27.258  1.00  0.00     0.202 C 
BRANCH  26  27
ATOM     27  C   UNL A   1      43.425  23.018  28.037  1.00  0.00     0.261 C 
BRANCH  27  28
ATOM     28  O   UNL A   1      43.521  24.160  27.165  1.00  0.00    -0.460 OA
BRANCH  28  29
ATOM     29  C   UNL A   1      42.349  24.581  26.643  1.00  0.00     0.338 C 
ATOM     30  O   UNL A   1      41.729  24.087  25.714  1.00  0.00    -0.246 OA
BRANCH  29  31
ATOM     31  C   UNL A   1      41.837  25.706  27.435  1.00  0.00     0.060 A 
ATOM     32  C   UNL A   1      42.391  26.970  27.231  1.00  0.00     0.016 A 
ATOM     33  C   UNL A   1      40.939  25.488  28.475  1.00  0.00     0.016 A 
ATOM     34  C   UNL A   1      42.100  28.019  28.102  1.00  0.00     0.010 A 
ATOM     35  C   UNL A   1      40.627  26.545  29.337  1.00  0.00     0.010 A 
ATOM     36  C   UNL A   1      41.237  27.807  29.183  1.00  0.00    -0.014 A 
BRANCH  36  37
ATOM     37  C   UNL A   1      41.082  28.830  30.251  1.00  0.00     0.031 A 
ATOM     38  C   UNL A   1      42.038  28.810  31.413  1.00  0.00     0.074 A 
ATOM     39  C   UNL A   1      40.127  29.778  30.194  1.00  0.00     0.049 A 
ATOM     40  N   UNL A   1      41.950  29.402  32.575  1.00  0.00    -0.248 NA
ATOM     41  C   UNL A   1      43.258  28.003  31.240  1.00  0.00     0.031 C 
ATOM     42  C   UNL A   1      39.208  29.994  29.079  1.00  0.00     0.029 A 
ATOM     43  N   UNL A   1      39.770  30.736  31.112  1.00  0.00    -0.354 N 
ATOM     44  C   UNL A   1      43.066  28.989  33.294  1.00  0.00     0.074 A 
ATOM     45  C   UNL A   1      43.827  28.111  32.431  1.00  0.00     0.031 C 
ATOM     46  C   UNL A   1      38.394  31.021  29.375  1.00  0.00     0.029 A 
ATOM     47  C   UNL A   1      38.679  31.481  30.732  1.00  0.00     0.049 A 
ATOM     48  H   UNL A   1      40.250  30.875  31.961  1.00  0.00     0.167 HD
ATOM     49  C   UNL A   1      43.414  29.305  34.565  1.00  0.00     0.037 A 
ATOM     50  C   UNL A   1      37.959  32.390  31.420  1.00  0.00     0.037 A 
ATOM     51  C   UNL A   1      42.671  30.213  35.398  1.00  0.00     0.049 A 
ATOM     52  C   UNL A   1      38.320  32.683  32.853  1.00  0.00     0.074 A 
ATOM     53  C   UNL A   1      42.909  30.573  36.712  1.00  0.00     0.029 A 
ATOM     54  N   UNL A   1      41.553  30.922  34.984  1.00  0.00    -0.354 N 
ATOM     55  N   UNL A   1      39.307  32.198  33.571  1.00  0.00    -0.248 NA
ATOM     56  C   UNL A   1      37.453  33.620  33.581  1.00  0.00     0.031 C 
ATOM     57  C   UNL A   1      41.920  31.485  37.100  1.00  0.00     0.029 A 
ATOM     58  C   UNL A   1      41.087  31.716  36.017  1.00  0.00     0.049 A 
ATOM     59  H   UNL A   1      41.149  30.867  34.088  1.00  0.00     0.167 HD
ATOM     60  C   UNL A   1      39.184  32.779  34.828  1.00  0.00     0.074 A 
ATOM     61  C   UNL A   1      38.035  33.660  34.772  1.00  0.00     0.031 C 
ATOM     62  C   UNL A   1      39.948  32.596  35.933  1.00  0.00     0.037 A 
BRANCH  49  63
ATOM     63  C   UNL A   1      44.617  28.615  35.142  1.00  0.00     0.058 A 
ATOM     64  C   UNL A   1      45.902  29.173  35.073  1.00  0.00     0.135 A 
ATOM     65  C   UNL A   1      44.476  27.366  35.771  1.00  0.00     0.135 A 
ATOM     66  F   UNL A   1      46.094  30.354  34.463  1.00  0.00    -0.206 F 
ATOM     67  C   UNL A   1      47.012  28.503  35.578  1.00  0.00     0.059 A 
ATOM     68  C   UNL A   1      45.568  26.689  36.303  1.00  0.00     0.059 A 
ATOM     69  F   UNL A   1      43.268  26.787  35.861  1.00  0.00    -0.206 F 
ATOM     70  C   UNL A   1      46.836  27.256  36.183  1.00  0.00     0.060 A 
BRANCH  70  71
ATOM     71  S   UNL A   1      48.286  26.381  36.810  1.00  0.00     0.124 S 
ATOM     72  O   UNL A   1      48.465  27.016  38.112  1.00  0.00    -0.237 OA
ATOM     73  O   UNL A   1      47.831  24.994  36.839  1.00  0.00    -0.237 OA
ATOM     74  O   UNL A   1      49.315  26.679  35.820  1.00  0.00    -0.744 OA
ENDBRANCH  70  71
ENDBRANCH  49  63
BRANCH  50  75
ATOM     75  C   UNL A   1      36.785  33.044  30.783  1.00  0.00     0.058 A 
ATOM     76  C   UNL A   1      35.478  32.704  31.158  1.00  0.00     0.135 A 
ATOM     77  C   UNL A   1      36.947  34.029  29.796  1.00  0.00     0.135 A 
ATOM     78  F   UNL A   1      35.271  31.755  32.084  1.00  0.00    -0.206 F 
ATOM     79  C   UNL A   1      34.371  33.316  30.578  1.00  0.00     0.059 A 
ATOM     80  C   UNL A   1      35.857  34.673  29.220  1.00  0.00     0.059 A 
ATOM     81  F   UNL A   1      38.178  34.392  29.404  1.00  0.00    -0.206 F 
ATOM     82  C   UNL A   1      34.571  34.304  29.612  1.00  0.00     0.060 A 
BRANCH  82  83
ATOM     83  S   UNL A   1      33.134  35.142  28.908  1.00  0.00     0.124 S 
ATOM     84  O   UNL A   1      33.739  36.343  28.347  1.00  0.00    -0.237 OA
ATOM     85  O   UNL A   1      32.645  34.161  27.943  1.00  0.00    -0.237 OA
ATOM     86  O   UNL A   1      32.270  35.351  30.068  1.00  0.00    -0.744 OA
ENDBRANCH  82  83
ENDBRANCH  50  75
BRANCH  62  87
ATOM     87  C   UNL A   1      39.591  33.383  37.161  1.00  0.00     0.058 A 
ATOM     88  C   UNL A   1      38.703  32.879  38.122  1.00  0.00     0.135 A 
ATOM     89  C   UNL A   1      40.202  34.622  37.411  1.00  0.00     0.135 A 
ATOM     90  F   UNL A   1      38.090  31.700  37.924  1.00  0.00    -0.206 F 
ATOM     91  C   UNL A   1      38.424  33.582  39.289  1.00  0.00     0.059 A 
ATOM     92  C   UNL A   1      39.950  35.334  38.579  1.00  0.00     0.059 A 
ATOM     93  F   UNL A   1      41.065  35.142  36.524  1.00  0.00    -0.206 F 
ATOM     94  C   UNL A   1      39.054  34.808  39.510  1.00  0.00     0.060 A 
BRANCH  94  95
ATOM     95  S   UNL A   1      38.728  35.688  41.053  1.00  0.00     0.124 S 
ATOM     96  O   UNL A   1      38.501  37.046  40.573  1.00  0.00    -0.237 OA
ATOM     97  O   UNL A   1      37.552  34.993  41.570  1.00  0.00    -0.237 OA
ATOM     98  O   UNL A   1      39.953  35.489  41.822  1.00  0.00    -0.744 OA
ENDBRANCH  94  95
ENDBRANCH  62  87
ENDBRANCH  36  37
ENDBRANCH  29  31
ENDBRANCH  28  29
ENDBRANCH  27  28
ENDBRANCH  26  27
ENDBRANCH  25  26
ENDBRANCH  24  25
ENDBRANCH   1  24
TORSDOF 24
ENDMDL
MODEL 3
REMARK VINA RESULT:      -9.2     10.453     15.724
REMARK SMILES CC(C)[C@@H]1CN(C(=O)Cc2ccsc2)C[C@H]1C(=O)OCCOCCOCCOC(=O)c1ccc(-c2c3nc(c(-c4c(F)cc(S(=O)(=O)[O-])cc4F)c4ccc([nH]4)c(-c4c(F)cc(S(=O)(=O)[O-])cc4F)c4nc(c(-c5c(F)cc(S(=O)(=O)[O-])cc5F)c5ccc2[nH]5)C=C4)C=C3)cc1
REMARK SMILES IDX 23 1 22 2 21 3 20 4 19 5 17 6 18 7 16 8 4 9 5 10 6 11 15 12
REMARK SMILES IDX 2 13 1 14 3 15 7 16 8 17 9 18 10 19 11 20 14 21 12 22 13 23
REMARK SMILES IDX 24 24 25 25 26 26 27 27 28 28 29 29 30 30 31 31 32 32 96 33
REMARK SMILES IDX 33 34 95 35 34 36 35 37 36 38 89 39 37 40 94 41 88 42 90 43
REMARK SMILES IDX 38 44 93 45 87 46 86 47 39 49 73 50 52 51 72 52 53 53 56 54
REMARK SMILES IDX 71 55 91 56 54 57 55 58 70 60 92 61 57 62 40 63 41 64 50 65
REMARK SMILES IDX 42 66 43 67 49 68 51 69 44 70 45 71 46 72 47 73 48 74 74 75
REMARK SMILES IDX 75 76 84 77 76 78 77 79 83 80 85 81 78 82 79 83 80 84 81 85
REMARK SMILES IDX 82 86 58 87 59 88 68 89 60 90 61 91 67 92 69 93 62 94 63 95
REMARK SMILES IDX 64 96 65 97 66 98
REMARK H PARENT 90 48 56 59
REMARK Flexibility Score: inf
ROOT
ATOM      1  C   UNL A   1      45.628  42.654  26.629  1.00  0.00     0.188 C 
ENDROOT
BRANCH   1   2
ATOM      2  O   UNL A   1      44.632  43.477  26.031  1.00  0.00    -0.376 OA
BRANCH   2   3
ATOM      3  C   UNL A   1      43.820  42.903  25.013  1.00  0.00     0.202 C 
BRANCH   3   4
ATOM      4  C   UNL A   1      43.850  43.630  23.669  1.00  0.00     0.261 C 
BRANCH   4   5
ATOM      5  O   UNL A   1      44.244  42.766  22.580  1.00  0.00    -0.463 OA
BRANCH   5   6
ATOM      6  C   UNL A   1      45.558  42.787  22.226  1.00  0.00     0.311 C 
ATOM      7  O   UNL A   1      46.336  41.855  22.379  1.00  0.00    -0.252 OA
BRANCH   6   8
ATOM      8  C   UNL A   1      46.002  44.146  21.726  1.00  0.00     0.124 C 
ATOM      9  C   UNL A   1      47.446  44.268  21.188  1.00  0.00     0.027 C 
ATOM     10  C   UNL A   1      47.311  45.328  20.085  1.00  0.00     0.124 C 
ATOM     11  N   UNL A   1      45.930  45.291  19.656  1.00  0.00    -0.341 N 
ATOM     12  C   UNL A   1      45.109  44.495  20.541  1.00  0.00     0.135 C 
BRANCH   9  13
ATOM     13  C   UNL A   1      48.553  44.716  22.183  1.00  0.00    -0.012 C 
ATOM     14  C   UNL A   1      48.132  44.718  23.646  1.00  0.00     0.008 C 
ATOM     15  C   UNL A   1      49.822  43.878  21.982  1.00  0.00     0.008 C 
ENDBRANCH   9  13
BRANCH  11  16
ATOM     16  C   UNL A   1      45.364  45.999  18.617  1.00  0.00     0.227 C 
ATOM     17  O   UNL A   1      45.446  47.227  18.549  1.00  0.00    -0.275 OA
BRANCH  16  18
ATOM     18  C   UNL A   1      44.635  45.206  17.543  1.00  0.00     0.136 C 
BRANCH  18  19
ATOM     19  C   UNL A   1      43.188  44.922  17.856  1.00  0.00    -0.028 A 
ATOM     20  C   UNL A   1      42.176  45.941  17.879  1.00  0.00     0.016 A 
ATOM     21  C   UNL A   1      42.633  43.688  18.155  1.00  0.00     0.069 A 
ATOM     22  C   UNL A   1      40.932  45.453  18.213  1.00  0.00     0.065 A 
ATOM     23  S   UNL A   1      40.960  43.772  18.498  1.00  0.00    -0.152 S 
ENDBRANCH  18  19
ENDBRANCH  16  18
ENDBRANCH  11  16
ENDBRANCH   6   8
ENDBRANCH   5   6
ENDBRANCH   4   5
ENDBRANCH   3   4
ENDBRANCH   2   3
ENDBRANCH   1   2
BRANCH   1  24
ATOM     24  C   UNL A   1      45.169  41.753  27.784  1.00  0.00     0.188 C 
BRANCH  24  25
ATOM     25  O   UNL A   1      45.593  40.393  27.744  1.00  0.00    -0.376 OA
BRANCH  25  26
ATOM     26  C   UNL A   1      44.870  39.530  26.868  1.00  0.00     0.202 C 
BRANCH  26  27
ATOM     27  C   UNL A   1      45.048  38.050  27.195  1.00  0.00     0.261 C 
BRANCH  27  28
ATOM     28  O   UNL A   1      46.255  37.553  26.586  1.00  0.00    -0.460 OA
BRANCH  28  29
ATOM     29  C   UNL A   1      47.193  37.113  27.451  1.00  0.00     0.338 C 
ATOM     30  O   UNL A   1      47.916  37.787  28.169  1.00  0.00    -0.246 OA
BRANCH  29  31
ATOM     31  C   UNL A   1      47.169  35.647  27.495  1.00  0.00     0.060 A 
ATOM     32  C   UNL A   1      46.808  34.953  26.340  1.00  0.00     0.016 A 
ATOM     33  C   UNL A   1      47.342  34.972  28.699  1.00  0.00     0.016 A 
ATOM     34  C   UNL A   1      46.557  33.582  26.388  1.00  0.00     0.010 A 
ATOM     35  C   UNL A   1      47.114  33.593  28.745  1.00  0.00     0.010 A 
ATOM     36  C   UNL A   1      46.678  32.894  27.601  1.00  0.00    -0.014 A 
BRANCH  36  37
ATOM     37  C   UNL A   1      46.205  31.491  27.735  1.00  0.00     0.031 A 
ATOM     38  C   UNL A   1      47.157  30.374  27.398  1.00  0.00     0.074 A 
ATOM     39  C   UNL A   1      44.963  31.197  28.165  1.00  0.00     0.049 A 
ATOM     40  N   UNL A   1      46.911  29.110  27.173  1.00  0.00    -0.248 NA
ATOM     41  C   UNL A   1      48.580  30.739  27.293  1.00  0.00     0.031 C 
ATOM     42  C   UNL A   1      43.976  32.165  28.637  1.00  0.00     0.029 A 
ATOM     43  N   UNL A   1      44.320  29.987  28.263  1.00  0.00    -0.354 N 
ATOM     44  C   UNL A   1      48.135  28.542  26.838  1.00  0.00     0.074 A 
ATOM     45  C   UNL A   1      49.125  29.596  26.905  1.00  0.00     0.031 C 
ATOM     46  C   UNL A   1      42.852  31.512  28.979  1.00  0.00     0.029 A 
ATOM     47  C   UNL A   1      43.012  30.092  28.672  1.00  0.00     0.049 A 
ATOM     48  H   UNL A   1      44.755  29.127  28.060  1.00  0.00     0.167 HD
ATOM     49  C   UNL A   1      48.403  27.260  26.491  1.00  0.00     0.037 A 
ATOM     50  C   UNL A   1      42.040  29.160  28.738  1.00  0.00     0.037 A 
ATOM     51  C   UNL A   1      47.417  26.213  26.468  1.00  0.00     0.049 A 
ATOM     52  C   UNL A   1      42.336  27.754  28.288  1.00  0.00     0.074 A 
ATOM     53  C   UNL A   1      47.569  24.889  26.094  1.00  0.00     0.029 A 
ATOM     54  N   UNL A   1      46.095  26.370  26.859  1.00  0.00    -0.354 N 
ATOM     55  N   UNL A   1      43.467  27.247  27.855  1.00  0.00    -0.248 NA
ATOM     56  C   UNL A   1      41.218  26.800  28.304  1.00  0.00     0.031 C 
ATOM     57  C   UNL A   1      46.331  24.251  26.237  1.00  0.00     0.029 A 
ATOM     58  C   UNL A   1      45.419  25.169  26.733  1.00  0.00     0.049 A 
ATOM     59  H   UNL A   1      45.697  27.212  27.178  1.00  0.00     0.167 HD
ATOM     60  C   UNL A   1      43.198  25.916  27.557  1.00  0.00     0.074 A 
ATOM     61  C   UNL A   1      41.802  25.690  27.871  1.00  0.00     0.031 C 
ATOM     62  C   UNL A   1      44.030  24.966  27.063  1.00  0.00     0.037 A 
BRANCH  49  63
ATOM     63  C   UNL A   1      49.804  26.943  26.052  1.00  0.00     0.058 A 
ATOM     64  C   UNL A   1      50.216  27.080  24.717  1.00  0.00     0.135 A 
ATOM     65  C   UNL A   1      50.747  26.485  26.987  1.00  0.00     0.135 A 
ATOM     66  F   UNL A   1      49.348  27.492  23.781  1.00  0.00    -0.206 F 
ATOM     67  C   UNL A   1      51.506  26.744  24.319  1.00  0.00     0.059 A 
ATOM     68  C   UNL A   1      52.049  26.165  26.615  1.00  0.00     0.059 A 
ATOM     69  F   UNL A   1      50.403  26.333  28.275  1.00  0.00    -0.206 F 
ATOM     70  C   UNL A   1      52.413  26.278  25.274  1.00  0.00     0.060 A 
BRANCH  70  71
ATOM     71  S   UNL A   1      54.077  25.817  24.743  1.00  0.00     0.124 S 
ATOM     72  O   UNL A   1      54.898  26.526  25.720  1.00  0.00    -0.237 OA
ATOM     73  O   UNL A   1      54.058  24.364  24.866  1.00  0.00    -0.237 OA
ATOM     74  O   UNL A   1      54.148  26.326  23.377  1.00  0.00    -0.744 OA
ENDBRANCH  70  71
ENDBRANCH  49  63
BRANCH  50  75
ATOM     75  C   UNL A   1      40.676  29.542  29.193  1.00  0.00     0.058 A 
ATOM     76  C   UNL A   1      40.412  29.802  30.545  1.00  0.00     0.135 A 
ATOM     77  C   UNL A   1      39.613  29.666  28.283  1.00  0.00     0.135 A 
ATOM     78  F   UNL A   1      41.390  29.679  31.454  1.00  0.00    -0.206 F 
ATOM     79  C   UNL A   1      39.143  30.170  30.982  1.00  0.00     0.059 A 
ATOM     80  C   UNL A   1      38.343  30.058  28.692  1.00  0.00     0.059 A 
ATOM     81  F   UNL A   1      39.815  29.432  26.977  1.00  0.00    -0.206 F 
ATOM     82  C   UNL A   1      38.115  30.301  30.046  1.00  0.00     0.060 A 
BRANCH  82  83
ATOM     83  S   UNL A   1      36.486  30.843  30.608  1.00  0.00     0.124 S 
ATOM     84  O   UNL A   1      36.779  32.177  31.115  1.00  0.00    -0.237 OA
ATOM     85  O   UNL A   1      35.699  30.784  29.379  1.00  0.00    -0.237 OA
ATOM     86  O   UNL A   1      36.133  29.845  31.615  1.00  0.00    -0.744 OA
ENDBRANCH  82  83
ENDBRANCH  50  75
BRANCH  62  87
ATOM     87  C   UNL A   1      43.467  23.589  26.860  1.00  0.00     0.058 A 
ATOM     88  C   UNL A   1      43.171  23.100  25.580  1.00  0.00     0.135 A 
ATOM     89  C   UNL A   1      43.289  22.727  27.954  1.00  0.00     0.135 A 
ATOM     90  F   UNL A   1      43.320  23.889  24.504  1.00  0.00    -0.206 F 
ATOM     91  C   UNL A   1      42.710  21.802  25.389  1.00  0.00     0.059 A 
ATOM     92  C   UNL A   1      42.845  21.420  27.785  1.00  0.00     0.059 A 
ATOM     93  F   UNL A   1      43.566  23.148  29.199  1.00  0.00    -0.206 F 
ATOM     94  C   UNL A   1      42.552  20.968  26.498  1.00  0.00     0.060 A 
BRANCH  94  95
ATOM     95  S   UNL A   1      42.005  19.267  26.237  1.00  0.00     0.124 S 
ATOM     96  O   UNL A   1      42.782  18.887  25.062  1.00  0.00    -0.237 OA
ATOM     97  O   UNL A   1      42.387  18.616  27.486  1.00  0.00    -0.237 OA
ATOM     98  O   UNL A   1      40.567  19.403  26.023  1.00  0.00    -0.744 OA
ENDBRANCH  94  95
ENDBRANCH  62  87
ENDBRANCH  36  37
ENDBRANCH  29  31
ENDBRANCH  28  29
ENDBRANCH  27  28
ENDBRANCH  26  27
ENDBRANCH  25  26
ENDBRANCH  24  25
ENDBRANCH   1  24
TORSDOF 24
ENDMDL
