MODEL 1
REMARK VINA RESULT:     -10.8      0.000      0.000
REMARK SMILES CC(C)(C)c1ccc(C(=O)C[C@H](C(=O)OCCOCCOCCOC(=O)c2ccc(-c3c4nc(c(-c5c(F)cc(S(=O)(=O)[O-])cc5F)c5ccc([nH]5)c(-c5c(F)cc(S(=O)(=O)[O-])cc5F)c5nc(c(-c6c(F)cc(S(=O)(=O)[O-])cc6F)c6ccc3[nH]6)C=C5)C=C4)cc2)[NH+]2CCCC2)cc1
REMARK SMILES IDX 19 1 18 2 17 3 16 4 15 5 13 6 14 7 12 8 11 9 9 10 10 11 8 12
REMARK SMILES IDX 5 13 6 14 99 15 7 16 98 17 2 18 1 19 3 20 4 21 93 22 94 23
REMARK SMILES IDX 97 24 95 26 96 27 20 28 21 29 22 30 23 31 24 32 25 33 26 34
REMARK SMILES IDX 27 35 28 36 92 37 29 38 91 39 30 40 31 41 32 42 85 43 33 44
REMARK SMILES IDX 90 45 84 46 86 47 34 48 89 49 83 50 82 51 35 53 69 54 48 55
REMARK SMILES IDX 68 56 49 57 52 58 67 59 87 60 50 61 51 62 66 64 88 65 53 66
REMARK SMILES IDX 36 67 37 68 46 69 38 70 39 71 45 72 47 73 40 74 41 75 42 76
REMARK SMILES IDX 43 77 44 78 70 79 71 80 80 81 72 82 73 83 79 84 81 85 74 86
REMARK SMILES IDX 75 87 76 88 77 89 78 90 54 91 55 92 64 93 56 94 57 95 63 96
REMARK SMILES IDX 65 97 58 98 59 99 60 100 61 101 62 102
REMARK H PARENT 93 25 86 52 52 63
REMARK Flexibility Score: inf
ROOT
ATOM      1  C   UNL A   1      32.478  28.817  23.839  1.00  0.00     0.188 C 
ENDROOT
BRANCH   1   2
ATOM      2  O   UNL A   1      32.460  27.424  23.534  1.00  0.00    -0.376 OA
BRANCH   2   3
ATOM      3  C   UNL A   1      31.924  27.087  22.263  1.00  0.00     0.202 C 
BRANCH   3   4
ATOM      4  C   UNL A   1      32.794  26.099  21.479  1.00  0.00     0.261 C 
BRANCH   4   5
ATOM      5  O   UNL A   1      33.834  25.511  22.291  1.00  0.00    -0.459 OA
BRANCH   5   6
ATOM      6  C   UNL A   1      33.663  24.212  22.662  1.00  0.00     0.365 C 
ATOM      7  O   UNL A   1      33.500  23.287  21.875  1.00  0.00    -0.245 OA
BRANCH   6   8
ATOM      8  C   UNL A   1      33.632  24.045  24.200  1.00  0.00     0.302 C 
BRANCH   8   9
ATOM      9  C   UNL A   1      35.012  23.951  24.918  1.00  0.00     0.158 C 
BRANCH   9  10
ATOM     10  C   UNL A   1      35.473  22.680  25.649  1.00  0.00     0.169 C 
ATOM     11  O   UNL A   1      36.130  22.740  26.689  1.00  0.00    -0.294 OA
BRANCH  10  12
ATOM     12  C   UNL A   1      35.076  21.334  25.155  1.00  0.00     0.018 A 
ATOM     13  C   UNL A   1      34.410  18.634  24.577  1.00  0.00    -0.043 A 
ATOM     14  C   UNL A   1      33.421  19.635  24.630  1.00  0.00     0.005 A 
ATOM     15  C   UNL A   1      35.727  19.064  24.657  1.00  0.00     0.005 A 
ATOM     16  C   UNL A   1      33.753  20.982  24.891  1.00  0.00     0.012 A 
ATOM     17  C   UNL A   1      36.047  20.381  24.963  1.00  0.00     0.012 A 
BRANCH  13  18
ATOM     18  C   UNL A   1      34.098  17.131  24.509  1.00  0.00    -0.013 C 
ATOM     19  C   UNL A   1      32.702  16.749  25.080  1.00  0.00     0.016 C 
ATOM     20  C   UNL A   1      35.144  16.336  25.302  1.00  0.00     0.016 C 
ATOM     21  C   UNL A   1      34.089  16.690  23.032  1.00  0.00     0.016 C 
ENDBRANCH  13  18
ENDBRANCH  10  12
ENDBRANCH   9  10
ENDBRANCH   8   9
BRANCH   8  22
ATOM     22  N   UNL A   1      32.431  24.692  24.792  1.00  0.00    -0.323 N 
ATOM     23  C   UNL A   1      32.452  24.900  26.244  1.00  0.00     0.263 C 
ATOM     24  C   UNL A   1      31.156  24.032  24.518  1.00  0.00     0.263 C 
ATOM     25  H   UNL A   1      32.493  25.587  24.307  1.00  0.00     0.348 HD
ATOM     26  C   UNL A   1      31.902  23.605  26.786  1.00  0.00     0.067 C 
ATOM     27  C   UNL A   1      30.805  23.261  25.790  1.00  0.00     0.067 C 
ENDBRANCH   8  22
ENDBRANCH   6   8
ENDBRANCH   5   6
ENDBRANCH   4   5
ENDBRANCH   3   4
ENDBRANCH   2   3
ENDBRANCH   1   2
BRANCH   1  28
ATOM     28  C   UNL A   1      31.368  29.234  24.792  1.00  0.00     0.188 C 
BRANCH  28  29
ATOM     29  O   UNL A   1      31.626  30.352  25.631  1.00  0.00    -0.376 OA
BRANCH  29  30
ATOM     30  C   UNL A   1      32.340  30.067  26.837  1.00  0.00     0.202 C 
BRANCH  30  31
ATOM     31  C   UNL A   1      33.612  30.881  27.125  1.00  0.00     0.261 C 
BRANCH  31  32
ATOM     32  O   UNL A   1      34.040  30.730  28.486  1.00  0.00    -0.460 OA
BRANCH  32  33
ATOM     33  C   UNL A   1      35.042  31.566  28.884  1.00  0.00     0.338 C 
ATOM     34  O   UNL A   1      34.914  32.650  29.410  1.00  0.00    -0.246 OA
BRANCH  33  35
ATOM     35  C   UNL A   1      36.310  30.782  28.886  1.00  0.00     0.060 A 
ATOM     36  C   UNL A   1      36.722  30.197  30.100  1.00  0.00     0.016 A 
ATOM     37  C   UNL A   1      36.990  30.489  27.702  1.00  0.00     0.016 A 
ATOM     38  C   UNL A   1      37.807  29.324  30.137  1.00  0.00     0.010 A 
ATOM     39  C   UNL A   1      38.119  29.674  27.748  1.00  0.00     0.010 A 
ATOM     40  C   UNL A   1      38.552  29.129  28.972  1.00  0.00    -0.014 A 
BRANCH  40  41
ATOM     41  C   UNL A   1      39.975  28.745  29.081  1.00  0.00     0.031 A 
ATOM     42  C   UNL A   1      40.924  29.863  29.422  1.00  0.00     0.074 A 
ATOM     43  C   UNL A   1      40.417  27.504  28.820  1.00  0.00     0.049 A 
ATOM     44  N   UNL A   1      42.224  29.903  29.351  1.00  0.00    -0.248 NA
ATOM     45  C   UNL A   1      40.307  31.124  29.878  1.00  0.00     0.031 C 
ATOM     46  C   UNL A   1      39.580  26.339  28.549  1.00  0.00     0.029 A 
ATOM     47  N   UNL A   1      41.702  27.036  28.708  1.00  0.00    -0.354 N 
ATOM     48  C   UNL A   1      42.574  31.195  29.726  1.00  0.00     0.074 A 
ATOM     49  C   UNL A   1      41.356  31.915  30.005  1.00  0.00     0.031 C 
ATOM     50  C   UNL A   1      40.377  25.291  28.263  1.00  0.00     0.029 A 
ATOM     51  C   UNL A   1      41.773  25.731  28.281  1.00  0.00     0.049 A 
ATOM     52  H   UNL A   1      42.496  27.581  28.914  1.00  0.00     0.167 HD
ATOM     53  C   UNL A   1      43.807  31.738  29.818  1.00  0.00     0.037 A 
ATOM     54  C   UNL A   1      42.846  25.004  27.907  1.00  0.00     0.037 A 
ATOM     55  C   UNL A   1      45.006  31.011  29.516  1.00  0.00     0.049 A 
ATOM     56  C   UNL A   1      44.212  25.649  27.944  1.00  0.00     0.074 A 
ATOM     57  C   UNL A   1      46.313  31.451  29.567  1.00  0.00     0.029 A 
ATOM     58  N   UNL A   1      45.037  29.688  29.098  1.00  0.00    -0.354 N 
ATOM     59  N   UNL A   1      44.541  26.872  28.291  1.00  0.00    -0.248 NA
ATOM     60  C   UNL A   1      45.355  24.820  27.534  1.00  0.00     0.031 C 
ATOM     61  C   UNL A   1      47.134  30.410  29.127  1.00  0.00     0.029 A 
ATOM     62  C   UNL A   1      46.342  29.299  28.872  1.00  0.00     0.049 A 
ATOM     63  H   UNL A   1      44.246  29.113  28.980  1.00  0.00     0.167 HD
ATOM     64  C   UNL A   1      45.927  26.943  28.190  1.00  0.00     0.074 A 
ATOM     65  C   UNL A   1      46.376  25.643  27.736  1.00  0.00     0.031 C 
ATOM     66  C   UNL A   1      46.758  27.982  28.456  1.00  0.00     0.037 A 
BRANCH  53  67
ATOM     67  C   UNL A   1      43.902  33.184  30.209  1.00  0.00     0.058 A 
ATOM     68  C   UNL A   1      43.943  33.588  31.554  1.00  0.00     0.135 A 
ATOM     69  C   UNL A   1      43.950  34.182  29.223  1.00  0.00     0.135 A 
ATOM     70  F   UNL A   1      43.862  32.678  32.537  1.00  0.00    -0.206 F 
ATOM     71  C   UNL A   1      44.009  34.932  31.906  1.00  0.00     0.059 A 
ATOM     72  C   UNL A   1      44.051  35.528  29.552  1.00  0.00     0.059 A 
ATOM     73  F   UNL A   1      43.894  33.851  27.923  1.00  0.00    -0.206 F 
ATOM     74  C   UNL A   1      44.067  35.894  30.897  1.00  0.00     0.060 A 
BRANCH  74  75
ATOM     75  S   UNL A   1      44.171  37.632  31.370  1.00  0.00     0.124 S 
ATOM     76  O   UNL A   1      45.607  37.879  31.261  1.00  0.00    -0.237 OA
ATOM     77  O   UNL A   1      43.340  38.279  30.359  1.00  0.00    -0.237 OA
ATOM     78  O   UNL A   1      43.633  37.650  32.726  1.00  0.00    -0.744 OA
ENDBRANCH  74  75
ENDBRANCH  53  67
BRANCH  54  79
ATOM     79  C   UNL A   1      42.676  23.598  27.444  1.00  0.00     0.058 A 
ATOM     80  C   UNL A   1      42.687  23.280  26.077  1.00  0.00     0.135 A 
ATOM     81  C   UNL A   1      42.493  22.545  28.354  1.00  0.00     0.135 A 
ATOM     82  F   UNL A   1      42.843  24.252  25.165  1.00  0.00    -0.206 F 
ATOM     83  C   UNL A   1      42.509  21.974  25.628  1.00  0.00     0.059 A 
ATOM     84  C   UNL A   1      42.341  21.227  27.931  1.00  0.00     0.059 A 
ATOM     85  F   UNL A   1      42.478  22.790  29.674  1.00  0.00    -0.206 F 
ATOM     86  C   UNL A   1      42.340  20.952  26.564  1.00  0.00     0.060 A 
BRANCH  86  87
ATOM     87  S   UNL A   1      42.150  19.257  25.970  1.00  0.00     0.124 S 
ATOM     88  O   UNL A   1      40.711  19.182  25.745  1.00  0.00    -0.237 OA
ATOM     89  O   UNL A   1      42.985  19.257  24.772  1.00  0.00    -0.237 OA
ATOM     90  O   UNL A   1      42.659  18.453  27.078  1.00  0.00    -0.744 OA
ENDBRANCH  86  87
ENDBRANCH  54  79
BRANCH  66  91
ATOM     91  C   UNL A   1      48.239  27.750  28.354  1.00  0.00     0.058 A 
ATOM     92  C   UNL A   1      48.982  27.192  29.403  1.00  0.00     0.135 A 
ATOM     93  C   UNL A   1      48.895  27.978  27.131  1.00  0.00     0.135 A 
ATOM     94  F   UNL A   1      48.404  26.957  30.592  1.00  0.00    -0.206 F 
ATOM     95  C   UNL A   1      50.327  26.871  29.247  1.00  0.00     0.059 A 
ATOM     96  C   UNL A   1      50.229  27.637  26.943  1.00  0.00     0.059 A 
ATOM     97  F   UNL A   1      48.223  28.497  26.090  1.00  0.00    -0.206 F 
ATOM     98  C   UNL A   1      50.938  27.087  28.009  1.00  0.00     0.060 A 
BRANCH  98  99
ATOM     99  S   UNL A   1      52.661  26.592  27.796  1.00  0.00     0.124 S 
ATOM    100  O   UNL A   1      53.215  27.749  27.099  1.00  0.00    -0.237 OA
ATOM    101  O   UNL A   1      53.105  26.411  29.174  1.00  0.00    -0.237 OA
ATOM    102  O   UNL A   1      52.570  25.369  27.006  1.00  0.00    -0.744 OA
ENDBRANCH  98  99
ENDBRANCH  66  91
ENDBRANCH  40  41
ENDBRANCH  33  35
ENDBRANCH  32  33
ENDBRANCH  31  32
ENDBRANCH  30  31
ENDBRANCH  29  30
ENDBRANCH  28  29
ENDBRANCH   1  28
TORSDOF 25
ENDMDL
MODEL 2
REMARK VINA RESULT:     -10.0      2.916      3.444
REMARK SMILES CC(C)(C)c1ccc(C(=O)C[C@H](C(=O)OCCOCCOCCOC(=O)c2ccc(-c3c4nc(c(-c5c(F)cc(S(=O)(=O)[O-])cc5F)c5ccc([nH]5)c(-c5c(F)cc(S(=O)(=O)[O-])cc5F)c5nc(c(-c6c(F)cc(S(=O)(=O)[O-])cc6F)c6ccc3[nH]6)C=C5)C=C4)cc2)[NH+]2CCCC2)cc1
REMARK SMILES IDX 19 1 18 2 17 3 16 4 15 5 13 6 14 7 12 8 11 9 9 10 10 11 8 12
REMARK SMILES IDX 5 13 6 14 99 15 7 16 98 17 2 18 1 19 3 20 4 21 93 22 94 23
REMARK SMILES IDX 97 24 95 26 96 27 20 28 21 29 22 30 23 31 24 32 25 33 26 34
REMARK SMILES IDX 27 35 28 36 92 37 29 38 91 39 30 40 31 41 32 42 85 43 33 44
REMARK SMILES IDX 90 45 84 46 86 47 34 48 89 49 83 50 82 51 35 53 69 54 48 55
REMARK SMILES IDX 68 56 49 57 52 58 67 59 87 60 50 61 51 62 66 64 88 65 53 66
REMARK SMILES IDX 36 67 37 68 46 69 38 70 39 71 45 72 47 73 40 74 41 75 42 76
REMARK SMILES IDX 43 77 44 78 70 79 71 80 80 81 72 82 73 83 79 84 81 85 74 86
REMARK SMILES IDX 75 87 76 88 77 89 78 90 54 91 55 92 64 93 56 94 57 95 63 96
REMARK SMILES IDX 65 97 58 98 59 99 60 100 61 101 62 102
REMARK H PARENT 93 25 86 52 52 63
REMARK Flexibility Score: inf
ROOT
ATOM      1  C   UNL A   1      32.570  28.980  23.472  1.00  0.00     0.188 C 
ENDROOT
BRANCH   1   2
ATOM      2  O   UNL A   1      32.858  27.616  23.170  1.00  0.00    -0.376 OA
BRANCH   2   3
ATOM      3  C   UNL A   1      32.181  27.088  22.040  1.00  0.00     0.202 C 
BRANCH   3   4
ATOM      4  C   UNL A   1      32.910  25.906  21.392  1.00  0.00     0.261 C 
BRANCH   4   5
ATOM      5  O   UNL A   1      33.918  25.336  22.254  1.00  0.00    -0.459 OA
BRANCH   5   6
ATOM      6  C   UNL A   1      33.691  24.075  22.715  1.00  0.00     0.365 C 
ATOM      7  O   UNL A   1      33.638  23.081  22.000  1.00  0.00    -0.245 OA
BRANCH   6   8
ATOM      8  C   UNL A   1      33.442  24.048  24.241  1.00  0.00     0.302 C 
BRANCH   8   9
ATOM      9  C   UNL A   1      34.668  23.713  25.142  1.00  0.00     0.158 C 
BRANCH   9  10
ATOM     10  C   UNL A   1      34.707  22.473  26.050  1.00  0.00     0.169 C 
ATOM     11  O   UNL A   1      34.904  22.572  27.262  1.00  0.00    -0.294 OA
BRANCH  10  12
ATOM     12  C   UNL A   1      34.437  21.119  25.497  1.00  0.00     0.018 A 
ATOM     13  C   UNL A   1      34.121  18.395  24.758  1.00  0.00    -0.043 A 
ATOM     14  C   UNL A   1      33.020  19.175  25.160  1.00  0.00     0.005 A 
ATOM     15  C   UNL A   1      35.323  19.067  24.585  1.00  0.00     0.005 A 
ATOM     16  C   UNL A   1      33.171  20.536  25.503  1.00  0.00     0.012 A 
ATOM     17  C   UNL A   1      35.478  20.393  24.971  1.00  0.00     0.012 A 
BRANCH  13  18
ATOM     18  C   UNL A   1      34.064  16.870  24.577  1.00  0.00    -0.013 C 
ATOM     19  C   UNL A   1      32.759  16.218  25.117  1.00  0.00     0.016 C 
ATOM     20  C   UNL A   1      35.239  16.205  25.308  1.00  0.00     0.016 C 
ATOM     21  C   UNL A   1      34.111  16.544  23.070  1.00  0.00     0.016 C 
ENDBRANCH  13  18
ENDBRANCH  10  12
ENDBRANCH   9  10
ENDBRANCH   8   9
BRANCH   8  22
ATOM     22  N   UNL A   1      32.360  24.991  24.631  1.00  0.00    -0.323 N 
ATOM     23  C   UNL A   1      32.405  25.503  26.005  1.00  0.00     0.263 C 
ATOM     24  C   UNL A   1      30.996  24.498  24.452  1.00  0.00     0.263 C 
ATOM     25  H   UNL A   1      32.570  25.738  23.969  1.00  0.00     0.348 HD
ATOM     26  C   UNL A   1      31.647  24.462  26.788  1.00  0.00     0.067 C 
ATOM     27  C   UNL A   1      30.514  24.088  25.844  1.00  0.00     0.067 C 
ENDBRANCH   8  22
ENDBRANCH   6   8
ENDBRANCH   5   6
ENDBRANCH   4   5
ENDBRANCH   3   4
ENDBRANCH   2   3
ENDBRANCH   1   2
BRANCH   1  28
ATOM     28  C   UNL A   1      31.308  29.154  24.302  1.00  0.00     0.188 C 
BRANCH  28  29
ATOM     29  O   UNL A   1      31.342  30.139  25.327  1.00  0.00    -0.376 OA
BRANCH  29  30
ATOM     30  C   UNL A   1      31.995  29.747  26.537  1.00  0.00     0.202 C 
BRANCH  30  31
ATOM     31  C   UNL A   1      33.495  30.054  26.672  1.00  0.00     0.261 C 
BRANCH  31  32
ATOM     32  O   UNL A   1      33.772  30.837  27.842  1.00  0.00    -0.460 OA
BRANCH  32  33
ATOM     33  C   UNL A   1      34.876  31.635  27.770  1.00  0.00     0.338 C 
ATOM     34  O   UNL A   1      34.892  32.840  27.646  1.00  0.00    -0.246 OA
BRANCH  33  35
ATOM     35  C   UNL A   1      36.047  30.827  28.217  1.00  0.00     0.060 A 
ATOM     36  C   UNL A   1      35.916  30.077  29.403  1.00  0.00     0.016 A 
ATOM     37  C   UNL A   1      37.180  30.676  27.416  1.00  0.00     0.016 A 
ATOM     38  C   UNL A   1      36.909  29.181  29.791  1.00  0.00     0.010 A 
ATOM     39  C   UNL A   1      38.207  29.835  27.838  1.00  0.00     0.010 A 
ATOM     40  C   UNL A   1      38.090  29.124  29.047  1.00  0.00    -0.014 A 
BRANCH  40  41
ATOM     41  C   UNL A   1      39.340  28.694  29.709  1.00  0.00     0.031 A 
ATOM     42  C   UNL A   1      39.792  29.553  30.860  1.00  0.00     0.074 A 
ATOM     43  C   UNL A   1      40.075  27.658  29.275  1.00  0.00     0.049 A 
ATOM     44  N   UNL A   1      40.941  29.587  31.473  1.00  0.00    -0.248 NA
ATOM     45  C   UNL A   1      38.811  30.533  31.366  1.00  0.00     0.031 C 
ATOM     46  C   UNL A   1      39.696  26.724  28.219  1.00  0.00     0.029 A 
ATOM     47  N   UNL A   1      41.325  27.244  29.664  1.00  0.00    -0.354 N 
ATOM     48  C   UNL A   1      40.828  30.605  32.412  1.00  0.00     0.074 A 
ATOM     49  C   UNL A   1      39.511  31.177  32.281  1.00  0.00     0.031 C 
ATOM     50  C   UNL A   1      40.713  25.865  28.014  1.00  0.00     0.029 A 
ATOM     51  C   UNL A   1      41.829  26.226  28.890  1.00  0.00     0.049 A 
ATOM     52  H   UNL A   1      41.813  27.638  30.423  1.00  0.00     0.167 HD
ATOM     53  C   UNL A   1      41.749  31.033  33.302  1.00  0.00     0.037 A 
ATOM     54  C   UNL A   1      43.066  25.688  28.872  1.00  0.00     0.037 A 
ATOM     55  C   UNL A   1      43.061  30.464  33.404  1.00  0.00     0.049 A 
ATOM     56  C   UNL A   1      44.109  26.229  29.823  1.00  0.00     0.074 A 
ATOM     57  C   UNL A   1      44.085  30.814  34.261  1.00  0.00     0.029 A 
ATOM     58  N   UNL A   1      43.530  29.425  32.611  1.00  0.00    -0.354 N 
ATOM     59  N   UNL A   1      44.003  27.197  30.705  1.00  0.00    -0.248 NA
ATOM     60  C   UNL A   1      45.443  25.612  29.775  1.00  0.00     0.031 C 
ATOM     61  C   UNL A   1      45.194  30.023  33.950  1.00  0.00     0.029 A 
ATOM     62  C   UNL A   1      44.836  29.132  32.948  1.00  0.00     0.049 A 
ATOM     63  H   UNL A   1      43.009  28.968  31.912  1.00  0.00     0.167 HD
ATOM     64  C   UNL A   1      45.235  27.269  31.348  1.00  0.00     0.074 A 
ATOM     65  C   UNL A   1      46.077  26.256  30.746  1.00  0.00     0.031 C 
ATOM     66  C   UNL A   1      45.635  28.089  32.353  1.00  0.00     0.037 A 
BRANCH  53  67
ATOM     67  C   UNL A   1      41.379  32.191  34.182  1.00  0.00     0.058 A 
ATOM     68  C   UNL A   1      40.845  32.006  35.468  1.00  0.00     0.135 A 
ATOM     69  C   UNL A   1      41.559  33.508  33.731  1.00  0.00     0.135 A 
ATOM     70  F   UNL A   1      40.617  30.768  35.935  1.00  0.00    -0.206 F 
ATOM     71  C   UNL A   1      40.485  33.086  36.267  1.00  0.00     0.059 A 
ATOM     72  C   UNL A   1      41.238  34.602  34.526  1.00  0.00     0.059 A 
ATOM     73  F   UNL A   1      42.047  33.741  32.502  1.00  0.00    -0.206 F 
ATOM     74  C   UNL A   1      40.690  34.381  35.788  1.00  0.00     0.060 A 
BRANCH  74  75
ATOM     75  S   UNL A   1      40.235  35.771  36.844  1.00  0.00     0.124 S 
ATOM     76  O   UNL A   1      41.513  36.088  37.476  1.00  0.00    -0.237 OA
ATOM     77  O   UNL A   1      39.747  36.749  35.876  1.00  0.00    -0.237 OA
ATOM     78  O   UNL A   1      39.220  35.210  37.730  1.00  0.00    -0.744 OA
ENDBRANCH  74  75
ENDBRANCH  53  67
BRANCH  54  79
ATOM     79  C   UNL A   1      43.398  24.599  27.913  1.00  0.00     0.058 A 
ATOM     80  C   UNL A   1      43.858  24.887  26.619  1.00  0.00     0.135 A 
ATOM     81  C   UNL A   1      43.256  23.246  28.264  1.00  0.00     0.135 A 
ATOM     82  F   UNL A   1      43.996  26.164  26.227  1.00  0.00    -0.206 F 
ATOM     83  C   UNL A   1      44.152  23.880  25.705  1.00  0.00     0.059 A 
ATOM     84  C   UNL A   1      43.571  22.220  27.376  1.00  0.00     0.059 A 
ATOM     85  F   UNL A   1      42.823  22.911  29.489  1.00  0.00    -0.206 F 
ATOM     86  C   UNL A   1      44.009  22.547  26.094  1.00  0.00     0.060 A 
BRANCH  86  87
ATOM     87  S   UNL A   1      44.432  21.250  24.911  1.00  0.00     0.124 S 
ATOM     88  O   UNL A   1      45.724  20.800  25.416  1.00  0.00    -0.237 OA
ATOM     89  O   UNL A   1      43.322  20.315  25.072  1.00  0.00    -0.237 OA
ATOM     90  O   UNL A   1      44.465  21.957  23.633  1.00  0.00    -0.744 OA
ENDBRANCH  86  87
ENDBRANCH  54  79
BRANCH  66  91
ATOM     91  C   UNL A   1      47.006  27.883  32.933  1.00  0.00     0.058 A 
ATOM     92  C   UNL A   1      47.258  26.937  33.936  1.00  0.00     0.135 A 
ATOM     93  C   UNL A   1      48.104  28.563  32.379  1.00  0.00     0.135 A 
ATOM     94  F   UNL A   1      46.244  26.262  34.501  1.00  0.00    -0.206 F 
ATOM     95  C   UNL A   1      48.552  26.674  34.374  1.00  0.00     0.059 A 
ATOM     96  C   UNL A   1      49.407  28.295  32.779  1.00  0.00     0.059 A 
ATOM     97  F   UNL A   1      47.916  29.469  31.404  1.00  0.00    -0.206 F 
ATOM     98  C   UNL A   1      49.621  27.351  33.780  1.00  0.00     0.060 A 
BRANCH  98  99
ATOM     99  S   UNL A   1      51.300  26.943  34.301  1.00  0.00     0.124 S 
ATOM    100  O   UNL A   1      52.098  27.683  33.329  1.00  0.00    -0.237 OA
ATOM    101  O   UNL A   1      51.334  27.453  35.668  1.00  0.00    -0.237 OA
ATOM    102  O   UNL A   1      51.352  25.490  34.180  1.00  0.00    -0.744 OA
ENDBRANCH  98  99
ENDBRANCH  66  91
ENDBRANCH  40  41
ENDBRANCH  33  35
ENDBRANCH  32  33
ENDBRANCH  31  32
ENDBRANCH  30  31
ENDBRANCH  29  30
ENDBRANCH  28  29
ENDBRANCH   1  28
TORSDOF 25
ENDMDL
MODEL 3
REMARK VINA RESULT:      -9.7      1.839      3.259
REMARK SMILES CC(C)(C)c1ccc(C(=O)C[C@H](C(=O)OCCOCCOCCOC(=O)c2ccc(-c3c4nc(c(-c5c(F)cc(S(=O)(=O)[O-])cc5F)c5ccc([nH]5)c(-c5c(F)cc(S(=O)(=O)[O-])cc5F)c5nc(c(-c6c(F)cc(S(=O)(=O)[O-])cc6F)c6ccc3[nH]6)C=C5)C=C4)cc2)[NH+]2CCCC2)cc1
REMARK SMILES IDX 19 1 18 2 17 3 16 4 15 5 13 6 14 7 12 8 11 9 9 10 10 11 8 12
REMARK SMILES IDX 5 13 6 14 99 15 7 16 98 17 2 18 1 19 3 20 4 21 93 22 94 23
REMARK SMILES IDX 97 24 95 26 96 27 20 28 21 29 22 30 23 31 24 32 25 33 26 34
REMARK SMILES IDX 27 35 28 36 92 37 29 38 91 39 30 40 31 41 32 42 85 43 33 44
REMARK SMILES IDX 90 45 84 46 86 47 34 48 89 49 83 50 82 51 35 53 69 54 48 55
REMARK SMILES IDX 68 56 49 57 52 58 67 59 87 60 50 61 51 62 66 64 88 65 53 66
REMARK SMILES IDX 36 67 37 68 46 69 38 70 39 71 45 72 47 73 40 74 41 75 42 76
REMARK SMILES IDX 43 77 44 78 70 79 71 80 80 81 72 82 73 83 79 84 81 85 74 86
REMARK SMILES IDX 75 87 76 88 77 89 78 90 54 91 55 92 64 93 56 94 57 95 63 96
REMARK SMILES IDX 65 97 58 98 59 99 60 100 61 101 62 102
REMARK H PARENT 93 25 86 52 52 63
REMARK Flexibility Score: inf
ROOT
ATOM      1  C   UNL A   1      31.334  31.182  26.215  1.00  0.00     0.188 C 
ENDROOT
BRANCH   1   2
ATOM      2  O   UNL A   1      31.010  30.602  24.953  1.00  0.00    -0.376 OA
BRANCH   2   3
ATOM      3  C   UNL A   1      29.888  31.169  24.293  1.00  0.00     0.202 C 
BRANCH   3   4
ATOM      4  C   UNL A   1      29.362  30.308  23.141  1.00  0.00     0.261 C 
BRANCH   4   5
ATOM      5  O   UNL A   1      30.134  29.102  22.951  1.00  0.00    -0.459 OA
BRANCH   5   6
ATOM      6  C   UNL A   1      29.509  27.923  23.222  1.00  0.00     0.365 C 
ATOM      7  O   UNL A   1      28.302  27.744  23.114  1.00  0.00    -0.245 OA
BRANCH   6   8
ATOM      8  C   UNL A   1      30.493  26.850  23.745  1.00  0.00     0.302 C 
BRANCH   8   9
ATOM      9  C   UNL A   1      31.854  27.364  24.302  1.00  0.00     0.158 C 
BRANCH   9  10
ATOM     10  C   UNL A   1      33.200  26.982  23.665  1.00  0.00     0.169 C 
ATOM     11  O   UNL A   1      33.802  27.759  22.922  1.00  0.00    -0.294 OA
BRANCH  10  12
ATOM     12  C   UNL A   1      33.850  25.683  23.985  1.00  0.00     0.018 A 
ATOM     13  C   UNL A   1      34.787  23.143  24.847  1.00  0.00    -0.043 A 
ATOM     14  C   UNL A   1      34.337  23.347  23.528  1.00  0.00     0.005 A 
ATOM     15  C   UNL A   1      34.902  24.276  25.641  1.00  0.00     0.005 A 
ATOM     16  C   UNL A   1      33.895  24.615  23.091  1.00  0.00     0.012 A 
ATOM     17  C   UNL A   1      34.420  25.511  25.224  1.00  0.00     0.012 A 
BRANCH  13  18
ATOM     18  C   UNL A   1      35.077  21.757  25.443  1.00  0.00    -0.013 C 
ATOM     19  C   UNL A   1      34.467  20.580  24.630  1.00  0.00     0.016 C 
ATOM     20  C   UNL A   1      34.515  21.664  26.867  1.00  0.00     0.016 C 
ATOM     21  C   UNL A   1      36.602  21.526  25.447  1.00  0.00     0.016 C 
ENDBRANCH  13  18
ENDBRANCH  10  12
ENDBRANCH   9  10
ENDBRANCH   8   9
BRANCH   8  22
ATOM     22  N   UNL A   1      29.769  25.668  24.284  1.00  0.00    -0.323 N 
ATOM     23  C   UNL A   1      29.659  25.583  25.745  1.00  0.00     0.263 C 
ATOM     24  C   UNL A   1      30.280  24.366  23.862  1.00  0.00     0.263 C 
ATOM     25  H   UNL A   1      28.855  25.855  23.872  1.00  0.00     0.348 HD
ATOM     26  C   UNL A   1      30.925  24.869  26.146  1.00  0.00     0.067 C 
ATOM     27  C   UNL A   1      31.093  23.835  25.043  1.00  0.00     0.067 C 
ENDBRANCH   8  22
ENDBRANCH   6   8
ENDBRANCH   5   6
ENDBRANCH   4   5
ENDBRANCH   3   4
ENDBRANCH   2   3
ENDBRANCH   1   2
BRANCH   1  28
ATOM     28  C   UNL A   1      32.308  30.342  27.027  1.00  0.00     0.188 C 
BRANCH  28  29
ATOM     29  O   UNL A   1      33.504  30.977  27.457  1.00  0.00    -0.376 OA
BRANCH  29  30
ATOM     30  C   UNL A   1      33.344  32.290  28.001  1.00  0.00     0.202 C 
BRANCH  30  31
ATOM     31  C   UNL A   1      34.570  32.948  28.654  1.00  0.00     0.261 C 
BRANCH  31  32
ATOM     32  O   UNL A   1      35.711  32.078  28.635  1.00  0.00    -0.460 OA
BRANCH  32  33
ATOM     33  C   UNL A   1      36.314  31.873  29.841  1.00  0.00     0.338 C 
ATOM     34  O   UNL A   1      35.835  32.079  30.935  1.00  0.00    -0.246 OA
BRANCH  33  35
ATOM     35  C   UNL A   1      37.520  31.028  29.605  1.00  0.00     0.060 A 
ATOM     36  C   UNL A   1      38.244  30.583  30.729  1.00  0.00     0.016 A 
ATOM     37  C   UNL A   1      37.838  30.548  28.333  1.00  0.00     0.016 A 
ATOM     38  C   UNL A   1      39.282  29.665  30.589  1.00  0.00     0.010 A 
ATOM     39  C   UNL A   1      38.921  29.686  28.181  1.00  0.00     0.010 A 
ATOM     40  C   UNL A   1      39.670  29.281  29.303  1.00  0.00    -0.014 A 
BRANCH  40  41
ATOM     41  C   UNL A   1      41.061  28.838  29.070  1.00  0.00     0.031 A 
ATOM     42  C   UNL A   1      42.101  29.925  29.097  1.00  0.00     0.074 A 
ATOM     43  C   UNL A   1      41.381  27.567  28.777  1.00  0.00     0.049 A 
ATOM     44  N   UNL A   1      43.341  29.903  28.698  1.00  0.00    -0.248 NA
ATOM     45  C   UNL A   1      41.662  31.233  29.622  1.00  0.00     0.031 C 
ATOM     46  C   UNL A   1      40.465  26.430  28.793  1.00  0.00     0.029 A 
ATOM     47  N   UNL A   1      42.579  27.035  28.371  1.00  0.00    -0.354 N 
ATOM     48  C   UNL A   1      43.816  31.193  28.898  1.00  0.00     0.074 A 
ATOM     49  C   UNL A   1      42.734  31.980  29.435  1.00  0.00     0.031 C 
ATOM     50  C   UNL A   1      41.128  25.335  28.374  1.00  0.00     0.029 A 
ATOM     51  C   UNL A   1      42.496  25.710  28.014  1.00  0.00     0.049 A 
ATOM     52  H   UNL A   1      43.416  27.552  28.339  1.00  0.00     0.167 HD
ATOM     53  C   UNL A   1      45.049  31.683  28.644  1.00  0.00     0.037 A 
ATOM     54  C   UNL A   1      43.414  24.918  27.423  1.00  0.00     0.037 A 
ATOM     55  C   UNL A   1      46.107  30.888  28.091  1.00  0.00     0.049 A 
ATOM     56  C   UNL A   1      44.765  25.501  27.077  1.00  0.00     0.074 A 
ATOM     57  C   UNL A   1      47.398  31.270  27.785  1.00  0.00     0.029 A 
ATOM     58  N   UNL A   1      45.987  29.547  27.755  1.00  0.00    -0.354 N 
ATOM     59  N   UNL A   1      45.211  26.723  27.260  1.00  0.00    -0.248 NA
ATOM     60  C   UNL A   1      45.738  24.602  26.439  1.00  0.00     0.031 C 
ATOM     61  C   UNL A   1      48.045  30.173  27.212  1.00  0.00     0.029 A 
ATOM     62  C   UNL A   1      47.178  29.089  27.228  1.00  0.00     0.049 A 
ATOM     63  H   UNL A   1      45.175  29.004  27.873  1.00  0.00     0.167 HD
ATOM     64  C   UNL A   1      46.527  26.725  26.808  1.00  0.00     0.074 A 
ATOM     65  C   UNL A   1      46.804  25.386  26.330  1.00  0.00     0.031 C 
ATOM     66  C   UNL A   1      47.432  27.736  26.796  1.00  0.00     0.037 A 
BRANCH  53  67
ATOM     67  C   UNL A   1      45.287  33.140  28.917  1.00  0.00     0.058 A 
ATOM     68  C   UNL A   1      45.031  34.127  27.951  1.00  0.00     0.135 A 
ATOM     69  C   UNL A   1      45.781  33.554  30.163  1.00  0.00     0.135 A 
ATOM     70  F   UNL A   1      44.593  33.783  26.730  1.00  0.00    -0.206 F 
ATOM     71  C   UNL A   1      45.275  35.472  28.207  1.00  0.00     0.059 A 
ATOM     72  C   UNL A   1      46.001  34.896  30.452  1.00  0.00     0.059 A 
ATOM     73  F   UNL A   1      46.062  32.649  31.115  1.00  0.00    -0.206 F 
ATOM     74  C   UNL A   1      45.757  35.847  29.462  1.00  0.00     0.060 A 
BRANCH  74  75
ATOM     75  S   UNL A   1      46.051  37.597  29.783  1.00  0.00     0.124 S 
ATOM     76  O   UNL A   1      45.265  38.225  28.725  1.00  0.00    -0.237 OA
ATOM     77  O   UNL A   1      45.530  37.755  31.138  1.00  0.00    -0.237 OA
ATOM     78  O   UNL A   1      47.498  37.731  29.652  1.00  0.00    -0.744 OA
ENDBRANCH  74  75
ENDBRANCH  53  67
BRANCH  54  79
ATOM     79  C   UNL A   1      43.087  23.502  27.098  1.00  0.00     0.058 A 
ATOM     80  C   UNL A   1      43.120  22.506  28.086  1.00  0.00     0.135 A 
ATOM     81  C   UNL A   1      42.740  23.111  25.794  1.00  0.00     0.135 A 
ATOM     82  F   UNL A   1      43.460  22.823  29.345  1.00  0.00    -0.206 F 
ATOM     83  C   UNL A   1      42.838  21.175  27.793  1.00  0.00     0.059 A 
ATOM     84  C   UNL A   1      42.426  21.791  25.482  1.00  0.00     0.059 A 
ATOM     85  F   UNL A   1      42.689  24.022  24.810  1.00  0.00    -0.206 F 
ATOM     86  C   UNL A   1      42.488  20.827  26.487  1.00  0.00     0.060 A 
BRANCH  86  87
ATOM     87  S   UNL A   1      42.085  19.103  26.129  1.00  0.00     0.124 S 
ATOM     88  O   UNL A   1      43.017  18.800  25.050  1.00  0.00    -0.237 OA
ATOM     89  O   UNL A   1      42.354  18.453  27.408  1.00  0.00    -0.237 OA
ATOM     90  O   UNL A   1      40.676  19.159  25.748  1.00  0.00    -0.744 OA
ENDBRANCH  86  87
ENDBRANCH  54  79
BRANCH  66  91
ATOM     91  C   UNL A   1      48.830  27.432  26.336  1.00  0.00     0.058 A 
ATOM     92  C   UNL A   1      49.191  27.449  24.982  1.00  0.00     0.135 A 
ATOM     93  C   UNL A   1      49.848  27.245  27.286  1.00  0.00     0.135 A 
ATOM     94  F   UNL A   1      48.256  27.622  24.034  1.00  0.00    -0.206 F 
ATOM     95  C   UNL A   1      50.514  27.287  24.583  1.00  0.00     0.059 A 
ATOM     96  C   UNL A   1      51.180  27.111  26.913  1.00  0.00     0.059 A 
ATOM     97  F   UNL A   1      49.556  27.235  28.598  1.00  0.00    -0.206 F 
ATOM     98  C   UNL A   1      51.503  27.130  25.558  1.00  0.00     0.060 A 
BRANCH  98  99
ATOM     99  S   UNL A   1      53.224  27.000  25.031  1.00  0.00     0.124 S 
ATOM    100  O   UNL A   1      53.092  26.270  23.775  1.00  0.00    -0.237 OA
ATOM    101  O   UNL A   1      53.620  28.400  24.912  1.00  0.00    -0.237 OA
ATOM    102  O   UNL A   1      53.861  26.266  26.120  1.00  0.00    -0.744 OA
ENDBRANCH  98  99
ENDBRANCH  66  91
ENDBRANCH  40  41
ENDBRANCH  33  35
ENDBRANCH  32  33
ENDBRANCH  31  32
ENDBRANCH  30  31
ENDBRANCH  29  30
ENDBRANCH  28  29
ENDBRANCH   1  28
TORSDOF 25
ENDMDL
