MODEL 1
REMARK VINA RESULT:      -7.1      0.000      0.000
REMARK SMILES O=C(N[C@]1(C(=O)OCCOCCOCCOC(=O)c2ccc(-c3c4nc(c(-c5c(F)cc(S(=O)(=O)[O-])cc5F)c5ccc([nH]5)c(-c5c(F)cc(S(=O)(=O)[O-])cc5F)c5nc(c(-c6c(F)cc(S(=O)(=O)[O-])cc6F)c6ccc3[nH]6)C=C5)C=C4)cc2)CC[C@H](c2ccccc2)CC1)OCC1c2ccccc2-c2ccccc21
REMARK SMILES IDX 11 1 10 2 9 3 8 4 7 5 5 6 6 7 4 8 85 9 95 10 86 11 94 12
REMARK SMILES IDX 87 13 3 14 1 15 2 16 96 18 97 19 98 20 99 21 110 22 100 23
REMARK SMILES IDX 104 24 105 25 109 26 101 27 103 28 106 29 108 30 102 31
REMARK SMILES IDX 107 32 88 33 89 34 93 35 90 36 92 37 91 38 12 39 13 40 14 41
REMARK SMILES IDX 15 42 16 43 17 44 18 45 19 46 20 47 84 48 21 49 83 50 22 51
REMARK SMILES IDX 23 52 24 53 77 54 25 55 82 56 76 57 78 58 26 59 81 60 75 61
REMARK SMILES IDX 74 62 27 64 61 65 40 66 60 67 41 68 44 69 59 70 79 71 42 72
REMARK SMILES IDX 43 73 58 75 80 76 45 77 28 78 29 79 38 80 30 81 31 82 37 83
REMARK SMILES IDX 39 84 32 85 33 86 34 87 35 88 36 89 62 90 63 91 72 92 64 93
REMARK SMILES IDX 65 94 71 95 73 96 66 97 67 98 68 99 69 100 70 101 46 102
REMARK SMILES IDX 47 103 56 104 48 105 49 106 55 107 57 108 50 109 51 110
REMARK SMILES IDX 52 111 53 112 54 113
REMARK H PARENT 3 17 78 63 44 74
REMARK Flexibility Score: inf
ROOT
ATOM      1  C   UNL A   1      39.554  34.307  36.658  1.00  0.00     0.188 C 
ENDROOT
BRANCH   1   2
ATOM      2  O   UNL A   1      40.804  33.665  36.488  1.00  0.00    -0.376 OA
BRANCH   2   3
ATOM      3  C   UNL A   1      40.670  32.261  36.492  1.00  0.00     0.202 C 
BRANCH   3   4
ATOM      4  C   UNL A   1      40.946  31.579  35.150  1.00  0.00     0.261 C 
BRANCH   4   5
ATOM      5  O   UNL A   1      41.988  30.547  35.100  1.00  0.00    -0.461 OA
BRANCH   5   6
ATOM      6  C   UNL A   1      41.863  29.399  35.818  1.00  0.00     0.332 C 
ATOM      7  O   UNL A   1      40.793  28.967  36.184  1.00  0.00    -0.249 OA
BRANCH   6   8
ATOM      8  C   UNL A   1      43.102  28.553  36.136  1.00  0.00     0.141 C 
ATOM      9  C   UNL A   1      43.933  28.236  34.854  1.00  0.00     0.041 C 
ATOM     10  C   UNL A   1      42.602  27.190  36.657  1.00  0.00     0.041 C 
ATOM     11  C   UNL A   1      43.128  27.543  33.739  1.00  0.00     0.011 C 
ATOM     12  C   UNL A   1      41.752  26.465  35.585  1.00  0.00     0.011 C 
ATOM     13  C   UNL A   1      42.471  26.241  34.221  1.00  0.00     0.019 C 
BRANCH   8  14
ATOM     14  N   UNL A   1      43.885  29.368  37.058  1.00  0.00    -0.305 N 
ATOM     15  O   UNL A   1      45.914  29.751  38.037  1.00  0.00    -0.225 OA
ATOM     16  C   UNL A   1      45.195  29.025  37.364  1.00  0.00     0.408 C 
ATOM     17  H   UNL A   1      43.482  30.168  37.465  1.00  0.00     0.168 HD
BRANCH  16  18
ATOM     18  O   UNL A   1      45.597  27.849  36.771  1.00  0.00    -0.449 OA
BRANCH  18  19
ATOM     19  C   UNL A   1      47.008  27.530  36.802  1.00  0.00     0.248 C 
BRANCH  19  20
ATOM     20  C   UNL A   1      47.687  26.994  35.433  1.00  0.00     0.088 C 
ATOM     21  C   UNL A   1      47.536  27.111  33.837  1.00  0.00    -0.029 A 
ATOM     22  C   UNL A   1      47.997  25.503  35.546  1.00  0.00    -0.029 A 
ATOM     23  C   UNL A   1      46.972  28.004  32.900  1.00  0.00     0.005 A 
ATOM     24  C   UNL A   1      48.124  25.975  33.260  1.00  0.00    -0.014 A 
ATOM     25  C   UNL A   1      48.426  25.016  34.296  1.00  0.00    -0.014 A 
ATOM     26  C   UNL A   1      47.877  24.652  36.634  1.00  0.00     0.005 A 
ATOM     27  C   UNL A   1      46.904  27.770  31.524  1.00  0.00     0.000 A 
ATOM     28  C   UNL A   1      48.168  25.778  31.868  1.00  0.00     0.009 A 
ATOM     29  C   UNL A   1      48.880  23.720  34.158  1.00  0.00     0.009 A 
ATOM     30  C   UNL A   1      48.272  23.326  36.478  1.00  0.00     0.000 A 
ATOM     31  C   UNL A   1      47.538  26.668  31.001  1.00  0.00     0.001 A 
ATOM     32  C   UNL A   1      48.807  22.876  35.262  1.00  0.00     0.001 A 
ENDBRANCH  19  20
ENDBRANCH  18  19
ENDBRANCH  16  18
ENDBRANCH   8  14
BRANCH  13  33
ATOM     33  C   UNL A   1      43.427  25.055  34.189  1.00  0.00    -0.045 A 
ATOM     34  C   UNL A   1      43.478  24.102  35.225  1.00  0.00     0.004 A 
ATOM     35  C   UNL A   1      44.361  24.929  33.154  1.00  0.00     0.004 A 
ATOM     36  C   UNL A   1      44.371  23.035  35.198  1.00  0.00     0.000 A 
ATOM     37  C   UNL A   1      45.252  23.854  33.119  1.00  0.00     0.000 A 
ATOM     38  C   UNL A   1      45.249  22.903  34.134  1.00  0.00     0.000 A 
ENDBRANCH  13  33
ENDBRANCH   6   8
ENDBRANCH   5   6
ENDBRANCH   4   5
ENDBRANCH   3   4
ENDBRANCH   2   3
ENDBRANCH   1   2
BRANCH   1  39
ATOM     39  C   UNL A   1      38.609  34.148  35.438  1.00  0.00     0.188 C 
BRANCH  39  40
ATOM     40  O   UNL A   1      37.350  33.507  35.580  1.00  0.00    -0.376 OA
BRANCH  40  41
ATOM     41  C   UNL A   1      36.817  32.865  34.425  1.00  0.00     0.202 C 
BRANCH  41  42
ATOM     42  C   UNL A   1      37.605  31.732  33.725  1.00  0.00     0.261 C 
BRANCH  42  43
ATOM     43  O   UNL A   1      37.073  31.253  32.470  1.00  0.00    -0.460 OA
BRANCH  43  44
ATOM     44  C   UNL A   1      37.422  29.973  32.106  1.00  0.00     0.338 C 
ATOM     45  O   UNL A   1      36.671  29.064  31.893  1.00  0.00    -0.246 OA
BRANCH  44  46
ATOM     46  C   UNL A   1      38.859  29.986  31.655  1.00  0.00     0.060 A 
ATOM     47  C   UNL A   1      39.188  30.699  30.480  1.00  0.00     0.016 A 
ATOM     48  C   UNL A   1      39.878  29.445  32.438  1.00  0.00     0.016 A 
ATOM     49  C   UNL A   1      40.519  30.865  30.085  1.00  0.00     0.010 A 
ATOM     50  C   UNL A   1      41.207  29.553  32.008  1.00  0.00     0.010 A 
ATOM     51  C   UNL A   1      41.528  30.223  30.808  1.00  0.00    -0.014 A 
BRANCH  51  52
ATOM     52  C   UNL A   1      42.805  29.892  30.121  1.00  0.00     0.031 A 
ATOM     53  C   UNL A   1      42.870  28.530  29.475  1.00  0.00     0.074 A 
ATOM     54  C   UNL A   1      43.859  30.723  30.051  1.00  0.00     0.049 A 
ATOM     55  N   UNL A   1      43.880  27.909  28.929  1.00  0.00    -0.248 NA
ATOM     56  C   UNL A   1      41.612  27.760  29.456  1.00  0.00     0.031 C 
ATOM     57  C   UNL A   1      43.907  32.094  30.554  1.00  0.00     0.029 A 
ATOM     58  N   UNL A   1      45.116  30.510  29.532  1.00  0.00    -0.354 N 
ATOM     59  C   UNL A   1      43.383  26.676  28.520  1.00  0.00     0.074 A 
ATOM     60  C   UNL A   1      41.992  26.622  28.904  1.00  0.00     0.031 C 
ATOM     61  C   UNL A   1      45.146  32.585  30.353  1.00  0.00     0.029 A 
ATOM     62  C   UNL A   1      45.985  31.555  29.740  1.00  0.00     0.049 A 
ATOM     63  H   UNL A   1      45.368  29.686  29.056  1.00  0.00     0.167 HD
ATOM     64  C   UNL A   1      44.022  25.674  27.877  1.00  0.00     0.037 A 
ATOM     65  C   UNL A   1      47.309  31.650  29.492  1.00  0.00     0.037 A 
ATOM     66  C   UNL A   1      45.408  25.722  27.502  1.00  0.00     0.049 A 
ATOM     67  C   UNL A   1      48.032  30.485  28.855  1.00  0.00     0.074 A 
ATOM     68  C   UNL A   1      46.154  24.757  26.851  1.00  0.00     0.029 A 
ATOM     69  N   UNL A   1      46.257  26.788  27.755  1.00  0.00    -0.354 N 
ATOM     70  N   UNL A   1      47.555  29.322  28.473  1.00  0.00    -0.248 NA
ATOM     71  C   UNL A   1      49.474  30.644  28.613  1.00  0.00     0.031 C 
ATOM     72  C   UNL A   1      47.470  25.219  26.756  1.00  0.00     0.029 A 
ATOM     73  C   UNL A   1      47.527  26.497  27.292  1.00  0.00     0.049 A 
ATOM     74  H   UNL A   1      45.995  27.627  28.196  1.00  0.00     0.167 HD
ATOM     75  C   UNL A   1      48.629  28.629  27.916  1.00  0.00     0.074 A 
ATOM     76  C   UNL A   1      49.779  29.505  28.005  1.00  0.00     0.031 C 
ATOM     77  C   UNL A   1      48.660  27.385  27.376  1.00  0.00     0.037 A 
BRANCH  64  78
ATOM     78  C   UNL A   1      43.230  24.432  27.576  1.00  0.00     0.058 A 
ATOM     79  C   UNL A   1      42.642  24.214  26.320  1.00  0.00     0.135 A 
ATOM     80  C   UNL A   1      43.061  23.446  28.561  1.00  0.00     0.135 A 
ATOM     81  F   UNL A   1      42.744  25.140  25.354  1.00  0.00    -0.206 F 
ATOM     82  C   UNL A   1      41.891  23.073  26.059  1.00  0.00     0.059 A 
ATOM     83  C   UNL A   1      42.342  22.282  28.312  1.00  0.00     0.059 A 
ATOM     84  F   UNL A   1      43.591  23.612  29.783  1.00  0.00    -0.206 F 
ATOM     85  C   UNL A   1      41.750  22.111  27.062  1.00  0.00     0.060 A 
BRANCH  85  86
ATOM     86  S   UNL A   1      40.781  20.632  26.703  1.00  0.00     0.124 S 
ATOM     87  O   UNL A   1      41.592  19.994  25.671  1.00  0.00    -0.237 OA
ATOM     88  O   UNL A   1      40.756  19.956  27.997  1.00  0.00    -0.237 OA
ATOM     89  O   UNL A   1      39.499  21.165  26.252  1.00  0.00    -0.744 OA
ENDBRANCH  85  86
ENDBRANCH  64  78
BRANCH  65  90
ATOM     90  C   UNL A   1      48.056  32.884  29.869  1.00  0.00     0.058 A 
ATOM     91  C   UNL A   1      48.214  33.947  28.967  1.00  0.00     0.135 A 
ATOM     92  C   UNL A   1      48.649  33.015  31.136  1.00  0.00     0.135 A 
ATOM     93  F   UNL A   1      47.688  33.865  27.736  1.00  0.00    -0.206 F 
ATOM     94  C   UNL A   1      48.939  35.089  29.301  1.00  0.00     0.059 A 
ATOM     95  C   UNL A   1      49.355  34.157  31.503  1.00  0.00     0.059 A 
ATOM     96  F   UNL A   1      48.535  32.027  32.038  1.00  0.00    -0.206 F 
ATOM     97  C   UNL A   1      49.503  35.186  30.574  1.00  0.00     0.060 A 
BRANCH  97  98
ATOM     98  S   UNL A   1      50.401  36.692  31.012  1.00  0.00     0.124 S 
ATOM     99  O   UNL A   1      49.315  37.578  31.413  1.00  0.00    -0.237 OA
ATOM    100  O   UNL A   1      51.275  36.226  32.085  1.00  0.00    -0.237 OA
ATOM    101  O   UNL A   1      51.082  37.051  29.772  1.00  0.00    -0.744 OA
ENDBRANCH  97  98
ENDBRANCH  65  90
BRANCH  77 102
ATOM    102  C   UNL A   1      49.962  26.901  26.791  1.00  0.00     0.058 A 
ATOM    103  C   UNL A   1      50.849  26.093  27.518  1.00  0.00     0.135 A 
ATOM    104  C   UNL A   1      50.287  27.192  25.455  1.00  0.00     0.135 A 
ATOM    105  F   UNL A   1      50.588  25.784  28.798  1.00  0.00    -0.206 F 
ATOM    106  C   UNL A   1      52.024  25.610  26.949  1.00  0.00     0.059 A 
ATOM    107  C   UNL A   1      51.441  26.694  24.857  1.00  0.00     0.059 A 
ATOM    108  F   UNL A   1      49.466  27.947  24.707  1.00  0.00    -0.206 F 
ATOM    109  C   UNL A   1      52.311  25.914  25.617  1.00  0.00     0.060 A 
BRANCH 109 110
ATOM    110  S   UNL A   1      53.820  25.251  24.881  1.00  0.00     0.124 S 
ATOM    111  O   UNL A   1      53.765  23.855  25.303  1.00  0.00    -0.237 OA
ATOM    112  O   UNL A   1      53.607  25.492  23.458  1.00  0.00    -0.237 OA
ATOM    113  O   UNL A   1      54.877  26.050  25.494  1.00  0.00    -0.744 OA
ENDBRANCH 109 110
ENDBRANCH  77 102
ENDBRANCH  51  52
ENDBRANCH  44  46
ENDBRANCH  43  44
ENDBRANCH  42  43
ENDBRANCH  41  42
ENDBRANCH  40  41
ENDBRANCH  39  40
ENDBRANCH   1  39
TORSDOF 25
ENDMDL
MODEL 2
REMARK VINA RESULT:      -7.0      6.878     11.875
REMARK SMILES O=C(N[C@]1(C(=O)OCCOCCOCCOC(=O)c2ccc(-c3c4nc(c(-c5c(F)cc(S(=O)(=O)[O-])cc5F)c5ccc([nH]5)c(-c5c(F)cc(S(=O)(=O)[O-])cc5F)c5nc(c(-c6c(F)cc(S(=O)(=O)[O-])cc6F)c6ccc3[nH]6)C=C5)C=C4)cc2)CC[C@H](c2ccccc2)CC1)OCC1c2ccccc2-c2ccccc21
REMARK SMILES IDX 11 1 10 2 9 3 8 4 7 5 5 6 6 7 4 8 85 9 95 10 86 11 94 12
REMARK SMILES IDX 87 13 3 14 1 15 2 16 96 18 97 19 98 20 99 21 110 22 100 23
REMARK SMILES IDX 104 24 105 25 109 26 101 27 103 28 106 29 108 30 102 31
REMARK SMILES IDX 107 32 88 33 89 34 93 35 90 36 92 37 91 38 12 39 13 40 14 41
REMARK SMILES IDX 15 42 16 43 17 44 18 45 19 46 20 47 84 48 21 49 83 50 22 51
REMARK SMILES IDX 23 52 24 53 77 54 25 55 82 56 76 57 78 58 26 59 81 60 75 61
REMARK SMILES IDX 74 62 27 64 61 65 40 66 60 67 41 68 44 69 59 70 79 71 42 72
REMARK SMILES IDX 43 73 58 75 80 76 45 77 28 78 29 79 38 80 30 81 31 82 37 83
REMARK SMILES IDX 39 84 32 85 33 86 34 87 35 88 36 89 62 90 63 91 72 92 64 93
REMARK SMILES IDX 65 94 71 95 73 96 66 97 67 98 68 99 69 100 70 101 46 102
REMARK SMILES IDX 47 103 56 104 48 105 49 106 55 107 57 108 50 109 51 110
REMARK SMILES IDX 52 111 53 112 54 113
REMARK H PARENT 3 17 78 63 44 74
REMARK Flexibility Score: inf
ROOT
ATOM      1  C   UNL A   1      49.454  20.376  35.707  1.00  0.00     0.188 C 
ENDROOT
BRANCH   1   2
ATOM      2  O   UNL A   1      48.059  20.550  35.878  1.00  0.00    -0.376 OA
BRANCH   2   3
ATOM      3  C   UNL A   1      47.596  19.910  37.045  1.00  0.00     0.202 C 
BRANCH   3   4
ATOM      4  C   UNL A   1      46.088  19.648  37.089  1.00  0.00     0.261 C 
BRANCH   4   5
ATOM      5  O   UNL A   1      45.594  18.598  37.987  1.00  0.00    -0.461 OA
BRANCH   5   6
ATOM      6  C   UNL A   1      45.733  18.716  39.334  1.00  0.00     0.332 C 
ATOM      7  O   UNL A   1      45.668  19.778  39.911  1.00  0.00    -0.249 OA
BRANCH   6   8
ATOM      8  C   UNL A   1      45.913  17.462  40.200  1.00  0.00     0.141 C 
ATOM      9  C   UNL A   1      45.456  16.170  39.453  1.00  0.00     0.041 C 
ATOM     10  C   UNL A   1      44.966  17.604  41.409  1.00  0.00     0.041 C 
ATOM     11  C   UNL A   1      44.004  16.221  38.944  1.00  0.00     0.011 C 
ATOM     12  C   UNL A   1      43.490  17.697  40.949  1.00  0.00     0.011 C 
ATOM     13  C   UNL A   1      43.002  16.505  40.072  1.00  0.00     0.019 C 
BRANCH   8  14
ATOM     14  N   UNL A   1      47.343  17.404  40.481  1.00  0.00    -0.305 N 
ATOM     15  O   UNL A   1      49.013  17.681  42.016  1.00  0.00    -0.225 OA
ATOM     16  C   UNL A   1      47.840  17.828  41.706  1.00  0.00     0.408 C 
ATOM     17  H   UNL A   1      47.961  17.060  39.797  1.00  0.00     0.168 HD
BRANCH  16  18
ATOM     18  O   UNL A   1      46.866  18.342  42.533  1.00  0.00    -0.449 OA
BRANCH  18  19
ATOM     19  C   UNL A   1      47.081  18.252  43.961  1.00  0.00     0.248 C 
BRANCH  19  20
ATOM     20  C   UNL A   1      45.872  17.669  44.867  1.00  0.00     0.088 C 
ATOM     21  C   UNL A   1      45.139  17.915  46.277  1.00  0.00    -0.029 A 
ATOM     22  C   UNL A   1      45.897  16.142  44.862  1.00  0.00    -0.029 A 
ATOM     23  C   UNL A   1      44.983  18.964  47.209  1.00  0.00     0.005 A 
ATOM     24  C   UNL A   1      44.514  16.717  46.658  1.00  0.00    -0.014 A 
ATOM     25  C   UNL A   1      44.952  15.653  45.785  1.00  0.00    -0.014 A 
ATOM     26  C   UNL A   1      46.699  15.271  44.141  1.00  0.00     0.005 A 
ATOM     27  C   UNL A   1      44.350  18.837  48.448  1.00  0.00     0.000 A 
ATOM     28  C   UNL A   1      43.774  16.602  47.847  1.00  0.00     0.009 A 
ATOM     29  C   UNL A   1      44.695  14.301  45.887  1.00  0.00     0.009 A 
ATOM     30  C   UNL A   1      46.485  13.904  44.292  1.00  0.00     0.000 A 
ATOM     31  C   UNL A   1      43.711  17.659  48.753  1.00  0.00     0.001 A 
ATOM     32  C   UNL A   1      45.465  13.426  45.127  1.00  0.00     0.001 A 
ENDBRANCH  19  20
ENDBRANCH  18  19
ENDBRANCH  16  18
ENDBRANCH   8  14
BRANCH  13  33
ATOM     33  C   UNL A   1      42.625  15.251  40.851  1.00  0.00    -0.045 A 
ATOM     34  C   UNL A   1      42.881  15.116  42.229  1.00  0.00     0.004 A 
ATOM     35  C   UNL A   1      42.086  14.142  40.187  1.00  0.00     0.004 A 
ATOM     36  C   UNL A   1      42.554  13.958  42.928  1.00  0.00     0.000 A 
ATOM     37  C   UNL A   1      41.748  12.982  40.886  1.00  0.00     0.000 A 
ATOM     38  C   UNL A   1      41.972  12.894  42.256  1.00  0.00     0.000 A 
ENDBRANCH  13  33
ENDBRANCH   6   8
ENDBRANCH   5   6
ENDBRANCH   4   5
ENDBRANCH   3   4
ENDBRANCH   2   3
ENDBRANCH   1   2
BRANCH   1  39
ATOM     39  C   UNL A   1      49.845  19.894  34.286  1.00  0.00     0.188 C 
BRANCH  39  40
ATOM     40  O   UNL A   1      51.208  19.862  33.887  1.00  0.00    -0.376 OA
BRANCH  40  41
ATOM     41  C   UNL A   1      51.702  20.997  33.181  1.00  0.00     0.202 C 
BRANCH  41  42
ATOM     42  C   UNL A   1      52.195  22.244  33.953  1.00  0.00     0.261 C 
BRANCH  42  43
ATOM     43  O   UNL A   1      51.262  23.340  34.076  1.00  0.00    -0.460 OA
BRANCH  43  44
ATOM     44  C   UNL A   1      51.384  24.355  33.156  1.00  0.00     0.338 C 
ATOM     45  O   UNL A   1      52.178  24.412  32.261  1.00  0.00    -0.246 OA
BRANCH  44  46
ATOM     46  C   UNL A   1      50.136  25.197  33.214  1.00  0.00     0.060 A 
ATOM     47  C   UNL A   1      49.089  24.788  34.070  1.00  0.00     0.016 A 
ATOM     48  C   UNL A   1      50.053  26.430  32.568  1.00  0.00     0.016 A 
ATOM     49  C   UNL A   1      47.966  25.595  34.273  1.00  0.00     0.010 A 
ATOM     50  C   UNL A   1      48.898  27.208  32.718  1.00  0.00     0.010 A 
ATOM     51  C   UNL A   1      47.832  26.774  33.534  1.00  0.00    -0.014 A 
BRANCH  51  52
ATOM     52  C   UNL A   1      46.470  27.314  33.283  1.00  0.00     0.031 A 
ATOM     53  C   UNL A   1      45.735  26.724  32.105  1.00  0.00     0.074 A 
ATOM     54  C   UNL A   1      45.887  28.266  34.034  1.00  0.00     0.049 A 
ATOM     55  N   UNL A   1      44.604  27.080  31.558  1.00  0.00    -0.248 NA
ATOM     56  C   UNL A   1      46.381  25.572  31.448  1.00  0.00     0.031 C 
ATOM     57  C   UNL A   1      46.442  28.863  35.245  1.00  0.00     0.029 A 
ATOM     58  N   UNL A   1      44.684  28.911  33.860  1.00  0.00    -0.354 N 
ATOM     59  C   UNL A   1      44.417  26.210  30.489  1.00  0.00     0.074 A 
ATOM     60  C   UNL A   1      45.558  25.328  30.444  1.00  0.00     0.031 C 
ATOM     61  C   UNL A   1      45.598  29.817  35.683  1.00  0.00     0.029 A 
ATOM     62  C   UNL A   1      44.462  29.920  34.767  1.00  0.00     0.049 A 
ATOM     63  H   UNL A   1      44.044  28.672  33.152  1.00  0.00     0.167 HD
ATOM     64  C   UNL A   1      43.383  26.143  29.620  1.00  0.00     0.037 A 
ATOM     65  C   UNL A   1      43.472  30.837  34.825  1.00  0.00     0.037 A 
ATOM     66  C   UNL A   1      42.251  27.026  29.657  1.00  0.00     0.049 A 
ATOM     67  C   UNL A   1      42.370  30.809  33.790  1.00  0.00     0.074 A 
ATOM     68  C   UNL A   1      41.152  27.046  28.820  1.00  0.00     0.029 A 
ATOM     69  N   UNL A   1      42.078  28.049  30.576  1.00  0.00    -0.354 N 
ATOM     70  N   UNL A   1      42.200  29.984  32.782  1.00  0.00    -0.248 NA
ATOM     71  C   UNL A   1      41.321  31.835  33.901  1.00  0.00     0.031 C 
ATOM     72  C   UNL A   1      40.338  28.118  29.200  1.00  0.00     0.029 A 
ATOM     73  C   UNL A   1      40.899  28.723  30.313  1.00  0.00     0.049 A 
ATOM     74  H   UNL A   1      42.701  28.264  31.307  1.00  0.00     0.167 HD
ATOM     75  C   UNL A   1      41.012  30.371  32.164  1.00  0.00     0.074 A 
ATOM     76  C   UNL A   1      40.501  31.499  32.914  1.00  0.00     0.031 C 
ATOM     77  C   UNL A   1      40.397  29.838  31.077  1.00  0.00     0.037 A 
BRANCH  64  78
ATOM     78  C   UNL A   1      43.459  25.103  28.539  1.00  0.00     0.058 A 
ATOM     79  C   UNL A   1      43.097  23.766  28.768  1.00  0.00     0.135 A 
ATOM     80  C   UNL A   1      43.899  25.451  27.252  1.00  0.00     0.135 A 
ATOM     81  F   UNL A   1      42.702  23.372  29.990  1.00  0.00    -0.206 F 
ATOM     82  C   UNL A   1      43.192  22.806  27.768  1.00  0.00     0.059 A 
ATOM     83  C   UNL A   1      43.971  24.515  26.226  1.00  0.00     0.059 A 
ATOM     84  F   UNL A   1      44.270  26.713  26.982  1.00  0.00    -0.206 F 
ATOM     85  C   UNL A   1      43.628  23.191  26.498  1.00  0.00     0.060 A 
BRANCH  85  86
ATOM     86  S   UNL A   1      43.737  21.935  25.208  1.00  0.00     0.124 S 
ATOM     87  O   UNL A   1      45.059  21.370  25.461  1.00  0.00    -0.237 OA
ATOM     88  O   UNL A   1      42.607  21.066  25.525  1.00  0.00    -0.237 OA
ATOM     89  O   UNL A   1      43.609  22.702  23.973  1.00  0.00    -0.744 OA
ENDBRANCH  85  86
ENDBRANCH  64  78
BRANCH  65  90
ATOM     90  C   UNL A   1      43.482  31.886  35.884  1.00  0.00     0.058 A 
ATOM     91  C   UNL A   1      44.163  33.099  35.704  1.00  0.00     0.135 A 
ATOM     92  C   UNL A   1      42.828  31.685  37.111  1.00  0.00     0.135 A 
ATOM     93  F   UNL A   1      44.825  33.333  34.561  1.00  0.00    -0.206 F 
ATOM     94  C   UNL A   1      44.207  34.070  36.703  1.00  0.00     0.059 A 
ATOM     95  C   UNL A   1      42.834  32.652  38.114  1.00  0.00     0.059 A 
ATOM     96  F   UNL A   1      42.165  30.542  37.341  1.00  0.00    -0.206 F 
ATOM     97  C   UNL A   1      43.534  33.838  37.903  1.00  0.00     0.060 A 
BRANCH  97  98
ATOM     98  S   UNL A   1      43.557  35.125  39.173  1.00  0.00     0.124 S 
ATOM     99  O   UNL A   1      42.220  35.003  39.740  1.00  0.00    -0.237 OA
ATOM    100  O   UNL A   1      44.657  34.690  40.030  1.00  0.00    -0.237 OA
ATOM    101  O   UNL A   1      43.811  36.345  38.412  1.00  0.00    -0.744 OA
ENDBRANCH  97  98
ENDBRANCH  65  90
BRANCH  77 102
ATOM    102  C   UNL A   1      39.078  30.428  30.653  1.00  0.00     0.058 A 
ATOM    103  C   UNL A   1      37.853  29.843  31.005  1.00  0.00     0.135 A 
ATOM    104  C   UNL A   1      39.042  31.642  29.945  1.00  0.00     0.135 A 
ATOM    105  F   UNL A   1      37.827  28.683  31.680  1.00  0.00    -0.206 F 
ATOM    106  C   UNL A   1      36.639  30.426  30.650  1.00  0.00     0.059 A 
ATOM    107  C   UNL A   1      37.841  32.258  29.607  1.00  0.00     0.059 A 
ATOM    108  F   UNL A   1      40.185  32.256  29.597  1.00  0.00    -0.206 F 
ATOM    109  C   UNL A   1      36.644  31.636  29.953  1.00  0.00     0.060 A 
BRANCH 109 110
ATOM    110  S   UNL A   1      35.063  32.399  29.531  1.00  0.00     0.124 S 
ATOM    111  O   UNL A   1      35.495  33.666  28.949  1.00  0.00    -0.237 OA
ATOM    112  O   UNL A   1      34.490  31.435  28.597  1.00  0.00    -0.237 OA
ATOM    113  O   UNL A   1      34.379  32.500  30.816  1.00  0.00    -0.744 OA
ENDBRANCH 109 110
ENDBRANCH  77 102
ENDBRANCH  51  52
ENDBRANCH  44  46
ENDBRANCH  43  44
ENDBRANCH  42  43
ENDBRANCH  41  42
ENDBRANCH  40  41
ENDBRANCH  39  40
ENDBRANCH   1  39
TORSDOF 25
ENDMDL
MODEL 3
REMARK VINA RESULT:      -7.0      4.632     11.077
REMARK SMILES O=C(N[C@]1(C(=O)OCCOCCOCCOC(=O)c2ccc(-c3c4nc(c(-c5c(F)cc(S(=O)(=O)[O-])cc5F)c5ccc([nH]5)c(-c5c(F)cc(S(=O)(=O)[O-])cc5F)c5nc(c(-c6c(F)cc(S(=O)(=O)[O-])cc6F)c6ccc3[nH]6)C=C5)C=C4)cc2)CC[C@H](c2ccccc2)CC1)OCC1c2ccccc2-c2ccccc21
REMARK SMILES IDX 11 1 10 2 9 3 8 4 7 5 5 6 6 7 4 8 85 9 95 10 86 11 94 12
REMARK SMILES IDX 87 13 3 14 1 15 2 16 96 18 97 19 98 20 99 21 110 22 100 23
REMARK SMILES IDX 104 24 105 25 109 26 101 27 103 28 106 29 108 30 102 31
REMARK SMILES IDX 107 32 88 33 89 34 93 35 90 36 92 37 91 38 12 39 13 40 14 41
REMARK SMILES IDX 15 42 16 43 17 44 18 45 19 46 20 47 84 48 21 49 83 50 22 51
REMARK SMILES IDX 23 52 24 53 77 54 25 55 82 56 76 57 78 58 26 59 81 60 75 61
REMARK SMILES IDX 74 62 27 64 61 65 40 66 60 67 41 68 44 69 59 70 79 71 42 72
REMARK SMILES IDX 43 73 58 75 80 76 45 77 28 78 29 79 38 80 30 81 31 82 37 83
REMARK SMILES IDX 39 84 32 85 33 86 34 87 35 88 36 89 62 90 63 91 72 92 64 93
REMARK SMILES IDX 65 94 71 95 73 96 66 97 67 98 68 99 69 100 70 101 46 102
REMARK SMILES IDX 47 103 56 104 48 105 49 106 55 107 57 108 50 109 51 110
REMARK SMILES IDX 52 111 53 112 54 113
REMARK H PARENT 3 17 78 63 44 74
REMARK Flexibility Score: inf
ROOT
ATOM      1  C   UNL A   1      41.459  28.413  33.013  1.00  0.00     0.188 C 
ENDROOT
BRANCH   1   2
ATOM      2  O   UNL A   1      40.518  28.701  34.032  1.00  0.00    -0.376 OA
BRANCH   2   3
ATOM      3  C   UNL A   1      40.146  30.062  34.023  1.00  0.00     0.202 C 
BRANCH   3   4
ATOM      4  C   UNL A   1      38.924  30.407  34.877  1.00  0.00     0.261 C 
BRANCH   4   5
ATOM      5  O   UNL A   1      38.112  31.565  34.486  1.00  0.00    -0.461 OA
BRANCH   5   6
ATOM      6  C   UNL A   1      37.367  31.538  33.350  1.00  0.00     0.332 C 
ATOM      7  O   UNL A   1      36.678  30.593  33.038  1.00  0.00    -0.249 OA
BRANCH   6   8
ATOM      8  C   UNL A   1      37.319  32.768  32.434  1.00  0.00     0.141 C 
ATOM      9  C   UNL A   1      37.229  34.096  33.248  1.00  0.00     0.041 C 
ATOM     10  C   UNL A   1      36.007  32.683  31.626  1.00  0.00     0.041 C 
ATOM     11  C   UNL A   1      36.040  34.154  34.225  1.00  0.00     0.011 C 
ATOM     12  C   UNL A   1      34.776  32.700  32.565  1.00  0.00     0.011 C 
ATOM     13  C   UNL A   1      34.696  33.932  33.517  1.00  0.00     0.019 C 
BRANCH   8  14
ATOM     14  N   UNL A   1      38.566  32.721  31.679  1.00  0.00    -0.305 N 
ATOM     15  O   UNL A   1      39.649  32.007  29.798  1.00  0.00    -0.225 OA
ATOM     16  C   UNL A   1      38.659  31.971  30.514  1.00  0.00     0.408 C 
ATOM     17  H   UNL A   1      39.349  33.226  31.998  1.00  0.00     0.168 HD
BRANCH  16  18
ATOM     18  O   UNL A   1      37.508  31.270  30.232  1.00  0.00    -0.449 OA
BRANCH  18  19
ATOM     19  C   UNL A   1      37.166  31.074  28.840  1.00  0.00     0.248 C 
BRANCH  19  20
ATOM     20  C   UNL A   1      35.596  30.950  28.462  1.00  0.00     0.088 C 
ATOM     21  C   UNL A   1      34.600  30.096  27.533  1.00  0.00    -0.029 A 
ATOM     22  C   UNL A   1      34.988  32.338  28.270  1.00  0.00    -0.029 A 
ATOM     23  C   UNL A   1      34.585  28.840  26.890  1.00  0.00     0.005 A 
ATOM     24  C   UNL A   1      33.448  30.866  27.308  1.00  0.00    -0.014 A 
ATOM     25  C   UNL A   1      33.675  32.212  27.778  1.00  0.00    -0.014 A 
ATOM     26  C   UNL A   1      35.551  33.589  28.475  1.00  0.00     0.005 A 
ATOM     27  C   UNL A   1      33.576  28.403  26.027  1.00  0.00     0.000 A 
ATOM     28  C   UNL A   1      32.371  30.396  26.535  1.00  0.00     0.009 A 
ATOM     29  C   UNL A   1      32.864  33.319  27.630  1.00  0.00     0.009 A 
ATOM     30  C   UNL A   1      34.754  34.710  28.262  1.00  0.00     0.000 A 
ATOM     31  C   UNL A   1      32.446  29.170  25.877  1.00  0.00     0.001 A 
ATOM     32  C   UNL A   1      33.411  34.574  27.882  1.00  0.00     0.001 A 
ENDBRANCH  19  20
ENDBRANCH  18  19
ENDBRANCH  16  18
ENDBRANCH   8  14
BRANCH  13  33
ATOM     33  C   UNL A   1      34.156  35.203  32.872  1.00  0.00    -0.045 A 
ATOM     34  C   UNL A   1      33.477  35.191  31.638  1.00  0.00     0.004 A 
ATOM     35  C   UNL A   1      34.404  36.451  33.456  1.00  0.00     0.004 A 
ATOM     36  C   UNL A   1      33.009  36.359  31.045  1.00  0.00     0.000 A 
ATOM     37  C   UNL A   1      33.926  37.625  32.870  1.00  0.00     0.000 A 
ATOM     38  C   UNL A   1      33.220  37.578  31.672  1.00  0.00     0.000 A 
ENDBRANCH  13  33
ENDBRANCH   6   8
ENDBRANCH   5   6
ENDBRANCH   4   5
ENDBRANCH   3   4
ENDBRANCH   2   3
ENDBRANCH   1   2
BRANCH   1  39
ATOM     39  C   UNL A   1      40.965  28.793  31.593  1.00  0.00     0.188 C 
BRANCH  39  40
ATOM     40  O   UNL A   1      40.696  27.786  30.630  1.00  0.00    -0.376 OA
BRANCH  40  41
ATOM     41  C   UNL A   1      39.665  28.054  29.683  1.00  0.00     0.202 C 
BRANCH  41  42
ATOM     42  C   UNL A   1      39.322  27.019  28.585  1.00  0.00     0.261 C 
BRANCH  42  43
ATOM     43  O   UNL A   1      40.345  26.760  27.598  1.00  0.00    -0.460 OA
BRANCH  43  44
ATOM     44  C   UNL A   1      40.914  25.507  27.621  1.00  0.00     0.338 C 
ATOM     45  O   UNL A   1      40.448  24.506  27.158  1.00  0.00    -0.246 OA
BRANCH  44  46
ATOM     46  C   UNL A   1      42.369  25.657  27.982  1.00  0.00     0.060 A 
ATOM     47  C   UNL A   1      43.173  24.495  28.027  1.00  0.00     0.016 A 
ATOM     48  C   UNL A   1      42.964  26.909  28.122  1.00  0.00     0.016 A 
ATOM     49  C   UNL A   1      44.554  24.581  28.220  1.00  0.00     0.010 A 
ATOM     50  C   UNL A   1      44.339  26.992  28.383  1.00  0.00     0.010 A 
ATOM     51  C   UNL A   1      45.130  25.828  28.477  1.00  0.00    -0.014 A 
BRANCH  51  52
ATOM     52  C   UNL A   1      46.406  25.887  29.238  1.00  0.00     0.031 A 
ATOM     53  C   UNL A   1      47.636  26.226  28.433  1.00  0.00     0.074 A 
ATOM     54  C   UNL A   1      46.504  25.665  30.561  1.00  0.00     0.049 A 
ATOM     55  N   UNL A   1      48.895  26.217  28.783  1.00  0.00    -0.248 NA
ATOM     56  C   UNL A   1      47.406  26.620  27.031  1.00  0.00     0.031 C 
ATOM     57  C   UNL A   1      45.393  25.411  31.474  1.00  0.00     0.029 A 
ATOM     58  N   UNL A   1      47.621  25.599  31.362  1.00  0.00    -0.354 N 
ATOM     59  C   UNL A   1      49.600  26.586  27.642  1.00  0.00     0.074 A 
ATOM     60  C   UNL A   1      48.639  26.784  26.584  1.00  0.00     0.031 C 
ATOM     61  C   UNL A   1      45.889  25.179  32.705  1.00  0.00     0.029 A 
ATOM     62  C   UNL A   1      47.350  25.234  32.660  1.00  0.00     0.049 A 
ATOM     63  H   UNL A   1      48.529  25.795  31.036  1.00  0.00     0.167 HD
ATOM     64  C   UNL A   1      50.932  26.751  27.485  1.00  0.00     0.037 A 
ATOM     65  C   UNL A   1      48.190  24.946  33.678  1.00  0.00     0.037 A 
ATOM     66  C   UNL A   1      51.892  26.545  28.534  1.00  0.00     0.049 A 
ATOM     67  C   UNL A   1      49.683  25.045  33.461  1.00  0.00     0.074 A 
ATOM     68  C   UNL A   1      53.266  26.682  28.478  1.00  0.00     0.029 A 
ATOM     69  N   UNL A   1      51.576  26.151  29.825  1.00  0.00    -0.354 N 
ATOM     70  N   UNL A   1      50.343  25.393  32.379  1.00  0.00    -0.248 NA
ATOM     71  C   UNL A   1      50.549  24.716  34.604  1.00  0.00     0.031 C 
ATOM     72  C   UNL A   1      53.788  26.318  29.722  1.00  0.00     0.029 A 
ATOM     73  C   UNL A   1      52.734  26.017  30.571  1.00  0.00     0.049 A 
ATOM     74  H   UNL A   1      50.666  25.991  30.161  1.00  0.00     0.167 HD
ATOM     75  C   UNL A   1      51.693  25.357  32.723  1.00  0.00     0.074 A 
ATOM     76  C   UNL A   1      51.757  24.960  34.114  1.00  0.00     0.031 C 
ATOM     77  C   UNL A   1      52.781  25.633  31.960  1.00  0.00     0.037 A 
BRANCH  64  78
ATOM     78  C   UNL A   1      51.422  27.138  26.118  1.00  0.00     0.058 A 
ATOM     79  C   UNL A   1      51.437  28.474  25.686  1.00  0.00     0.135 A 
ATOM     80  C   UNL A   1      51.884  26.156  25.228  1.00  0.00     0.135 A 
ATOM     81  F   UNL A   1      50.975  29.449  26.485  1.00  0.00    -0.206 F 
ATOM     82  C   UNL A   1      51.870  28.820  24.411  1.00  0.00     0.059 A 
ATOM     83  C   UNL A   1      52.352  26.481  23.959  1.00  0.00     0.059 A 
ATOM     84  F   UNL A   1      51.878  24.862  25.586  1.00  0.00    -0.206 F 
ATOM     85  C   UNL A   1      52.329  27.815  23.556  1.00  0.00     0.060 A 
BRANCH  85  86
ATOM     86  S   UNL A   1      52.896  28.282  21.908  1.00  0.00     0.124 S 
ATOM     87  O   UNL A   1      53.548  29.560  22.174  1.00  0.00    -0.237 OA
ATOM     88  O   UNL A   1      53.786  27.177  21.561  1.00  0.00    -0.237 OA
ATOM     89  O   UNL A   1      51.662  28.358  21.131  1.00  0.00    -0.744 OA
ENDBRANCH  85  86
ENDBRANCH  64  78
BRANCH  65  90
ATOM     90  C   UNL A   1      47.649  24.506  34.995  1.00  0.00     0.058 A 
ATOM     91  C   UNL A   1      47.343  25.431  36.005  1.00  0.00     0.135 A 
ATOM     92  C   UNL A   1      47.446  23.145  35.279  1.00  0.00     0.135 A 
ATOM     93  F   UNL A   1      47.540  26.741  35.795  1.00  0.00    -0.206 F 
ATOM     94  C   UNL A   1      46.869  25.025  37.251  1.00  0.00     0.059 A 
ATOM     95  C   UNL A   1      46.947  22.717  36.506  1.00  0.00     0.059 A 
ATOM     96  F   UNL A   1      47.726  22.215  34.352  1.00  0.00    -0.206 F 
ATOM     97  C   UNL A   1      46.670  23.665  37.490  1.00  0.00     0.060 A 
BRANCH  97  98
ATOM     98  S   UNL A   1      46.009  23.153  39.093  1.00  0.00     0.124 S 
ATOM     99  O   UNL A   1      44.898  24.082  39.264  1.00  0.00    -0.237 OA
ATOM    100  O   UNL A   1      45.646  21.761  38.844  1.00  0.00    -0.237 OA
ATOM    101  O   UNL A   1      47.137  23.346  39.999  1.00  0.00    -0.744 OA
ENDBRANCH  97  98
ENDBRANCH  65  90
BRANCH  77 102
ATOM    102  C   UNL A   1      54.137  25.565  32.612  1.00  0.00     0.058 A 
ATOM    103  C   UNL A   1      54.854  24.364  32.715  1.00  0.00     0.135 A 
ATOM    104  C   UNL A   1      54.758  26.738  33.074  1.00  0.00     0.135 A 
ATOM    105  F   UNL A   1      54.309  23.213  32.290  1.00  0.00    -0.206 F 
ATOM    106  C   UNL A   1      56.128  24.323  33.274  1.00  0.00     0.059 A 
ATOM    107  C   UNL A   1      56.043  26.725  33.608  1.00  0.00     0.059 A 
ATOM    108  F   UNL A   1      54.124  27.920  32.985  1.00  0.00    -0.206 F 
ATOM    109  C   UNL A   1      56.716  25.510  33.715  1.00  0.00     0.060 A 
BRANCH 109 110
ATOM    110  S   UNL A   1      58.383  25.448  34.405  1.00  0.00     0.124 S 
ATOM    111  O   UNL A   1      58.123  25.670  35.824  1.00  0.00    -0.237 OA
ATOM    112  O   UNL A   1      58.821  24.104  34.043  1.00  0.00    -0.237 OA
ATOM    113  O   UNL A   1      59.077  26.532  33.717  1.00  0.00    -0.744 OA
ENDBRANCH 109 110
ENDBRANCH  77 102
ENDBRANCH  51  52
ENDBRANCH  44  46
ENDBRANCH  43  44
ENDBRANCH  42  43
ENDBRANCH  41  42
ENDBRANCH  40  41
ENDBRANCH  39  40
ENDBRANCH   1  39
TORSDOF 25
ENDMDL
