MODEL 1
REMARK VINA RESULT:      -9.7      0.000      0.000
REMARK SMILES Cc1cc(C(=O)N[C@@H]2CC2(C)C)sc1/C=C/C(=O)OCCOCCOCCOC(=O)c1ccc(-c2c3nc(c(-c4c(F)cc(S(=O)(=O)[O-])cc4F)c4ccc([nH]4)c(-c4c(F)cc(S(=O)(=O)[O-])cc4F)c4nc(c(-c5c(F)cc(S(=O)(=O)[O-])cc5F)c5ccc2[nH]5)C=C4)C=C3)cc1
REMARK SMILES IDX 23 1 22 2 21 3 20 4 19 5 17 6 18 7 16 8 15 9 14 10 1 11 2 12
REMARK SMILES IDX 3 13 4 14 13 15 5 16 6 17 7 18 8 20 9 21 10 22 11 23 12 24
REMARK SMILES IDX 24 25 25 26 26 27 27 28 28 29 29 30 30 31 31 32 32 33 96 34
REMARK SMILES IDX 33 35 95 36 34 37 35 38 36 39 89 40 37 41 94 42 88 43 90 44
REMARK SMILES IDX 38 45 93 46 87 47 86 48 39 50 73 51 52 52 72 53 53 54 56 55
REMARK SMILES IDX 71 56 91 57 54 58 55 59 70 61 92 62 57 63 40 64 41 65 50 66
REMARK SMILES IDX 42 67 43 68 49 69 51 70 44 71 45 72 46 73 47 74 48 75 74 76
REMARK SMILES IDX 75 77 84 78 76 79 77 80 83 81 85 82 78 83 79 84 80 85 81 86
REMARK SMILES IDX 82 87 58 88 59 89 68 90 60 91 61 92 67 93 69 94 62 95 63 96
REMARK SMILES IDX 64 97 65 98 66 99
REMARK H PARENT 7 19 90 49 56 60
REMARK Flexibility Score: inf
ROOT
ATOM      1  C   UNL A   1      40.396  22.385  26.426  1.00  0.00     0.188 C 
ENDROOT
BRANCH   1   2
ATOM      2  O   UNL A   1      38.980  22.357  26.523  1.00  0.00    -0.376 OA
BRANCH   2   3
ATOM      3  C   UNL A   1      38.204  21.973  25.396  1.00  0.00     0.202 C 
BRANCH   3   4
ATOM      4  C   UNL A   1      36.679  22.164  25.391  1.00  0.00     0.261 C 
BRANCH   4   5
ATOM      5  O   UNL A   1      35.941  21.032  25.880  1.00  0.00    -0.460 OA
BRANCH   5   6
ATOM      6  C   UNL A   1      34.917  20.626  25.094  1.00  0.00     0.330 C 
ATOM      7  O   UNL A   1      34.703  19.485  24.713  1.00  0.00    -0.247 OA
BRANCH   6   8
ATOM      8  C   UNL A   1      33.957  21.709  24.814  1.00  0.00     0.095 C 
ATOM      9  C   UNL A   1      32.617  21.629  24.881  1.00  0.00     0.027 C 
BRANCH   9  10
ATOM     10  C   UNL A   1      31.839  22.797  24.632  1.00  0.00     0.031 A 
ATOM     11  C   UNL A   1      30.348  22.942  26.715  1.00  0.00     0.046 C 
ATOM     12  C   UNL A   1      30.922  23.453  25.439  1.00  0.00    -0.032 A 
ATOM     13  C   UNL A   1      30.693  24.783  24.938  1.00  0.00     0.029 A 
ATOM     14  C   UNL A   1      31.366  25.058  23.751  1.00  0.00     0.093 A 
ATOM     15  S   UNL A   1      31.864  23.573  23.094  1.00  0.00    -0.130 S 
BRANCH  14  16
ATOM     16  C   UNL A   1      31.445  26.367  23.121  1.00  0.00     0.261 C 
ATOM     17  O   UNL A   1      31.475  26.441  21.882  1.00  0.00    -0.268 OA
ATOM     18  N   UNL A   1      31.399  27.609  23.724  1.00  0.00    -0.348 N 
ATOM     19  H   UNL A   1      31.417  28.299  23.021  1.00  0.00     0.164 HD
BRANCH  18  20
ATOM     20  C   UNL A   1      31.334  28.262  24.997  1.00  0.00     0.088 C 
ATOM     21  C   UNL A   1      32.141  29.427  25.451  1.00  0.00     0.034 C 
ATOM     22  C   UNL A   1      32.247  28.110  26.200  1.00  0.00    -0.013 C 
ATOM     23  C   UNL A   1      31.682  28.162  27.604  1.00  0.00     0.013 C 
ATOM     24  C   UNL A   1      33.418  27.175  26.108  1.00  0.00     0.013 C 
ENDBRANCH  18  20
ENDBRANCH  14  16
ENDBRANCH   9  10
ENDBRANCH   6   8
ENDBRANCH   5   6
ENDBRANCH   4   5
ENDBRANCH   3   4
ENDBRANCH   2   3
ENDBRANCH   1   2
BRANCH   1  25
ATOM     25  C   UNL A   1      41.240  21.656  27.490  1.00  0.00     0.188 C 
BRANCH  25  26
ATOM     26  O   UNL A   1      40.981  20.282  27.650  1.00  0.00    -0.376 OA
BRANCH  26  27
ATOM     27  C   UNL A   1      41.946  19.325  27.245  1.00  0.00     0.202 C 
BRANCH  27  28
ATOM     28  C   UNL A   1      42.454  19.086  25.806  1.00  0.00     0.261 C 
BRANCH  28  29
ATOM     29  O   UNL A   1      43.857  18.938  25.583  1.00  0.00    -0.460 OA
BRANCH  29  30
ATOM     30  C   UNL A   1      44.390  19.721  24.617  1.00  0.00     0.338 C 
ATOM     31  O   UNL A   1      44.690  19.386  23.477  1.00  0.00    -0.246 OA
BRANCH  30  32
ATOM     32  C   UNL A   1      44.394  21.114  25.093  1.00  0.00     0.060 A 
ATOM     33  C   UNL A   1      43.933  22.126  24.240  1.00  0.00     0.016 A 
ATOM     34  C   UNL A   1      44.873  21.422  26.367  1.00  0.00     0.016 A 
ATOM     35  C   UNL A   1      43.968  23.457  24.654  1.00  0.00     0.010 A 
ATOM     36  C   UNL A   1      44.927  22.758  26.772  1.00  0.00     0.010 A 
ATOM     37  C   UNL A   1      44.500  23.783  25.909  1.00  0.00    -0.014 A 
BRANCH  37  38
ATOM     38  C   UNL A   1      44.765  25.200  26.257  1.00  0.00     0.031 A 
ATOM     39  C   UNL A   1      46.164  25.728  26.099  1.00  0.00     0.074 A 
ATOM     40  C   UNL A   1      43.782  26.002  26.704  1.00  0.00     0.049 A 
ATOM     41  N   UNL A   1      46.648  26.902  26.408  1.00  0.00    -0.248 NA
ATOM     42  C   UNL A   1      47.150  24.804  25.515  1.00  0.00     0.031 C 
ATOM     43  C   UNL A   1      42.382  25.617  26.863  1.00  0.00     0.029 A 
ATOM     44  N   UNL A   1      43.822  27.310  27.120  1.00  0.00    -0.354 N 
ATOM     45  C   UNL A   1      47.995  26.858  26.066  1.00  0.00     0.074 A 
ATOM     46  C   UNL A   1      48.258  25.531  25.554  1.00  0.00     0.031 C 
ATOM     47  C   UNL A   1      41.697  26.660  27.365  1.00  0.00     0.029 A 
ATOM     48  C   UNL A   1      42.617  27.774  27.593  1.00  0.00     0.049 A 
ATOM     49  H   UNL A   1      44.636  27.863  27.084  1.00  0.00     0.167 HD
ATOM     50  C   UNL A   1      48.926  27.837  26.163  1.00  0.00     0.037 A 
ATOM     51  C   UNL A   1      42.302  28.950  28.171  1.00  0.00     0.037 A 
ATOM     52  C   UNL A   1      48.658  29.153  26.681  1.00  0.00     0.049 A 
ATOM     53  C   UNL A   1      43.371  30.002  28.338  1.00  0.00     0.074 A 
ATOM     54  C   UNL A   1      49.530  30.220  26.809  1.00  0.00     0.029 A 
ATOM     55  N   UNL A   1      47.431  29.579  27.169  1.00  0.00    -0.354 N 
ATOM     56  N   UNL A   1      44.637  29.957  27.989  1.00  0.00    -0.248 NA
ATOM     57  C   UNL A   1      42.971  31.266  28.973  1.00  0.00     0.031 C 
ATOM     58  C   UNL A   1      48.844  31.273  27.424  1.00  0.00     0.029 A 
ATOM     59  C   UNL A   1      47.528  30.885  27.620  1.00  0.00     0.049 A 
ATOM     60  H   UNL A   1      46.611  29.034  27.189  1.00  0.00     0.167 HD
ATOM     61  C   UNL A   1      45.172  31.195  28.333  1.00  0.00     0.074 A 
ATOM     62  C   UNL A   1      44.093  31.970  28.909  1.00  0.00     0.031 C 
ATOM     63  C   UNL A   1      46.442  31.650  28.184  1.00  0.00     0.037 A 
BRANCH  50  64
ATOM     64  C   UNL A   1      50.328  27.510  25.726  1.00  0.00     0.058 A 
ATOM     65  C   UNL A   1      51.292  27.031  26.627  1.00  0.00     0.135 A 
ATOM     66  C   UNL A   1      50.705  27.650  24.380  1.00  0.00     0.135 A 
ATOM     67  F   UNL A   1      50.993  26.894  27.930  1.00  0.00    -0.206 F 
ATOM     68  C   UNL A   1      52.586  26.730  26.216  1.00  0.00     0.059 A 
ATOM     69  C   UNL A   1      51.984  27.328  23.941  1.00  0.00     0.059 A 
ATOM     70  F   UNL A   1      49.824  28.109  23.476  1.00  0.00    -0.206 F 
ATOM     71  C   UNL A   1      52.923  26.882  24.870  1.00  0.00     0.060 A 
BRANCH  71  72
ATOM     72  S   UNL A   1      54.606  26.482  24.352  1.00  0.00     0.124 S 
ATOM     73  O   UNL A   1      55.335  27.667  24.794  1.00  0.00    -0.237 OA
ATOM     74  O   UNL A   1      54.878  25.257  25.097  1.00  0.00    -0.237 OA
ATOM     75  O   UNL A   1      54.488  26.321  22.907  1.00  0.00    -0.744 OA
ENDBRANCH  71  72
ENDBRANCH  50  64
BRANCH  51  76
ATOM     76  C   UNL A   1      40.915  29.196  28.650  1.00  0.00     0.058 A 
ATOM     77  C   UNL A   1      40.611  29.210  30.019  1.00  0.00     0.135 A 
ATOM     78  C   UNL A   1      39.863  29.418  27.747  1.00  0.00     0.135 A 
ATOM     79  F   UNL A   1      41.579  28.989  30.923  1.00  0.00    -0.206 F 
ATOM     80  C   UNL A   1      39.314  29.422  30.477  1.00  0.00     0.059 A 
ATOM     81  C   UNL A   1      38.563  29.661  28.180  1.00  0.00     0.059 A 
ATOM     82  F   UNL A   1      40.101  29.421  26.426  1.00  0.00    -0.206 F 
ATOM     83  C   UNL A   1      38.297  29.652  29.548  1.00  0.00     0.060 A 
BRANCH  83  84
ATOM     84  S   UNL A   1      36.628  29.975  30.156  1.00  0.00     0.124 S 
ATOM     85  O   UNL A   1      36.555  29.081  31.306  1.00  0.00    -0.237 OA
ATOM     86  O   UNL A   1      36.685  31.402  30.459  1.00  0.00    -0.237 OA
ATOM     87  O   UNL A   1      35.782  29.616  29.022  1.00  0.00    -0.744 OA
ENDBRANCH  83  84
ENDBRANCH  51  76
BRANCH  63  88
ATOM     88  C   UNL A   1      46.732  33.066  28.605  1.00  0.00     0.058 A 
ATOM     89  C   UNL A   1      47.127  33.387  29.914  1.00  0.00     0.135 A 
ATOM     90  C   UNL A   1      46.672  34.111  27.667  1.00  0.00     0.135 A 
ATOM     91  F   UNL A   1      47.197  32.429  30.852  1.00  0.00    -0.206 F 
ATOM     92  C   UNL A   1      47.428  34.695  30.283  1.00  0.00     0.059 A 
ATOM     93  C   UNL A   1      46.997  35.421  28.006  1.00  0.00     0.059 A 
ATOM     94  F   UNL A   1      46.311  33.860  26.398  1.00  0.00    -0.206 F 
ATOM     95  C   UNL A   1      47.363  35.705  29.320  1.00  0.00     0.060 A 
BRANCH  95  96
ATOM     96  S   UNL A   1      47.790  37.391  29.805  1.00  0.00     0.124 S 
ATOM     97  O   UNL A   1      47.071  37.525  31.067  1.00  0.00    -0.237 OA
ATOM     98  O   UNL A   1      49.245  37.327  29.907  1.00  0.00    -0.237 OA
ATOM     99  O   UNL A   1      47.280  38.202  28.703  1.00  0.00    -0.744 OA
ENDBRANCH  95  96
ENDBRANCH  63  88
ENDBRANCH  37  38
ENDBRANCH  30  32
ENDBRANCH  29  30
ENDBRANCH  28  29
ENDBRANCH  27  28
ENDBRANCH  26  27
ENDBRANCH  25  26
ENDBRANCH   1  25
TORSDOF 23
ENDMDL
MODEL 2
REMARK VINA RESULT:      -9.7      6.137     10.746
REMARK SMILES Cc1cc(C(=O)N[C@@H]2CC2(C)C)sc1/C=C/C(=O)OCCOCCOCCOC(=O)c1ccc(-c2c3nc(c(-c4c(F)cc(S(=O)(=O)[O-])cc4F)c4ccc([nH]4)c(-c4c(F)cc(S(=O)(=O)[O-])cc4F)c4nc(c(-c5c(F)cc(S(=O)(=O)[O-])cc5F)c5ccc2[nH]5)C=C4)C=C3)cc1
REMARK SMILES IDX 23 1 22 2 21 3 20 4 19 5 17 6 18 7 16 8 15 9 14 10 1 11 2 12
REMARK SMILES IDX 3 13 4 14 13 15 5 16 6 17 7 18 8 20 9 21 10 22 11 23 12 24
REMARK SMILES IDX 24 25 25 26 26 27 27 28 28 29 29 30 30 31 31 32 32 33 96 34
REMARK SMILES IDX 33 35 95 36 34 37 35 38 36 39 89 40 37 41 94 42 88 43 90 44
REMARK SMILES IDX 38 45 93 46 87 47 86 48 39 50 73 51 52 52 72 53 53 54 56 55
REMARK SMILES IDX 71 56 91 57 54 58 55 59 70 61 92 62 57 63 40 64 41 65 50 66
REMARK SMILES IDX 42 67 43 68 49 69 51 70 44 71 45 72 46 73 47 74 48 75 74 76
REMARK SMILES IDX 75 77 84 78 76 79 77 80 83 81 85 82 78 83 79 84 80 85 81 86
REMARK SMILES IDX 82 87 58 88 59 89 68 90 60 91 61 92 67 93 69 94 62 95 63 96
REMARK SMILES IDX 64 97 65 98 66 99
REMARK H PARENT 7 19 90 49 56 60
REMARK Flexibility Score: inf
ROOT
ATOM      1  C   UNL A   1      39.737  20.465  26.054  1.00  0.00     0.188 C 
ENDROOT
BRANCH   1   2
ATOM      2  O   UNL A   1      38.831  21.331  25.390  1.00  0.00    -0.376 OA
BRANCH   2   3
ATOM      3  C   UNL A   1      37.458  21.335  25.761  1.00  0.00     0.202 C 
BRANCH   3   4
ATOM      4  C   UNL A   1      36.358  21.150  24.705  1.00  0.00     0.261 C 
BRANCH   4   5
ATOM      5  O   UNL A   1      35.538  19.986  24.905  1.00  0.00    -0.460 OA
BRANCH   5   6
ATOM      6  C   UNL A   1      34.204  20.212  24.900  1.00  0.00     0.330 C 
ATOM      7  O   UNL A   1      33.331  19.400  25.164  1.00  0.00    -0.247 OA
BRANCH   6   8
ATOM      8  C   UNL A   1      33.872  21.626  24.653  1.00  0.00     0.095 C 
ATOM      9  C   UNL A   1      32.640  22.163  24.603  1.00  0.00     0.027 C 
BRANCH   9  10
ATOM     10  C   UNL A   1      32.503  23.569  24.411  1.00  0.00     0.031 A 
ATOM     11  C   UNL A   1      32.852  24.502  26.775  1.00  0.00     0.046 C 
ATOM     12  C   UNL A   1      32.684  24.618  25.299  1.00  0.00    -0.032 A 
ATOM     13  C   UNL A   1      32.827  25.852  24.574  1.00  0.00     0.029 A 
ATOM     14  C   UNL A   1      32.673  25.715  23.198  1.00  0.00     0.093 A 
ATOM     15  S   UNL A   1      31.935  24.211  22.917  1.00  0.00    -0.130 S 
BRANCH  14  16
ATOM     16  C   UNL A   1      32.929  26.762  22.221  1.00  0.00     0.261 C 
ATOM     17  O   UNL A   1      33.652  26.513  21.243  1.00  0.00    -0.268 OA
ATOM     18  N   UNL A   1      32.387  28.033  22.169  1.00  0.00    -0.348 N 
ATOM     19  H   UNL A   1      32.716  28.479  21.354  1.00  0.00     0.164 HD
BRANCH  18  20
ATOM     20  C   UNL A   1      31.524  28.938  22.866  1.00  0.00     0.088 C 
ATOM     21  C   UNL A   1      31.280  28.998  24.333  1.00  0.00     0.034 C 
ATOM     22  C   UNL A   1      30.120  28.710  23.395  1.00  0.00    -0.013 C 
ATOM     23  C   UNL A   1      29.091  29.819  23.343  1.00  0.00     0.013 C 
ATOM     24  C   UNL A   1      29.490  27.359  23.217  1.00  0.00     0.013 C 
ENDBRANCH  18  20
ENDBRANCH  14  16
ENDBRANCH   9  10
ENDBRANCH   6   8
ENDBRANCH   5   6
ENDBRANCH   4   5
ENDBRANCH   3   4
ENDBRANCH   2   3
ENDBRANCH   1   2
BRANCH   1  25
ATOM     25  C   UNL A   1      40.861  21.068  26.920  1.00  0.00     0.188 C 
BRANCH  25  26
ATOM     26  O   UNL A   1      41.511  22.198  26.391  1.00  0.00    -0.376 OA
BRANCH  26  27
ATOM     27  C   UNL A   1      42.710  22.670  26.984  1.00  0.00     0.202 C 
BRANCH  27  28
ATOM     28  C   UNL A   1      43.814  23.498  26.291  1.00  0.00     0.261 C 
BRANCH  28  29
ATOM     29  O   UNL A   1      43.870  24.906  26.522  1.00  0.00    -0.460 OA
BRANCH  29  30
ATOM     30  C   UNL A   1      42.811  25.622  26.078  1.00  0.00     0.338 C 
ATOM     31  O   UNL A   1      42.241  25.507  25.001  1.00  0.00    -0.246 OA
BRANCH  30  32
ATOM     32  C   UNL A   1      42.322  26.465  27.182  1.00  0.00     0.060 A 
ATOM     33  C   UNL A   1      42.884  27.735  27.368  1.00  0.00     0.016 A 
ATOM     34  C   UNL A   1      41.331  25.992  28.044  1.00  0.00     0.016 A 
ATOM     35  C   UNL A   1      42.466  28.533  28.433  1.00  0.00     0.010 A 
ATOM     36  C   UNL A   1      40.930  26.784  29.123  1.00  0.00     0.010 A 
ATOM     37  C   UNL A   1      41.513  28.046  29.338  1.00  0.00    -0.014 A 
BRANCH  37  38
ATOM     38  C   UNL A   1      41.245  28.778  30.599  1.00  0.00     0.031 A 
ATOM     39  C   UNL A   1      40.116  29.772  30.627  1.00  0.00     0.074 A 
ATOM     40  C   UNL A   1      41.990  28.564  31.700  1.00  0.00     0.049 A 
ATOM     41  N   UNL A   1      39.744  30.578  31.585  1.00  0.00    -0.248 NA
ATOM     42  C   UNL A   1      39.300  29.868  29.406  1.00  0.00     0.031 C 
ATOM     43  C   UNL A   1      43.084  27.603  31.807  1.00  0.00     0.029 A 
ATOM     44  N   UNL A   1      41.942  29.161  32.935  1.00  0.00    -0.354 N 
ATOM     45  C   UNL A   1      38.658  31.286  31.083  1.00  0.00     0.074 A 
ATOM     46  C   UNL A   1      38.450  30.833  29.725  1.00  0.00     0.031 C 
ATOM     47  C   UNL A   1      43.621  27.689  33.037  1.00  0.00     0.029 A 
ATOM     48  C   UNL A   1      42.930  28.734  33.791  1.00  0.00     0.049 A 
ATOM     49  H   UNL A   1      41.265  29.830  33.185  1.00  0.00     0.167 HD
ATOM     50  C   UNL A   1      37.898  32.221  31.701  1.00  0.00     0.037 A 
ATOM     51  C   UNL A   1      43.257  29.161  35.027  1.00  0.00     0.037 A 
ATOM     52  C   UNL A   1      38.115  32.671  33.051  1.00  0.00     0.049 A 
ATOM     53  C   UNL A   1      42.443  30.257  35.670  1.00  0.00     0.074 A 
ATOM     54  C   UNL A   1      37.393  33.605  33.773  1.00  0.00     0.029 A 
ATOM     55  N   UNL A   1      39.138  32.231  33.879  1.00  0.00    -0.354 N 
ATOM     56  N   UNL A   1      41.402  30.901  35.195  1.00  0.00    -0.248 NA
ATOM     57  C   UNL A   1      42.844  30.682  37.019  1.00  0.00     0.031 C 
ATOM     58  C   UNL A   1      38.011  33.769  35.017  1.00  0.00     0.029 A 
ATOM     59  C   UNL A   1      39.080  32.890  35.096  1.00  0.00     0.049 A 
ATOM     60  H   UNL A   1      39.806  31.548  33.637  1.00  0.00     0.167 HD
ATOM     61  C   UNL A   1      41.007  31.783  36.197  1.00  0.00     0.074 A 
ATOM     62  C   UNL A   1      41.914  31.583  37.308  1.00  0.00     0.031 C 
ATOM     63  C   UNL A   1      39.985  32.675  36.199  1.00  0.00     0.037 A 
BRANCH  50  64
ATOM     64  C   UNL A   1      36.777  32.840  30.911  1.00  0.00     0.058 A 
ATOM     65  C   UNL A   1      35.449  32.400  31.038  1.00  0.00     0.135 A 
ATOM     66  C   UNL A   1      37.030  33.908  30.034  1.00  0.00     0.135 A 
ATOM     67  F   UNL A   1      35.152  31.371  31.848  1.00  0.00    -0.206 F 
ATOM     68  C   UNL A   1      34.419  32.977  30.304  1.00  0.00     0.059 A 
ATOM     69  C   UNL A   1      36.011  34.520  29.312  1.00  0.00     0.059 A 
ATOM     70  F   UNL A   1      38.282  34.365  29.871  1.00  0.00    -0.206 F 
ATOM     71  C   UNL A   1      34.709  34.037  29.444  1.00  0.00     0.060 A 
BRANCH  71  72
ATOM     72  S   UNL A   1      33.358  34.778  28.502  1.00  0.00     0.124 S 
ATOM     73  O   UNL A   1      34.081  35.704  27.637  1.00  0.00    -0.237 OA
ATOM     74  O   UNL A   1      32.769  33.620  27.839  1.00  0.00    -0.237 OA
ATOM     75  O   UNL A   1      32.528  35.399  29.530  1.00  0.00    -0.744 OA
ENDBRANCH  71  72
ENDBRANCH  50  64
BRANCH  51  76
ATOM     76  C   UNL A   1      44.419  28.563  35.738  1.00  0.00     0.058 A 
ATOM     77  C   UNL A   1      45.679  29.179  35.718  1.00  0.00     0.135 A 
ATOM     78  C   UNL A   1      44.294  27.358  36.448  1.00  0.00     0.135 A 
ATOM     79  F   UNL A   1      45.854  30.325  35.040  1.00  0.00    -0.206 F 
ATOM     80  C   UNL A   1      46.776  28.619  36.364  1.00  0.00     0.059 A 
ATOM     81  C   UNL A   1      45.369  26.793  37.128  1.00  0.00     0.059 A 
ATOM     82  F   UNL A   1      43.109  26.731  36.505  1.00  0.00    -0.206 F 
ATOM     83  C   UNL A   1      46.609  27.426  37.072  1.00  0.00     0.060 A 
BRANCH  83  84
ATOM     84  S   UNL A   1      48.029  26.737  37.948  1.00  0.00     0.124 S 
ATOM     85  O   UNL A   1      48.171  25.437  37.303  1.00  0.00    -0.237 OA
ATOM     86  O   UNL A   1      49.073  27.714  37.654  1.00  0.00    -0.237 OA
ATOM     87  O   UNL A   1      47.583  26.707  39.338  1.00  0.00    -0.744 OA
ENDBRANCH  83  84
ENDBRANCH  51  76
BRANCH  63  88
ATOM     88  C   UNL A   1      39.755  33.474  37.454  1.00  0.00     0.058 A 
ATOM     89  C   UNL A   1      40.462  34.658  37.722  1.00  0.00     0.135 A 
ATOM     90  C   UNL A   1      38.769  33.080  38.375  1.00  0.00     0.135 A 
ATOM     91  F   UNL A   1      41.418  35.079  36.879  1.00  0.00    -0.206 F 
ATOM     92  C   UNL A   1      40.216  35.408  38.868  1.00  0.00     0.059 A 
ATOM     93  C   UNL A   1      38.486  33.831  39.512  1.00  0.00     0.059 A 
ATOM     94  F   UNL A   1      38.055  31.963  38.164  1.00  0.00    -0.206 F 
ATOM     95  C   UNL A   1      39.223  34.988  39.756  1.00  0.00     0.060 A 
BRANCH  95  96
ATOM     96  S   UNL A   1      38.891  35.990  41.221  1.00  0.00     0.124 S 
ATOM     97  O   UNL A   1      40.151  35.876  41.946  1.00  0.00    -0.237 OA
ATOM     98  O   UNL A   1      38.607  37.300  40.644  1.00  0.00    -0.237 OA
ATOM     99  O   UNL A   1      37.749  35.322  41.838  1.00  0.00    -0.744 OA
ENDBRANCH  95  96
ENDBRANCH  63  88
ENDBRANCH  37  38
ENDBRANCH  30  32
ENDBRANCH  29  30
ENDBRANCH  28  29
ENDBRANCH  27  28
ENDBRANCH  26  27
ENDBRANCH  25  26
ENDBRANCH   1  25
TORSDOF 23
ENDMDL
MODEL 3
REMARK VINA RESULT:      -9.5      5.282     10.275
REMARK SMILES Cc1cc(C(=O)N[C@@H]2CC2(C)C)sc1/C=C/C(=O)OCCOCCOCCOC(=O)c1ccc(-c2c3nc(c(-c4c(F)cc(S(=O)(=O)[O-])cc4F)c4ccc([nH]4)c(-c4c(F)cc(S(=O)(=O)[O-])cc4F)c4nc(c(-c5c(F)cc(S(=O)(=O)[O-])cc5F)c5ccc2[nH]5)C=C4)C=C3)cc1
REMARK SMILES IDX 23 1 22 2 21 3 20 4 19 5 17 6 18 7 16 8 15 9 14 10 1 11 2 12
REMARK SMILES IDX 3 13 4 14 13 15 5 16 6 17 7 18 8 20 9 21 10 22 11 23 12 24
REMARK SMILES IDX 24 25 25 26 26 27 27 28 28 29 29 30 30 31 31 32 32 33 96 34
REMARK SMILES IDX 33 35 95 36 34 37 35 38 36 39 89 40 37 41 94 42 88 43 90 44
REMARK SMILES IDX 38 45 93 46 87 47 86 48 39 50 73 51 52 52 72 53 53 54 56 55
REMARK SMILES IDX 71 56 91 57 54 58 55 59 70 61 92 62 57 63 40 64 41 65 50 66
REMARK SMILES IDX 42 67 43 68 49 69 51 70 44 71 45 72 46 73 47 74 48 75 74 76
REMARK SMILES IDX 75 77 84 78 76 79 77 80 83 81 85 82 78 83 79 84 80 85 81 86
REMARK SMILES IDX 82 87 58 88 59 89 68 90 60 91 61 92 67 93 69 94 62 95 63 96
REMARK SMILES IDX 64 97 65 98 66 99
REMARK H PARENT 7 19 90 49 56 60
REMARK Flexibility Score: inf
ROOT
ATOM      1  C   UNL A   1      31.468  23.197  26.626  1.00  0.00     0.188 C 
ENDROOT
BRANCH   1   2
ATOM      2  O   UNL A   1      31.666  22.552  25.377  1.00  0.00    -0.376 OA
BRANCH   2   3
ATOM      3  C   UNL A   1      32.848  21.794  25.154  1.00  0.00     0.202 C 
BRANCH   3   4
ATOM      4  C   UNL A   1      33.453  21.679  23.747  1.00  0.00     0.261 C 
BRANCH   4   5
ATOM      5  O   UNL A   1      34.110  22.872  23.287  1.00  0.00    -0.460 OA
BRANCH   5   6
ATOM      6  C   UNL A   1      33.494  23.514  22.268  1.00  0.00     0.330 C 
ATOM      7  O   UNL A   1      33.494  23.178  21.093  1.00  0.00    -0.247 OA
BRANCH   6   8
ATOM      8  C   UNL A   1      32.678  24.652  22.728  1.00  0.00     0.095 C 
ATOM      9  C   UNL A   1      32.642  25.882  22.188  1.00  0.00     0.027 C 
BRANCH   9  10
ATOM     10  C   UNL A   1      31.746  26.851  22.727  1.00  0.00     0.031 A 
ATOM     11  C   UNL A   1      33.237  28.922  22.990  1.00  0.00     0.046 C 
ATOM     12  C   UNL A   1      31.935  28.198  22.994  1.00  0.00    -0.032 A 
ATOM     13  C   UNL A   1      30.661  28.849  23.148  1.00  0.00     0.029 A 
ATOM     14  C   UNL A   1      29.575  27.982  23.074  1.00  0.00     0.093 A 
ATOM     15  S   UNL A   1      30.173  26.404  23.269  1.00  0.00    -0.130 S 
BRANCH  14  16
ATOM     16  C   UNL A   1      28.180  28.392  23.031  1.00  0.00     0.261 C 
ATOM     17  O   UNL A   1      27.360  27.830  23.773  1.00  0.00    -0.268 OA
ATOM     18  N   UNL A   1      27.619  29.432  22.313  1.00  0.00    -0.348 N 
ATOM     19  H   UNL A   1      26.662  29.488  22.542  1.00  0.00     0.164 HD
BRANCH  18  20
ATOM     20  C   UNL A   1      27.917  30.456  21.358  1.00  0.00     0.088 C 
ATOM     21  C   UNL A   1      29.260  30.994  21.008  1.00  0.00     0.034 C 
ATOM     22  C   UNL A   1      28.211  31.927  21.589  1.00  0.00    -0.013 C 
ATOM     23  C   UNL A   1      27.717  32.971  20.611  1.00  0.00     0.013 C 
ATOM     24  C   UNL A   1      28.229  32.450  22.997  1.00  0.00     0.013 C 
ENDBRANCH  18  20
ENDBRANCH  14  16
ENDBRANCH   9  10
ENDBRANCH   6   8
ENDBRANCH   5   6
ENDBRANCH   4   5
ENDBRANCH   3   4
ENDBRANCH   2   3
ENDBRANCH   1   2
BRANCH   1  25
ATOM     25  C   UNL A   1      32.332  24.421  26.989  1.00  0.00     0.188 C 
BRANCH  25  26
ATOM     26  O   UNL A   1      32.413  25.432  26.013  1.00  0.00    -0.376 OA
BRANCH  26  27
ATOM     27  C   UNL A   1      32.371  26.796  26.399  1.00  0.00     0.202 C 
BRANCH  27  28
ATOM     28  C   UNL A   1      33.571  27.763  26.488  1.00  0.00     0.261 C 
BRANCH  28  29
ATOM     29  O   UNL A   1      33.634  28.689  27.574  1.00  0.00    -0.460 OA
BRANCH  29  30
ATOM     30  C   UNL A   1      34.324  29.829  27.342  1.00  0.00     0.338 C 
ATOM     31  O   UNL A   1      33.920  30.833  26.769  1.00  0.00    -0.246 OA
BRANCH  30  32
ATOM     32  C   UNL A   1      35.611  29.749  28.053  1.00  0.00     0.060 A 
ATOM     33  C   UNL A   1      36.796  29.979  27.341  1.00  0.00     0.016 A 
ATOM     34  C   UNL A   1      35.648  29.424  29.410  1.00  0.00     0.016 A 
ATOM     35  C   UNL A   1      38.029  29.866  27.984  1.00  0.00     0.010 A 
ATOM     36  C   UNL A   1      36.884  29.290  30.047  1.00  0.00     0.010 A 
ATOM     37  C   UNL A   1      38.080  29.484  29.332  1.00  0.00    -0.014 A 
BRANCH  37  38
ATOM     38  C   UNL A   1      39.378  29.126  29.952  1.00  0.00     0.031 A 
ATOM     39  C   UNL A   1      39.858  29.930  31.129  1.00  0.00     0.074 A 
ATOM     40  C   UNL A   1      40.117  28.105  29.480  1.00  0.00     0.049 A 
ATOM     41  N   UNL A   1      40.986  29.851  31.784  1.00  0.00    -0.248 NA
ATOM     42  C   UNL A   1      38.940  30.964  31.633  1.00  0.00     0.031 C 
ATOM     43  C   UNL A   1      39.741  27.231  28.371  1.00  0.00     0.029 A 
ATOM     44  N   UNL A   1      41.350  27.644  29.871  1.00  0.00    -0.354 N 
ATOM     45  C   UNL A   1      40.921  30.829  32.770  1.00  0.00     0.074 A 
ATOM     46  C   UNL A   1      39.653  31.507  32.608  1.00  0.00     0.031 C 
ATOM     47  C   UNL A   1      40.734  26.350  28.155  1.00  0.00     0.029 A 
ATOM     48  C   UNL A   1      41.828  26.620  29.087  1.00  0.00     0.049 A 
ATOM     49  H   UNL A   1      41.844  28.011  30.639  1.00  0.00     0.167 HD
ATOM     50  C   UNL A   1      41.830  31.127  33.727  1.00  0.00     0.037 A 
ATOM     51  C   UNL A   1      43.023  25.997  29.103  1.00  0.00     0.037 A 
ATOM     52  C   UNL A   1      43.093  30.452  33.877  1.00  0.00     0.049 A 
ATOM     53  C   UNL A   1      44.053  26.396  30.130  1.00  0.00     0.074 A 
ATOM     54  C   UNL A   1      44.078  30.672  34.823  1.00  0.00     0.029 A 
ATOM     55  N   UNL A   1      43.551  29.435  33.052  1.00  0.00    -0.354 N 
ATOM     56  N   UNL A   1      43.969  27.305  31.074  1.00  0.00    -0.248 NA
ATOM     57  C   UNL A   1      45.337  25.681  30.102  1.00  0.00     0.031 C 
ATOM     58  C   UNL A   1      45.155  29.825  34.538  1.00  0.00     0.029 A 
ATOM     59  C   UNL A   1      44.814  29.032  33.453  1.00  0.00     0.049 A 
ATOM     60  H   UNL A   1      43.050  29.054  32.295  1.00  0.00     0.167 HD
ATOM     61  C   UNL A   1      45.175  27.250  31.767  1.00  0.00     0.074 A 
ATOM     62  C   UNL A   1      45.967  26.211  31.141  1.00  0.00     0.031 C 
ATOM     63  C   UNL A   1      45.589  27.989  32.827  1.00  0.00     0.037 A 
BRANCH  50  64
ATOM     64  C   UNL A   1      41.504  32.254  34.670  1.00  0.00     0.058 A 
ATOM     65  C   UNL A   1      40.857  32.030  35.896  1.00  0.00     0.135 A 
ATOM     66  C   UNL A   1      41.868  33.574  34.355  1.00  0.00     0.135 A 
ATOM     67  F   UNL A   1      40.469  30.791  36.241  1.00  0.00    -0.206 F 
ATOM     68  C   UNL A   1      40.558  33.076  36.763  1.00  0.00     0.059 A 
ATOM     69  C   UNL A   1      41.606  34.631  35.220  1.00  0.00     0.059 A 
ATOM     70  F   UNL A   1      42.484  33.845  33.194  1.00  0.00    -0.206 F 
ATOM     71  C   UNL A   1      40.937  34.374  36.416  1.00  0.00     0.060 A 
BRANCH  71  72
ATOM     72  S   UNL A   1      40.546  35.719  37.554  1.00  0.00     0.124 S 
ATOM     73  O   UNL A   1      41.874  36.093  38.030  1.00  0.00    -0.237 OA
ATOM     74  O   UNL A   1      39.890  36.687  36.680  1.00  0.00    -0.237 OA
ATOM     75  O   UNL A   1      39.680  35.086  38.545  1.00  0.00    -0.744 OA
ENDBRANCH  71  72
ENDBRANCH  50  64
BRANCH  51  76
ATOM     76  C   UNL A   1      43.321  24.936  28.102  1.00  0.00     0.058 A 
ATOM     77  C   UNL A   1      43.013  23.591  28.356  1.00  0.00     0.135 A 
ATOM     78  C   UNL A   1      43.925  25.245  26.873  1.00  0.00     0.135 A 
ATOM     79  F   UNL A   1      42.449  23.241  29.522  1.00  0.00    -0.206 F 
ATOM     80  C   UNL A   1      43.304  22.590  27.434  1.00  0.00     0.059 A 
ATOM     81  C   UNL A   1      44.198  24.266  25.923  1.00  0.00     0.059 A 
ATOM     82  F   UNL A   1      44.234  26.518  26.577  1.00  0.00    -0.206 F 
ATOM     83  C   UNL A   1      43.892  22.939  26.217  1.00  0.00     0.060 A 
BRANCH  83  84
ATOM     84  S   UNL A   1      44.217  21.637  25.010  1.00  0.00     0.124 S 
ATOM     85  O   UNL A   1      44.085  22.361  23.752  1.00  0.00    -0.237 OA
ATOM     86  O   UNL A   1      45.570  21.219  25.368  1.00  0.00    -0.237 OA
ATOM     87  O   UNL A   1      43.173  20.655  25.286  1.00  0.00    -0.744 OA
ENDBRANCH  83  84
ENDBRANCH  51  76
BRANCH  63  88
ATOM     88  C   UNL A   1      46.940  27.676  33.414  1.00  0.00     0.058 A 
ATOM     89  C   UNL A   1      48.101  28.355  33.011  1.00  0.00     0.135 A 
ATOM     90  C   UNL A   1      47.064  26.722  34.439  1.00  0.00     0.135 A 
ATOM     91  F   UNL A   1      48.042  29.273  32.034  1.00  0.00    -0.206 F 
ATOM     92  C   UNL A   1      49.339  28.084  33.586  1.00  0.00     0.059 A 
ATOM     93  C   UNL A   1      48.286  26.456  35.049  1.00  0.00     0.059 A 
ATOM     94  F   UNL A   1      45.984  26.051  34.871  1.00  0.00    -0.206 F 
ATOM     95  C   UNL A   1      49.421  27.134  34.608  1.00  0.00     0.060 A 
BRANCH  95  96
ATOM     96  S   UNL A   1      51.027  26.817  35.369  1.00  0.00     0.124 S 
ATOM     97  O   UNL A   1      51.901  27.675  34.577  1.00  0.00    -0.237 OA
ATOM     98  O   UNL A   1      50.806  27.237  36.749  1.00  0.00    -0.237 OA
ATOM     99  O   UNL A   1      51.217  25.382  35.179  1.00  0.00    -0.744 OA
ENDBRANCH  95  96
ENDBRANCH  63  88
ENDBRANCH  37  38
ENDBRANCH  30  32
ENDBRANCH  29  30
ENDBRANCH  28  29
ENDBRANCH  27  28
ENDBRANCH  26  27
ENDBRANCH  25  26
ENDBRANCH   1  25
TORSDOF 23
ENDMDL
