MODEL 1
REMARK VINA RESULT:     -10.9      0.000      0.000
REMARK SMILES O=C1C[C@@H](C(=O)Nc2cccc(C(=O)OCCOCCOCCOC(=O)c3ccc(-c4c5nc(c(-c6c(F)cc(S(=O)(=O)[O-])cc6F)c6ccc([nH]6)c(-c6c(F)cc(S(=O)(=O)[O-])cc6F)c6nc(c(-c7c(F)cc(S(=O)(=O)[O-])cc7F)c7ccc4[nH]7)C=C6)C=C5)cc3)c2)[C@H](c2ccccc2)O1
REMARK SMILES IDX 19 1 18 2 17 3 16 4 15 5 13 6 14 7 12 8 8 9 9 10 93 11 10 12
REMARK SMILES IDX 11 13 7 14 5 15 6 16 4 18 1 19 2 20 3 21 101 22 94 23 95 24
REMARK SMILES IDX 96 25 100 26 97 27 99 28 98 29 20 30 21 31 22 32 23 33 24 34
REMARK SMILES IDX 25 35 26 36 27 37 28 38 92 39 29 40 91 41 30 42 31 43 32 44
REMARK SMILES IDX 85 45 33 46 90 47 84 48 86 49 34 50 89 51 83 52 82 53 35 55
REMARK SMILES IDX 69 56 48 57 68 58 49 59 52 60 67 61 87 62 50 63 51 64 66 66
REMARK SMILES IDX 88 67 53 68 36 69 37 70 46 71 38 72 39 73 45 74 47 75 40 76
REMARK SMILES IDX 41 77 42 78 43 79 44 80 70 81 71 82 80 83 72 84 73 85 79 86
REMARK SMILES IDX 81 87 74 88 75 89 76 90 77 91 78 92 54 93 55 94 64 95 56 96
REMARK SMILES IDX 57 97 63 98 65 99 58 100 59 101 60 102 61 103 62 104
REMARK H PARENT 7 17 86 54 52 65
REMARK Flexibility Score: inf
ROOT
ATOM      1  C   UNL A   1      35.414  32.730  28.353  1.00  0.00     0.188 C 
ENDROOT
BRANCH   1   2
ATOM      2  O   UNL A   1      34.620  32.041  27.416  1.00  0.00    -0.376 OA
BRANCH   2   3
ATOM      3  C   UNL A   1      34.609  30.626  27.365  1.00  0.00     0.202 C 
BRANCH   3   4
ATOM      4  C   UNL A   1      33.386  29.747  27.039  1.00  0.00     0.261 C 
BRANCH   4   5
ATOM      5  O   UNL A   1      33.573  28.639  26.166  1.00  0.00    -0.460 OA
BRANCH   5   6
ATOM      6  C   UNL A   1      32.887  28.676  24.994  1.00  0.00     0.338 C 
ATOM      7  O   UNL A   1      33.095  29.413  24.053  1.00  0.00    -0.246 OA
BRANCH   6   8
ATOM      8  C   UNL A   1      31.914  27.553  24.974  1.00  0.00     0.062 A 
ATOM      9  C   UNL A   1      31.134  25.473  25.926  1.00  0.00     0.042 A 
ATOM     10  C   UNL A   1      30.031  25.501  25.072  1.00  0.00     0.026 A 
ATOM     11  C   UNL A   1      32.131  26.426  25.769  1.00  0.00     0.041 A 
ATOM     12  C   UNL A   1      29.854  26.576  24.192  1.00  0.00     0.003 A 
ATOM     13  C   UNL A   1      30.771  27.630  24.180  1.00  0.00     0.016 A 
BRANCH   9  14
ATOM     14  N   UNL A   1      31.182  24.512  26.945  1.00  0.00    -0.326 N 
ATOM     15  C   UNL A   1      31.803  23.287  26.966  1.00  0.00     0.232 C 
ATOM     16  O   UNL A   1      31.626  22.573  27.958  1.00  0.00    -0.274 OA
ATOM     17  H   UNL A   1      30.699  24.751  27.769  1.00  0.00     0.169 HD
BRANCH  15  18
ATOM     18  C   UNL A   1      32.799  22.877  25.875  1.00  0.00     0.135 C 
ATOM     19  O   UNL A   1      31.940  19.735  24.494  1.00  0.00    -0.252 OA
ATOM     20  C   UNL A   1      32.417  20.694  25.079  1.00  0.00     0.307 C 
ATOM     21  C   UNL A   1      32.127  22.120  24.751  1.00  0.00     0.140 C 
ATOM     22  O   UNL A   1      33.356  20.595  26.058  1.00  0.00    -0.457 OA
ATOM     23  C   UNL A   1      33.826  21.896  26.431  1.00  0.00     0.220 C 
BRANCH  23  24
ATOM     24  C   UNL A   1      35.240  22.134  25.908  1.00  0.00    -0.007 A 
ATOM     25  C   UNL A   1      36.116  21.092  25.571  1.00  0.00     0.007 A 
ATOM     26  C   UNL A   1      35.697  23.448  25.732  1.00  0.00     0.007 A 
ATOM     27  C   UNL A   1      37.377  21.361  25.026  1.00  0.00     0.000 A 
ATOM     28  C   UNL A   1      36.939  23.719  25.153  1.00  0.00     0.000 A 
ATOM     29  C   UNL A   1      37.777  22.674  24.791  1.00  0.00     0.000 A 
ENDBRANCH  23  24
ENDBRANCH  15  18
ENDBRANCH   9  14
ENDBRANCH   6   8
ENDBRANCH   5   6
ENDBRANCH   4   5
ENDBRANCH   3   4
ENDBRANCH   2   3
ENDBRANCH   1   2
BRANCH   1  30
ATOM     30  C   UNL A   1      34.862  32.692  29.795  1.00  0.00     0.188 C 
BRANCH  30  31
ATOM     31  O   UNL A   1      35.368  33.589  30.766  1.00  0.00    -0.376 OA
BRANCH  31  32
ATOM     32  C   UNL A   1      36.185  33.064  31.803  1.00  0.00     0.202 C 
BRANCH  32  33
ATOM     33  C   UNL A   1      35.831  31.760  32.551  1.00  0.00     0.261 C 
BRANCH  33  34
ATOM     34  O   UNL A   1      36.811  30.707  32.558  1.00  0.00    -0.460 OA
BRANCH  34  35
ATOM     35  C   UNL A   1      36.864  29.933  31.443  1.00  0.00     0.338 C 
ATOM     36  O   UNL A   1      35.922  29.428  30.856  1.00  0.00    -0.246 OA
BRANCH  35  37
ATOM     37  C   UNL A   1      38.240  29.951  30.893  1.00  0.00     0.060 A 
ATOM     38  C   UNL A   1      38.436  30.268  29.537  1.00  0.00     0.016 A 
ATOM     39  C   UNL A   1      39.328  29.621  31.698  1.00  0.00     0.016 A 
ATOM     40  C   UNL A   1      39.717  30.242  28.980  1.00  0.00     0.010 A 
ATOM     41  C   UNL A   1      40.606  29.562  31.131  1.00  0.00     0.010 A 
ATOM     42  C   UNL A   1      40.805  29.845  29.765  1.00  0.00    -0.014 A 
BRANCH  42  43
ATOM     43  C   UNL A   1      42.116  29.527  29.143  1.00  0.00     0.031 A 
ATOM     44  C   UNL A   1      42.316  28.141  28.589  1.00  0.00     0.074 A 
ATOM     45  C   UNL A   1      43.121  30.421  29.113  1.00  0.00     0.049 A 
ATOM     46  N   UNL A   1      43.410  27.567  28.166  1.00  0.00    -0.248 NA
ATOM     47  C   UNL A   1      41.119  27.285  28.512  1.00  0.00     0.031 C 
ATOM     48  C   UNL A   1      43.037  31.808  29.569  1.00  0.00     0.029 A 
ATOM     49  N   UNL A   1      44.427  30.281  28.706  1.00  0.00    -0.354 N 
ATOM     50  C   UNL A   1      43.046  26.274  27.811  1.00  0.00     0.074 A 
ATOM     51  C   UNL A   1      41.628  26.147  28.063  1.00  0.00     0.031 C 
ATOM     52  C   UNL A   1      44.250  32.379  29.455  1.00  0.00     0.029 A 
ATOM     53  C   UNL A   1      45.206  31.387  28.965  1.00  0.00     0.049 A 
ATOM     54  H   UNL A   1      44.772  29.468  28.272  1.00  0.00     0.167 HD
ATOM     55  C   UNL A   1      43.827  25.281  27.330  1.00  0.00     0.037 A 
ATOM     56  C   UNL A   1      46.542  31.559  28.864  1.00  0.00     0.037 A 
ATOM     57  C   UNL A   1      45.234  25.423  27.064  1.00  0.00     0.049 A 
ATOM     58  C   UNL A   1      47.401  30.413  28.377  1.00  0.00     0.074 A 
ATOM     59  C   UNL A   1      46.101  24.489  26.524  1.00  0.00     0.029 A 
ATOM     60  N   UNL A   1      45.981  26.561  27.326  1.00  0.00    -0.354 N 
ATOM     61  N   UNL A   1      47.038  29.208  28.005  1.00  0.00    -0.248 NA
ATOM     62  C   UNL A   1      48.852  30.646  28.299  1.00  0.00     0.031 C 
ATOM     63  C   UNL A   1      47.385  25.036  26.525  1.00  0.00     0.029 A 
ATOM     64  C   UNL A   1      47.305  26.339  26.992  1.00  0.00     0.049 A 
ATOM     65  H   UNL A   1      45.623  27.400  27.695  1.00  0.00     0.167 HD
ATOM     66  C   UNL A   1      48.206  28.562  27.607  1.00  0.00     0.074 A 
ATOM     67  C   UNL A   1      49.288  29.505  27.784  1.00  0.00     0.031 C 
ATOM     68  C   UNL A   1      48.366  27.303  27.132  1.00  0.00     0.037 A 
BRANCH  55  69
ATOM     69  C   UNL A   1      43.208  23.934  27.088  1.00  0.00     0.058 A 
ATOM     70  C   UNL A   1      42.962  23.449  25.796  1.00  0.00     0.135 A 
ATOM     71  C   UNL A   1      42.956  23.076  28.172  1.00  0.00     0.135 A 
ATOM     72  F   UNL A   1      43.166  24.234  24.727  1.00  0.00    -0.206 F 
ATOM     73  C   UNL A   1      42.492  22.156  25.586  1.00  0.00     0.059 A 
ATOM     74  C   UNL A   1      42.512  21.772  27.984  1.00  0.00     0.059 A 
ATOM     75  F   UNL A   1      43.167  23.497  29.429  1.00  0.00    -0.206 F 
ATOM     76  C   UNL A   1      42.282  21.321  26.685  1.00  0.00     0.060 A 
BRANCH  76  77
ATOM     77  S   UNL A   1      41.735  19.627  26.389  1.00  0.00     0.124 S 
ATOM     78  O   UNL A   1      42.453  19.299  25.161  1.00  0.00    -0.237 OA
ATOM     79  O   UNL A   1      42.190  18.940  27.593  1.00  0.00    -0.237 OA
ATOM     80  O   UNL A   1      40.288  19.754  26.253  1.00  0.00    -0.744 OA
ENDBRANCH  76  77
ENDBRANCH  55  69
BRANCH  56  81
ATOM     81  C   UNL A   1      47.175  32.844  29.275  1.00  0.00     0.058 A 
ATOM     82  C   UNL A   1      47.584  33.064  30.599  1.00  0.00     0.135 A 
ATOM     83  C   UNL A   1      47.331  33.902  28.364  1.00  0.00     0.135 A 
ATOM     84  F   UNL A   1      47.448  32.090  31.513  1.00  0.00    -0.206 F 
ATOM     85  C   UNL A   1      48.084  34.295  31.016  1.00  0.00     0.059 A 
ATOM     86  C   UNL A   1      47.860  35.131  28.749  1.00  0.00     0.059 A 
ATOM     87  F   UNL A   1      46.967  33.746  27.082  1.00  0.00    -0.206 F 
ATOM     88  C   UNL A   1      48.213  35.324  30.084  1.00  0.00     0.060 A 
BRANCH  88  89
ATOM     89  S   UNL A   1      48.860  36.917  30.634  1.00  0.00     0.124 S 
ATOM     90  O   UNL A   1      49.826  37.220  29.584  1.00  0.00    -0.237 OA
ATOM     91  O   UNL A   1      47.657  37.745  30.653  1.00  0.00    -0.237 OA
ATOM     92  O   UNL A   1      49.426  36.615  31.946  1.00  0.00    -0.744 OA
ENDBRANCH  88  89
ENDBRANCH  56  81
BRANCH  68  93
ATOM     93  C   UNL A   1      49.739  26.875  26.686  1.00  0.00     0.058 A 
ATOM     94  C   UNL A   1      50.632  26.218  27.545  1.00  0.00     0.135 A 
ATOM     95  C   UNL A   1      50.114  27.025  25.340  1.00  0.00     0.135 A 
ATOM     96  F   UNL A   1      50.327  26.054  28.842  1.00  0.00    -0.206 F 
ATOM     97  C   UNL A   1      51.850  25.724  27.084  1.00  0.00     0.059 A 
ATOM     98  C   UNL A   1      51.312  26.514  24.852  1.00  0.00     0.059 A 
ATOM     99  F   UNL A   1      49.291  27.639  24.474  1.00  0.00    -0.206 F 
ATOM    100  C   UNL A   1      52.175  25.865  25.733  1.00  0.00     0.060 A 
BRANCH 100 101
ATOM    101  S   UNL A   1      53.719  25.147  25.133  1.00  0.00     0.124 S 
ATOM    102  O   UNL A   1      53.511  23.730  25.409  1.00  0.00    -0.237 OA
ATOM    103  O   UNL A   1      53.710  25.527  23.724  1.00  0.00    -0.237 OA
ATOM    104  O   UNL A   1      54.739  25.802  25.947  1.00  0.00    -0.744 OA
ENDBRANCH 100 101
ENDBRANCH  68  93
ENDBRANCH  42  43
ENDBRANCH  35  37
ENDBRANCH  34  35
ENDBRANCH  33  34
ENDBRANCH  32  33
ENDBRANCH  31  32
ENDBRANCH  30  31
ENDBRANCH   1  30
TORSDOF 23
ENDMDL
MODEL 2
REMARK VINA RESULT:     -10.4      5.606      9.974
REMARK SMILES O=C1C[C@@H](C(=O)Nc2cccc(C(=O)OCCOCCOCCOC(=O)c3ccc(-c4c5nc(c(-c6c(F)cc(S(=O)(=O)[O-])cc6F)c6ccc([nH]6)c(-c6c(F)cc(S(=O)(=O)[O-])cc6F)c6nc(c(-c7c(F)cc(S(=O)(=O)[O-])cc7F)c7ccc4[nH]7)C=C6)C=C5)cc3)c2)[C@H](c2ccccc2)O1
REMARK SMILES IDX 19 1 18 2 17 3 16 4 15 5 13 6 14 7 12 8 8 9 9 10 93 11 10 12
REMARK SMILES IDX 11 13 7 14 5 15 6 16 4 18 1 19 2 20 3 21 101 22 94 23 95 24
REMARK SMILES IDX 96 25 100 26 97 27 99 28 98 29 20 30 21 31 22 32 23 33 24 34
REMARK SMILES IDX 25 35 26 36 27 37 28 38 92 39 29 40 91 41 30 42 31 43 32 44
REMARK SMILES IDX 85 45 33 46 90 47 84 48 86 49 34 50 89 51 83 52 82 53 35 55
REMARK SMILES IDX 69 56 48 57 68 58 49 59 52 60 67 61 87 62 50 63 51 64 66 66
REMARK SMILES IDX 88 67 53 68 36 69 37 70 46 71 38 72 39 73 45 74 47 75 40 76
REMARK SMILES IDX 41 77 42 78 43 79 44 80 70 81 71 82 80 83 72 84 73 85 79 86
REMARK SMILES IDX 81 87 74 88 75 89 76 90 77 91 78 92 54 93 55 94 64 95 56 96
REMARK SMILES IDX 57 97 63 98 65 99 58 100 59 101 60 102 61 103 62 104
REMARK H PARENT 7 17 86 54 52 65
REMARK Flexibility Score: inf
ROOT
ATOM      1  C   UNL A   1      34.945  32.059  28.951  1.00  0.00     0.188 C 
ENDROOT
BRANCH   1   2
ATOM      2  O   UNL A   1      34.532  30.858  28.342  1.00  0.00    -0.376 OA
BRANCH   2   3
ATOM      3  C   UNL A   1      33.508  30.847  27.364  1.00  0.00     0.202 C 
BRANCH   3   4
ATOM      4  C   UNL A   1      33.530  30.049  26.047  1.00  0.00     0.261 C 
BRANCH   4   5
ATOM      5  O   UNL A   1      32.294  29.831  25.376  1.00  0.00    -0.460 OA
BRANCH   5   6
ATOM      6  C   UNL A   1      32.355  29.117  24.223  1.00  0.00     0.338 C 
ATOM      7  O   UNL A   1      33.150  29.263  23.318  1.00  0.00    -0.246 OA
BRANCH   6   8
ATOM      8  C   UNL A   1      31.374  28.003  24.299  1.00  0.00     0.062 A 
ATOM      9  C   UNL A   1      30.596  26.003  25.409  1.00  0.00     0.042 A 
ATOM     10  C   UNL A   1      29.479  25.978  24.573  1.00  0.00     0.026 A 
ATOM     11  C   UNL A   1      31.597  26.933  25.168  1.00  0.00     0.041 A 
ATOM     12  C   UNL A   1      29.295  26.989  23.622  1.00  0.00     0.003 A 
ATOM     13  C   UNL A   1      30.218  28.033  23.520  1.00  0.00     0.016 A 
BRANCH   9  14
ATOM     14  N   UNL A   1      30.654  25.116  26.493  1.00  0.00    -0.326 N 
ATOM     15  C   UNL A   1      31.255  23.884  26.587  1.00  0.00     0.232 C 
ATOM     16  O   UNL A   1      31.092  23.247  27.632  1.00  0.00    -0.274 OA
ATOM     17  H   UNL A   1      30.196  25.422  27.309  1.00  0.00     0.169 HD
BRANCH  15  18
ATOM     18  C   UNL A   1      32.216  23.379  25.505  1.00  0.00     0.135 C 
ATOM     19  O   UNL A   1      31.814  19.903  24.978  1.00  0.00    -0.252 OA
ATOM     20  C   UNL A   1      32.161  21.037  25.271  1.00  0.00     0.307 C 
ATOM     21  C   UNL A   1      31.598  22.280  24.668  1.00  0.00     0.140 C 
ATOM     22  O   UNL A   1      33.179  21.322  26.128  1.00  0.00    -0.457 OA
ATOM     23  C   UNL A   1      33.441  22.730  26.139  1.00  0.00     0.220 C 
BRANCH  23  24
ATOM     24  C   UNL A   1      34.744  23.046  25.410  1.00  0.00    -0.007 A 
ATOM     25  C   UNL A   1      35.915  23.438  26.073  1.00  0.00     0.007 A 
ATOM     26  C   UNL A   1      34.798  22.928  24.013  1.00  0.00     0.007 A 
ATOM     27  C   UNL A   1      37.106  23.647  25.367  1.00  0.00     0.000 A 
ATOM     28  C   UNL A   1      35.993  23.098  23.311  1.00  0.00     0.000 A 
ATOM     29  C   UNL A   1      37.151  23.449  23.989  1.00  0.00     0.000 A 
ENDBRANCH  23  24
ENDBRANCH  15  18
ENDBRANCH   9  14
ENDBRANCH   6   8
ENDBRANCH   5   6
ENDBRANCH   4   5
ENDBRANCH   3   4
ENDBRANCH   2   3
ENDBRANCH   1   2
BRANCH   1  30
ATOM     30  C   UNL A   1      34.101  33.289  28.554  1.00  0.00     0.188 C 
BRANCH  30  31
ATOM     31  O   UNL A   1      34.689  34.577  28.558  1.00  0.00    -0.376 OA
BRANCH  31  32
ATOM     32  C   UNL A   1      33.830  35.707  28.482  1.00  0.00     0.202 C 
BRANCH  32  33
ATOM     33  C   UNL A   1      32.706  35.958  29.512  1.00  0.00     0.261 C 
BRANCH  33  34
ATOM     34  O   UNL A   1      33.091  36.405  30.824  1.00  0.00    -0.460 OA
BRANCH  34  35
ATOM     35  C   UNL A   1      32.927  35.510  31.833  1.00  0.00     0.338 C 
ATOM     36  O   UNL A   1      31.888  35.246  32.415  1.00  0.00    -0.246 OA
BRANCH  35  37
ATOM     37  C   UNL A   1      34.169  34.720  32.001  1.00  0.00     0.060 A 
ATOM     38  C   UNL A   1      34.080  33.365  32.367  1.00  0.00     0.016 A 
ATOM     39  C   UNL A   1      35.416  35.319  31.836  1.00  0.00     0.016 A 
ATOM     40  C   UNL A   1      35.236  32.611  32.582  1.00  0.00     0.010 A 
ATOM     41  C   UNL A   1      36.572  34.573  32.086  1.00  0.00     0.010 A 
ATOM     42  C   UNL A   1      36.490  33.223  32.486  1.00  0.00    -0.014 A 
BRANCH  42  43
ATOM     43  C   UNL A   1      37.711  32.541  32.987  1.00  0.00     0.031 A 
ATOM     44  C   UNL A   1      38.127  32.796  34.411  1.00  0.00     0.074 A 
ATOM     45  C   UNL A   1      38.460  31.756  32.191  1.00  0.00     0.049 A 
ATOM     46  N   UNL A   1      39.234  32.470  35.022  1.00  0.00    -0.248 NA
ATOM     47  C   UNL A   1      37.167  33.528  35.256  1.00  0.00     0.031 C 
ATOM     48  C   UNL A   1      38.137  31.390  30.813  1.00  0.00     0.029 A 
ATOM     49  N   UNL A   1      39.672  31.149  32.423  1.00  0.00    -0.354 N 
ATOM     50  C   UNL A   1      39.124  32.989  36.307  1.00  0.00     0.074 A 
ATOM     51  C   UNL A   1      37.840  33.648  36.391  1.00  0.00     0.031 C 
ATOM     52  C   UNL A   1      39.146  30.657  30.308  1.00  0.00     0.029 A 
ATOM     53  C   UNL A   1      40.206  30.541  31.309  1.00  0.00     0.049 A 
ATOM     54  H   UNL A   1      40.115  31.150  33.302  1.00  0.00     0.167 HD
ATOM     55  C   UNL A   1      40.019  32.929  37.319  1.00  0.00     0.037 A 
ATOM     56  C   UNL A   1      41.427  30.000  31.108  1.00  0.00     0.037 A 
ATOM     57  C   UNL A   1      41.286  32.253  37.232  1.00  0.00     0.049 A 
ATOM     58  C   UNL A   1      42.431  29.997  32.240  1.00  0.00     0.074 A 
ATOM     59  C   UNL A   1      42.239  32.092  38.223  1.00  0.00     0.029 A 
ATOM     60  N   UNL A   1      41.783  31.640  36.093  1.00  0.00    -0.354 N 
ATOM     61  N   UNL A   1      42.298  30.454  33.463  1.00  0.00    -0.248 NA
ATOM     62  C   UNL A   1      43.752  29.410  31.966  1.00  0.00     0.031 C 
ATOM     63  C   UNL A   1      43.341  31.442  37.664  1.00  0.00     0.029 A 
ATOM     64  C   UNL A   1      43.043  31.130  36.347  1.00  0.00     0.049 A 
ATOM     65  H   UNL A   1      41.309  31.577  35.232  1.00  0.00     0.167 HD
ATOM     66  C   UNL A   1      43.497  30.166  34.111  1.00  0.00     0.074 A 
ATOM     67  C   UNL A   1      44.344  29.499  33.148  1.00  0.00     0.031 C 
ATOM     68  C   UNL A   1      43.860  30.427  35.391  1.00  0.00     0.037 A 
BRANCH  55  69
ATOM     69  C   UNL A   1      39.697  33.636  38.604  1.00  0.00     0.058 A 
ATOM     70  C   UNL A   1      38.850  33.076  39.571  1.00  0.00     0.135 A 
ATOM     71  C   UNL A   1      40.334  34.851  38.912  1.00  0.00     0.135 A 
ATOM     72  F   UNL A   1      38.201  31.928  39.320  1.00  0.00    -0.206 F 
ATOM     73  C   UNL A   1      38.651  33.692  40.802  1.00  0.00     0.059 A 
ATOM     74  C   UNL A   1      40.170  35.470  40.146  1.00  0.00     0.059 A 
ATOM     75  F   UNL A   1      41.146  35.433  38.016  1.00  0.00    -0.206 F 
ATOM     76  C   UNL A   1      39.325  34.882  41.086  1.00  0.00     0.060 A 
BRANCH  76  77
ATOM     77  S   UNL A   1      39.104  35.632  42.712  1.00  0.00     0.124 S 
ATOM     78  O   UNL A   1      39.410  37.032  42.432  1.00  0.00    -0.237 OA
ATOM     79  O   UNL A   1      37.706  35.335  43.003  1.00  0.00    -0.237 OA
ATOM     80  O   UNL A   1      40.077  34.933  43.545  1.00  0.00    -0.744 OA
ENDBRANCH  76  77
ENDBRANCH  55  69
BRANCH  56  81
ATOM     81  C   UNL A   1      41.807  29.457  29.774  1.00  0.00     0.058 A 
ATOM     82  C   UNL A   1      41.510  28.132  29.415  1.00  0.00     0.135 A 
ATOM     83  C   UNL A   1      42.528  30.232  28.850  1.00  0.00     0.135 A 
ATOM     84  F   UNL A   1      40.833  27.344  30.264  1.00  0.00    -0.206 F 
ATOM     85  C   UNL A   1      41.948  27.584  28.213  1.00  0.00     0.059 A 
ATOM     86  C   UNL A   1      42.948  29.716  27.627  1.00  0.00     0.059 A 
ATOM     87  F   UNL A   1      42.832  31.508  29.135  1.00  0.00    -0.206 F 
ATOM     88  C   UNL A   1      42.671  28.383  27.327  1.00  0.00     0.060 A 
BRANCH  88  89
ATOM     89  S   UNL A   1      43.237  27.662  25.772  1.00  0.00     0.124 S 
ATOM     90  O   UNL A   1      42.997  26.242  26.003  1.00  0.00    -0.237 OA
ATOM     91  O   UNL A   1      42.361  28.307  24.799  1.00  0.00    -0.237 OA
ATOM     92  O   UNL A   1      44.639  28.064  25.706  1.00  0.00    -0.744 OA
ENDBRANCH  88  89
ENDBRANCH  56  81
BRANCH  68  93
ATOM     93  C   UNL A   1      45.196  29.926  35.872  1.00  0.00     0.058 A 
ATOM     94  C   UNL A   1      45.364  28.639  36.402  1.00  0.00     0.135 A 
ATOM     95  C   UNL A   1      46.344  30.715  35.688  1.00  0.00     0.135 A 
ATOM     96  F   UNL A   1      44.300  27.846  36.605  1.00  0.00    -0.206 F 
ATOM     97  C   UNL A   1      46.625  28.149  36.731  1.00  0.00     0.059 A 
ATOM     98  C   UNL A   1      47.616  30.236  35.982  1.00  0.00     0.059 A 
ATOM     99  F   UNL A   1      46.239  31.952  35.175  1.00  0.00    -0.206 F 
ATOM    100  C   UNL A   1      47.747  28.951  36.506  1.00  0.00     0.060 A 
BRANCH 100 101
ATOM    101  S   UNL A   1      49.382  28.274  36.861  1.00  0.00     0.124 S 
ATOM    102  O   UNL A   1      50.248  29.390  36.496  1.00  0.00    -0.237 OA
ATOM    103  O   UNL A   1      49.293  27.980  38.288  1.00  0.00    -0.237 OA
ATOM    104  O   UNL A   1      49.464  27.105  35.989  1.00  0.00    -0.744 OA
ENDBRANCH 100 101
ENDBRANCH  68  93
ENDBRANCH  42  43
ENDBRANCH  35  37
ENDBRANCH  34  35
ENDBRANCH  33  34
ENDBRANCH  32  33
ENDBRANCH  31  32
ENDBRANCH  30  31
ENDBRANCH   1  30
TORSDOF 23
ENDMDL
MODEL 3
REMARK VINA RESULT:     -10.1      5.945     10.488
REMARK SMILES O=C1C[C@@H](C(=O)Nc2cccc(C(=O)OCCOCCOCCOC(=O)c3ccc(-c4c5nc(c(-c6c(F)cc(S(=O)(=O)[O-])cc6F)c6ccc([nH]6)c(-c6c(F)cc(S(=O)(=O)[O-])cc6F)c6nc(c(-c7c(F)cc(S(=O)(=O)[O-])cc7F)c7ccc4[nH]7)C=C6)C=C5)cc3)c2)[C@H](c2ccccc2)O1
REMARK SMILES IDX 19 1 18 2 17 3 16 4 15 5 13 6 14 7 12 8 8 9 9 10 93 11 10 12
REMARK SMILES IDX 11 13 7 14 5 15 6 16 4 18 1 19 2 20 3 21 101 22 94 23 95 24
REMARK SMILES IDX 96 25 100 26 97 27 99 28 98 29 20 30 21 31 22 32 23 33 24 34
REMARK SMILES IDX 25 35 26 36 27 37 28 38 92 39 29 40 91 41 30 42 31 43 32 44
REMARK SMILES IDX 85 45 33 46 90 47 84 48 86 49 34 50 89 51 83 52 82 53 35 55
REMARK SMILES IDX 69 56 48 57 68 58 49 59 52 60 67 61 87 62 50 63 51 64 66 66
REMARK SMILES IDX 88 67 53 68 36 69 37 70 46 71 38 72 39 73 45 74 47 75 40 76
REMARK SMILES IDX 41 77 42 78 43 79 44 80 70 81 71 82 80 83 72 84 73 85 79 86
REMARK SMILES IDX 81 87 74 88 75 89 76 90 77 91 78 92 54 93 55 94 64 95 56 96
REMARK SMILES IDX 57 97 63 98 65 99 58 100 59 101 60 102 61 103 62 104
REMARK H PARENT 7 17 86 54 52 65
REMARK Flexibility Score: inf
ROOT
ATOM      1  C   UNL A   1      34.826  32.535  29.077  1.00  0.00     0.188 C 
ENDROOT
BRANCH   1   2
ATOM      2  O   UNL A   1      34.498  31.270  28.553  1.00  0.00    -0.376 OA
BRANCH   2   3
ATOM      3  C   UNL A   1      33.469  31.120  27.592  1.00  0.00     0.202 C 
BRANCH   3   4
ATOM      4  C   UNL A   1      33.468  30.115  26.425  1.00  0.00     0.261 C 
BRANCH   4   5
ATOM      5  O   UNL A   1      32.295  30.020  25.625  1.00  0.00    -0.460 OA
BRANCH   5   6
ATOM      6  C   UNL A   1      32.410  29.310  24.473  1.00  0.00     0.338 C 
ATOM      7  O   UNL A   1      33.301  29.392  23.654  1.00  0.00    -0.246 OA
BRANCH   6   8
ATOM      8  C   UNL A   1      31.336  28.283  24.436  1.00  0.00     0.062 A 
ATOM      9  C   UNL A   1      30.330  26.305  25.391  1.00  0.00     0.042 A 
ATOM     10  C   UNL A   1      29.264  26.421  24.498  1.00  0.00     0.026 A 
ATOM     11  C   UNL A   1      31.418  27.155  25.254  1.00  0.00     0.041 A 
ATOM     12  C   UNL A   1      29.220  27.491  23.597  1.00  0.00     0.003 A 
ATOM     13  C   UNL A   1      30.233  28.454  23.601  1.00  0.00     0.016 A 
BRANCH   9  14
ATOM     14  N   UNL A   1      30.252  25.362  26.426  1.00  0.00    -0.326 N 
ATOM     15  C   UNL A   1      30.435  24.001  26.388  1.00  0.00     0.232 C 
ATOM     16  O   UNL A   1      30.223  23.366  27.425  1.00  0.00    -0.274 OA
ATOM     17  H   UNL A   1      30.034  25.731  27.312  1.00  0.00     0.169 HD
BRANCH  15  18
ATOM     18  C   UNL A   1      31.024  23.308  25.153  1.00  0.00     0.135 C 
ATOM     19  O   UNL A   1      33.496  20.953  26.083  1.00  0.00    -0.252 OA
ATOM     20  C   UNL A   1      32.834  21.900  25.687  1.00  0.00     0.307 C 
ATOM     21  C   UNL A   1      31.366  21.860  25.427  1.00  0.00     0.140 C 
ATOM     22  O   UNL A   1      33.363  23.104  25.339  1.00  0.00    -0.457 OA
ATOM     23  C   UNL A   1      32.355  23.945  24.767  1.00  0.00     0.220 C 
BRANCH  23  24
ATOM     24  C   UNL A   1      32.550  24.082  23.260  1.00  0.00    -0.007 A 
ATOM     25  C   UNL A   1      32.285  25.267  22.559  1.00  0.00     0.007 A 
ATOM     26  C   UNL A   1      33.033  22.988  22.527  1.00  0.00     0.007 A 
ATOM     27  C   UNL A   1      32.550  25.366  21.188  1.00  0.00     0.000 A 
ATOM     28  C   UNL A   1      33.334  23.095  21.167  1.00  0.00     0.000 A 
ATOM     29  C   UNL A   1      33.101  24.289  20.498  1.00  0.00     0.000 A 
ENDBRANCH  23  24
ENDBRANCH  15  18
ENDBRANCH   9  14
ENDBRANCH   6   8
ENDBRANCH   5   6
ENDBRANCH   4   5
ENDBRANCH   3   4
ENDBRANCH   2   3
ENDBRANCH   1   2
BRANCH   1  30
ATOM     30  C   UNL A   1      34.058  33.706  28.424  1.00  0.00     0.188 C 
BRANCH  30  31
ATOM     31  O   UNL A   1      34.447  35.040  28.694  1.00  0.00    -0.376 OA
BRANCH  31  32
ATOM     32  C   UNL A   1      33.467  36.062  28.570  1.00  0.00     0.202 C 
BRANCH  32  33
ATOM     33  C   UNL A   1      32.572  36.494  29.753  1.00  0.00     0.261 C 
BRANCH  33  34
ATOM     34  O   UNL A   1      33.218  36.787  31.005  1.00  0.00    -0.460 OA
BRANCH  34  35
ATOM     35  C   UNL A   1      32.928  35.952  32.037  1.00  0.00     0.338 C 
ATOM     36  O   UNL A   1      31.872  35.874  32.641  1.00  0.00    -0.246 OA
BRANCH  35  37
ATOM     37  C   UNL A   1      34.028  34.973  32.205  1.00  0.00     0.060 A 
ATOM     38  C   UNL A   1      33.760  33.734  32.814  1.00  0.00     0.016 A 
ATOM     39  C   UNL A   1      35.323  35.288  31.800  1.00  0.00     0.016 A 
ATOM     40  C   UNL A   1      34.788  32.814  33.032  1.00  0.00     0.010 A 
ATOM     41  C   UNL A   1      36.358  34.380  32.050  1.00  0.00     0.010 A 
ATOM     42  C   UNL A   1      36.102  33.151  32.690  1.00  0.00    -0.014 A 
BRANCH  42  43
ATOM     43  C   UNL A   1      37.246  32.331  33.167  1.00  0.00     0.031 A 
ATOM     44  C   UNL A   1      37.899  32.721  34.467  1.00  0.00     0.074 A 
ATOM     45  C   UNL A   1      37.727  31.301  32.448  1.00  0.00     0.049 A 
ATOM     46  N   UNL A   1      39.009  32.285  35.000  1.00  0.00    -0.248 NA
ATOM     47  C   UNL A   1      37.210  33.748  35.267  1.00  0.00     0.031 C 
ATOM     48  C   UNL A   1      37.153  30.794  31.202  1.00  0.00     0.029 A 
ATOM     49  N   UNL A   1      38.837  30.515  32.649  1.00  0.00    -0.354 N 
ATOM     50  C   UNL A   1      39.174  33.010  36.174  1.00  0.00     0.074 A 
ATOM     51  C   UNL A   1      38.048  33.911  36.280  1.00  0.00     0.031 C 
ATOM     52  C   UNL A   1      37.939  29.809  30.729  1.00  0.00     0.029 A 
ATOM     53  C   UNL A   1      39.094  29.648  31.610  1.00  0.00     0.049 A 
ATOM     54  H   UNL A   1      39.395  30.567  33.458  1.00  0.00     0.167 HD
ATOM     55  C   UNL A   1      40.181  32.937  37.074  1.00  0.00     0.037 A 
ATOM     56  C   UNL A   1      40.163  28.856  31.375  1.00  0.00     0.037 A 
ATOM     57  C   UNL A   1      41.287  32.023  36.970  1.00  0.00     0.049 A 
ATOM     58  C   UNL A   1      41.302  28.836  32.370  1.00  0.00     0.074 A 
ATOM     59  C   UNL A   1      42.329  31.837  37.862  1.00  0.00     0.029 A 
ATOM     60  N   UNL A   1      41.503  31.155  35.912  1.00  0.00    -0.354 N 
ATOM     61  N   UNL A   1      41.426  29.495  33.498  1.00  0.00    -0.248 NA
ATOM     62  C   UNL A   1      42.450  27.967  32.061  1.00  0.00     0.031 C 
ATOM     63  C   UNL A   1      43.212  30.907  37.311  1.00  0.00     0.029 A 
ATOM     64  C   UNL A   1      42.680  30.457  36.112  1.00  0.00     0.049 A 
ATOM     65  H   UNL A   1      40.908  31.051  35.134  1.00  0.00     0.167 HD
ATOM     66  C   UNL A   1      42.637  29.085  34.050  1.00  0.00     0.074 A 
ATOM     67  C   UNL A   1      43.211  28.124  33.135  1.00  0.00     0.031 C 
ATOM     68  C   UNL A   1      43.219  29.467  35.213  1.00  0.00     0.037 A 
BRANCH  55  69
ATOM     69  C   UNL A   1      40.171  33.886  38.239  1.00  0.00     0.058 A 
ATOM     70  C   UNL A   1      39.507  33.588  39.437  1.00  0.00     0.135 A 
ATOM     71  C   UNL A   1      40.932  35.066  38.184  1.00  0.00     0.135 A 
ATOM     72  F   UNL A   1      38.749  32.484  39.536  1.00  0.00    -0.206 F 
ATOM     73  C   UNL A   1      39.600  34.426  40.544  1.00  0.00     0.059 A 
ATOM     74  C   UNL A   1      41.062  35.904  39.286  1.00  0.00     0.059 A 
ATOM     75  F   UNL A   1      41.580  35.400  37.057  1.00  0.00    -0.206 F 
ATOM     76  C   UNL A   1      40.391  35.575  40.463  1.00  0.00     0.060 A 
BRANCH  76  77
ATOM     77  S   UNL A   1      40.553  36.614  41.929  1.00  0.00     0.124 S 
ATOM     78  O   UNL A   1      39.239  36.456  42.546  1.00  0.00    -0.237 OA
ATOM     79  O   UNL A   1      41.664  35.984  42.634  1.00  0.00    -0.237 OA
ATOM     80  O   UNL A   1      40.832  37.937  41.381  1.00  0.00    -0.744 OA
ENDBRANCH  76  77
ENDBRANCH  55  69
BRANCH  56  81
ATOM     81  C   UNL A   1      40.249  28.047  30.127  1.00  0.00     0.058 A 
ATOM     82  C   UNL A   1      39.484  26.882  29.959  1.00  0.00     0.135 A 
ATOM     83  C   UNL A   1      41.144  28.388  29.099  1.00  0.00     0.135 A 
ATOM     84  F   UNL A   1      38.622  26.503  30.915  1.00  0.00    -0.206 F 
ATOM     85  C   UNL A   1      39.631  26.065  28.842  1.00  0.00     0.059 A 
ATOM     86  C   UNL A   1      41.283  27.605  27.956  1.00  0.00     0.059 A 
ATOM     87  F   UNL A   1      41.894  29.497  29.200  1.00  0.00    -0.206 F 
ATOM     88  C   UNL A   1      40.537  26.433  27.847  1.00  0.00     0.060 A 
BRANCH  88  89
ATOM     89  S   UNL A   1      40.722  25.365  26.403  1.00  0.00     0.124 S 
ATOM     90  O   UNL A   1      39.376  24.818  26.269  1.00  0.00    -0.237 OA
ATOM     91  O   UNL A   1      41.132  26.314  25.372  1.00  0.00    -0.237 OA
ATOM     92  O   UNL A   1      41.751  24.416  26.817  1.00  0.00    -0.744 OA
ENDBRANCH  88  89
ENDBRANCH  56  81
BRANCH  68  93
ATOM     93  C   UNL A   1      44.503  28.799  35.626  1.00  0.00     0.058 A 
ATOM     94  C   UNL A   1      45.759  29.329  35.297  1.00  0.00     0.135 A 
ATOM     95  C   UNL A   1      44.466  27.672  36.464  1.00  0.00     0.135 A 
ATOM     96  F   UNL A   1      45.853  30.400  34.494  1.00  0.00    -0.206 F 
ATOM     97  C   UNL A   1      46.934  28.764  35.786  1.00  0.00     0.059 A 
ATOM     98  C   UNL A   1      45.624  27.110  36.988  1.00  0.00     0.059 A 
ATOM     99  F   UNL A   1      43.288  27.132  36.816  1.00  0.00    -0.206 F 
ATOM    100  C   UNL A   1      46.856  27.663  36.641  1.00  0.00     0.060 A 
BRANCH 100 101
ATOM    101  S   UNL A   1      48.383  26.992  37.334  1.00  0.00     0.124 S 
ATOM    102  O   UNL A   1      47.914  26.439  38.600  1.00  0.00    -0.237 OA
ATOM    103  O   UNL A   1      48.780  26.017  36.323  1.00  0.00    -0.237 OA
ATOM    104  O   UNL A   1      49.250  28.162  37.444  1.00  0.00    -0.744 OA
ENDBRANCH 100 101
ENDBRANCH  68  93
ENDBRANCH  42  43
ENDBRANCH  35  37
ENDBRANCH  34  35
ENDBRANCH  33  34
ENDBRANCH  32  33
ENDBRANCH  31  32
ENDBRANCH  30  31
ENDBRANCH   1  30
TORSDOF 23
ENDMDL
