MODEL 1
REMARK VINA RESULT:      -9.6      0.000      0.000
REMARK SMILES Cc1ccccc1NC(=O)c1ccccc1NC(=O)CCC(=O)OCCOCCOCCOC(=O)c1ccc(-c2c3nc(c(-c4c(F)cc(S(=O)(=O)[O-])cc4F)c4ccc([nH]4)c(-c4c(F)cc(S(=O)(=O)[O-])cc4F)c4nc(c(-c5c(F)cc(S(=O)(=O)[O-])cc5F)c5ccc2[nH]5)C=C4)C=C3)cc1
REMARK SMILES IDX 28 1 27 2 26 3 25 4 24 5 22 6 23 7 21 8 20 9 18 10 17 11
REMARK SMILES IDX 19 13 16 14 11 15 12 16 13 17 15 18 14 19 9 20 8 21 10 23
REMARK SMILES IDX 7 24 1 25 2 26 3 27 4 28 6 29 5 30 29 31 30 32 31 33 32 34
REMARK SMILES IDX 33 35 34 36 35 37 36 38 37 39 101 40 38 41 100 42 39 43
REMARK SMILES IDX 40 44 41 45 94 46 42 47 99 48 93 49 95 50 43 51 98 52 92 53
REMARK SMILES IDX 91 54 44 56 78 57 57 58 77 59 58 60 61 61 76 62 96 63 59 64
REMARK SMILES IDX 60 65 75 67 97 68 62 69 45 70 46 71 55 72 47 73 48 74 54 75
REMARK SMILES IDX 56 76 49 77 50 78 51 79 52 80 53 81 79 82 80 83 89 84 81 85
REMARK SMILES IDX 82 86 88 87 90 88 83 89 84 90 85 91 86 92 87 93 63 94 64 95
REMARK SMILES IDX 73 96 65 97 66 98 72 99 74 100 67 101 68 102 69 103 70 104
REMARK SMILES IDX 71 105
REMARK H PARENT 17 12 8 22 95 55 61 66
REMARK Flexibility Score: inf
ROOT
ATOM      1  C   UNL A   1      34.589  33.660  29.886  1.00  0.00     0.188 C 
ENDROOT
BRANCH   1   2
ATOM      2  O   UNL A   1      34.498  32.970  28.639  1.00  0.00    -0.376 OA
BRANCH   2   3
ATOM      3  C   UNL A   1      34.052  31.475  28.498  1.00  0.00     0.202 C 
BRANCH   3   4
ATOM      4  C   UNL A   1      32.861  30.496  26.920  1.00  0.00     0.261 C 
BRANCH   4   5
ATOM      5  O   UNL A   1      33.196  30.474  25.325  1.00  0.00    -0.463 OA
BRANCH   5   6
ATOM      6  C   UNL A   1      33.108  29.268  24.746  1.00  0.00     0.306 C 
ATOM      7  O   UNL A   1      33.234  29.218  23.536  1.00  0.00    -0.252 OA
BRANCH   6   8
ATOM      8  C   UNL A   1      33.117  27.983  25.580  1.00  0.00     0.132 C 
BRANCH   8   9
ATOM      9  C   UNL A   1      32.544  27.487  26.868  1.00  0.00     0.112 C 
BRANCH   9  10
ATOM     10  C   UNL A   1      31.854  26.346  26.390  1.00  0.00     0.224 C 
ATOM     11  N   UNL A   1      32.396  25.305  25.733  1.00  0.00    -0.325 N 
ATOM     12  H   UNL A   1      31.776  25.036  25.017  1.00  0.00     0.169 HD
ATOM     13  O   UNL A   1      30.708  26.278  26.834  1.00  0.00    -0.275 OA
BRANCH  11  14
ATOM     14  C   UNL A   1      33.536  24.444  25.689  1.00  0.00     0.054 A 
ATOM     15  C   UNL A   1      34.073  24.308  23.962  1.00  0.00     0.063 A 
ATOM     16  C   UNL A   1      35.062  22.900  23.406  1.00  0.00     0.016 A 
ATOM     17  C   UNL A   1      35.556  21.625  24.574  1.00  0.00     0.001 A 
ATOM     18  C   UNL A   1      34.056  23.133  26.830  1.00  0.00     0.027 A 
ATOM     19  C   UNL A   1      35.065  21.727  26.291  1.00  0.00     0.002 A 
BRANCH  15  20
ATOM     20  C   UNL A   1      33.749  25.349  22.936  1.00  0.00     0.257 C 
ATOM     21  N   UNL A   1      32.584  25.260  22.187  1.00  0.00    -0.322 N 
ATOM     22  H   UNL A   1      32.686  24.815  21.315  1.00  0.00     0.170 HD
ATOM     23  O   UNL A   1      34.647  26.134  22.643  1.00  0.00    -0.269 OA
BRANCH  21  24
ATOM     24  C   UNL A   1      31.252  25.716  22.481  1.00  0.00     0.044 A 
ATOM     25  C   UNL A   1      30.675  23.381  23.475  1.00  0.00     0.046 C 
ATOM     26  C   UNL A   1      30.361  24.838  23.161  1.00  0.00    -0.027 A 
ATOM     27  C   UNL A   1      29.246  25.385  23.842  1.00  0.00     0.005 A 
ATOM     28  C   UNL A   1      29.040  26.763  23.898  1.00  0.00     0.000 A 
ATOM     29  C   UNL A   1      30.970  27.098  22.469  1.00  0.00     0.026 A 
ATOM     30  C   UNL A   1      29.896  27.616  23.209  1.00  0.00     0.002 A 
ENDBRANCH  21  24
ENDBRANCH  15  20
ENDBRANCH  11  14
ENDBRANCH   9  10
ENDBRANCH   8   9
ENDBRANCH   6   8
ENDBRANCH   5   6
ENDBRANCH   4   5
ENDBRANCH   3   4
ENDBRANCH   2   3
ENDBRANCH   1   2
BRANCH   1  31
ATOM     31  C   UNL A   1      34.892  32.952  31.185  1.00  0.00     0.188 C 
BRANCH  31  32
ATOM     32  O   UNL A   1      36.120  32.235  31.256  1.00  0.00    -0.376 OA
BRANCH  32  33
ATOM     33  C   UNL A   1      35.970  30.830  31.242  1.00  0.00     0.202 C 
BRANCH  33  34
ATOM     34  C   UNL A   1      37.148  30.088  31.920  1.00  0.00     0.261 C 
BRANCH  34  35
ATOM     35  O   UNL A   1      38.300  29.916  31.030  1.00  0.00    -0.460 OA
BRANCH  35  36
ATOM     36  C   UNL A   1      39.513  30.515  31.199  1.00  0.00     0.338 C 
ATOM     37  O   UNL A   1      39.938  30.925  32.272  1.00  0.00    -0.246 OA
BRANCH  36  38
ATOM     38  C   UNL A   1      40.428  30.110  30.039  1.00  0.00     0.060 A 
ATOM     39  C   UNL A   1      40.454  29.079  29.078  1.00  0.00     0.016 A 
ATOM     40  C   UNL A   1      41.529  30.902  29.993  1.00  0.00     0.016 A 
ATOM     41  C   UNL A   1      41.634  28.808  28.182  1.00  0.00     0.010 A 
ATOM     42  C   UNL A   1      42.652  30.528  29.216  1.00  0.00     0.010 A 
ATOM     43  C   UNL A   1      42.825  29.552  28.230  1.00  0.00    -0.014 A 
BRANCH  43  44
ATOM     44  C   UNL A   1      44.342  29.291  27.716  1.00  0.00     0.031 A 
ATOM     45  C   UNL A   1      45.420  30.308  26.928  1.00  0.00     0.074 A 
ATOM     46  C   UNL A   1      44.947  28.364  28.529  1.00  0.00     0.049 A 
ATOM     47  N   UNL A   1      46.730  30.224  27.031  1.00  0.00    -0.248 NA
ATOM     48  C   UNL A   1      45.138  31.581  26.211  1.00  0.00     0.031 C 
ATOM     49  C   UNL A   1      46.356  28.179  28.917  1.00  0.00     0.029 A 
ATOM     50  N   UNL A   1      44.341  27.301  29.215  1.00  0.00    -0.354 N 
ATOM     51  C   UNL A   1      47.375  31.483  26.842  1.00  0.00     0.074 A 
ATOM     52  C   UNL A   1      46.325  32.255  26.220  1.00  0.00     0.031 C 
ATOM     53  C   UNL A   1      46.549  26.953  29.438  1.00  0.00     0.029 A 
ATOM     54  C   UNL A   1      45.298  26.261  29.278  1.00  0.00     0.049 A 
ATOM     55  H   UNL A   1      43.427  27.283  29.580  1.00  0.00     0.167 HD
ATOM     56  C   UNL A   1      48.662  31.727  27.366  1.00  0.00     0.037 A 
ATOM     57  C   UNL A   1      45.121  25.217  28.416  1.00  0.00     0.037 A 
ATOM     58  C   UNL A   1      49.272  30.428  27.675  1.00  0.00     0.049 A 
ATOM     59  C   UNL A   1      46.141  25.354  27.265  1.00  0.00     0.074 A 
ATOM     60  C   UNL A   1      49.789  29.711  28.740  1.00  0.00     0.029 A 
ATOM     61  N   UNL A   1      49.179  29.525  26.646  1.00  0.00    -0.354 N 
ATOM     62  N   UNL A   1      46.701  26.502  26.937  1.00  0.00    -0.248 NA
ATOM     63  C   UNL A   1      46.836  24.244  26.608  1.00  0.00     0.031 C 
ATOM     64  C   UNL A   1      49.719  28.310  28.364  1.00  0.00     0.029 A 
ATOM     65  C   UNL A   1      49.218  28.220  27.065  1.00  0.00     0.049 A 
ATOM     66  H   UNL A   1      49.092  29.788  25.701  1.00  0.00     0.167 HD
ATOM     67  C   UNL A   1      47.881  26.298  26.279  1.00  0.00     0.074 A 
ATOM     68  C   UNL A   1      47.878  24.868  26.021  1.00  0.00     0.031 C 
ATOM     69  C   UNL A   1      48.880  27.212  26.059  1.00  0.00     0.037 A 
BRANCH  56  70
ATOM     70  C   UNL A   1      49.486  33.048  27.659  1.00  0.00     0.058 A 
ATOM     71  C   UNL A   1      50.006  33.862  26.601  1.00  0.00     0.135 A 
ATOM     72  C   UNL A   1      49.898  33.503  28.932  1.00  0.00     0.135 A 
ATOM     73  F   UNL A   1      49.775  33.548  25.316  1.00  0.00    -0.206 F 
ATOM     74  C   UNL A   1      50.782  35.037  26.788  1.00  0.00     0.059 A 
ATOM     75  C   UNL A   1      50.672  34.689  29.147  1.00  0.00     0.059 A 
ATOM     76  F   UNL A   1      49.588  32.792  30.029  1.00  0.00    -0.206 F 
ATOM     77  C   UNL A   1      51.096  35.464  28.068  1.00  0.00     0.060 A 
BRANCH  77  78
ATOM     78  S   UNL A   1      52.012  37.033  28.282  1.00  0.00     0.124 S 
ATOM     79  O   UNL A   1      51.125  38.014  27.666  1.00  0.00    -0.237 OA
ATOM     80  O   UNL A   1      52.138  37.130  29.734  1.00  0.00    -0.237 OA
ATOM     81  O   UNL A   1      53.268  36.802  27.571  1.00  0.00    -0.744 OA
ENDBRANCH  77  78
ENDBRANCH  56  70
BRANCH  57  82
ATOM     82  C   UNL A   1      43.687  24.759  28.611  1.00  0.00     0.058 A 
ATOM     83  C   UNL A   1      42.837  25.063  27.505  1.00  0.00     0.135 A 
ATOM     84  C   UNL A   1      43.338  23.592  29.323  1.00  0.00     0.135 A 
ATOM     85  F   UNL A   1      43.109  26.136  26.742  1.00  0.00    -0.206 F 
ATOM     86  C   UNL A   1      41.849  24.190  27.030  1.00  0.00     0.059 A 
ATOM     87  C   UNL A   1      42.316  22.716  28.876  1.00  0.00     0.059 A 
ATOM     88  F   UNL A   1      44.096  23.185  30.352  1.00  0.00    -0.206 F 
ATOM     89  C   UNL A   1      41.609  22.999  27.703  1.00  0.00     0.060 A 
BRANCH  89  90
ATOM     90  S   UNL A   1      40.466  21.800  26.944  1.00  0.00     0.124 S 
ATOM     91  O   UNL A   1      39.223  22.560  26.896  1.00  0.00    -0.237 OA
ATOM     92  O   UNL A   1      41.092  21.540  25.649  1.00  0.00    -0.237 OA
ATOM     93  O   UNL A   1      40.471  20.678  27.875  1.00  0.00    -0.744 OA
ENDBRANCH  89  90
ENDBRANCH  57  82
BRANCH  69  94
ATOM     94  C   UNL A   1      49.431  27.366  24.637  1.00  0.00     0.058 A 
ATOM     95  C   UNL A   1      48.595  27.458  23.510  1.00  0.00     0.135 A 
ATOM     96  C   UNL A   1      50.810  27.603  24.373  1.00  0.00     0.135 A 
ATOM     97  F   UNL A   1      47.259  27.420  23.609  1.00  0.00    -0.206 F 
ATOM     98  C   UNL A   1      49.093  27.612  22.222  1.00  0.00     0.059 A 
ATOM     99  C   UNL A   1      51.313  27.879  23.107  1.00  0.00     0.059 A 
ATOM    100  F   UNL A   1      51.740  27.593  25.340  1.00  0.00    -0.206 F 
ATOM    101  C   UNL A   1      50.455  27.797  22.029  1.00  0.00     0.060 A 
BRANCH 101 102
ATOM    102  S   UNL A   1      51.098  27.842  20.356  1.00  0.00     0.124 S 
ATOM    103  O   UNL A   1      52.181  26.869  20.452  1.00  0.00    -0.237 OA
ATOM    104  O   UNL A   1      49.945  27.431  19.562  1.00  0.00    -0.237 OA
ATOM    105  O   UNL A   1      51.510  29.232  20.186  1.00  0.00    -0.744 OA
ENDBRANCH 101 102
ENDBRANCH  69  94
ENDBRANCH  43  44
ENDBRANCH  36  38
ENDBRANCH  35  36
ENDBRANCH  34  35
ENDBRANCH  33  34
ENDBRANCH  32  33
ENDBRANCH  31  32
ENDBRANCH   1  31
TORSDOF 25
ENDMDL
MODEL 2
REMARK VINA RESULT:      -9.5      8.466     13.755
REMARK SMILES Cc1ccccc1NC(=O)c1ccccc1NC(=O)CCC(=O)OCCOCCOCCOC(=O)c1ccc(-c2c3nc(c(-c4c(F)cc(S(=O)(=O)[O-])cc4F)c4ccc([nH]4)c(-c4c(F)cc(S(=O)(=O)[O-])cc4F)c4nc(c(-c5c(F)cc(S(=O)(=O)[O-])cc5F)c5ccc2[nH]5)C=C4)C=C3)cc1
REMARK SMILES IDX 28 1 27 2 26 3 25 4 24 5 22 6 23 7 21 8 20 9 18 10 17 11
REMARK SMILES IDX 19 13 16 14 11 15 12 16 13 17 15 18 14 19 9 20 8 21 10 23
REMARK SMILES IDX 7 24 1 25 2 26 3 27 4 28 6 29 5 30 29 31 30 32 31 33 32 34
REMARK SMILES IDX 33 35 34 36 35 37 36 38 37 39 101 40 38 41 100 42 39 43
REMARK SMILES IDX 40 44 41 45 94 46 42 47 99 48 93 49 95 50 43 51 98 52 92 53
REMARK SMILES IDX 91 54 44 56 78 57 57 58 77 59 58 60 61 61 76 62 96 63 59 64
REMARK SMILES IDX 60 65 75 67 97 68 62 69 45 70 46 71 55 72 47 73 48 74 54 75
REMARK SMILES IDX 56 76 49 77 50 78 51 79 52 80 53 81 79 82 80 83 89 84 81 85
REMARK SMILES IDX 82 86 88 87 90 88 83 89 84 90 85 91 86 92 87 93 63 94 64 95
REMARK SMILES IDX 73 96 65 97 66 98 72 99 74 100 67 101 68 102 69 103 70 104
REMARK SMILES IDX 71 105
REMARK H PARENT 17 12 8 22 95 55 61 66
REMARK Flexibility Score: inf
ROOT
ATOM      1  C   UNL A   1      36.783  33.921  29.018  1.00  0.00     0.188 C 
ENDROOT
BRANCH   1   2
ATOM      2  O   UNL A   1      38.135  33.891  28.557  1.00  0.00    -0.376 OA
BRANCH   2   3
ATOM      3  C   UNL A   1      39.294  34.728  29.196  1.00  0.00     0.202 C 
BRANCH   3   4
ATOM      4  C   UNL A   1      41.180  35.445  28.303  1.00  0.00     0.261 C 
BRANCH   4   5
ATOM      5  O   UNL A   1      41.718  36.984  28.280  1.00  0.00    -0.463 OA
BRANCH   5   6
ATOM      6  C   UNL A   1      42.304  37.359  27.133  1.00  0.00     0.306 C 
ATOM      7  O   UNL A   1      42.834  36.490  26.466  1.00  0.00    -0.252 OA
BRANCH   6   8
ATOM      8  C   UNL A   1      42.089  38.761  26.552  1.00  0.00     0.132 C 
BRANCH   8   9
ATOM      9  C   UNL A   1      41.406  40.033  26.937  1.00  0.00     0.112 C 
BRANCH   9  10
ATOM     10  C   UNL A   1      42.357  40.538  27.855  1.00  0.00     0.224 C 
ATOM     11  N   UNL A   1      43.541  41.100  27.549  1.00  0.00    -0.325 N 
ATOM     12  H   UNL A   1      44.209  40.787  28.201  1.00  0.00     0.169 HD
ATOM     13  O   UNL A   1      41.901  40.625  28.996  1.00  0.00    -0.275 OA
BRANCH  11  14
ATOM     14  C   UNL A   1      44.188  41.982  26.629  1.00  0.00     0.054 A 
ATOM     15  C   UNL A   1      45.386  42.982  27.555  1.00  0.00     0.063 A 
ATOM     16  C   UNL A   1      45.959  44.572  26.914  1.00  0.00     0.016 A 
ATOM     17  C   UNL A   1      45.368  45.172  25.324  1.00  0.00     0.001 A 
ATOM     18  C   UNL A   1      43.619  42.629  25.033  1.00  0.00     0.027 A 
ATOM     19  C   UNL A   1      44.201  44.211  24.368  1.00  0.00     0.002 A 
BRANCH  15  20
ATOM     20  C   UNL A   1      45.966  42.533  28.860  1.00  0.00     0.257 C 
ATOM     21  N   UNL A   1      45.394  42.936  30.059  1.00  0.00    -0.322 N 
ATOM     22  H   UNL A   1      45.796  43.740  30.460  1.00  0.00     0.170 HD
ATOM     23  O   UNL A   1      47.070  41.998  28.818  1.00  0.00    -0.269 OA
BRANCH  21  24
ATOM     24  C   UNL A   1      44.307  42.364  30.809  1.00  0.00     0.044 A 
ATOM     25  C   UNL A   1      45.921  40.559  31.764  1.00  0.00     0.046 C 
ATOM     26  C   UNL A   1      44.576  41.269  31.678  1.00  0.00    -0.027 A 
ATOM     27  C   UNL A   1      43.667  40.988  32.727  1.00  0.00     0.005 A 
ATOM     28  C   UNL A   1      42.550  41.792  32.949  1.00  0.00     0.000 A 
ATOM     29  C   UNL A   1      43.121  43.104  30.991  1.00  0.00     0.026 A 
ATOM     30  C   UNL A   1      42.275  42.843  32.080  1.00  0.00     0.002 A 
ENDBRANCH  21  24
ENDBRANCH  15  20
ENDBRANCH  11  14
ENDBRANCH   9  10
ENDBRANCH   8   9
ENDBRANCH   6   8
ENDBRANCH   5   6
ENDBRANCH   4   5
ENDBRANCH   3   4
ENDBRANCH   2   3
ENDBRANCH   1   2
BRANCH   1  31
ATOM     31  C   UNL A   1      35.662  33.222  28.286  1.00  0.00     0.188 C 
BRANCH  31  32
ATOM     32  O   UNL A   1      34.375  33.257  28.894  1.00  0.00    -0.376 OA
BRANCH  32  33
ATOM     33  C   UNL A   1      33.885  34.560  29.135  1.00  0.00     0.202 C 
BRANCH  33  34
ATOM     34  C   UNL A   1      33.615  34.839  30.634  1.00  0.00     0.261 C 
BRANCH  34  35
ATOM     35  O   UNL A   1      33.900  33.682  31.489  1.00  0.00    -0.460 OA
BRANCH  35  36
ATOM     36  C   UNL A   1      34.550  33.739  32.686  1.00  0.00     0.338 C 
ATOM     37  O   UNL A   1      34.006  33.591  33.774  1.00  0.00    -0.246 OA
BRANCH  36  38
ATOM     38  C   UNL A   1      36.038  33.464  32.453  1.00  0.00     0.060 A 
ATOM     39  C   UNL A   1      36.842  32.323  32.259  1.00  0.00     0.016 A 
ATOM     40  C   UNL A   1      36.761  34.609  32.542  1.00  0.00     0.016 A 
ATOM     41  C   UNL A   1      38.348  32.355  32.277  1.00  0.00     0.010 A 
ATOM     42  C   UNL A   1      38.169  34.562  32.672  1.00  0.00     0.010 A 
ATOM     43  C   UNL A   1      39.091  33.525  32.502  1.00  0.00    -0.014 A 
BRANCH  43  44
ATOM     44  C   UNL A   1      40.621  33.824  32.953  1.00  0.00     0.031 A 
ATOM     45  C   UNL A   1      42.060  33.699  32.097  1.00  0.00     0.074 A 
ATOM     46  C   UNL A   1      40.631  34.808  33.912  1.00  0.00     0.049 A 
ATOM     47  N   UNL A   1      43.126  34.435  32.327  1.00  0.00    -0.248 NA
ATOM     48  C   UNL A   1      42.322  32.966  30.828  1.00  0.00     0.031 C 
ATOM     49  C   UNL A   1      41.630  35.838  34.243  1.00  0.00     0.029 A 
ATOM     50  N   UNL A   1      39.644  35.077  34.872  1.00  0.00    -0.354 N 
ATOM     51  C   UNL A   1      43.924  34.620  31.158  1.00  0.00     0.074 A 
ATOM     52  C   UNL A   1      43.419  33.579  30.295  1.00  0.00     0.031 C 
ATOM     53  C   UNL A   1      41.394  36.357  35.462  1.00  0.00     0.029 A 
ATOM     54  C   UNL A   1      40.314  35.581  36.012  1.00  0.00     0.049 A 
ATOM     55  H   UNL A   1      38.674  34.942  34.772  1.00  0.00     0.167 HD
ATOM     56  C   UNL A   1      44.801  35.719  31.043  1.00  0.00     0.037 A 
ATOM     57  C   UNL A   1      40.464  34.720  37.061  1.00  0.00     0.037 A 
ATOM     58  C   UNL A   1      45.021  36.258  32.391  1.00  0.00     0.049 A 
ATOM     59  C   UNL A   1      41.928  34.230  37.085  1.00  0.00     0.074 A 
ATOM     60  C   UNL A   1      44.855  37.422  33.121  1.00  0.00     0.029 A 
ATOM     61  N   UNL A   1      45.343  35.297  33.315  1.00  0.00    -0.354 N 
ATOM     62  N   UNL A   1      42.708  34.250  36.022  1.00  0.00    -0.248 NA
ATOM     63  C   UNL A   1      42.721  33.977  38.291  1.00  0.00     0.031 C 
ATOM     64  C   UNL A   1      44.815  37.027  34.518  1.00  0.00     0.029 A 
ATOM     65  C   UNL A   1      45.016  35.649  34.599  1.00  0.00     0.049 A 
ATOM     66  H   UNL A   1      45.767  34.440  33.080  1.00  0.00     0.167 HD
ATOM     67  C   UNL A   1      44.025  34.258  36.384  1.00  0.00     0.074 A 
ATOM     68  C   UNL A   1      43.982  33.999  37.813  1.00  0.00     0.031 C 
ATOM     69  C   UNL A   1      45.103  34.584  35.600  1.00  0.00     0.037 A 
BRANCH  56  70
ATOM     70  C   UNL A   1      45.522  36.413  29.815  1.00  0.00     0.058 A 
ATOM     71  C   UNL A   1      45.121  37.703  29.336  1.00  0.00     0.135 A 
ATOM     72  C   UNL A   1      46.519  35.829  29.000  1.00  0.00     0.135 A 
ATOM     73  F   UNL A   1      44.137  38.384  29.943  1.00  0.00    -0.206 F 
ATOM     74  C   UNL A   1      45.695  38.369  28.221  1.00  0.00     0.059 A 
ATOM     75  C   UNL A   1      47.121  36.484  27.877  1.00  0.00     0.059 A 
ATOM     76  F   UNL A   1      46.932  34.575  29.244  1.00  0.00    -0.206 F 
ATOM     77  C   UNL A   1      46.716  37.765  27.503  1.00  0.00     0.060 A 
BRANCH  77  78
ATOM     78  S   UNL A   1      47.506  38.687  26.134  1.00  0.00     0.124 S 
ATOM     79  O   UNL A   1      46.366  39.287  25.447  1.00  0.00    -0.237 OA
ATOM     80  O   UNL A   1      48.373  39.625  26.842  1.00  0.00    -0.237 OA
ATOM     81  O   UNL A   1      48.208  37.652  25.378  1.00  0.00    -0.744 OA
ENDBRANCH  77  78
ENDBRANCH  56  70
BRANCH  57  82
ATOM     82  C   UNL A   1      39.079  34.168  37.344  1.00  0.00     0.058 A 
ATOM     83  C   UNL A   1      38.867  32.863  36.808  1.00  0.00     0.135 A 
ATOM     84  C   UNL A   1      38.363  34.448  38.527  1.00  0.00     0.135 A 
ATOM     85  F   UNL A   1      39.533  32.488  35.702  1.00  0.00    -0.206 F 
ATOM     86  C   UNL A   1      38.160  31.858  37.484  1.00  0.00     0.059 A 
ATOM     87  C   UNL A   1      37.614  33.451  39.204  1.00  0.00     0.059 A 
ATOM     88  F   UNL A   1      38.524  35.628  39.143  1.00  0.00    -0.206 F 
ATOM     89  C   UNL A   1      37.557  32.149  38.701  1.00  0.00     0.060 A 
BRANCH  89  90
ATOM     90  S   UNL A   1      36.825  30.772  39.645  1.00  0.00     0.124 S 
ATOM     91  O   UNL A   1      36.937  29.668  38.702  1.00  0.00    -0.237 OA
ATOM     92  O   UNL A   1      37.699  30.689  40.814  1.00  0.00    -0.237 OA
ATOM     93  O   UNL A   1      35.465  31.221  39.915  1.00  0.00    -0.744 OA
ENDBRANCH  89  90
ENDBRANCH  57  82
BRANCH  69  94
ATOM     94  C   UNL A   1      46.299  33.626  35.564  1.00  0.00     0.058 A 
ATOM     95  C   UNL A   1      46.187  32.296  35.119  1.00  0.00     0.135 A 
ATOM     96  C   UNL A   1      47.633  34.060  35.808  1.00  0.00     0.135 A 
ATOM     97  F   UNL A   1      45.025  31.782  34.695  1.00  0.00    -0.206 F 
ATOM     98  C   UNL A   1      47.273  31.431  35.072  1.00  0.00     0.059 A 
ATOM     99  C   UNL A   1      48.746  33.243  35.649  1.00  0.00     0.059 A 
ATOM    100  F   UNL A   1      47.924  35.310  36.198  1.00  0.00    -0.206 F 
ATOM    101  C   UNL A   1      48.544  31.907  35.362  1.00  0.00     0.060 A 
BRANCH 101 102
ATOM    102  S   UNL A   1      49.909  30.748  35.446  1.00  0.00     0.124 S 
ATOM    103  O   UNL A   1      49.383  29.645  34.648  1.00  0.00    -0.237 OA
ATOM    104  O   UNL A   1      51.003  31.502  34.842  1.00  0.00    -0.237 OA
ATOM    105  O   UNL A   1      50.046  30.485  36.875  1.00  0.00    -0.744 OA
ENDBRANCH 101 102
ENDBRANCH  69  94
ENDBRANCH  43  44
ENDBRANCH  36  38
ENDBRANCH  35  36
ENDBRANCH  34  35
ENDBRANCH  33  34
ENDBRANCH  32  33
ENDBRANCH  31  32
ENDBRANCH   1  31
TORSDOF 25
ENDMDL
MODEL 3
REMARK VINA RESULT:      -9.1      7.171     11.790
REMARK SMILES Cc1ccccc1NC(=O)c1ccccc1NC(=O)CCC(=O)OCCOCCOCCOC(=O)c1ccc(-c2c3nc(c(-c4c(F)cc(S(=O)(=O)[O-])cc4F)c4ccc([nH]4)c(-c4c(F)cc(S(=O)(=O)[O-])cc4F)c4nc(c(-c5c(F)cc(S(=O)(=O)[O-])cc5F)c5ccc2[nH]5)C=C4)C=C3)cc1
REMARK SMILES IDX 28 1 27 2 26 3 25 4 24 5 22 6 23 7 21 8 20 9 18 10 17 11
REMARK SMILES IDX 19 13 16 14 11 15 12 16 13 17 15 18 14 19 9 20 8 21 10 23
REMARK SMILES IDX 7 24 1 25 2 26 3 27 4 28 6 29 5 30 29 31 30 32 31 33 32 34
REMARK SMILES IDX 33 35 34 36 35 37 36 38 37 39 101 40 38 41 100 42 39 43
REMARK SMILES IDX 40 44 41 45 94 46 42 47 99 48 93 49 95 50 43 51 98 52 92 53
REMARK SMILES IDX 91 54 44 56 78 57 57 58 77 59 58 60 61 61 76 62 96 63 59 64
REMARK SMILES IDX 60 65 75 67 97 68 62 69 45 70 46 71 55 72 47 73 48 74 54 75
REMARK SMILES IDX 56 76 49 77 50 78 51 79 52 80 53 81 79 82 80 83 89 84 81 85
REMARK SMILES IDX 82 86 88 87 90 88 83 89 84 90 85 91 86 92 87 93 63 94 64 95
REMARK SMILES IDX 73 96 65 97 66 98 72 99 74 100 67 101 68 102 69 103 70 104
REMARK SMILES IDX 71 105
REMARK H PARENT 17 12 8 22 95 55 61 66
REMARK Flexibility Score: inf
ROOT
ATOM      1  C   UNL A   1      44.810  22.444  23.713  1.00  0.00     0.188 C 
ENDROOT
BRANCH   1   2
ATOM      2  O   UNL A   1      43.589  22.893  24.301  1.00  0.00    -0.376 OA
BRANCH   2   3
ATOM      3  C   UNL A   1      42.860  22.153  25.474  1.00  0.00     0.202 C 
BRANCH   3   4
ATOM      4  C   UNL A   1      41.243  22.854  26.801  1.00  0.00     0.261 C 
BRANCH   4   5
ATOM      5  O   UNL A   1      39.674  22.418  26.732  1.00  0.00    -0.463 OA
BRANCH   5   6
ATOM      6  C   UNL A   1      38.822  23.416  26.457  1.00  0.00     0.306 C 
ATOM      7  O   UNL A   1      39.278  24.544  26.414  1.00  0.00    -0.252 OA
BRANCH   6   8
ATOM      8  C   UNL A   1      37.402  23.134  25.955  1.00  0.00     0.132 C 
BRANCH   8   9
ATOM      9  C   UNL A   1      36.045  23.754  26.045  1.00  0.00     0.112 C 
BRANCH   9  10
ATOM     10  C   UNL A   1      35.320  22.840  25.243  1.00  0.00     0.224 C 
ATOM     11  N   UNL A   1      34.336  23.145  24.378  1.00  0.00    -0.325 N 
ATOM     12  H   UNL A   1      33.635  22.458  24.452  1.00  0.00     0.169 HD
ATOM     13  O   UNL A   1      35.831  21.720  25.239  1.00  0.00    -0.275 OA
BRANCH  11  14
ATOM     14  C   UNL A   1      33.932  24.096  23.390  1.00  0.00     0.054 A 
ATOM     15  C   UNL A   1      32.912  25.356  24.205  1.00  0.00     0.063 A 
ATOM     16  C   UNL A   1      31.746  26.362  23.257  1.00  0.00     0.016 A 
ATOM     17  C   UNL A   1      31.605  26.145  21.477  1.00  0.00     0.001 A 
ATOM     18  C   UNL A   1      33.753  23.912  21.594  1.00  0.00     0.027 A 
ATOM     19  C   UNL A   1      32.604  24.928  20.628  1.00  0.00     0.002 A 
BRANCH  15  20
ATOM     20  C   UNL A   1      33.004  25.636  25.672  1.00  0.00     0.257 C 
ATOM     21  N   UNL A   1      33.834  26.643  26.145  1.00  0.00    -0.322 N 
ATOM     22  H   UNL A   1      34.732  26.347  26.416  1.00  0.00     0.170 HD
ATOM     23  O   UNL A   1      32.500  24.807  26.425  1.00  0.00    -0.269 OA
BRANCH  21  24
ATOM     24  C   UNL A   1      33.589  28.052  26.304  1.00  0.00     0.044 A 
ATOM     25  C   UNL A   1      31.057  27.568  26.662  1.00  0.00     0.046 C 
ATOM     26  C   UNL A   1      32.270  28.488  26.621  1.00  0.00    -0.027 A 
ATOM     27  C   UNL A   1      32.093  29.764  27.207  1.00  0.00     0.005 A 
ATOM     28  C   UNL A   1      33.185  30.572  27.523  1.00  0.00     0.000 A 
ATOM     29  C   UNL A   1      34.670  28.925  26.541  1.00  0.00     0.026 A 
ATOM     30  C   UNL A   1      34.468  30.156  27.186  1.00  0.00     0.002 A 
ENDBRANCH  21  24
ENDBRANCH  15  20
ENDBRANCH  11  14
ENDBRANCH   9  10
ENDBRANCH   8   9
ENDBRANCH   6   8
ENDBRANCH   5   6
ENDBRANCH   4   5
ENDBRANCH   3   4
ENDBRANCH   2   3
ENDBRANCH   1   2
BRANCH   1  31
ATOM     31  C   UNL A   1      46.148  22.618  24.391  1.00  0.00     0.188 C 
BRANCH  31  32
ATOM     32  O   UNL A   1      46.369  23.845  25.078  1.00  0.00    -0.376 OA
BRANCH  32  33
ATOM     33  C   UNL A   1      46.382  23.726  26.485  1.00  0.00     0.202 C 
BRANCH  33  34
ATOM     34  C   UNL A   1      45.573  24.840  27.195  1.00  0.00     0.261 C 
BRANCH  34  35
ATOM     35  O   UNL A   1      46.346  26.070  27.388  1.00  0.00    -0.460 OA
BRANCH  35  36
ATOM     36  C   UNL A   1      47.682  26.119  27.656  1.00  0.00     0.338 C 
ATOM     37  O   UNL A   1      48.538  26.449  26.844  1.00  0.00    -0.246 OA
BRANCH  36  38
ATOM     38  C   UNL A   1      47.876  26.242  29.170  1.00  0.00     0.060 A 
ATOM     39  C   UNL A   1      48.663  25.601  30.148  1.00  0.00     0.016 A 
ATOM     40  C   UNL A   1      47.004  27.137  29.698  1.00  0.00     0.016 A 
ATOM     41  C   UNL A   1      48.468  25.797  31.629  1.00  0.00     0.010 A 
ATOM     42  C   UNL A   1      46.783  27.189  31.095  1.00  0.00     0.010 A 
ATOM     43  C   UNL A   1      47.473  26.627  32.173  1.00  0.00    -0.014 A 
BRANCH  43  44
ATOM     44  C   UNL A   1      46.774  26.747  33.633  1.00  0.00     0.031 A 
ATOM     45  C   UNL A   1      46.120  28.073  34.427  1.00  0.00     0.074 A 
ATOM     46  C   UNL A   1      46.166  25.557  33.948  1.00  0.00     0.049 A 
ATOM     47  N   UNL A   1      45.141  28.004  35.303  1.00  0.00    -0.248 NA
ATOM     48  C   UNL A   1      46.320  29.519  34.136  1.00  0.00     0.031 C 
ATOM     49  C   UNL A   1      44.978  25.254  34.764  1.00  0.00     0.029 A 
ATOM     50  N   UNL A   1      46.555  24.267  33.559  1.00  0.00    -0.354 N 
ATOM     51  C   UNL A   1      44.358  29.197  35.343  1.00  0.00     0.074 A 
ATOM     52  C   UNL A   1      45.226  30.135  34.671  1.00  0.00     0.031 C 
ATOM     53  C   UNL A   1      44.944  23.949  35.092  1.00  0.00     0.029 A 
ATOM     54  C   UNL A   1      46.182  23.395  34.609  1.00  0.00     0.049 A 
ATOM     55  H   UNL A   1      47.002  24.016  32.718  1.00  0.00     0.167 HD
ATOM     56  C   UNL A   1      43.029  29.179  35.817  1.00  0.00     0.037 A 
ATOM     57  C   UNL A   1      47.184  22.966  35.430  1.00  0.00     0.037 A 
ATOM     58  C   UNL A   1      42.847  27.944  36.590  1.00  0.00     0.049 A 
ATOM     59  C   UNL A   1      47.091  23.739  36.763  1.00  0.00     0.074 A 
ATOM     60  C   UNL A   1      42.078  26.793  36.607  1.00  0.00     0.029 A 
ATOM     61  N   UNL A   1      43.841  27.726  37.510  1.00  0.00    -0.354 N 
ATOM     62  N   UNL A   1      46.490  24.909  36.872  1.00  0.00    -0.248 NA
ATOM     63  C   UNL A   1      47.362  23.183  38.091  1.00  0.00     0.031 C 
ATOM     64  C   UNL A   1      42.834  25.807  37.359  1.00  0.00     0.029 A 
ATOM     65  C   UNL A   1      44.007  26.402  37.825  1.00  0.00     0.049 A 
ATOM     66  H   UNL A   1      44.381  28.448  37.905  1.00  0.00     0.167 HD
ATOM     67  C   UNL A   1      46.103  25.139  38.162  1.00  0.00     0.074 A 
ATOM     68  C   UNL A   1      46.748  24.068  38.902  1.00  0.00     0.031 C 
ATOM     69  C   UNL A   1      45.200  26.072  38.606  1.00  0.00     0.037 A 
BRANCH  56  70
ATOM     70  C   UNL A   1      41.806  30.175  35.668  1.00  0.00     0.058 A 
ATOM     71  C   UNL A   1      40.712  29.897  34.785  1.00  0.00     0.135 A 
ATOM     72  C   UNL A   1      41.700  31.454  36.260  1.00  0.00     0.135 A 
ATOM     73  F   UNL A   1      40.672  28.756  34.080  1.00  0.00    -0.206 F 
ATOM     74  C   UNL A   1      39.602  30.758  34.573  1.00  0.00     0.059 A 
ATOM     75  C   UNL A   1      40.588  32.335  36.070  1.00  0.00     0.059 A 
ATOM     76  F   UNL A   1      42.697  31.918  37.032  1.00  0.00    -0.206 F 
ATOM     77  C   UNL A   1      39.529  31.972  35.238  1.00  0.00     0.060 A 
BRANCH  77  78
ATOM     78  S   UNL A   1      38.042  33.016  35.022  1.00  0.00     0.124 S 
ATOM     79  O   UNL A   1      38.416  33.888  33.913  1.00  0.00    -0.237 OA
ATOM     80  O   UNL A   1      37.006  32.032  34.722  1.00  0.00    -0.237 OA
ATOM     81  O   UNL A   1      37.898  33.685  36.313  1.00  0.00    -0.744 OA
ENDBRANCH  77  78
ENDBRANCH  56  70
BRANCH  57  82
ATOM     82  C   UNL A   1      48.260  22.412  34.514  1.00  0.00     0.058 A 
ATOM     83  C   UNL A   1      49.477  23.157  34.551  1.00  0.00     0.135 A 
ATOM     84  C   UNL A   1      48.415  21.036  34.247  1.00  0.00     0.135 A 
ATOM     85  F   UNL A   1      49.437  24.470  34.835  1.00  0.00    -0.206 F 
ATOM     86  C   UNL A   1      50.746  22.561  34.518  1.00  0.00     0.059 A 
ATOM     87  C   UNL A   1      49.693  20.424  34.175  1.00  0.00     0.059 A 
ATOM     88  F   UNL A   1      47.341  20.232  34.235  1.00  0.00    -0.206 F 
ATOM     89  C   UNL A   1      50.850  21.185  34.358  1.00  0.00     0.060 A 
BRANCH  89  90
ATOM     90  S   UNL A   1      52.498  20.425  34.526  1.00  0.00     0.124 S 
ATOM     91  O   UNL A   1      52.181  19.005  34.462  1.00  0.00    -0.237 OA
ATOM     92  O   UNL A   1      53.213  20.961  33.369  1.00  0.00    -0.237 OA
ATOM     93  O   UNL A   1      52.968  20.898  35.823  1.00  0.00    -0.744 OA
ENDBRANCH  89  90
ENDBRANCH  57  82
BRANCH  69  94
ATOM     94  C   UNL A   1      45.603  26.984  39.770  1.00  0.00     0.058 A 
ATOM     95  C   UNL A   1      44.964  26.939  41.021  1.00  0.00     0.135 A 
ATOM     96  C   UNL A   1      46.762  27.812  39.725  1.00  0.00     0.135 A 
ATOM     97  F   UNL A   1      43.958  26.091  41.276  1.00  0.00    -0.206 F 
ATOM     98  C   UNL A   1      45.338  27.755  42.081  1.00  0.00     0.059 A 
ATOM     99  C   UNL A   1      47.224  28.544  40.813  1.00  0.00     0.059 A 
ATOM    100  F   UNL A   1      47.515  27.939  38.622  1.00  0.00    -0.206 F 
ATOM    101  C   UNL A   1      46.454  28.572  41.959  1.00  0.00     0.060 A 
BRANCH 101 102
ATOM    102  S   UNL A   1      46.834  29.727  43.275  1.00  0.00     0.124 S 
ATOM    103  O   UNL A   1      47.911  30.498  42.662  1.00  0.00    -0.237 OA
ATOM    104  O   UNL A   1      45.569  30.435  43.451  1.00  0.00    -0.237 OA
ATOM    105  O   UNL A   1      47.227  28.865  44.384  1.00  0.00    -0.744 OA
ENDBRANCH 101 102
ENDBRANCH  69  94
ENDBRANCH  43  44
ENDBRANCH  36  38
ENDBRANCH  35  36
ENDBRANCH  34  35
ENDBRANCH  33  34
ENDBRANCH  32  33
ENDBRANCH  31  32
ENDBRANCH   1  31
TORSDOF 25
ENDMDL
