MODEL 1
REMARK VINA RESULT:     -11.8      0.000      0.000
REMARK SMILES Cc1ccc(Nc2c(Cl)cc(Cl)cc2Cl)c(CC(=O)OCCOCCOCCOC(=O)c2ccc(-c3c4nc(c(-c5c(F)cc(S(=O)(=O)[O-])cc5F)c5ccc([nH]5)c(-c5c(F)cc(S(=O)(=O)[O-])cc5F)c5nc(c(-c6c(F)cc(S(=O)(=O)[O-])cc6F)c6ccc3[nH]6)C=C5)C=C4)cc2)c1
REMARK SMILES IDX 24 1 23 2 22 3 21 4 20 5 18 6 19 7 17 8 16 9 1 10 2 11 3 12
REMARK SMILES IDX 98 13 4 14 5 15 6 16 7 18 8 19 14 20 9 21 10 22 13 23 15 24
REMARK SMILES IDX 11 25 12 26 25 27 26 28 27 29 28 30 29 31 30 32 31 33 32 34
REMARK SMILES IDX 33 35 97 36 34 37 96 38 35 39 36 40 37 41 90 42 38 43 95 44
REMARK SMILES IDX 89 45 91 46 39 47 94 48 88 49 87 50 40 52 74 53 53 54 73 55
REMARK SMILES IDX 54 56 57 57 72 58 92 59 55 60 56 61 71 63 93 64 58 65 41 66
REMARK SMILES IDX 42 67 51 68 43 69 44 70 50 71 52 72 45 73 46 74 47 75 48 76
REMARK SMILES IDX 49 77 75 78 76 79 85 80 77 81 78 82 84 83 86 84 79 85 80 86
REMARK SMILES IDX 81 87 82 88 83 89 59 90 60 91 69 92 61 93 62 94 68 95 70 96
REMARK SMILES IDX 63 97 64 98 65 99 66 100 67 101
REMARK H PARENT 6 17 91 51 57 62
REMARK Flexibility Score: inf
ROOT
ATOM      1  C   UNL A   1      33.933  30.140  27.051  1.00  0.00     0.188 C 
ENDROOT
BRANCH   1   2
ATOM      2  O   UNL A   1      33.044  29.836  26.017  1.00  0.00    -0.376 OA
BRANCH   2   3
ATOM      3  C   UNL A   1      31.867  29.115  26.276  1.00  0.00     0.202 C 
BRANCH   3   4
ATOM      4  C   UNL A   1      31.538  27.590  26.705  1.00  0.00     0.261 C 
BRANCH   4   5
ATOM      5  O   UNL A   1      32.189  25.905  26.500  1.00  0.00    -0.463 OA
BRANCH   5   6
ATOM      6  C   UNL A   1      32.000  24.311  26.851  1.00  0.00     0.310 C 
ATOM      7  O   UNL A   1      31.048  23.607  27.216  1.00  0.00    -0.252 OA
BRANCH   6   8
ATOM      8  C   UNL A   1      33.089  23.517  26.391  1.00  0.00     0.160 C 
BRANCH   8   9
ATOM      9  C   UNL A   1      33.619  24.374  25.288  1.00  0.00    -0.013 A 
ATOM     10  C   UNL A   1      37.288  23.320  25.250  1.00  0.00     0.044 C 
ATOM     11  C   UNL A   1      35.886  23.560  24.799  1.00  0.00    -0.051 A 
ATOM     12  C   UNL A   1      35.336  22.974  23.682  1.00  0.00     0.005 A 
ATOM     13  C   UNL A   1      35.041  24.321  25.573  1.00  0.00     0.009 A 
ATOM     14  C   UNL A   1      33.969  23.204  23.351  1.00  0.00     0.026 A 
ATOM     15  C   UNL A   1      32.910  24.185  24.064  1.00  0.00     0.042 A 
BRANCH  15  16
ATOM     16  N   UNL A   1      31.482  25.210  23.089  1.00  0.00    -0.353 N 
ATOM     17  H   UNL A   1      31.022  24.672  22.405  1.00  0.00     0.167 HD
BRANCH  16  18
ATOM     18  C   UNL A   1      30.845  26.934  23.193  1.00  0.00     0.076 A 
ATOM     19  C   UNL A   1      29.375  27.391  23.428  1.00  0.00     0.067 A 
ATOM     20  C   UNL A   1      31.625  27.986  22.646  1.00  0.00     0.067 A 
ATOM     21  Cl  UNL A   1      27.840  26.576  23.897  1.00  0.00    -0.082 Cl
ATOM     22  C   UNL A   1      28.912  28.691  23.119  1.00  0.00     0.043 A 
ATOM     23  C   UNL A   1      31.044  29.236  22.242  1.00  0.00     0.043 A 
ATOM     24  Cl  UNL A   1      33.309  28.044  22.546  1.00  0.00    -0.082 Cl
ATOM     25  C   UNL A   1      29.721  29.575  22.464  1.00  0.00     0.044 A 
ATOM     26  Cl  UNL A   1      29.044  31.050  21.888  1.00  0.00    -0.084 Cl
ENDBRANCH  16  18
ENDBRANCH  15  16
ENDBRANCH   8   9
ENDBRANCH   6   8
ENDBRANCH   5   6
ENDBRANCH   4   5
ENDBRANCH   3   4
ENDBRANCH   2   3
ENDBRANCH   1   2
BRANCH   1  27
ATOM     27  C   UNL A   1      33.883  31.502  27.726  1.00  0.00     0.188 C 
BRANCH  27  28
ATOM     28  O   UNL A   1      34.562  31.615  28.954  1.00  0.00    -0.376 OA
BRANCH  28  29
ATOM     29  C   UNL A   1      34.509  32.923  29.525  1.00  0.00     0.202 C 
BRANCH  29  30
ATOM     30  C   UNL A   1      35.646  34.004  29.208  1.00  0.00     0.261 C 
BRANCH  30  31
ATOM     31  O   UNL A   1      37.038  33.508  28.975  1.00  0.00    -0.460 OA
BRANCH  31  32
ATOM     32  C   UNL A   1      38.078  33.410  29.943  1.00  0.00     0.338 C 
ATOM     33  O   UNL A   1      38.843  34.350  30.061  1.00  0.00    -0.246 OA
BRANCH  32  34
ATOM     34  C   UNL A   1      38.026  31.963  30.876  1.00  0.00     0.060 A 
ATOM     35  C   UNL A   1      38.187  31.400  32.748  1.00  0.00     0.016 A 
ATOM     36  C   UNL A   1      39.446  31.473  29.867  1.00  0.00     0.016 A 
ATOM     37  C   UNL A   1      39.817  30.633  33.335  1.00  0.00     0.010 A 
ATOM     38  C   UNL A   1      40.927  30.879  30.573  1.00  0.00     0.010 A 
ATOM     39  C   UNL A   1      41.269  30.386  32.257  1.00  0.00    -0.014 A 
BRANCH  39  40
ATOM     40  C   UNL A   1      42.908  29.450  32.428  1.00  0.00     0.031 A 
ATOM     41  C   UNL A   1      43.549  27.968  31.382  1.00  0.00     0.074 A 
ATOM     42  C   UNL A   1      43.955  29.940  33.124  1.00  0.00     0.049 A 
ATOM     43  N   UNL A   1      43.816  26.731  31.772  1.00  0.00    -0.248 NA
ATOM     44  C   UNL A   1      43.380  27.718  29.734  1.00  0.00     0.031 C 
ATOM     45  C   UNL A   1      45.367  29.544  32.983  1.00  0.00     0.029 A 
ATOM     46  N   UNL A   1      44.023  30.991  34.030  1.00  0.00    -0.354 N 
ATOM     47  C   UNL A   1      43.937  25.909  30.593  1.00  0.00     0.074 A 
ATOM     48  C   UNL A   1      43.107  26.442  29.596  1.00  0.00     0.031 C 
ATOM     49  C   UNL A   1      46.086  30.092  33.980  1.00  0.00     0.029 A 
ATOM     50  C   UNL A   1      45.134  30.747  34.858  1.00  0.00     0.049 A 
ATOM     51  H   UNL A   1      43.409  31.759  34.082  1.00  0.00     0.167 HD
ATOM     52  C   UNL A   1      45.109  25.298  30.210  1.00  0.00     0.037 A 
ATOM     53  C   UNL A   1      44.853  30.414  36.143  1.00  0.00     0.037 A 
ATOM     54  C   UNL A   1      46.079  25.644  31.222  1.00  0.00     0.049 A 
ATOM     55  C   UNL A   1      45.116  28.920  36.298  1.00  0.00     0.074 A 
ATOM     56  C   UNL A   1      47.096  26.577  31.306  1.00  0.00     0.029 A 
ATOM     57  N   UNL A   1      45.709  25.352  32.521  1.00  0.00    -0.354 N 
ATOM     58  N   UNL A   1      45.122  28.067  35.297  1.00  0.00    -0.248 NA
ATOM     59  C   UNL A   1      45.647  28.319  37.519  1.00  0.00     0.031 C 
ATOM     60  C   UNL A   1      47.292  26.865  32.697  1.00  0.00     0.029 A 
ATOM     61  C   UNL A   1      46.370  26.136  33.436  1.00  0.00     0.049 A 
ATOM     62  H   UNL A   1      45.049  24.662  32.762  1.00  0.00     0.167 HD
ATOM     63  C   UNL A   1      45.735  26.905  35.670  1.00  0.00     0.074 A 
ATOM     64  C   UNL A   1      46.008  27.099  37.082  1.00  0.00     0.031 C 
ATOM     65  C   UNL A   1      46.083  25.875  34.838  1.00  0.00     0.037 A 
BRANCH  52  66
ATOM     66  C   UNL A   1      45.415  24.758  28.783  1.00  0.00     0.058 A 
ATOM     67  C   UNL A   1      44.890  23.518  28.365  1.00  0.00     0.135 A 
ATOM     68  C   UNL A   1      46.173  25.414  27.766  1.00  0.00     0.135 A 
ATOM     69  F   UNL A   1      44.126  22.783  29.182  1.00  0.00    -0.206 F 
ATOM     70  C   UNL A   1      45.097  22.975  27.084  1.00  0.00     0.059 A 
ATOM     71  C   UNL A   1      46.462  24.855  26.507  1.00  0.00     0.059 A 
ATOM     72  F   UNL A   1      46.626  26.668  27.917  1.00  0.00    -0.206 F 
ATOM     73  C   UNL A   1      45.885  23.646  26.158  1.00  0.00     0.060 A 
BRANCH  73  74
ATOM     74  S   UNL A   1      46.054  22.974  24.486  1.00  0.00     0.124 S 
ATOM     75  O   UNL A   1      46.978  23.917  23.862  1.00  0.00    -0.237 OA
ATOM     76  O   UNL A   1      46.588  21.642  24.751  1.00  0.00    -0.237 OA
ATOM     77  O   UNL A   1      44.691  23.007  23.962  1.00  0.00    -0.744 OA
ENDBRANCH  73  74
ENDBRANCH  52  66
BRANCH  53  78
ATOM     78  C   UNL A   1      43.801  31.372  36.652  1.00  0.00     0.058 A 
ATOM     79  C   UNL A   1      44.216  32.730  36.790  1.00  0.00     0.135 A 
ATOM     80  C   UNL A   1      42.414  31.177  36.536  1.00  0.00     0.135 A 
ATOM     81  F   UNL A   1      45.529  33.022  36.807  1.00  0.00    -0.206 F 
ATOM     82  C   UNL A   1      43.332  33.814  36.797  1.00  0.00     0.059 A 
ATOM     83  C   UNL A   1      41.504  32.256  36.557  1.00  0.00     0.059 A 
ATOM     84  F   UNL A   1      41.924  29.952  36.305  1.00  0.00    -0.206 F 
ATOM     85  C   UNL A   1      41.968  33.567  36.724  1.00  0.00     0.060 A 
BRANCH  85  86
ATOM     86  S   UNL A   1      40.813  34.962  36.894  1.00  0.00     0.124 S 
ATOM     87  O   UNL A   1      39.526  34.279  36.859  1.00  0.00    -0.237 OA
ATOM     88  O   UNL A   1      41.160  35.549  38.188  1.00  0.00    -0.237 OA
ATOM     89  O   UNL A   1      41.112  35.790  35.730  1.00  0.00    -0.744 OA
ENDBRANCH  85  86
ENDBRANCH  53  78
BRANCH  65  90
ATOM     90  C   UNL A   1      46.145  24.429  35.301  1.00  0.00     0.058 A 
ATOM     91  C   UNL A   1      44.999  23.650  35.518  1.00  0.00     0.135 A 
ATOM     92  C   UNL A   1      47.377  23.716  35.341  1.00  0.00     0.135 A 
ATOM     93  F   UNL A   1      43.764  24.145  35.361  1.00  0.00    -0.206 F 
ATOM     94  C   UNL A   1      45.074  22.312  35.883  1.00  0.00     0.059 A 
ATOM     95  C   UNL A   1      47.460  22.352  35.563  1.00  0.00     0.059 A 
ATOM     96  F   UNL A   1      48.564  24.311  35.154  1.00  0.00    -0.206 F 
ATOM     97  C   UNL A   1      46.308  21.676  35.909  1.00  0.00     0.060 A 
BRANCH  97  98
ATOM     98  S   UNL A   1      46.407  19.973  36.455  1.00  0.00     0.124 S 
ATOM     99  O   UNL A   1      47.851  19.757  36.423  1.00  0.00    -0.237 OA
ATOM    100  O   UNL A   1      45.804  20.029  37.783  1.00  0.00    -0.237 OA
ATOM    101  O   UNL A   1      45.638  19.247  35.450  1.00  0.00    -0.744 OA
ENDBRANCH  97  98
ENDBRANCH  65  90
ENDBRANCH  39  40
ENDBRANCH  32  34
ENDBRANCH  31  32
ENDBRANCH  30  31
ENDBRANCH  29  30
ENDBRANCH  28  29
ENDBRANCH  27  28
ENDBRANCH   1  27
TORSDOF 23
ENDMDL
MODEL 2
REMARK VINA RESULT:     -11.4      4.577     11.160
REMARK SMILES Cc1ccc(Nc2c(Cl)cc(Cl)cc2Cl)c(CC(=O)OCCOCCOCCOC(=O)c2ccc(-c3c4nc(c(-c5c(F)cc(S(=O)(=O)[O-])cc5F)c5ccc([nH]5)c(-c5c(F)cc(S(=O)(=O)[O-])cc5F)c5nc(c(-c6c(F)cc(S(=O)(=O)[O-])cc6F)c6ccc3[nH]6)C=C5)C=C4)cc2)c1
REMARK SMILES IDX 24 1 23 2 22 3 21 4 20 5 18 6 19 7 17 8 16 9 1 10 2 11 3 12
REMARK SMILES IDX 98 13 4 14 5 15 6 16 7 18 8 19 14 20 9 21 10 22 13 23 15 24
REMARK SMILES IDX 11 25 12 26 25 27 26 28 27 29 28 30 29 31 30 32 31 33 32 34
REMARK SMILES IDX 33 35 97 36 34 37 96 38 35 39 36 40 37 41 90 42 38 43 95 44
REMARK SMILES IDX 89 45 91 46 39 47 94 48 88 49 87 50 40 52 74 53 53 54 73 55
REMARK SMILES IDX 54 56 57 57 72 58 92 59 55 60 56 61 71 63 93 64 58 65 41 66
REMARK SMILES IDX 42 67 51 68 43 69 44 70 50 71 52 72 45 73 46 74 47 75 48 76
REMARK SMILES IDX 49 77 75 78 76 79 85 80 77 81 78 82 84 83 86 84 79 85 80 86
REMARK SMILES IDX 81 87 82 88 83 89 59 90 60 91 69 92 61 93 62 94 68 95 70 96
REMARK SMILES IDX 63 97 64 98 65 99 66 100 67 101
REMARK H PARENT 6 17 91 51 57 62
REMARK Flexibility Score: inf
ROOT
ATOM      1  C   UNL A   1      31.125  25.484  26.036  1.00  0.00     0.188 C 
ENDROOT
BRANCH   1   2
ATOM      2  O   UNL A   1      30.549  26.434  26.884  1.00  0.00    -0.376 OA
BRANCH   2   3
ATOM      3  C   UNL A   1      31.322  27.484  27.409  1.00  0.00     0.202 C 
BRANCH   3   4
ATOM      4  C   UNL A   1      32.853  27.971  27.227  1.00  0.00     0.261 C 
BRANCH   4   5
ATOM      5  O   UNL A   1      34.080  29.062  28.009  1.00  0.00    -0.463 OA
BRANCH   5   6
ATOM      6  C   UNL A   1      35.533  29.815  27.865  1.00  0.00     0.310 C 
ATOM      7  O   UNL A   1      36.700  29.431  27.707  1.00  0.00    -0.252 OA
BRANCH   6   8
ATOM      8  C   UNL A   1      35.402  31.209  27.602  1.00  0.00     0.160 C 
BRANCH   8   9
ATOM      9  C   UNL A   1      34.030  31.470  28.133  1.00  0.00    -0.013 A 
ATOM     10  C   UNL A   1      34.762  34.166  30.735  1.00  0.00     0.044 C 
ATOM     11  C   UNL A   1      34.196  33.482  29.536  1.00  0.00    -0.051 A 
ATOM     12  C   UNL A   1      33.600  34.149  28.491  1.00  0.00     0.005 A 
ATOM     13  C   UNL A   1      34.354  32.123  29.388  1.00  0.00     0.009 A 
ATOM     14  C   UNL A   1      33.139  33.429  27.351  1.00  0.00     0.026 A 
ATOM     15  C   UNL A   1      33.111  31.838  27.105  1.00  0.00     0.042 A 
BRANCH  15  16
ATOM     16  N   UNL A   1      31.663  30.873  26.097  1.00  0.00    -0.353 N 
ATOM     17  H   UNL A   1      30.791  30.905  26.554  1.00  0.00     0.167 HD
BRANCH  16  18
ATOM     18  C   UNL A   1      31.609  29.945  24.509  1.00  0.00     0.076 A 
ATOM     19  C   UNL A   1      30.364  29.659  23.618  1.00  0.00     0.067 A 
ATOM     20  C   UNL A   1      32.673  29.059  24.197  1.00  0.00     0.067 A 
ATOM     21  Cl  UNL A   1      28.657  30.231  23.581  1.00  0.00    -0.082 Cl
ATOM     22  C   UNL A   1      30.333  28.639  22.639  1.00  0.00     0.043 A 
ATOM     23  C   UNL A   1      32.513  27.967  23.278  1.00  0.00     0.043 A 
ATOM     24  Cl  UNL A   1      34.286  29.219  24.667  1.00  0.00    -0.082 Cl
ATOM     25  C   UNL A   1      31.369  27.757  22.527  1.00  0.00     0.044 A 
ATOM     26  Cl  UNL A   1      31.187  26.387  21.500  1.00  0.00    -0.084 Cl
ENDBRANCH  16  18
ENDBRANCH  15  16
ENDBRANCH   8   9
ENDBRANCH   6   8
ENDBRANCH   5   6
ENDBRANCH   4   5
ENDBRANCH   3   4
ENDBRANCH   2   3
ENDBRANCH   1   2
BRANCH   1  27
ATOM     27  C   UNL A   1      31.206  24.027  26.465  1.00  0.00     0.188 C 
BRANCH  27  28
ATOM     28  O   UNL A   1      32.444  23.595  26.978  1.00  0.00    -0.376 OA
BRANCH  28  29
ATOM     29  C   UNL A   1      32.669  22.192  26.837  1.00  0.00     0.202 C 
BRANCH  29  30
ATOM     30  C   UNL A   1      34.057  21.534  27.288  1.00  0.00     0.261 C 
BRANCH  30  31
ATOM     31  O   UNL A   1      35.321  22.213  26.868  1.00  0.00    -0.460 OA
BRANCH  31  32
ATOM     32  C   UNL A   1      35.680  22.597  25.544  1.00  0.00     0.338 C 
ATOM     33  O   UNL A   1      34.815  23.069  24.829  1.00  0.00    -0.246 OA
BRANCH  32  34
ATOM     34  C   UNL A   1      37.355  22.400  25.192  1.00  0.00     0.060 A 
ATOM     35  C   UNL A   1      38.905  21.412  25.875  1.00  0.00     0.016 A 
ATOM     36  C   UNL A   1      37.450  24.177  25.522  1.00  0.00     0.016 A 
ATOM     37  C   UNL A   1      40.176  22.327  26.941  1.00  0.00     0.010 A 
ATOM     38  C   UNL A   1      38.622  24.857  26.621  1.00  0.00     0.010 A 
ATOM     39  C   UNL A   1      40.045  24.093  27.386  1.00  0.00    -0.014 A 
BRANCH  39  40
ATOM     40  C   UNL A   1      41.214  25.353  28.183  1.00  0.00     0.031 A 
ATOM     41  C   UNL A   1      40.764  26.976  29.112  1.00  0.00     0.074 A 
ATOM     42  C   UNL A   1      42.507  25.073  28.455  1.00  0.00     0.049 A 
ATOM     43  N   UNL A   1      41.059  28.226  28.788  1.00  0.00    -0.248 NA
ATOM     44  C   UNL A   1      39.483  27.246  30.157  1.00  0.00     0.031 C 
ATOM     45  C   UNL A   1      43.372  25.769  29.424  1.00  0.00     0.029 A 
ATOM     46  N   UNL A   1      43.313  24.027  28.023  1.00  0.00    -0.354 N 
ATOM     47  C   UNL A   1      40.232  29.098  29.584  1.00  0.00     0.074 A 
ATOM     48  C   UNL A   1      39.025  28.437  29.853  1.00  0.00     0.031 C 
ATOM     49  C   UNL A   1      44.642  25.351  29.269  1.00  0.00     0.029 A 
ATOM     50  C   UNL A   1      44.645  24.473  28.113  1.00  0.00     0.049 A 
ATOM     51  H   UNL A   1      43.010  23.144  27.712  1.00  0.00     0.167 HD
ATOM     52  C   UNL A   1      40.730  29.961  30.532  1.00  0.00     0.037 A 
ATOM     53  C   UNL A   1      45.278  24.690  26.933  1.00  0.00     0.037 A 
ATOM     54  C   UNL A   1      42.164  29.795  30.498  1.00  0.00     0.049 A 
ATOM     55  C   UNL A   1      45.377  26.198  26.733  1.00  0.00     0.074 A 
ATOM     56  C   UNL A   1      43.074  29.100  31.273  1.00  0.00     0.029 A 
ATOM     57  N   UNL A   1      42.749  29.950  29.256  1.00  0.00    -0.354 N 
ATOM     58  N   UNL A   1      44.583  27.070  27.318  1.00  0.00    -0.248 NA
ATOM     59  C   UNL A   1      46.513  26.852  26.091  1.00  0.00     0.031 C 
ATOM     60  C   UNL A   1      44.204  28.808  30.440  1.00  0.00     0.029 A 
ATOM     61  C   UNL A   1      43.952  29.293  29.163  1.00  0.00     0.049 A 
ATOM     62  H   UNL A   1      42.349  30.472  28.523  1.00  0.00     0.167 HD
ATOM     63  C   UNL A   1      45.125  28.321  27.249  1.00  0.00     0.074 A 
ATOM     64  C   UNL A   1      46.313  28.137  26.435  1.00  0.00     0.031 C 
ATOM     65  C   UNL A   1      44.670  29.433  27.906  1.00  0.00     0.037 A 
BRANCH  52  66
ATOM     66  C   UNL A   1      39.903  30.608  31.681  1.00  0.00     0.058 A 
ATOM     67  C   UNL A   1      39.437  31.934  31.561  1.00  0.00     0.135 A 
ATOM     68  C   UNL A   1      39.498  29.983  32.898  1.00  0.00     0.135 A 
ATOM     69  F   UNL A   1      39.697  32.659  30.466  1.00  0.00    -0.206 F 
ATOM     70  C   UNL A   1      38.660  32.579  32.540  1.00  0.00     0.059 A 
ATOM     71  C   UNL A   1      38.790  30.634  33.928  1.00  0.00     0.059 A 
ATOM     72  F   UNL A   1      39.711  28.679  33.131  1.00  0.00    -0.206 F 
ATOM     73  C   UNL A   1      38.340  31.926  33.723  1.00  0.00     0.060 A 
BRANCH  73  74
ATOM     74  S   UNL A   1      37.259  32.744  34.922  1.00  0.00     0.124 S 
ATOM     75  O   UNL A   1      35.943  32.596  34.307  1.00  0.00    -0.237 OA
ATOM     76  O   UNL A   1      37.491  31.951  36.124  1.00  0.00    -0.237 OA
ATOM     77  O   UNL A   1      37.768  34.112  34.969  1.00  0.00    -0.744 OA
ENDBRANCH  73  74
ENDBRANCH  52  66
BRANCH  53  78
ATOM     78  C   UNL A   1      44.998  23.509  26.032  1.00  0.00     0.058 A 
ATOM     79  C   UNL A   1      45.926  22.429  26.120  1.00  0.00     0.135 A 
ATOM     80  C   UNL A   1      43.733  23.172  25.521  1.00  0.00     0.135 A 
ATOM     81  F   UNL A   1      47.128  22.635  26.690  1.00  0.00    -0.206 F 
ATOM     82  C   UNL A   1      45.625  21.116  25.747  1.00  0.00     0.059 A 
ATOM     83  C   UNL A   1      43.414  21.855  25.122  1.00  0.00     0.059 A 
ATOM     84  F   UNL A   1      42.755  24.088  25.486  1.00  0.00    -0.206 F 
ATOM     85  C   UNL A   1      44.377  20.842  25.206  1.00  0.00     0.060 A 
BRANCH  85  86
ATOM     86  S   UNL A   1      44.042  19.169  24.573  1.00  0.00     0.124 S 
ATOM     87  O   UNL A   1      42.660  18.971  24.992  1.00  0.00    -0.237 OA
ATOM     88  O   UNL A   1      44.230  19.297  23.128  1.00  0.00    -0.237 OA
ATOM     89  O   UNL A   1      45.029  18.344  25.263  1.00  0.00    -0.744 OA
ENDBRANCH  85  86
ENDBRANCH  53  78
BRANCH  65  90
ATOM     90  C   UNL A   1      44.841  30.840  27.358  1.00  0.00     0.058 A 
ATOM     91  C   UNL A   1      43.945  31.414  26.445  1.00  0.00     0.135 A 
ATOM     92  C   UNL A   1      45.808  31.734  27.900  1.00  0.00     0.135 A 
ATOM     93  F   UNL A   1      42.889  30.742  25.968  1.00  0.00    -0.206 F 
ATOM     94  C   UNL A   1      44.082  32.722  25.999  1.00  0.00     0.059 A 
ATOM     95  C   UNL A   1      45.869  33.078  27.572  1.00  0.00     0.059 A 
ATOM     96  F   UNL A   1      46.738  31.345  28.785  1.00  0.00    -0.206 F 
ATOM     97  C   UNL A   1      45.050  33.542  26.564  1.00  0.00     0.060 A 
BRANCH  97  98
ATOM     98  S   UNL A   1      45.272  35.203  25.932  1.00  0.00     0.124 S 
ATOM     99  O   UNL A   1      44.813  35.038  24.556  1.00  0.00    -0.237 OA
ATOM    100  O   UNL A   1      44.403  35.992  26.799  1.00  0.00    -0.237 OA
ATOM    101  O   UNL A   1      46.701  35.441  26.096  1.00  0.00    -0.744 OA
ENDBRANCH  97  98
ENDBRANCH  65  90
ENDBRANCH  39  40
ENDBRANCH  32  34
ENDBRANCH  31  32
ENDBRANCH  30  31
ENDBRANCH  29  30
ENDBRANCH  28  29
ENDBRANCH  27  28
ENDBRANCH   1  27
TORSDOF 23
ENDMDL
MODEL 3
REMARK VINA RESULT:     -11.2      3.419      9.610
REMARK SMILES Cc1ccc(Nc2c(Cl)cc(Cl)cc2Cl)c(CC(=O)OCCOCCOCCOC(=O)c2ccc(-c3c4nc(c(-c5c(F)cc(S(=O)(=O)[O-])cc5F)c5ccc([nH]5)c(-c5c(F)cc(S(=O)(=O)[O-])cc5F)c5nc(c(-c6c(F)cc(S(=O)(=O)[O-])cc6F)c6ccc3[nH]6)C=C5)C=C4)cc2)c1
REMARK SMILES IDX 24 1 23 2 22 3 21 4 20 5 18 6 19 7 17 8 16 9 1 10 2 11 3 12
REMARK SMILES IDX 98 13 4 14 5 15 6 16 7 18 8 19 14 20 9 21 10 22 13 23 15 24
REMARK SMILES IDX 11 25 12 26 25 27 26 28 27 29 28 30 29 31 30 32 31 33 32 34
REMARK SMILES IDX 33 35 97 36 34 37 96 38 35 39 36 40 37 41 90 42 38 43 95 44
REMARK SMILES IDX 89 45 91 46 39 47 94 48 88 49 87 50 40 52 74 53 53 54 73 55
REMARK SMILES IDX 54 56 57 57 72 58 92 59 55 60 56 61 71 63 93 64 58 65 41 66
REMARK SMILES IDX 42 67 51 68 43 69 44 70 50 71 52 72 45 73 46 74 47 75 48 76
REMARK SMILES IDX 49 77 75 78 76 79 85 80 77 81 78 82 84 83 86 84 79 85 80 86
REMARK SMILES IDX 81 87 82 88 83 89 59 90 60 91 69 92 61 93 62 94 68 95 70 96
REMARK SMILES IDX 63 97 64 98 65 99 66 100 67 101
REMARK H PARENT 6 17 91 51 57 62
REMARK Flexibility Score: inf
ROOT
ATOM      1  C   UNL A   1      41.314  22.233  26.722  1.00  0.00     0.188 C 
ENDROOT
BRANCH   1   2
ATOM      2  O   UNL A   1      40.108  22.741  27.214  1.00  0.00    -0.376 OA
BRANCH   2   3
ATOM      3  C   UNL A   1      38.931  22.650  26.452  1.00  0.00     0.202 C 
BRANCH   3   4
ATOM      4  C   UNL A   1      37.837  23.714  25.917  1.00  0.00     0.261 C 
BRANCH   4   5
ATOM      5  O   UNL A   1      36.073  23.814  25.486  1.00  0.00    -0.463 OA
BRANCH   5   6
ATOM      6  C   UNL A   1      34.965  24.022  24.291  1.00  0.00     0.310 C 
ATOM      7  O   UNL A   1      34.526  25.001  23.672  1.00  0.00    -0.252 OA
BRANCH   6   8
ATOM      8  C   UNL A   1      34.624  22.800  23.644  1.00  0.00     0.160 C 
BRANCH   8   9
ATOM      9  C   UNL A   1      33.150  22.756  23.880  1.00  0.00    -0.013 A 
ATOM     10  C   UNL A   1      32.462  19.023  23.467  1.00  0.00     0.044 C 
ATOM     11  C   UNL A   1      32.545  20.381  24.080  1.00  0.00    -0.051 A 
ATOM     12  C   UNL A   1      32.459  20.611  25.433  1.00  0.00     0.005 A 
ATOM     13  C   UNL A   1      32.827  21.471  23.288  1.00  0.00     0.009 A 
ATOM     14  C   UNL A   1      32.611  21.932  25.948  1.00  0.00     0.026 A 
ATOM     15  C   UNL A   1      32.785  23.315  25.142  1.00  0.00     0.042 A 
BRANCH  15  16
ATOM     16  N   UNL A   1      32.014  25.075  25.734  1.00  0.00    -0.353 N 
ATOM     17  H   UNL A   1      31.726  25.070  26.676  1.00  0.00     0.167 HD
BRANCH  16  18
ATOM     18  C   UNL A   1      31.729  26.692  24.904  1.00  0.00     0.076 A 
ATOM     19  C   UNL A   1      31.581  28.091  25.574  1.00  0.00     0.067 A 
ATOM     20  C   UNL A   1      31.208  26.702  23.584  1.00  0.00     0.067 A 
ATOM     21  Cl  UNL A   1      31.832  28.750  27.230  1.00  0.00    -0.082 Cl
ATOM     22  C   UNL A   1      30.995  29.201  24.922  1.00  0.00     0.043 A 
ATOM     23  C   UNL A   1      30.514  27.838  23.045  1.00  0.00     0.043 A 
ATOM     24  Cl  UNL A   1      31.456  25.529  22.395  1.00  0.00    -0.082 Cl
ATOM     25  C   UNL A   1      30.401  29.051  23.702  1.00  0.00     0.044 A 
ATOM     26  Cl  UNL A   1      29.486  30.360  23.058  1.00  0.00    -0.084 Cl
ENDBRANCH  16  18
ENDBRANCH  15  16
ENDBRANCH   8   9
ENDBRANCH   6   8
ENDBRANCH   5   6
ENDBRANCH   4   5
ENDBRANCH   3   4
ENDBRANCH   2   3
ENDBRANCH   1   2
BRANCH   1  27
ATOM     27  C   UNL A   1      42.289  23.148  25.998  1.00  0.00     0.188 C 
BRANCH  27  28
ATOM     28  O   UNL A   1      43.492  22.559  25.564  1.00  0.00    -0.376 OA
BRANCH  28  29
ATOM     29  C   UNL A   1      44.598  22.795  26.436  1.00  0.00     0.202 C 
BRANCH  29  30
ATOM     30  C   UNL A   1      45.882  23.607  25.932  1.00  0.00     0.261 C 
BRANCH  30  31
ATOM     31  O   UNL A   1      46.530  24.556  26.888  1.00  0.00    -0.460 OA
BRANCH  31  32
ATOM     32  C   UNL A   1      47.453  25.592  26.564  1.00  0.00     0.338 C 
ATOM     33  O   UNL A   1      47.687  25.804  25.389  1.00  0.00    -0.246 OA
BRANCH  32  34
ATOM     34  C   UNL A   1      48.039  26.455  27.935  1.00  0.00     0.060 A 
ATOM     35  C   UNL A   1      49.218  26.164  29.475  1.00  0.00     0.016 A 
ATOM     36  C   UNL A   1      46.292  26.558  28.394  1.00  0.00     0.016 A 
ATOM     37  C   UNL A   1      48.442  25.823  31.169  1.00  0.00     0.010 A 
ATOM     38  C   UNL A   1      45.718  26.104  29.977  1.00  0.00     0.010 A 
ATOM     39  C   UNL A   1      46.642  25.741  31.464  1.00  0.00    -0.014 A 
BRANCH  39  40
ATOM     40  C   UNL A   1      45.550  25.683  33.011  1.00  0.00     0.031 A 
ATOM     41  C   UNL A   1      44.288  26.997  33.629  1.00  0.00     0.074 A 
ATOM     42  C   UNL A   1      45.316  24.542  33.692  1.00  0.00     0.049 A 
ATOM     43  N   UNL A   1      44.311  27.708  34.746  1.00  0.00    -0.248 NA
ATOM     44  C   UNL A   1      43.242  27.934  32.715  1.00  0.00     0.031 C 
ATOM     45  C   UNL A   1      44.193  24.280  34.609  1.00  0.00     0.029 A 
ATOM     46  N   UNL A   1      45.954  23.309  33.632  1.00  0.00    -0.354 N 
ATOM     47  C   UNL A   1      43.358  28.782  34.609  1.00  0.00     0.074 A 
ATOM     48  C   UNL A   1      43.278  29.130  33.253  1.00  0.00     0.031 C 
ATOM     49  C   UNL A   1      44.406  23.119  35.256  1.00  0.00     0.029 A 
ATOM     50  C   UNL A   1      45.731  22.672  34.867  1.00  0.00     0.049 A 
ATOM     51  H   UNL A   1      46.465  22.951  32.871  1.00  0.00     0.167 HD
ATOM     52  C   UNL A   1      42.227  28.897  35.382  1.00  0.00     0.037 A 
ATOM     53  C   UNL A   1      46.814  22.549  35.674  1.00  0.00     0.037 A 
ATOM     54  C   UNL A   1      42.262  27.779  36.295  1.00  0.00     0.049 A 
ATOM     55  C   UNL A   1      46.663  23.560  36.805  1.00  0.00     0.074 A 
ATOM     56  C   UNL A   1      41.642  26.543  36.333  1.00  0.00     0.029 A 
ATOM     57  N   UNL A   1      43.420  27.657  37.038  1.00  0.00    -0.354 N 
ATOM     58  N   UNL A   1      45.916  24.641  36.729  1.00  0.00    -0.248 NA
ATOM     59  C   UNL A   1      47.111  23.312  38.172  1.00  0.00     0.031 C 
ATOM     60  C   UNL A   1      42.491  25.667  37.087  1.00  0.00     0.029 A 
ATOM     61  C   UNL A   1      43.630  26.367  37.464  1.00  0.00     0.049 A 
ATOM     62  H   UNL A   1      44.025  28.407  37.238  1.00  0.00     0.167 HD
ATOM     63  C   UNL A   1      45.684  25.143  37.977  1.00  0.00     0.074 A 
ATOM     64  C   UNL A   1      46.488  24.299  38.842  1.00  0.00     0.031 C 
ATOM     65  C   UNL A   1      44.803  26.142  38.293  1.00  0.00     0.037 A 
BRANCH  52  66
ATOM     66  C   UNL A   1      40.982  29.763  35.029  1.00  0.00     0.058 A 
ATOM     67  C   UNL A   1      40.814  31.036  35.613  1.00  0.00     0.135 A 
ATOM     68  C   UNL A   1      39.945  29.431  34.106  1.00  0.00     0.135 A 
ATOM     69  F   UNL A   1      41.713  31.521  36.478  1.00  0.00    -0.206 F 
ATOM     70  C   UNL A   1      39.733  31.889  35.325  1.00  0.00     0.059 A 
ATOM     71  C   UNL A   1      38.814  30.233  33.862  1.00  0.00     0.059 A 
ATOM     72  F   UNL A   1      40.005  28.334  33.337  1.00  0.00    -0.206 F 
ATOM     73  C   UNL A   1      38.734  31.483  34.449  1.00  0.00     0.060 A 
BRANCH  73  74
ATOM     74  S   UNL A   1      37.409  32.639  34.022  1.00  0.00     0.124 S 
ATOM     75  O   UNL A   1      36.698  31.922  32.967  1.00  0.00    -0.237 OA
ATOM     76  O   UNL A   1      36.701  32.767  35.291  1.00  0.00    -0.237 OA
ATOM     77  O   UNL A   1      38.123  33.835  33.582  1.00  0.00    -0.744 OA
ENDBRANCH  73  74
ENDBRANCH  52  66
BRANCH  53  78
ATOM     78  C   UNL A   1      47.967  22.053  34.832  1.00  0.00     0.058 A 
ATOM     79  C   UNL A   1      49.091  22.927  34.744  1.00  0.00     0.135 A 
ATOM     80  C   UNL A   1      48.235  20.702  34.554  1.00  0.00     0.135 A 
ATOM     81  F   UNL A   1      48.952  24.220  35.091  1.00  0.00    -0.206 F 
ATOM     82  C   UNL A   1      50.383  22.499  34.424  1.00  0.00     0.059 A 
ATOM     83  C   UNL A   1      49.529  20.251  34.211  1.00  0.00     0.059 A 
ATOM     84  F   UNL A   1      47.272  19.780  34.700  1.00  0.00    -0.206 F 
ATOM     85  C   UNL A   1      50.588  21.162  34.114  1.00  0.00     0.060 A 
BRANCH  85  86
ATOM     86  S   UNL A   1      52.234  20.635  33.542  1.00  0.00     0.124 S 
ATOM     87  O   UNL A   1      53.104  21.526  34.299  1.00  0.00    -0.237 OA
ATOM     88  O   UNL A   1      52.308  19.228  33.936  1.00  0.00    -0.237 OA
ATOM     89  O   UNL A   1      52.184  20.881  32.104  1.00  0.00    -0.744 OA
ENDBRANCH  85  86
ENDBRANCH  53  78
BRANCH  65  90
ATOM     90  C   UNL A   1      45.013  27.083  39.468  1.00  0.00     0.058 A 
ATOM     91  C   UNL A   1      44.692  26.735  40.788  1.00  0.00     0.135 A 
ATOM     92  C   UNL A   1      45.742  28.298  39.323  1.00  0.00     0.135 A 
ATOM     93  F   UNL A   1      44.145  25.552  41.097  1.00  0.00    -0.206 F 
ATOM     94  C   UNL A   1      44.945  27.584  41.857  1.00  0.00     0.059 A 
ATOM     95  C   UNL A   1      46.127  29.086  40.394  1.00  0.00     0.059 A 
ATOM     96  F   UNL A   1      46.126  28.774  38.129  1.00  0.00    -0.206 F 
ATOM     97  C   UNL A   1      45.656  28.758  41.649  1.00  0.00     0.060 A 
BRANCH  97  98
ATOM     98  S   UNL A   1      45.912  29.885  43.016  1.00  0.00     0.124 S 
ATOM     99  O   UNL A   1      46.040  28.946  44.127  1.00  0.00    -0.237 OA
ATOM    100  O   UNL A   1      47.137  30.580  42.631  1.00  0.00    -0.237 OA
ATOM    101  O   UNL A   1      44.705  30.703  43.016  1.00  0.00    -0.744 OA
ENDBRANCH  97  98
ENDBRANCH  65  90
ENDBRANCH  39  40
ENDBRANCH  32  34
ENDBRANCH  31  32
ENDBRANCH  30  31
ENDBRANCH  29  30
ENDBRANCH  28  29
ENDBRANCH  27  28
ENDBRANCH   1  27
TORSDOF 23
ENDMDL
